MODEL 1
REMARK VINA RESULT:     -12.7      0.000      0.000
REMARK SMILES O=C(NCCCCCCNC(=O)c1sccc1S(=O)(=O)Nc1ccccc1N1CCCCC1)c1ccc(-c2c3nc(c(-c4c(F)c(F)c(F)c(F)c4F)c4ccc([nH]4)c(-c4c(F)c(F)c(F)c(F)c4F)c4nc(c(-c5c(F)c(F)c(F)c(F)c5F)c5ccc2[nH]5)C=C4)C=C3)cc1
REMARK SMILES IDX 7 1 6 2 5 3 4 4 3 5 1 6 2 7 34 9 35 10 96 11 36 12 95 13
REMARK SMILES IDX 37 14 38 15 39 16 89 17 40 18 94 19 88 20 90 21 41 22 93 23
REMARK SMILES IDX 87 24 86 25 42 27 74 28 54 29 73 30 55 31 58 32 72 33 91 34
REMARK SMILES IDX 56 35 57 36 71 38 92 39 59 40 43 41 44 42 52 43 45 44 46 45
REMARK SMILES IDX 50 46 53 47 47 48 48 49 51 50 49 51 75 52 76 53 84 54 77 55
REMARK SMILES IDX 78 56 82 57 85 58 79 59 80 60 83 61 81 62 60 63 61 64 69 65
REMARK SMILES IDX 62 66 63 67 67 68 70 69 64 70 65 71 68 72 66 73 8 74 9 75
REMARK SMILES IDX 10 76 11 77 12 79 13 80 14 81 17 82 15 83 16 84 18 85 19 86
REMARK SMILES IDX 20 87 21 88 22 90 23 91 27 92 24 93 26 94 25 95 28 96 29 97
REMARK SMILES IDX 33 98 30 99 32 100 31 101
REMARK H PARENT 3 8 90 26 58 37 10 78 21 89
REMARK Flexibility Score: inf
ROOT
ATOM      1  C   UNL A   1      32.180  29.598  27.091  1.00  0.00     0.002 C 
ENDROOT
BRANCH   1   2
ATOM      2  C   UNL A   1      31.764  30.731  26.143  1.00  0.00     0.002 C 
BRANCH   2   3
ATOM      3  C   UNL A   1      31.450  32.077  26.785  1.00  0.00     0.021 C 
BRANCH   3   4
ATOM      4  C   UNL A   1      32.655  32.805  27.343  1.00  0.00     0.116 C 
BRANCH   4   5
ATOM      5  N   UNL A   1      32.378  34.183  27.698  1.00  0.00    -0.352 N 
ATOM      6  O   UNL A   1      32.664  36.079  28.899  1.00  0.00    -0.269 OA
ATOM      7  C   UNL A   1      33.042  34.954  28.622  1.00  0.00     0.251 C 
ATOM      8  H   UNL A   1      31.631  34.615  27.225  1.00  0.00     0.163 HD
BRANCH   7   9
ATOM      9  C   UNL A   1      34.216  34.365  29.301  1.00  0.00     0.039 A 
ATOM     10  C   UNL A   1      34.054  33.650  30.493  1.00  0.00     0.014 A 
ATOM     11  C   UNL A   1      35.484  34.572  28.759  1.00  0.00     0.014 A 
ATOM     12  C   UNL A   1      35.171  33.228  31.196  1.00  0.00     0.010 A 
ATOM     13  C   UNL A   1      36.601  34.067  29.421  1.00  0.00     0.010 A 
ATOM     14  C   UNL A   1      36.451  33.393  30.644  1.00  0.00    -0.014 A 
BRANCH  14  15
ATOM     15  C   UNL A   1      37.604  32.713  31.275  1.00  0.00     0.031 A 
ATOM     16  C   UNL A   1      38.282  31.548  30.621  1.00  0.00     0.074 A 
ATOM     17  C   UNL A   1      37.999  33.155  32.485  1.00  0.00     0.049 A 
ATOM     18  N   UNL A   1      39.246  30.796  31.086  1.00  0.00    -0.248 NA
ATOM     19  C   UNL A   1      37.816  31.168  29.279  1.00  0.00     0.031 C 
ATOM     20  C   UNL A   1      37.385  34.272  33.213  1.00  0.00     0.029 A 
ATOM     21  N   UNL A   1      38.994  32.725  33.322  1.00  0.00    -0.354 N 
ATOM     22  C   UNL A   1      39.485  29.838  30.110  1.00  0.00     0.074 A 
ATOM     23  C   UNL A   1      38.561  30.099  29.026  1.00  0.00     0.031 C 
ATOM     24  C   UNL A   1      38.024  34.447  34.375  1.00  0.00     0.029 A 
ATOM     25  C   UNL A   1      39.040  33.412  34.510  1.00  0.00     0.049 A 
ATOM     26  H   UNL A   1      39.615  31.996  33.094  1.00  0.00     0.167 HD
ATOM     27  C   UNL A   1      40.396  28.837  30.133  1.00  0.00     0.037 A 
ATOM     28  C   UNL A   1      39.784  33.202  35.610  1.00  0.00     0.037 A 
ATOM     29  C   UNL A   1      41.325  28.615  31.211  1.00  0.00     0.049 A 
ATOM     30  C   UNL A   1      40.760  32.064  35.610  1.00  0.00     0.074 A 
ATOM     31  C   UNL A   1      42.352  27.689  31.288  1.00  0.00     0.029 A 
ATOM     32  N   UNL A   1      41.333  29.320  32.407  1.00  0.00    -0.354 N 
ATOM     33  N   UNL A   1      41.027  31.208  34.654  1.00  0.00    -0.248 NA
ATOM     34  C   UNL A   1      41.529  31.852  36.842  1.00  0.00     0.031 C 
ATOM     35  C   UNL A   1      42.939  27.792  32.552  1.00  0.00     0.029 A 
ATOM     36  C   UNL A   1      42.313  28.816  33.246  1.00  0.00     0.049 A 
ATOM     37  H   UNL A   1      40.730  30.067  32.626  1.00  0.00     0.167 HD
ATOM     38  C   UNL A   1      41.995  30.359  35.164  1.00  0.00     0.074 A 
ATOM     39  C   UNL A   1      42.292  30.822  36.505  1.00  0.00     0.031 C 
ATOM     40  C   UNL A   1      42.581  29.287  34.581  1.00  0.00     0.037 A 
BRANCH  27  41
ATOM     41  C   UNL A   1      40.436  27.882  28.977  1.00  0.00     0.064 A 
ATOM     42  C   UNL A   1      39.671  26.707  28.958  1.00  0.00     0.173 A 
ATOM     43  C   UNL A   1      41.173  28.203  27.825  1.00  0.00     0.173 A 
ATOM     44  F   UNL A   1      38.953  26.353  30.034  1.00  0.00    -0.203 F 
ATOM     45  C   UNL A   1      39.646  25.887  27.832  1.00  0.00     0.198 A 
ATOM     46  C   UNL A   1      41.129  27.393  26.694  1.00  0.00     0.198 A 
ATOM     47  F   UNL A   1      41.916  29.320  27.789  1.00  0.00    -0.203 F 
ATOM     48  F   UNL A   1      38.920  24.760  27.842  1.00  0.00    -0.200 F 
ATOM     49  C   UNL A   1      40.366  26.236  26.698  1.00  0.00     0.200 A 
ATOM     50  F   UNL A   1      41.814  27.739  25.596  1.00  0.00    -0.200 F 
ATOM     51  F   UNL A   1      40.322  25.456  25.609  1.00  0.00    -0.200 F 
ENDBRANCH  27  41
BRANCH  28  52
ATOM     52  C   UNL A   1      39.589  34.057  36.809  1.00  0.00     0.064 A 
ATOM     53  C   UNL A   1      38.806  33.626  37.886  1.00  0.00     0.173 A 
ATOM     54  C   UNL A   1      40.188  35.323  36.902  1.00  0.00     0.173 A 
ATOM     55  F   UNL A   1      38.199  32.430  37.836  1.00  0.00    -0.203 F 
ATOM     56  C   UNL A   1      38.611  34.437  39.003  1.00  0.00     0.198 A 
ATOM     57  C   UNL A   1      40.022  36.118  38.033  1.00  0.00     0.198 A 
ATOM     58  F   UNL A   1      40.955  35.780  35.900  1.00  0.00    -0.203 F 
ATOM     59  F   UNL A   1      37.818  34.020  39.998  1.00  0.00    -0.200 F 
ATOM     60  C   UNL A   1      39.224  35.678  39.078  1.00  0.00     0.200 A 
ATOM     61  F   UNL A   1      40.632  37.308  38.109  1.00  0.00    -0.200 F 
ATOM     62  F   UNL A   1      39.041  36.455  40.154  1.00  0.00    -0.200 F 
ENDBRANCH  28  52
BRANCH  40  63
ATOM     63  C   UNL A   1      43.598  28.545  35.392  1.00  0.00     0.064 A 
ATOM     64  C   UNL A   1      44.960  28.876  35.330  1.00  0.00     0.173 A 
ATOM     65  C   UNL A   1      43.206  27.520  36.265  1.00  0.00     0.173 A 
ATOM     66  F   UNL A   1      45.384  29.834  34.493  1.00  0.00    -0.203 F 
ATOM     67  C   UNL A   1      45.895  28.193  36.101  1.00  0.00     0.198 A 
ATOM     68  C   UNL A   1      44.141  26.859  37.056  1.00  0.00     0.198 A 
ATOM     69  F   UNL A   1      41.915  27.169  36.360  1.00  0.00    -0.203 F 
ATOM     70  F   UNL A   1      47.196  28.496  35.995  1.00  0.00    -0.200 F 
ATOM     71  C   UNL A   1      45.485  27.192  36.969  1.00  0.00     0.200 A 
ATOM     72  F   UNL A   1      43.742  25.900  37.902  1.00  0.00    -0.200 F 
ATOM     73  F   UNL A   1      46.386  26.543  37.718  1.00  0.00    -0.200 F 
ENDBRANCH  40  63
ENDBRANCH  14  15
ENDBRANCH   7   9
ENDBRANCH   4   5
ENDBRANCH   3   4
ENDBRANCH   2   3
ENDBRANCH   1   2
BRANCH   1  74
ATOM     74  C   UNL A   1      33.642  29.136  26.998  1.00  0.00     0.021 C 
BRANCH  74  75
ATOM     75  C   UNL A   1      33.897  28.128  25.887  1.00  0.00     0.116 C 
BRANCH  75  76
ATOM     76  N   UNL A   1      34.002  28.768  24.602  1.00  0.00    -0.351 N 
ATOM     77  C   UNL A   1      33.352  28.471  23.439  1.00  0.00     0.262 C 
ATOM     78  H   UNL A   1      34.629  29.526  24.557  1.00  0.00     0.163 HD
ATOM     79  O   UNL A   1      33.819  28.976  22.415  1.00  0.00    -0.268 OA
BRANCH  77  80
ATOM     80  C   UNL A   1      32.236  27.550  23.422  1.00  0.00     0.112 A 
ATOM     81  S   UNL A   1      30.686  28.327  23.510  1.00  0.00    -0.137 S 
ATOM     82  C   UNL A   1      32.102  26.168  23.430  1.00  0.00     0.111 A 
ATOM     83  C   UNL A   1      29.848  26.851  23.546  1.00  0.00     0.067 A 
ATOM     84  C   UNL A   1      30.708  25.784  23.480  1.00  0.00     0.035 A 
BRANCH  82  85
ATOM     85  S   UNL A   1      33.302  24.917  23.304  1.00  0.00     0.263 S 
ATOM     86  O   UNL A   1      32.518  23.719  23.061  1.00  0.00    -0.201 OA
ATOM     87  O   UNL A   1      34.144  25.385  22.220  1.00  0.00    -0.201 OA
BRANCH  85  88
ATOM     88  N   UNL A   1      34.335  24.506  24.552  1.00  0.00    -0.277 N 
ATOM     89  H   UNL A   1      34.454  25.160  25.279  1.00  0.00     0.180 HD
BRANCH  88  90
ATOM     90  C   UNL A   1      35.055  23.280  24.640  1.00  0.00     0.072 A 
ATOM     91  C   UNL A   1      36.222  23.173  23.868  1.00  0.00     0.029 A 
ATOM     92  C   UNL A   1      34.595  22.189  25.406  1.00  0.00     0.061 A 
ATOM     93  C   UNL A   1      37.018  22.033  23.929  1.00  0.00     0.002 A 
ATOM     94  C   UNL A   1      35.422  21.051  25.450  1.00  0.00     0.028 A 
ATOM     95  C   UNL A   1      36.626  20.977  24.737  1.00  0.00     0.002 A 
BRANCH  92  96
ATOM     96  N   UNL A   1      33.370  22.184  26.054  1.00  0.00    -0.370 N 
ATOM     97  C   UNL A   1      32.260  21.357  25.586  1.00  0.00     0.116 C 
ATOM     98  C   UNL A   1      33.133  23.090  27.178  1.00  0.00     0.116 C 
ATOM     99  C   UNL A   1      31.013  22.198  25.349  1.00  0.00     0.021 C 
ATOM    100  C   UNL A   1      31.887  23.934  26.922  1.00  0.00     0.021 C 
ATOM    101  C   UNL A   1      30.693  23.050  26.574  1.00  0.00     0.004 C 
ENDBRANCH  92  96
ENDBRANCH  88  90
ENDBRANCH  85  88
ENDBRANCH  82  85
ENDBRANCH  77  80
ENDBRANCH  75  76
ENDBRANCH  74  75
ENDBRANCH   1  74
TORSDOF 17
ENDMDL
MODEL 2
REMARK VINA RESULT:     -12.3      5.322     10.968
REMARK SMILES O=C(NCCCCCCNC(=O)c1sccc1S(=O)(=O)Nc1ccccc1N1CCCCC1)c1ccc(-c2c3nc(c(-c4c(F)c(F)c(F)c(F)c4F)c4ccc([nH]4)c(-c4c(F)c(F)c(F)c(F)c4F)c4nc(c(-c5c(F)c(F)c(F)c(F)c5F)c5ccc2[nH]5)C=C4)C=C3)cc1
REMARK SMILES IDX 7 1 6 2 5 3 4 4 3 5 1 6 2 7 34 9 35 10 96 11 36 12 95 13
REMARK SMILES IDX 37 14 38 15 39 16 89 17 40 18 94 19 88 20 90 21 41 22 93 23
REMARK SMILES IDX 87 24 86 25 42 27 74 28 54 29 73 30 55 31 58 32 72 33 91 34
REMARK SMILES IDX 56 35 57 36 71 38 92 39 59 40 43 41 44 42 52 43 45 44 46 45
REMARK SMILES IDX 50 46 53 47 47 48 48 49 51 50 49 51 75 52 76 53 84 54 77 55
REMARK SMILES IDX 78 56 82 57 85 58 79 59 80 60 83 61 81 62 60 63 61 64 69 65
REMARK SMILES IDX 62 66 63 67 67 68 70 69 64 70 65 71 68 72 66 73 8 74 9 75
REMARK SMILES IDX 10 76 11 77 12 79 13 80 14 81 17 82 15 83 16 84 18 85 19 86
REMARK SMILES IDX 20 87 21 88 22 90 23 91 27 92 24 93 26 94 25 95 28 96 29 97
REMARK SMILES IDX 33 98 30 99 32 100 31 101
REMARK H PARENT 3 8 90 26 58 37 10 78 21 89
REMARK Flexibility Score: inf
ROOT
ATOM      1  C   UNL A   1      36.060  21.893  24.759  1.00  0.00     0.002 C 
ENDROOT
BRANCH   1   2
ATOM      2  C   UNL A   1      37.413  21.344  24.289  1.00  0.00     0.002 C 
BRANCH   2   3
ATOM      3  C   UNL A   1      37.912  20.079  24.976  1.00  0.00     0.021 C 
BRANCH   3   4
ATOM      4  C   UNL A   1      39.051  20.297  25.949  1.00  0.00     0.116 C 
BRANCH   4   5
ATOM      5  N   UNL A   1      40.056  19.253  25.899  1.00  0.00    -0.352 N 
ATOM      6  O   UNL A   1      42.172  18.451  25.925  1.00  0.00    -0.269 OA
ATOM      7  C   UNL A   1      41.412  19.393  26.074  1.00  0.00     0.251 C 
ATOM      8  H   UNL A   1      39.730  18.342  25.721  1.00  0.00     0.163 HD
BRANCH   7   9
ATOM      9  C   UNL A   1      41.932  20.734  26.416  1.00  0.00     0.039 A 
ATOM     10  C   UNL A   1      42.129  21.689  25.413  1.00  0.00     0.014 A 
ATOM     11  C   UNL A   1      42.262  21.012  27.742  1.00  0.00     0.014 A 
ATOM     12  C   UNL A   1      42.751  22.889  25.722  1.00  0.00     0.010 A 
ATOM     13  C   UNL A   1      42.803  22.255  28.066  1.00  0.00     0.010 A 
ATOM     14  C   UNL A   1      43.052  23.199  27.057  1.00  0.00    -0.014 A 
BRANCH  14  15
ATOM     15  C   UNL A   1      43.473  24.576  27.402  1.00  0.00     0.031 A 
ATOM     16  C   UNL A   1      42.499  25.585  27.927  1.00  0.00     0.074 A 
ATOM     17  C   UNL A   1      44.762  24.902  27.187  1.00  0.00     0.049 A 
ATOM     18  N   UNL A   1      42.696  26.851  28.193  1.00  0.00    -0.248 NA
ATOM     19  C   UNL A   1      41.125  25.125  28.178  1.00  0.00     0.031 C 
ATOM     20  C   UNL A   1      45.782  23.990  26.657  1.00  0.00     0.029 A 
ATOM     21  N   UNL A   1      45.438  26.078  27.374  1.00  0.00    -0.354 N 
ATOM     22  C   UNL A   1      41.470  27.347  28.615  1.00  0.00     0.074 A 
ATOM     23  C   UNL A   1      40.530  26.247  28.566  1.00  0.00     0.031 C 
ATOM     24  C   UNL A   1      46.953  24.635  26.576  1.00  0.00     0.029 A 
ATOM     25  C   UNL A   1      46.750  26.021  26.975  1.00  0.00     0.049 A 
ATOM     26  H   UNL A   1      45.024  26.886  27.757  1.00  0.00     0.167 HD
ATOM     27  C   UNL A   1      41.172  28.609  29.004  1.00  0.00     0.037 A 
ATOM     28  C   UNL A   1      47.680  26.990  26.891  1.00  0.00     0.037 A 
ATOM     29  C   UNL A   1      42.132  29.680  29.072  1.00  0.00     0.049 A 
ATOM     30  C   UNL A   1      47.303  28.382  27.300  1.00  0.00     0.074 A 
ATOM     31  C   UNL A   1      41.953  30.970  29.545  1.00  0.00     0.029 A 
ATOM     32  N   UNL A   1      43.450  29.591  28.645  1.00  0.00    -0.354 N 
ATOM     33  N   UNL A   1      46.160  28.824  27.765  1.00  0.00    -0.248 NA
ATOM     34  C   UNL A   1      48.338  29.414  27.163  1.00  0.00     0.031 C 
ATOM     35  C   UNL A   1      43.143  31.677  29.346  1.00  0.00     0.029 A 
ATOM     36  C   UNL A   1      44.080  30.816  28.796  1.00  0.00     0.049 A 
ATOM     37  H   UNL A   1      43.873  28.778  28.286  1.00  0.00     0.167 HD
ATOM     38  C   UNL A   1      46.336  30.181  27.980  1.00  0.00     0.074 A 
ATOM     39  C   UNL A   1      47.708  30.485  27.624  1.00  0.00     0.031 C 
ATOM     40  C   UNL A   1      45.442  31.096  28.423  1.00  0.00     0.037 A 
BRANCH  27  41
ATOM     41  C   UNL A   1      39.752  28.926  29.370  1.00  0.00     0.064 A 
ATOM     42  C   UNL A   1      38.816  29.346  28.414  1.00  0.00     0.173 A 
ATOM     43  C   UNL A   1      39.298  28.705  30.680  1.00  0.00     0.173 A 
ATOM     44  F   UNL A   1      39.200  29.576  27.150  1.00  0.00    -0.203 F 
ATOM     45  C   UNL A   1      37.479  29.538  28.758  1.00  0.00     0.198 A 
ATOM     46  C   UNL A   1      37.958  28.877  31.015  1.00  0.00     0.198 A 
ATOM     47  F   UNL A   1      40.153  28.296  31.630  1.00  0.00    -0.203 F 
ATOM     48  F   UNL A   1      36.605  29.955  27.832  1.00  0.00    -0.200 F 
ATOM     49  C   UNL A   1      37.050  29.293  30.054  1.00  0.00     0.200 A 
ATOM     50  F   UNL A   1      37.544  28.627  32.265  1.00  0.00    -0.200 F 
ATOM     51  F   UNL A   1      35.760  29.457  30.376  1.00  0.00    -0.200 F 
ENDBRANCH  27  41
BRANCH  28  52
ATOM     52  C   UNL A   1      49.027  26.677  26.350  1.00  0.00     0.064 A 
ATOM     53  C   UNL A   1      50.042  26.179  27.177  1.00  0.00     0.173 A 
ATOM     54  C   UNL A   1      49.324  26.865  24.991  1.00  0.00     0.173 A 
ATOM     55  F   UNL A   1      49.810  25.998  28.486  1.00  0.00    -0.203 F 
ATOM     56  C   UNL A   1      51.309  25.902  26.670  1.00  0.00     0.198 A 
ATOM     57  C   UNL A   1      50.581  26.554  24.479  1.00  0.00     0.198 A 
ATOM     58  F   UNL A   1      48.385  27.332  24.155  1.00  0.00    -0.203 F 
ATOM     59  F   UNL A   1      52.276  25.472  27.492  1.00  0.00    -0.200 F 
ATOM     60  C   UNL A   1      51.576  26.083  25.321  1.00  0.00     0.200 A 
ATOM     61  F   UNL A   1      50.827  26.714  23.171  1.00  0.00    -0.200 F 
ATOM     62  F   UNL A   1      52.794  25.811  24.834  1.00  0.00    -0.200 F 
ENDBRANCH  28  52
BRANCH  40  63
ATOM     63  C   UNL A   1      45.924  32.510  28.545  1.00  0.00     0.064 A 
ATOM     64  C   UNL A   1      46.495  32.983  29.736  1.00  0.00     0.173 A 
ATOM     65  C   UNL A   1      45.846  33.387  27.454  1.00  0.00     0.173 A 
ATOM     66  F   UNL A   1      46.569  32.186  30.812  1.00  0.00    -0.203 F 
ATOM     67  C   UNL A   1      46.955  34.292  29.834  1.00  0.00     0.198 A 
ATOM     68  C   UNL A   1      46.335  34.686  27.547  1.00  0.00     0.198 A 
ATOM     69  F   UNL A   1      45.309  32.979  26.294  1.00  0.00    -0.203 F 
ATOM     70  F   UNL A   1      47.458  34.738  30.993  1.00  0.00    -0.200 F 
ATOM     71  C   UNL A   1      46.883  35.140  28.738  1.00  0.00     0.200 A 
ATOM     72  F   UNL A   1      46.274  35.501  26.485  1.00  0.00    -0.200 F 
ATOM     73  F   UNL A   1      47.336  36.397  28.831  1.00  0.00    -0.200 F 
ENDBRANCH  40  63
ENDBRANCH  14  15
ENDBRANCH   7   9
ENDBRANCH   4   5
ENDBRANCH   3   4
ENDBRANCH   2   3
ENDBRANCH   1   2
BRANCH   1  74
ATOM     74  C   UNL A   1      36.075  22.731  26.046  1.00  0.00     0.021 C 
BRANCH  74  75
ATOM     75  C   UNL A   1      34.949  23.749  26.129  1.00  0.00     0.116 C 
BRANCH  75  76
ATOM     76  N   UNL A   1      33.901  23.313  27.013  1.00  0.00    -0.351 N 
ATOM     77  C   UNL A   1      32.665  22.823  26.705  1.00  0.00     0.262 C 
ATOM     78  H   UNL A   1      34.106  23.376  27.975  1.00  0.00     0.163 HD
ATOM     79  O   UNL A   1      31.851  22.787  27.631  1.00  0.00    -0.268 OA
BRANCH  77  80
ATOM     80  C   UNL A   1      32.326  22.452  25.348  1.00  0.00     0.112 A 
ATOM     81  S   UNL A   1      32.669  20.793  24.969  1.00  0.00    -0.137 S 
ATOM     82  C   UNL A   1      31.857  23.132  24.232  1.00  0.00     0.111 A 
ATOM     83  C   UNL A   1      32.191  20.970  23.351  1.00  0.00     0.067 A 
ATOM     84  C   UNL A   1      31.766  22.248  23.089  1.00  0.00     0.035 A 
BRANCH  82  85
ATOM     85  S   UNL A   1      31.314  24.774  24.055  1.00  0.00     0.263 S 
ATOM     86  O   UNL A   1      30.692  24.784  22.743  1.00  0.00    -0.201 OA
ATOM     87  O   UNL A   1      30.442  24.949  25.201  1.00  0.00    -0.201 OA
BRANCH  85  88
ATOM     88  N   UNL A   1      32.347  26.087  24.050  1.00  0.00    -0.277 N 
ATOM     89  H   UNL A   1      33.077  26.091  23.388  1.00  0.00     0.180 HD
BRANCH  88  90
ATOM     90  C   UNL A   1      32.249  27.200  24.933  1.00  0.00     0.072 A 
ATOM     91  C   UNL A   1      32.962  27.118  26.139  1.00  0.00     0.029 A 
ATOM     92  C   UNL A   1      31.425  28.311  24.658  1.00  0.00     0.061 A 
ATOM     93  C   UNL A   1      32.968  28.178  27.040  1.00  0.00     0.002 A 
ATOM     94  C   UNL A   1      31.453  29.368  25.587  1.00  0.00     0.028 A 
ATOM     95  C   UNL A   1      32.226  29.314  26.753  1.00  0.00     0.002 A 
BRANCH  92  96
ATOM     96  N   UNL A   1      30.577  28.368  23.563  1.00  0.00    -0.370 N 
ATOM     97  C   UNL A   1      30.969  29.042  22.327  1.00  0.00     0.116 C 
ATOM     98  C   UNL A   1      29.220  27.830  23.659  1.00  0.00     0.116 C 
ATOM     99  C   UNL A   1      29.942  30.091  21.926  1.00  0.00     0.021 C 
ATOM    100  C   UNL A   1      28.200  28.896  23.264  1.00  0.00     0.021 C 
ATOM    101  C   UNL A   1      28.538  29.494  21.901  1.00  0.00     0.004 C 
ENDBRANCH  92  96
ENDBRANCH  88  90
ENDBRANCH  85  88
ENDBRANCH  82  85
ENDBRANCH  77  80
ENDBRANCH  75  76
ENDBRANCH  74  75
ENDBRANCH   1  74
TORSDOF 17
ENDMDL
MODEL 3
REMARK VINA RESULT:     -12.0      1.243      7.308
REMARK SMILES O=C(NCCCCCCNC(=O)c1sccc1S(=O)(=O)Nc1ccccc1N1CCCCC1)c1ccc(-c2c3nc(c(-c4c(F)c(F)c(F)c(F)c4F)c4ccc([nH]4)c(-c4c(F)c(F)c(F)c(F)c4F)c4nc(c(-c5c(F)c(F)c(F)c(F)c5F)c5ccc2[nH]5)C=C4)C=C3)cc1
REMARK SMILES IDX 7 1 6 2 5 3 4 4 3 5 1 6 2 7 34 9 35 10 96 11 36 12 95 13
REMARK SMILES IDX 37 14 38 15 39 16 89 17 40 18 94 19 88 20 90 21 41 22 93 23
REMARK SMILES IDX 87 24 86 25 42 27 74 28 54 29 73 30 55 31 58 32 72 33 91 34
REMARK SMILES IDX 56 35 57 36 71 38 92 39 59 40 43 41 44 42 52 43 45 44 46 45
REMARK SMILES IDX 50 46 53 47 47 48 48 49 51 50 49 51 75 52 76 53 84 54 77 55
REMARK SMILES IDX 78 56 82 57 85 58 79 59 80 60 83 61 81 62 60 63 61 64 69 65
REMARK SMILES IDX 62 66 63 67 67 68 70 69 64 70 65 71 68 72 66 73 8 74 9 75
REMARK SMILES IDX 10 76 11 77 12 79 13 80 14 81 17 82 15 83 16 84 18 85 19 86
REMARK SMILES IDX 20 87 21 88 22 90 23 91 27 92 24 93 26 94 25 95 28 96 29 97
REMARK SMILES IDX 33 98 30 99 32 100 31 101
REMARK H PARENT 3 8 90 26 58 37 10 78 21 89
REMARK Flexibility Score: inf
ROOT
ATOM      1  C   UNL A   1      32.152  29.558  25.683  1.00  0.00     0.002 C 
ENDROOT
BRANCH   1   2
ATOM      2  C   UNL A   1      31.388  30.886  25.776  1.00  0.00     0.002 C 
BRANCH   2   3
ATOM      3  C   UNL A   1      31.559  31.682  27.064  1.00  0.00     0.021 C 
BRANCH   3   4
ATOM      4  C   UNL A   1      32.789  32.563  27.103  1.00  0.00     0.116 C 
BRANCH   4   5
ATOM      5  N   UNL A   1      32.506  33.927  27.504  1.00  0.00    -0.352 N 
ATOM      6  O   UNL A   1      32.738  35.763  28.807  1.00  0.00    -0.269 OA
ATOM      7  C   UNL A   1      33.121  34.646  28.501  1.00  0.00     0.251 C 
ATOM      8  H   UNL A   1      31.794  34.390  27.007  1.00  0.00     0.163 HD
BRANCH   7   9
ATOM      9  C   UNL A   1      34.245  34.012  29.221  1.00  0.00     0.039 A 
ATOM     10  C   UNL A   1      33.995  33.121  30.270  1.00  0.00     0.014 A 
ATOM     11  C   UNL A   1      35.550  34.350  28.866  1.00  0.00     0.014 A 
ATOM     12  C   UNL A   1      35.051  32.645  31.032  1.00  0.00     0.010 A 
ATOM     13  C   UNL A   1      36.616  33.798  29.576  1.00  0.00     0.010 A 
ATOM     14  C   UNL A   1      36.372  32.944  30.663  1.00  0.00    -0.014 A 
BRANCH  14  15
ATOM     15  C   UNL A   1      37.487  32.226  31.320  1.00  0.00     0.031 A 
ATOM     16  C   UNL A   1      37.973  32.612  32.684  1.00  0.00     0.074 A 
ATOM     17  C   UNL A   1      38.080  31.234  30.628  1.00  0.00     0.049 A 
ATOM     18  N   UNL A   1      38.992  32.138  33.354  1.00  0.00    -0.248 NA
ATOM     19  C   UNL A   1      37.233  33.672  33.385  1.00  0.00     0.031 C 
ATOM     20  C   UNL A   1      37.689  30.800  29.282  1.00  0.00     0.029 A 
ATOM     21  N   UNL A   1      39.134  30.418  30.944  1.00  0.00    -0.354 N 
ATOM     22  C   UNL A   1      39.034  32.855  34.541  1.00  0.00     0.074 A 
ATOM     23  C   UNL A   1      37.941  33.805  34.500  1.00  0.00     0.031 C 
ATOM     24  C   UNL A   1      38.480  29.791  28.895  1.00  0.00     0.029 A 
ATOM     25  C   UNL A   1      39.478  29.558  29.931  1.00  0.00     0.049 A 
ATOM     26  H   UNL A   1      39.598  30.446  31.812  1.00  0.00     0.167 HD
ATOM     27  C   UNL A   1      39.913  32.724  35.563  1.00  0.00     0.037 A 
ATOM     28  C   UNL A   1      40.515  28.708  29.823  1.00  0.00     0.037 A 
ATOM     29  C   UNL A   1      40.975  31.752  35.593  1.00  0.00     0.049 A 
ATOM     30  C   UNL A   1      41.486  28.613  30.961  1.00  0.00     0.074 A 
ATOM     31  C   UNL A   1      41.859  31.472  36.622  1.00  0.00     0.029 A 
ATOM     32  N   UNL A   1      41.305  30.907  34.542  1.00  0.00    -0.354 N 
ATOM     33  N   UNL A   1      41.474  29.247  32.109  1.00  0.00    -0.248 NA
ATOM     34  C   UNL A   1      42.619  27.697  30.789  1.00  0.00     0.031 C 
ATOM     35  C   UNL A   1      42.761  30.504  36.172  1.00  0.00     0.029 A 
ATOM     36  C   UNL A   1      42.410  30.143  34.880  1.00  0.00     0.049 A 
ATOM     37  H   UNL A   1      40.826  30.860  33.684  1.00  0.00     0.167 HD
ATOM     38  C   UNL A   1      42.593  28.805  32.797  1.00  0.00     0.074 A 
ATOM     39  C   UNL A   1      43.244  27.825  31.950  1.00  0.00     0.031 C 
ATOM     40  C   UNL A   1      43.047  29.182  34.016  1.00  0.00     0.037 A 
BRANCH  27  41
ATOM     41  C   UNL A   1      39.793  33.657  36.731  1.00  0.00     0.064 A 
ATOM     42  C   UNL A   1      40.439  34.901  36.756  1.00  0.00     0.173 A 
ATOM     43  C   UNL A   1      38.934  33.342  37.797  1.00  0.00     0.173 A 
ATOM     44  F   UNL A   1      41.273  35.248  35.765  1.00  0.00    -0.203 F 
ATOM     45  C   UNL A   1      40.233  35.793  37.807  1.00  0.00     0.198 A 
ATOM     46  C   UNL A   1      38.714  34.244  38.834  1.00  0.00     0.198 A 
ATOM     47  F   UNL A   1      38.287  32.166  37.817  1.00  0.00    -0.203 F 
ATOM     48  F   UNL A   1      40.872  36.971  37.818  1.00  0.00    -0.200 F 
ATOM     49  C   UNL A   1      39.363  35.468  38.838  1.00  0.00     0.200 A 
ATOM     50  F   UNL A   1      37.863  33.934  39.821  1.00  0.00    -0.200 F 
ATOM     51  F   UNL A   1      39.150  36.338  39.835  1.00  0.00    -0.200 F 
ENDBRANCH  27  41
BRANCH  28  52
ATOM     52  C   UNL A   1      40.706  27.931  28.572  1.00  0.00     0.064 A 
ATOM     53  C   UNL A   1      41.499  28.422  27.528  1.00  0.00     0.173 A 
ATOM     54  C   UNL A   1      40.103  26.675  28.399  1.00  0.00     0.173 A 
ATOM     55  F   UNL A   1      42.083  29.625  27.640  1.00  0.00    -0.203 F 
ATOM     56  C   UNL A   1      41.664  27.698  26.349  1.00  0.00     0.198 A 
ATOM     57  C   UNL A   1      40.297  25.936  27.235  1.00  0.00     0.198 A 
ATOM     58  F   UNL A   1      39.340  26.155  29.373  1.00  0.00    -0.203 F 
ATOM     59  F   UNL A   1      42.389  28.212  25.347  1.00  0.00    -0.200 F 
ATOM     60  C   UNL A   1      41.069  26.453  26.206  1.00  0.00     0.200 A 
ATOM     61  F   UNL A   1      39.735  24.727  27.110  1.00  0.00    -0.200 F 
ATOM     62  F   UNL A   1      41.233  25.755  25.075  1.00  0.00    -0.200 F 
ENDBRANCH  28  52
BRANCH  40  63
ATOM     63  C   UNL A   1      44.306  28.532  34.501  1.00  0.00     0.064 A 
ATOM     64  C   UNL A   1      45.564  29.082  34.217  1.00  0.00     0.173 A 
ATOM     65  C   UNL A   1      44.254  27.370  35.285  1.00  0.00     0.173 A 
ATOM     66  F   UNL A   1      45.664  30.180  33.451  1.00  0.00    -0.203 F 
ATOM     67  C   UNL A   1      46.728  28.481  34.686  1.00  0.00     0.198 A 
ATOM     68  C   UNL A   1      45.418  26.789  35.777  1.00  0.00     0.198 A 
ATOM     69  F   UNL A   1      43.073  26.808  35.584  1.00  0.00    -0.203 F 
ATOM     70  F   UNL A   1      47.922  28.999  34.367  1.00  0.00    -0.200 F 
ATOM     71  C   UNL A   1      46.654  27.341  35.472  1.00  0.00     0.200 A 
ATOM     72  F   UNL A   1      45.345  25.694  36.545  1.00  0.00    -0.200 F 
ATOM     73  F   UNL A   1      47.775  26.769  35.932  1.00  0.00    -0.200 F 
ENDBRANCH  40  63
ENDBRANCH  14  15
ENDBRANCH   7   9
ENDBRANCH   4   5
ENDBRANCH   3   4
ENDBRANCH   2   3
ENDBRANCH   1   2
BRANCH   1  74
ATOM     74  C   UNL A   1      33.215  29.461  24.579  1.00  0.00     0.021 C 
BRANCH  74  75
ATOM     75  C   UNL A   1      33.873  28.093  24.481  1.00  0.00     0.116 C 
BRANCH  75  76
ATOM     76  N   UNL A   1      33.938  27.630  23.121  1.00  0.00    -0.351 N 
ATOM     77  C   UNL A   1      33.046  26.859  22.433  1.00  0.00     0.262 C 
ATOM     78  H   UNL A   1      34.737  27.909  22.616  1.00  0.00     0.163 HD
ATOM     79  O   UNL A   1      33.459  26.364  21.380  1.00  0.00    -0.268 OA
BRANCH  77  80
ATOM     80  C   UNL A   1      31.730  26.583  22.966  1.00  0.00     0.112 A 
ATOM     81  S   UNL A   1      30.554  27.806  22.594  1.00  0.00    -0.137 S 
ATOM     82  C   UNL A   1      31.186  25.601  23.783  1.00  0.00     0.111 A 
ATOM     83  C   UNL A   1      29.339  27.037  23.494  1.00  0.00     0.067 A 
ATOM     84  C   UNL A   1      29.792  25.872  24.059  1.00  0.00     0.035 A 
BRANCH  82  85
ATOM     85  S   UNL A   1      31.885  24.136  24.406  1.00  0.00     0.263 S 
ATOM     86  O   UNL A   1      32.795  24.607  25.435  1.00  0.00    -0.201 OA
ATOM     87  O   UNL A   1      30.724  23.387  24.845  1.00  0.00    -0.201 OA
BRANCH  85  88
ATOM     88  N   UNL A   1      32.795  23.086  23.478  1.00  0.00    -0.277 N 
ATOM     89  H   UNL A   1      32.407  22.775  22.628  1.00  0.00     0.180 HD
BRANCH  88  90
ATOM     90  C   UNL A   1      34.091  22.608  23.827  1.00  0.00     0.072 A 
ATOM     91  C   UNL A   1      35.177  23.449  23.537  1.00  0.00     0.029 A 
ATOM     92  C   UNL A   1      34.300  21.326  24.375  1.00  0.00     0.061 A 
ATOM     93  C   UNL A   1      36.474  23.089  23.888  1.00  0.00     0.002 A 
ATOM     94  C   UNL A   1      35.622  20.991  24.723  1.00  0.00     0.028 A 
ATOM     95  C   UNL A   1      36.694  21.865  24.500  1.00  0.00     0.002 A 
BRANCH  92  96
ATOM     96  N   UNL A   1      33.283  20.397  24.530  1.00  0.00    -0.370 N 
ATOM     97  C   UNL A   1      32.955  19.833  25.838  1.00  0.00     0.116 C 
ATOM     98  C   UNL A   1      32.572  19.887  23.357  1.00  0.00     0.116 C 
ATOM     99  C   UNL A   1      32.992  18.312  25.803  1.00  0.00     0.021 C 
ATOM    100  C   UNL A   1      32.626  18.361  23.330  1.00  0.00     0.021 C 
ATOM    101  C   UNL A   1      32.144  17.775  24.654  1.00  0.00     0.004 C 
ENDBRANCH  92  96
ENDBRANCH  88  90
ENDBRANCH  85  88
ENDBRANCH  82  85
ENDBRANCH  77  80
ENDBRANCH  75  76
ENDBRANCH  74  75
ENDBRANCH   1  74
TORSDOF 17
ENDMDL
