MODEL 1
REMARK VINA RESULT:     -12.6      0.000      0.000
REMARK SMILES CC(C)c1ccc(C(=O)N2CCC[C@@H](C(=O)NCCCCCCNC(=O)c3ccc(-c4c5nc(c(-c6c(F)c(F)c(F)c(F)c6F)c6ccc([nH]6)c(-c6c(F)c(F)c(F)c(F)c6F)c6nc(c(-c7c(F)c(F)c(F)c(F)c7F)c7ccc4[nH]7)C=C6)C=C5)cc3)C2)cc1
REMARK SMILES IDX 20 1 19 2 18 3 17 4 15 5 16 6 14 8 10 9 11 10 90 11 12 12
REMARK SMILES IDX 13 13 8 14 9 15 7 16 4 17 5 18 92 19 6 20 91 21 2 22 1 23
REMARK SMILES IDX 3 24 21 25 22 26 23 27 24 28 25 29 26 31 27 32 28 33 89 34
REMARK SMILES IDX 29 35 88 36 30 37 31 38 32 39 82 40 33 41 87 42 81 43 83 44
REMARK SMILES IDX 34 45 86 46 80 47 79 48 35 50 67 51 47 52 66 53 48 54 51 55
REMARK SMILES IDX 65 56 84 57 49 58 50 59 64 61 85 62 52 63 36 64 37 65 45 66
REMARK SMILES IDX 38 67 39 68 43 69 46 70 40 71 41 72 44 73 42 74 68 75 69 76
REMARK SMILES IDX 77 77 70 78 71 79 75 80 78 81 72 82 73 83 76 84 74 85 53 86
REMARK SMILES IDX 54 87 62 88 55 89 56 90 60 91 63 92 57 93 58 94 61 95 59 96
REMARK H PARENT 17 7 24 30 83 49 51 60
REMARK Flexibility Score: inf
ROOT
ATOM      1  C   UNL A   1      32.900  30.220  26.286  1.00  0.00     0.002 C 
ENDROOT
BRANCH   1   2
ATOM      2  C   UNL A   1      32.854  28.821  26.914  1.00  0.00     0.021 C 
BRANCH   2   3
ATOM      3  C   UNL A   1      31.570  28.549  27.697  1.00  0.00     0.116 C 
BRANCH   3   4
ATOM      4  N   UNL A   1      31.022  27.245  27.376  1.00  0.00    -0.356 N 
ATOM      5  C   UNL A   1      30.864  26.529  26.239  1.00  0.00     0.224 C 
ATOM      6  O   UNL A   1      30.250  25.462  26.377  1.00  0.00    -0.275 OA
ATOM      7  H   UNL A   1      30.688  26.770  28.171  1.00  0.00     0.163 HD
BRANCH   5   8
ATOM      8  C   UNL A   1      31.381  26.912  24.849  1.00  0.00     0.098 C 
ATOM      9  N   UNL A   1      31.767  25.840  22.610  1.00  0.00    -0.338 N 
ATOM     10  C   UNL A   1      31.088  26.907  21.909  1.00  0.00     0.120 C 
ATOM     11  C   UNL A   1      31.425  25.612  24.015  1.00  0.00     0.133 C 
ATOM     12  C   UNL A   1      31.223  28.210  22.667  1.00  0.00     0.022 C 
ATOM     13  C   UNL A   1      30.684  28.035  24.082  1.00  0.00     0.017 C 
BRANCH   9  14
ATOM     14  C   UNL A   1      32.914  25.314  22.039  1.00  0.00     0.253 C 
ATOM     15  O   UNL A   1      33.304  25.654  20.926  1.00  0.00    -0.269 OA
BRANCH  14  16
ATOM     16  C   UNL A   1      33.509  24.129  22.729  1.00  0.00     0.040 A 
ATOM     17  C   UNL A   1      34.375  21.909  24.264  1.00  0.00    -0.045 A 
ATOM     18  C   UNL A   1      33.292  21.799  23.374  1.00  0.00     0.005 A 
ATOM     19  C   UNL A   1      35.038  23.141  24.337  1.00  0.00     0.005 A 
ATOM     20  C   UNL A   1      32.860  22.896  22.619  1.00  0.00     0.014 A 
ATOM     21  C   UNL A   1      34.609  24.237  23.585  1.00  0.00     0.014 A 
BRANCH  17  22
ATOM     22  C   UNL A   1      34.787  20.702  25.100  1.00  0.00     0.013 C 
ATOM     23  C   UNL A   1      34.053  19.397  24.759  1.00  0.00     0.012 C 
ATOM     24  C   UNL A   1      36.298  20.449  25.009  1.00  0.00     0.012 C 
ENDBRANCH  17  22
ENDBRANCH  14  16
ENDBRANCH   9  14
ENDBRANCH   5   8
ENDBRANCH   3   4
ENDBRANCH   2   3
ENDBRANCH   1   2
BRANCH   1  25
ATOM     25  C   UNL A   1      31.530  30.860  26.024  1.00  0.00     0.002 C 
BRANCH  25  26
ATOM     26  C   UNL A   1      31.360  32.282  26.569  1.00  0.00     0.021 C 
BRANCH  26  27
ATOM     27  C   UNL A   1      32.604  32.842  27.251  1.00  0.00     0.116 C 
BRANCH  27  28
ATOM     28  N   UNL A   1      32.420  34.231  27.642  1.00  0.00    -0.352 N 
ATOM     29  C   UNL A   1      33.007  34.931  28.662  1.00  0.00     0.251 C 
ATOM     30  H   UNL A   1      31.779  34.742  27.096  1.00  0.00     0.163 HD
ATOM     31  O   UNL A   1      32.556  36.028  29.000  1.00  0.00    -0.269 OA
BRANCH  29  32
ATOM     32  C   UNL A   1      34.177  34.373  29.365  1.00  0.00     0.039 A 
ATOM     33  C   UNL A   1      33.981  33.657  30.549  1.00  0.00     0.014 A 
ATOM     34  C   UNL A   1      35.470  34.576  28.871  1.00  0.00     0.014 A 
ATOM     35  C   UNL A   1      35.077  33.103  31.211  1.00  0.00     0.010 A 
ATOM     36  C   UNL A   1      36.553  33.963  29.492  1.00  0.00     0.010 A 
ATOM     37  C   UNL A   1      36.369  33.227  30.672  1.00  0.00    -0.014 A 
BRANCH  37  38
ATOM     38  C   UNL A   1      37.540  32.599  31.334  1.00  0.00     0.031 A 
ATOM     39  C   UNL A   1      38.269  31.470  30.663  1.00  0.00     0.074 A 
ATOM     40  C   UNL A   1      37.904  33.006  32.565  1.00  0.00     0.049 A 
ATOM     41  N   UNL A   1      39.269  30.750  31.106  1.00  0.00    -0.248 NA
ATOM     42  C   UNL A   1      37.797  31.080  29.325  1.00  0.00     0.031 C 
ATOM     43  C   UNL A   1      37.244  34.061  33.335  1.00  0.00     0.029 A 
ATOM     44  N   UNL A   1      38.912  32.573  33.389  1.00  0.00    -0.354 N 
ATOM     45  C   UNL A   1      39.534  29.817  30.113  1.00  0.00     0.074 A 
ATOM     46  C   UNL A   1      38.556  30.025  29.066  1.00  0.00     0.031 C 
ATOM     47  C   UNL A   1      37.878  34.209  34.510  1.00  0.00     0.029 A 
ATOM     48  C   UNL A   1      38.961  33.233  34.592  1.00  0.00     0.049 A 
ATOM     49  H   UNL A   1      39.541  31.857  33.142  1.00  0.00     0.167 HD
ATOM     50  C   UNL A   1      40.518  28.888  30.066  1.00  0.00     0.037 A 
ATOM     51  C   UNL A   1      39.782  33.065  35.646  1.00  0.00     0.037 A 
ATOM     52  C   UNL A   1      41.502  28.701  31.100  1.00  0.00     0.049 A 
ATOM     53  C   UNL A   1      40.861  32.018  35.573  1.00  0.00     0.074 A 
ATOM     54  C   UNL A   1      42.575  27.828  31.123  1.00  0.00     0.029 A 
ATOM     55  N   UNL A   1      41.529  29.400  32.299  1.00  0.00    -0.354 N 
ATOM     56  N   UNL A   1      41.145  31.187  34.598  1.00  0.00    -0.248 NA
ATOM     57  C   UNL A   1      41.737  31.889  36.745  1.00  0.00     0.031 C 
ATOM     58  C   UNL A   1      43.221  27.962  32.357  1.00  0.00     0.029 A 
ATOM     59  C   UNL A   1      42.585  28.960  33.080  1.00  0.00     0.049 A 
ATOM     60  H   UNL A   1      40.891  30.105  32.558  1.00  0.00     0.167 HD
ATOM     61  C   UNL A   1      42.248  30.462  35.025  1.00  0.00     0.074 A 
ATOM     62  C   UNL A   1      42.592  30.959  36.341  1.00  0.00     0.031 C 
ATOM     63  C   UNL A   1      42.918  29.471  34.385  1.00  0.00     0.037 A 
BRANCH  50  64
ATOM     64  C   UNL A   1      40.582  28.001  28.856  1.00  0.00     0.064 A 
ATOM     65  C   UNL A   1      39.860  26.799  28.784  1.00  0.00     0.173 A 
ATOM     66  C   UNL A   1      41.345  28.373  27.739  1.00  0.00     0.173 A 
ATOM     67  F   UNL A   1      39.124  26.390  29.828  1.00  0.00    -0.203 F 
ATOM     68  C   UNL A   1      39.925  25.990  27.652  1.00  0.00     0.198 A 
ATOM     69  C   UNL A   1      41.382  27.578  26.596  1.00  0.00     0.198 A 
ATOM     70  F   UNL A   1      42.051  29.515  27.751  1.00  0.00    -0.203 F 
ATOM     71  F   UNL A   1      39.270  24.821  27.629  1.00  0.00    -0.200 F 
ATOM     72  C   UNL A   1      40.680  26.382  26.558  1.00  0.00     0.200 A 
ATOM     73  F   UNL A   1      42.100  27.966  25.534  1.00  0.00    -0.200 F 
ATOM     74  F   UNL A   1      40.735  25.606  25.466  1.00  0.00    -0.200 F 
ENDBRANCH  50  64
BRANCH  51  75
ATOM     75  C   UNL A   1      39.630  33.920  36.851  1.00  0.00     0.064 A 
ATOM     76  C   UNL A   1      38.850  33.501  37.938  1.00  0.00     0.173 A 
ATOM     77  C   UNL A   1      40.254  35.173  36.941  1.00  0.00     0.173 A 
ATOM     78  F   UNL A   1      38.217  32.319  37.891  1.00  0.00    -0.203 F 
ATOM     79  C   UNL A   1      38.682  34.311  39.060  1.00  0.00     0.198 A 
ATOM     80  C   UNL A   1      40.110  35.969  38.076  1.00  0.00     0.198 A 
ATOM     81  F   UNL A   1      41.017  35.618  35.932  1.00  0.00    -0.203 F 
ATOM     82  F   UNL A   1      37.892  33.905  40.063  1.00  0.00    -0.200 F 
ATOM     83  C   UNL A   1      39.317  35.542  39.130  1.00  0.00     0.200 A 
ATOM     84  F   UNL A   1      40.738  37.151  38.147  1.00  0.00    -0.200 F 
ATOM     85  F   UNL A   1      39.158  36.319  40.210  1.00  0.00    -0.200 F 
ENDBRANCH  51  75
BRANCH  63  86
ATOM     86  C   UNL A   1      44.112  28.885  35.081  1.00  0.00     0.064 A 
ATOM     87  C   UNL A   1      45.394  29.437  34.939  1.00  0.00     0.173 A 
ATOM     88  C   UNL A   1      43.964  27.780  35.933  1.00  0.00     0.173 A 
ATOM     89  F   UNL A   1      45.591  30.485  34.124  1.00  0.00    -0.203 F 
ATOM     90  C   UNL A   1      46.487  28.887  35.604  1.00  0.00     0.198 A 
ATOM     91  C   UNL A   1      45.053  27.254  36.621  1.00  0.00     0.198 A 
ATOM     92  F   UNL A   1      42.759  27.218  36.110  1.00  0.00    -0.203 F 
ATOM     93  F   UNL A   1      47.711  29.400  35.414  1.00  0.00    -0.200 F 
ATOM     94  C   UNL A   1      46.314  27.802  36.449  1.00  0.00     0.200 A 
ATOM     95  F   UNL A   1      44.881  26.215  37.450  1.00  0.00    -0.200 F 
ATOM     96  F   UNL A   1      47.366  27.280  37.095  1.00  0.00    -0.200 F 
ENDBRANCH  63  86
ENDBRANCH  37  38
ENDBRANCH  29  32
ENDBRANCH  27  28
ENDBRANCH  26  27
ENDBRANCH  25  26
ENDBRANCH   1  25
TORSDOF 16
ENDMDL
MODEL 2
REMARK VINA RESULT:     -12.6      3.174      8.529
REMARK SMILES CC(C)c1ccc(C(=O)N2CCC[C@@H](C(=O)NCCCCCCNC(=O)c3ccc(-c4c5nc(c(-c6c(F)c(F)c(F)c(F)c6F)c6ccc([nH]6)c(-c6c(F)c(F)c(F)c(F)c6F)c6nc(c(-c7c(F)c(F)c(F)c(F)c7F)c7ccc4[nH]7)C=C6)C=C5)cc3)C2)cc1
REMARK SMILES IDX 20 1 19 2 18 3 17 4 15 5 16 6 14 8 10 9 11 10 90 11 12 12
REMARK SMILES IDX 13 13 8 14 9 15 7 16 4 17 5 18 92 19 6 20 91 21 2 22 1 23
REMARK SMILES IDX 3 24 21 25 22 26 23 27 24 28 25 29 26 31 27 32 28 33 89 34
REMARK SMILES IDX 29 35 88 36 30 37 31 38 32 39 82 40 33 41 87 42 81 43 83 44
REMARK SMILES IDX 34 45 86 46 80 47 79 48 35 50 67 51 47 52 66 53 48 54 51 55
REMARK SMILES IDX 65 56 84 57 49 58 50 59 64 61 85 62 52 63 36 64 37 65 45 66
REMARK SMILES IDX 38 67 39 68 43 69 46 70 40 71 41 72 44 73 42 74 68 75 69 76
REMARK SMILES IDX 77 77 70 78 71 79 75 80 78 81 72 82 73 83 76 84 74 85 53 86
REMARK SMILES IDX 54 87 62 88 55 89 56 90 60 91 63 92 57 93 58 94 61 95 59 96
REMARK H PARENT 17 7 24 30 83 49 51 60
REMARK Flexibility Score: inf
ROOT
ATOM      1  C   UNL A   1      31.812  28.361  24.584  1.00  0.00     0.002 C 
ENDROOT
BRANCH   1   2
ATOM      2  C   UNL A   1      31.206  28.581  23.192  1.00  0.00     0.021 C 
BRANCH   2   3
ATOM      3  C   UNL A   1      30.658  27.303  22.559  1.00  0.00     0.116 C 
BRANCH   3   4
ATOM      4  N   UNL A   1      31.613  26.720  21.636  1.00  0.00    -0.356 N 
ATOM      5  C   UNL A   1      32.616  25.820  21.741  1.00  0.00     0.224 C 
ATOM      6  O   UNL A   1      33.277  25.653  20.707  1.00  0.00    -0.275 OA
ATOM      7  H   UNL A   1      31.505  27.061  20.718  1.00  0.00     0.163 HD
BRANCH   5   8
ATOM      8  C   UNL A   1      32.976  25.006  22.988  1.00  0.00     0.098 C 
ATOM      9  N   UNL A   1      33.029  22.609  23.736  1.00  0.00    -0.338 N 
ATOM     10  C   UNL A   1      34.372  22.732  24.257  1.00  0.00     0.120 C 
ATOM     11  C   UNL A   1      32.610  23.537  22.684  1.00  0.00     0.133 C 
ATOM     12  C   UNL A   1      34.634  24.150  24.716  1.00  0.00     0.022 C 
ATOM     13  C   UNL A   1      34.389  25.115  23.562  1.00  0.00     0.017 C 
BRANCH   9  14
ATOM     14  C   UNL A   1      32.116  21.862  24.462  1.00  0.00     0.253 C 
ATOM     15  O   UNL A   1      31.319  22.381  25.238  1.00  0.00    -0.269 OA
BRANCH  14  16
ATOM     16  C   UNL A   1      32.321  20.381  24.452  1.00  0.00     0.040 A 
ATOM     17  C   UNL A   1      33.046  17.642  24.470  1.00  0.00    -0.045 A 
ATOM     18  C   UNL A   1      32.992  18.387  25.661  1.00  0.00     0.005 A 
ATOM     19  C   UNL A   1      32.690  18.287  23.279  1.00  0.00     0.005 A 
ATOM     20  C   UNL A   1      32.638  19.742  25.653  1.00  0.00     0.014 A 
ATOM     21  C   UNL A   1      32.337  19.639  23.267  1.00  0.00     0.014 A 
BRANCH  17  22
ATOM     22  C   UNL A   1      33.478  16.179  24.517  1.00  0.00     0.013 C 
ATOM     23  C   UNL A   1      34.916  15.945  25.001  1.00  0.00     0.012 C 
ATOM     24  C   UNL A   1      32.529  15.345  25.388  1.00  0.00     0.012 C 
ENDBRANCH  17  22
ENDBRANCH  14  16
ENDBRANCH   9  14
ENDBRANCH   5   8
ENDBRANCH   3   4
ENDBRANCH   2   3
ENDBRANCH   1   2
BRANCH   1  25
ATOM     25  C   UNL A   1      33.331  28.559  24.670  1.00  0.00     0.002 C 
BRANCH  25  26
ATOM     26  C   UNL A   1      33.997  27.953  25.910  1.00  0.00     0.021 C 
BRANCH  26  27
ATOM     27  C   UNL A   1      33.459  28.488  27.233  1.00  0.00     0.116 C 
BRANCH  27  28
ATOM     28  N   UNL A   1      33.489  29.941  27.274  1.00  0.00    -0.352 N 
ATOM     29  C   UNL A   1      34.419  30.776  27.833  1.00  0.00     0.251 C 
ATOM     30  H   UNL A   1      32.730  30.391  26.837  1.00  0.00     0.163 HD
ATOM     31  O   UNL A   1      34.165  31.973  27.987  1.00  0.00    -0.269 OA
BRANCH  29  32
ATOM     32  C   UNL A   1      35.727  30.245  28.262  1.00  0.00     0.039 A 
ATOM     33  C   UNL A   1      36.797  30.269  27.364  1.00  0.00     0.014 A 
ATOM     34  C   UNL A   1      35.893  29.703  29.540  1.00  0.00     0.014 A 
ATOM     35  C   UNL A   1      38.047  29.793  27.764  1.00  0.00     0.010 A 
ATOM     36  C   UNL A   1      37.154  29.296  29.962  1.00  0.00     0.010 A 
ATOM     37  C   UNL A   1      38.242  29.329  29.076  1.00  0.00    -0.014 A 
BRANCH  37  38
ATOM     38  C   UNL A   1      39.575  28.869  29.537  1.00  0.00     0.031 A 
ATOM     39  C   UNL A   1      40.380  29.715  30.483  1.00  0.00     0.074 A 
ATOM     40  C   UNL A   1      40.085  27.721  29.053  1.00  0.00     0.049 A 
ATOM     41  N   UNL A   1      41.588  29.519  30.946  1.00  0.00    -0.248 NA
ATOM     42  C   UNL A   1      39.752  30.961  30.952  1.00  0.00     0.031 C 
ATOM     43  C   UNL A   1      39.418  26.838  28.094  1.00  0.00     0.029 A 
ATOM     44  N   UNL A   1      41.288  27.104  29.292  1.00  0.00    -0.354 N 
ATOM     45  C   UNL A   1      41.870  30.619  31.746  1.00  0.00     0.074 A 
ATOM     46  C   UNL A   1      40.729  31.505  31.662  1.00  0.00     0.031 C 
ATOM     47  C   UNL A   1      40.210  25.783  27.844  1.00  0.00     0.029 A 
ATOM     48  C   UNL A   1      41.455  25.935  28.592  1.00  0.00     0.049 A 
ATOM     49  H   UNL A   1      41.966  27.465  29.907  1.00  0.00     0.167 HD
ATOM     50  C   UNL A   1      42.970  30.856  32.500  1.00  0.00     0.037 A 
ATOM     51  C   UNL A   1      42.499  25.085  28.551  1.00  0.00     0.037 A 
ATOM     52  C   UNL A   1      44.092  29.959  32.597  1.00  0.00     0.049 A 
ATOM     53  C   UNL A   1      43.713  25.378  29.390  1.00  0.00     0.074 A 
ATOM     54  C   UNL A   1      45.227  30.078  33.378  1.00  0.00     0.029 A 
ATOM     55  N   UNL A   1      44.219  28.775  31.884  1.00  0.00    -0.354 N 
ATOM     56  N   UNL A   1      43.940  26.386  30.197  1.00  0.00    -0.248 NA
ATOM     57  C   UNL A   1      44.815  24.408  29.319  1.00  0.00     0.031 C 
ATOM     58  C   UNL A   1      46.065  28.993  33.100  1.00  0.00     0.029 A 
ATOM     59  C   UNL A   1      45.426  28.167  32.188  1.00  0.00     0.049 A 
ATOM     60  H   UNL A   1      43.551  28.419  31.254  1.00  0.00     0.167 HD
ATOM     61  C   UNL A   1      45.192  26.159  30.751  1.00  0.00     0.074 A 
ATOM     62  C   UNL A   1      45.671  24.908  30.200  1.00  0.00     0.031 C 
ATOM     63  C   UNL A   1      45.885  26.918  31.636  1.00  0.00     0.037 A 
BRANCH  50  64
ATOM     64  C   UNL A   1      43.014  32.137  33.284  1.00  0.00     0.064 A 
ATOM     65  C   UNL A   1      42.510  32.218  34.591  1.00  0.00     0.173 A 
ATOM     66  C   UNL A   1      43.601  33.287  32.736  1.00  0.00     0.173 A 
ATOM     67  F   UNL A   1      41.929  31.152  35.159  1.00  0.00    -0.203 F 
ATOM     68  C   UNL A   1      42.564  33.412  35.308  1.00  0.00     0.198 A 
ATOM     69  C   UNL A   1      43.682  34.470  33.466  1.00  0.00     0.198 A 
ATOM     70  F   UNL A   1      44.103  33.264  31.491  1.00  0.00    -0.203 F 
ATOM     71  F   UNL A   1      42.028  33.479  36.534  1.00  0.00    -0.200 F 
ATOM     72  C   UNL A   1      43.155  34.534  34.748  1.00  0.00     0.200 A 
ATOM     73  F   UNL A   1      44.267  35.549  32.929  1.00  0.00    -0.200 F 
ATOM     74  F   UNL A   1      43.214  35.679  35.441  1.00  0.00    -0.200 F 
ENDBRANCH  50  64
BRANCH  51  75
ATOM     75  C   UNL A   1      42.434  23.868  27.701  1.00  0.00     0.064 A 
ATOM     76  C   UNL A   1      42.024  22.638  28.237  1.00  0.00     0.173 A 
ATOM     77  C   UNL A   1      42.781  23.904  26.343  1.00  0.00     0.173 A 
ATOM     78  F   UNL A   1      41.700  22.548  29.535  1.00  0.00    -0.203 F 
ATOM     79  C   UNL A   1      41.987  21.487  27.452  1.00  0.00     0.198 A 
ATOM     80  C   UNL A   1      42.715  22.759  25.552  1.00  0.00     0.198 A 
ATOM     81  F   UNL A   1      43.173  25.057  25.781  1.00  0.00    -0.203 F 
ATOM     82  F   UNL A   1      41.639  20.316  28.002  1.00  0.00    -0.200 F 
ATOM     83  C   UNL A   1      42.327  21.550  26.109  1.00  0.00     0.200 A 
ATOM     84  F   UNL A   1      43.029  22.827  24.251  1.00  0.00    -0.200 F 
ATOM     85  F   UNL A   1      42.288  20.443  25.354  1.00  0.00    -0.200 F 
ENDBRANCH  51  75
BRANCH  63  86
ATOM     86  C   UNL A   1      47.216  26.398  32.094  1.00  0.00     0.064 A 
ATOM     87  C   UNL A   1      47.336  25.546  33.202  1.00  0.00     0.173 A 
ATOM     88  C   UNL A   1      48.386  26.727  31.391  1.00  0.00     0.173 A 
ATOM     89  F   UNL A   1      46.250  25.214  33.917  1.00  0.00    -0.203 F 
ATOM     90  C   UNL A   1      48.578  25.064  33.603  1.00  0.00     0.198 A 
ATOM     91  C   UNL A   1      49.622  26.217  31.776  1.00  0.00     0.198 A 
ATOM     92  F   UNL A   1      48.327  27.533  30.320  1.00  0.00    -0.203 F 
ATOM     93  F   UNL A   1      48.674  24.291  34.695  1.00  0.00    -0.200 F 
ATOM     94  C   UNL A   1      49.719  25.394  32.886  1.00  0.00     0.200 A 
ATOM     95  F   UNL A   1      50.720  26.524  31.071  1.00  0.00    -0.200 F 
ATOM     96  F   UNL A   1      50.912  24.922  33.269  1.00  0.00    -0.200 F 
ENDBRANCH  63  86
ENDBRANCH  37  38
ENDBRANCH  29  32
ENDBRANCH  27  28
ENDBRANCH  26  27
ENDBRANCH  25  26
ENDBRANCH   1  25
TORSDOF 16
ENDMDL
MODEL 3
REMARK VINA RESULT:     -12.5      1.911      7.657
REMARK SMILES CC(C)c1ccc(C(=O)N2CCC[C@@H](C(=O)NCCCCCCNC(=O)c3ccc(-c4c5nc(c(-c6c(F)c(F)c(F)c(F)c6F)c6ccc([nH]6)c(-c6c(F)c(F)c(F)c(F)c6F)c6nc(c(-c7c(F)c(F)c(F)c(F)c7F)c7ccc4[nH]7)C=C6)C=C5)cc3)C2)cc1
REMARK SMILES IDX 20 1 19 2 18 3 17 4 15 5 16 6 14 8 10 9 11 10 90 11 12 12
REMARK SMILES IDX 13 13 8 14 9 15 7 16 4 17 5 18 92 19 6 20 91 21 2 22 1 23
REMARK SMILES IDX 3 24 21 25 22 26 23 27 24 28 25 29 26 31 27 32 28 33 89 34
REMARK SMILES IDX 29 35 88 36 30 37 31 38 32 39 82 40 33 41 87 42 81 43 83 44
REMARK SMILES IDX 34 45 86 46 80 47 79 48 35 50 67 51 47 52 66 53 48 54 51 55
REMARK SMILES IDX 65 56 84 57 49 58 50 59 64 61 85 62 52 63 36 64 37 65 45 66
REMARK SMILES IDX 38 67 39 68 43 69 46 70 40 71 41 72 44 73 42 74 68 75 69 76
REMARK SMILES IDX 77 77 70 78 71 79 75 80 78 81 72 82 73 83 76 84 74 85 53 86
REMARK SMILES IDX 54 87 62 88 55 89 56 90 60 91 63 92 57 93 58 94 61 95 59 96
REMARK H PARENT 17 7 24 30 83 49 51 60
REMARK Flexibility Score: inf
ROOT
ATOM      1  C   UNL A   1      34.459  32.680  29.089  1.00  0.00     0.002 C 
ENDROOT
BRANCH   1   2
ATOM      2  C   UNL A   1      35.107  31.715  28.088  1.00  0.00     0.021 C 
BRANCH   2   3
ATOM      3  C   UNL A   1      34.168  30.602  27.622  1.00  0.00     0.116 C 
BRANCH   3   4
ATOM      4  N   UNL A   1      32.910  31.142  27.142  1.00  0.00    -0.356 N 
ATOM      5  C   UNL A   1      32.011  30.775  26.200  1.00  0.00     0.224 C 
ATOM      6  O   UNL A   1      31.083  31.577  26.026  1.00  0.00    -0.275 OA
ATOM      7  H   UNL A   1      32.650  31.967  27.612  1.00  0.00     0.163 HD
BRANCH   5   8
ATOM      8  C   UNL A   1      32.040  29.486  25.373  1.00  0.00     0.098 C 
ATOM      9  N   UNL A   1      30.788  28.427  23.470  1.00  0.00    -0.338 N 
ATOM     10  C   UNL A   1      32.007  28.110  22.759  1.00  0.00     0.120 C 
ATOM     11  C   UNL A   1      30.819  29.533  24.429  1.00  0.00     0.133 C 
ATOM     12  C   UNL A   1      33.146  27.890  23.731  1.00  0.00     0.022 C 
ATOM     13  C   UNL A   1      33.314  29.123  24.610  1.00  0.00     0.017 C 
BRANCH   9  14
ATOM     14  C   UNL A   1      29.768  27.490  23.462  1.00  0.00     0.253 C 
ATOM     15  O   UNL A   1      28.620  27.778  23.136  1.00  0.00    -0.269 OA
BRANCH  14  16
ATOM     16  C   UNL A   1      30.074  26.179  24.111  1.00  0.00     0.040 A 
ATOM     17  C   UNL A   1      30.976  23.814  25.387  1.00  0.00    -0.045 A 
ATOM     18  C   UNL A   1      30.685  24.974  26.127  1.00  0.00     0.005 A 
ATOM     19  C   UNL A   1      30.766  23.854  24.002  1.00  0.00     0.005 A 
ATOM     20  C   UNL A   1      30.244  26.144  25.498  1.00  0.00     0.014 A 
ATOM     21  C   UNL A   1      30.327  25.021  23.371  1.00  0.00     0.014 A 
BRANCH  17  22
ATOM     22  C   UNL A   1      31.496  22.573  26.106  1.00  0.00     0.013 C 
ATOM     23  C   UNL A   1      32.121  21.511  25.190  1.00  0.00     0.012 C 
ATOM     24  C   UNL A   1      32.516  22.943  27.191  1.00  0.00     0.012 C 
ENDBRANCH  17  22
ENDBRANCH  14  16
ENDBRANCH   9  14
ENDBRANCH   5   8
ENDBRANCH   3   4
ENDBRANCH   2   3
ENDBRANCH   1   2
BRANCH   1  25
ATOM     25  C   UNL A   1      34.566  34.166  28.720  1.00  0.00     0.002 C 
BRANCH  25  26
ATOM     26  C   UNL A   1      33.265  34.964  28.849  1.00  0.00     0.021 C 
BRANCH  26  27
ATOM     27  C   UNL A   1      33.420  36.302  29.564  1.00  0.00     0.116 C 
BRANCH  27  28
ATOM     28  N   UNL A   1      32.490  36.425  30.676  1.00  0.00    -0.352 N 
ATOM     29  C   UNL A   1      32.508  35.802  31.895  1.00  0.00     0.251 C 
ATOM     30  H   UNL A   1      31.739  37.045  30.532  1.00  0.00     0.163 HD
ATOM     31  O   UNL A   1      31.514  35.838  32.624  1.00  0.00    -0.269 OA
BRANCH  29  32
ATOM     32  C   UNL A   1      33.714  35.078  32.340  1.00  0.00     0.039 A 
ATOM     33  C   UNL A   1      33.581  33.783  32.847  1.00  0.00     0.014 A 
ATOM     34  C   UNL A   1      34.973  35.684  32.278  1.00  0.00     0.014 A 
ATOM     35  C   UNL A   1      34.716  33.077  33.247  1.00  0.00     0.010 A 
ATOM     36  C   UNL A   1      36.110  34.955  32.610  1.00  0.00     0.010 A 
ATOM     37  C   UNL A   1      35.993  33.647  33.106  1.00  0.00    -0.014 A 
BRANCH  37  38
ATOM     38  C   UNL A   1      37.216  32.893  33.476  1.00  0.00     0.031 A 
ATOM     39  C   UNL A   1      37.921  33.188  34.769  1.00  0.00     0.074 A 
ATOM     40  C   UNL A   1      37.723  31.987  32.618  1.00  0.00     0.049 A 
ATOM     41  N   UNL A   1      39.036  32.688  35.238  1.00  0.00    -0.248 NA
ATOM     42  C   UNL A   1      37.307  34.202  35.641  1.00  0.00     0.031 C 
ATOM     43  C   UNL A   1      37.152  31.647  31.314  1.00  0.00     0.029 A 
ATOM     44  N   UNL A   1      38.840  31.195  32.710  1.00  0.00    -0.354 N 
ATOM     45  C   UNL A   1      39.263  33.332  36.447  1.00  0.00     0.074 A 
ATOM     46  C   UNL A   1      38.200  34.300  36.615  1.00  0.00     0.031 C 
ATOM     47  C   UNL A   1      37.909  30.700  30.737  1.00  0.00     0.029 A 
ATOM     48  C   UNL A   1      39.039  30.396  31.611  1.00  0.00     0.049 A 
ATOM     49  H   UNL A   1      39.440  31.198  33.489  1.00  0.00     0.167 HD
ATOM     50  C   UNL A   1      40.252  33.119  37.347  1.00  0.00     0.037 A 
ATOM     51  C   UNL A   1      40.026  29.523  31.335  1.00  0.00     0.037 A 
ATOM     52  C   UNL A   1      41.293  32.138  37.184  1.00  0.00     0.049 A 
ATOM     53  C   UNL A   1      41.120  29.312  32.347  1.00  0.00     0.074 A 
ATOM     54  C   UNL A   1      42.308  31.803  38.063  1.00  0.00     0.029 A 
ATOM     55  N   UNL A   1      41.454  31.336  36.063  1.00  0.00    -0.354 N 
ATOM     56  N   UNL A   1      41.285  29.878  33.518  1.00  0.00    -0.248 NA
ATOM     57  C   UNL A   1      42.162  28.336  32.001  1.00  0.00     0.031 C 
ATOM     58  C   UNL A   1      43.113  30.835  37.453  1.00  0.00     0.029 A 
ATOM     59  C   UNL A   1      42.567  30.524  36.217  1.00  0.00     0.049 A 
ATOM     60  H   UNL A   1      40.865  31.342  35.274  1.00  0.00     0.167 HD
ATOM     61  C   UNL A   1      42.427  29.306  34.061  1.00  0.00     0.074 A 
ATOM     62  C   UNL A   1      42.907  28.338  33.097  1.00  0.00     0.031 C 
ATOM     63  C   UNL A   1      43.027  29.560  35.251  1.00  0.00     0.037 A 
BRANCH  50  64
ATOM     64  C   UNL A   1      40.257  33.961  38.590  1.00  0.00     0.064 A 
ATOM     65  C   UNL A   1      39.554  33.576  39.743  1.00  0.00     0.173 A 
ATOM     66  C   UNL A   1      41.001  35.149  38.643  1.00  0.00     0.173 A 
ATOM     67  F   UNL A   1      38.818  32.456  39.743  1.00  0.00    -0.203 F 
ATOM     68  C   UNL A   1      39.573  34.365  40.891  1.00  0.00     0.198 A 
ATOM     69  C   UNL A   1      41.043  35.919  39.803  1.00  0.00     0.198 A 
ATOM     70  F   UNL A   1      41.695  35.562  37.571  1.00  0.00    -0.203 F 
ATOM     71  F   UNL A   1      38.852  34.004  41.961  1.00  0.00    -0.200 F 
ATOM     72  C   UNL A   1      40.322  35.531  40.923  1.00  0.00     0.200 A 
ATOM     73  F   UNL A   1      41.780  37.037  39.836  1.00  0.00    -0.200 F 
ATOM     74  F   UNL A   1      40.346  36.285  42.030  1.00  0.00    -0.200 F 
ENDBRANCH  50  64
BRANCH  51  75
ATOM     75  C   UNL A   1      40.014  28.767  30.056  1.00  0.00     0.064 A 
ATOM     76  C   UNL A   1      39.422  27.498  29.976  1.00  0.00     0.173 A 
ATOM     77  C   UNL A   1      40.595  29.290  28.892  1.00  0.00     0.173 A 
ATOM     78  F   UNL A   1      38.870  26.947  31.067  1.00  0.00    -0.203 F 
ATOM     79  C   UNL A   1      39.432  26.773  28.785  1.00  0.00     0.198 A 
ATOM     80  C   UNL A   1      40.578  28.577  27.695  1.00  0.00     0.198 A 
ATOM     81  F   UNL A   1      41.168  30.502  28.914  1.00  0.00    -0.203 F 
ATOM     82  F   UNL A   1      38.902  25.543  28.750  1.00  0.00    -0.200 F 
ATOM     83  C   UNL A   1      40.005  27.315  27.645  1.00  0.00     0.200 A 
ATOM     84  F   UNL A   1      41.118  29.111  26.591  1.00  0.00    -0.200 F 
ATOM     85  F   UNL A   1      40.011  26.618  26.500  1.00  0.00    -0.200 F 
ENDBRANCH  51  75
BRANCH  63  86
ATOM     86  C   UNL A   1      44.245  28.753  35.594  1.00  0.00     0.064 A 
ATOM     87  C   UNL A   1      44.153  27.536  36.286  1.00  0.00     0.173 A 
ATOM     88  C   UNL A   1      45.518  29.185  35.192  1.00  0.00     0.173 A 
ATOM     89  F   UNL A   1      42.961  27.086  36.705  1.00  0.00    -0.203 F 
ATOM     90  C   UNL A   1      45.294  26.795  36.583  1.00  0.00     0.198 A 
ATOM     91  C   UNL A   1      46.652  28.426  35.463  1.00  0.00     0.198 A 
ATOM     92  F   UNL A   1      45.661  30.339  34.523  1.00  0.00    -0.203 F 
ATOM     93  F   UNL A   1      45.187  25.660  37.288  1.00  0.00    -0.200 F 
ATOM     94  C   UNL A   1      46.540  27.237  36.166  1.00  0.00     0.200 A 
ATOM     95  F   UNL A   1      47.854  28.847  35.045  1.00  0.00    -0.200 F 
ATOM     96  F   UNL A   1      47.636  26.517  36.446  1.00  0.00    -0.200 F 
ENDBRANCH  63  86
ENDBRANCH  37  38
ENDBRANCH  29  32
ENDBRANCH  27  28
ENDBRANCH  26  27
ENDBRANCH  25  26
ENDBRANCH   1  25
TORSDOF 16
ENDMDL
