MODEL 1
REMARK VINA RESULT:     -12.5      0.000      0.000
REMARK SMILES Cc1ncccc1C(=O)Nc1ccccc1C(=O)NCCCCCCNC(=O)c1ccc(-c2c3nc(c(-c4c(F)c(F)c(F)c(F)c4F)c4ccc([nH]4)c(-c4c(F)c(F)c(F)c(F)c4F)c4nc(c(-c5c(F)c(F)c(F)c(F)c5F)c5ccc2[nH]5)C=C4)C=C3)cc1
REMARK SMILES IDX 22 1 21 2 20 3 19 4 17 5 18 6 16 8 11 9 12 10 13 11 15 12
REMARK SMILES IDX 14 13 10 14 8 15 9 16 7 18 1 19 2 20 3 21 4 22 6 23 5 24
REMARK SMILES IDX 23 25 24 26 25 27 26 28 27 29 28 31 29 32 30 33 91 34 31 35
REMARK SMILES IDX 90 36 32 37 33 38 34 39 84 40 35 41 89 42 83 43 85 44 36 45
REMARK SMILES IDX 88 46 82 47 81 48 37 50 69 51 49 52 68 53 50 54 53 55 67 56
REMARK SMILES IDX 86 57 51 58 52 59 66 61 87 62 54 63 38 64 39 65 47 66 40 67
REMARK SMILES IDX 41 68 45 69 48 70 42 71 43 72 46 73 44 74 70 75 71 76 79 77
REMARK SMILES IDX 72 78 73 79 77 80 80 81 74 82 75 83 78 84 76 85 55 86 56 87
REMARK SMILES IDX 64 88 57 89 58 90 62 91 65 92 59 93 60 94 63 95 61 96
REMARK H PARENT 19 7 10 17 26 30 85 49 53 60
REMARK Flexibility Score: inf
ROOT
ATOM      1  C   UNL A   1      33.044  30.166  26.692  1.00  0.00     0.002 C 
ENDROOT
BRANCH   1   2
ATOM      2  C   UNL A   1      33.083  28.717  27.190  1.00  0.00     0.021 C 
BRANCH   2   3
ATOM      3  C   UNL A   1      31.733  28.045  27.414  1.00  0.00     0.116 C 
BRANCH   3   4
ATOM      4  N   UNL A   1      31.705  26.636  27.095  1.00  0.00    -0.352 N 
ATOM      5  C   UNL A   1      31.208  25.978  25.996  1.00  0.00     0.253 C 
ATOM      6  O   UNL A   1      31.314  24.751  25.978  1.00  0.00    -0.269 OA
ATOM      7  H   UNL A   1      32.111  26.052  27.777  1.00  0.00     0.163 HD
BRANCH   5   8
ATOM      8  C   UNL A   1      30.457  26.653  24.892  1.00  0.00     0.063 A 
ATOM      9  C   UNL A   1      30.878  27.710  24.068  1.00  0.00     0.054 A 
ATOM     10  C   UNL A   1      29.930  28.364  23.253  1.00  0.00     0.027 A 
ATOM     11  C   UNL A   1      28.638  27.867  23.097  1.00  0.00     0.002 A 
ATOM     12  C   UNL A   1      29.146  26.155  24.704  1.00  0.00     0.016 A 
ATOM     13  C   UNL A   1      28.258  26.733  23.793  1.00  0.00     0.001 A 
BRANCH   9  14
ATOM     14  N   UNL A   1      32.185  28.180  23.848  1.00  0.00    -0.321 N 
ATOM     15  C   UNL A   1      33.384  27.560  23.597  1.00  0.00     0.257 C 
ATOM     16  O   UNL A   1      34.390  28.276  23.555  1.00  0.00    -0.269 OA
ATOM     17  H   UNL A   1      32.254  29.162  23.878  1.00  0.00     0.170 HD
BRANCH  15  18
ATOM     18  C   UNL A   1      33.552  26.110  23.377  1.00  0.00     0.061 A 
ATOM     19  C   UNL A   1      32.496  25.991  21.043  1.00  0.00     0.067 C 
ATOM     20  C   UNL A   1      33.145  25.391  22.252  1.00  0.00     0.050 A 
ATOM     21  N   UNL A   1      33.364  24.049  22.141  1.00  0.00    -0.261 NA
ATOM     22  C   UNL A   1      34.037  23.424  23.130  1.00  0.00     0.111 A 
ATOM     23  C   UNL A   1      34.311  25.436  24.346  1.00  0.00     0.017 A 
ATOM     24  C   UNL A   1      34.551  24.074  24.232  1.00  0.00     0.021 A 
ENDBRANCH  15  18
ENDBRANCH   9  14
ENDBRANCH   5   8
ENDBRANCH   3   4
ENDBRANCH   2   3
ENDBRANCH   1   2
BRANCH   1  25
ATOM     25  C   UNL A   1      31.666  30.784  26.430  1.00  0.00     0.002 C 
BRANCH  25  26
ATOM     26  C   UNL A   1      31.500  32.272  26.742  1.00  0.00     0.021 C 
BRANCH  26  27
ATOM     27  C   UNL A   1      32.725  32.971  27.319  1.00  0.00     0.116 C 
BRANCH  27  28
ATOM     28  N   UNL A   1      32.458  34.338  27.736  1.00  0.00    -0.352 N 
ATOM     29  C   UNL A   1      33.039  35.086  28.732  1.00  0.00     0.251 C 
ATOM     30  H   UNL A   1      31.754  34.799  27.226  1.00  0.00     0.163 HD
ATOM     31  O   UNL A   1      32.589  36.186  29.022  1.00  0.00    -0.269 OA
BRANCH  29  32
ATOM     32  C   UNL A   1      34.192  34.543  29.480  1.00  0.00     0.039 A 
ATOM     33  C   UNL A   1      33.962  33.918  30.708  1.00  0.00     0.014 A 
ATOM     34  C   UNL A   1      35.489  34.633  28.967  1.00  0.00     0.014 A 
ATOM     35  C   UNL A   1      35.019  33.302  31.379  1.00  0.00     0.010 A 
ATOM     36  C   UNL A   1      36.527  33.958  29.600  1.00  0.00     0.010 A 
ATOM     37  C   UNL A   1      36.299  33.272  30.803  1.00  0.00    -0.014 A 
BRANCH  37  38
ATOM     38  C   UNL A   1      37.400  32.484  31.408  1.00  0.00     0.031 A 
ATOM     39  C   UNL A   1      37.941  32.846  32.760  1.00  0.00     0.074 A 
ATOM     40  C   UNL A   1      37.972  31.498  30.691  1.00  0.00     0.049 A 
ATOM     41  N   UNL A   1      38.957  32.336  33.409  1.00  0.00    -0.248 NA
ATOM     42  C   UNL A   1      37.265  33.945  33.463  1.00  0.00     0.031 C 
ATOM     43  C   UNL A   1      37.554  31.076  29.354  1.00  0.00     0.029 A 
ATOM     44  N   UNL A   1      39.035  30.680  30.981  1.00  0.00    -0.354 N 
ATOM     45  C   UNL A   1      39.050  33.059  34.590  1.00  0.00     0.074 A 
ATOM     46  C   UNL A   1      38.022  34.078  34.543  1.00  0.00     0.031 C 
ATOM     47  C   UNL A   1      38.331  30.059  28.951  1.00  0.00     0.029 A 
ATOM     48  C   UNL A   1      39.335  29.793  29.976  1.00  0.00     0.049 A 
ATOM     49  H   UNL A   1      39.535  30.724  31.827  1.00  0.00     0.167 HD
ATOM     50  C   UNL A   1      39.905  32.877  35.626  1.00  0.00     0.037 A 
ATOM     51  C   UNL A   1      40.317  28.877  29.887  1.00  0.00     0.037 A 
ATOM     52  C   UNL A   1      40.924  31.860  35.661  1.00  0.00     0.049 A 
ATOM     53  C   UNL A   1      41.295  28.739  31.020  1.00  0.00     0.074 A 
ATOM     54  C   UNL A   1      41.796  31.546  36.689  1.00  0.00     0.029 A 
ATOM     55  N   UNL A   1      41.219  31.000  34.612  1.00  0.00    -0.354 N 
ATOM     56  N   UNL A   1      41.328  29.373  32.167  1.00  0.00    -0.248 NA
ATOM     57  C   UNL A   1      42.380  27.764  30.841  1.00  0.00     0.031 C 
ATOM     58  C   UNL A   1      42.665  30.546  36.236  1.00  0.00     0.029 A 
ATOM     59  C   UNL A   1      42.294  30.191  34.948  1.00  0.00     0.049 A 
ATOM     60  H   UNL A   1      40.737  30.969  33.753  1.00  0.00     0.167 HD
ATOM     61  C   UNL A   1      42.418  28.860  32.856  1.00  0.00     0.074 A 
ATOM     62  C   UNL A   1      43.013  27.851  32.003  1.00  0.00     0.031 C 
ATOM     63  C   UNL A   1      42.882  29.195  34.085  1.00  0.00     0.037 A 
BRANCH  50  64
ATOM     64  C   UNL A   1      39.787  33.820  36.790  1.00  0.00     0.064 A 
ATOM     65  C   UNL A   1      38.964  33.538  37.893  1.00  0.00     0.173 A 
ATOM     66  C   UNL A   1      40.507  35.025  36.805  1.00  0.00     0.173 A 
ATOM     67  F   UNL A   1      38.249  32.404  37.929  1.00  0.00    -0.203 F 
ATOM     68  C   UNL A   1      38.827  34.448  38.938  1.00  0.00     0.198 A 
ATOM     69  C   UNL A   1      40.396  35.915  37.871  1.00  0.00     0.198 A 
ATOM     70  F   UNL A   1      41.317  35.343  35.784  1.00  0.00    -0.203 F 
ATOM     71  F   UNL A   1      37.979  34.188  39.943  1.00  0.00    -0.200 F 
ATOM     72  C   UNL A   1      39.545  35.634  38.928  1.00  0.00     0.200 A 
ATOM     73  F   UNL A   1      41.104  37.054  37.866  1.00  0.00    -0.200 F 
ATOM     74  F   UNL A   1      39.409  36.510  39.932  1.00  0.00    -0.200 F 
ENDBRANCH  50  64
BRANCH  51  75
ATOM     75  C   UNL A   1      40.402  28.002  28.688  1.00  0.00     0.064 A 
ATOM     76  C   UNL A   1      41.137  28.406  27.565  1.00  0.00     0.173 A 
ATOM     77  C   UNL A   1      39.781  26.746  28.646  1.00  0.00     0.173 A 
ATOM     78  F   UNL A   1      41.730  29.608  27.550  1.00  0.00    -0.203 F 
ATOM     79  C   UNL A   1      41.242  27.588  26.441  1.00  0.00     0.198 A 
ATOM     80  C   UNL A   1      39.910  25.917  27.533  1.00  0.00     0.198 A 
ATOM     81  F   UNL A   1      39.067  26.313  29.696  1.00  0.00    -0.203 F 
ATOM     82  F   UNL A   1      41.922  28.012  25.368  1.00  0.00    -0.200 F 
ATOM     83  C   UNL A   1      40.635  26.341  26.429  1.00  0.00     0.200 A 
ATOM     84  F   UNL A   1      39.333  24.707  27.531  1.00  0.00    -0.200 F 
ATOM     85  F   UNL A   1      40.746  25.551  25.354  1.00  0.00    -0.200 F 
ENDBRANCH  51  75
BRANCH  63  86
ATOM     86  C   UNL A   1      44.088  28.456  34.592  1.00  0.00     0.064 A 
ATOM     87  C   UNL A   1      43.970  27.229  35.261  1.00  0.00     0.173 A 
ATOM     88  C   UNL A   1      45.379  28.954  34.358  1.00  0.00     0.173 A 
ATOM     89  F   UNL A   1      42.757  26.719  35.526  1.00  0.00    -0.203 F 
ATOM     90  C   UNL A   1      45.099  26.536  35.692  1.00  0.00     0.198 A 
ATOM     91  C   UNL A   1      46.507  28.244  34.761  1.00  0.00     0.198 A 
ATOM     92  F   UNL A   1      45.548  30.122  33.719  1.00  0.00    -0.203 F 
ATOM     93  F   UNL A   1      44.960  25.387  36.366  1.00  0.00    -0.200 F 
ATOM     94  C   UNL A   1      46.365  27.038  35.432  1.00  0.00     0.200 A 
ATOM     95  F   UNL A   1      47.729  28.723  34.495  1.00  0.00    -0.200 F 
ATOM     96  F   UNL A   1      47.450  26.363  35.833  1.00  0.00    -0.200 F 
ENDBRANCH  63  86
ENDBRANCH  37  38
ENDBRANCH  29  32
ENDBRANCH  27  28
ENDBRANCH  26  27
ENDBRANCH  25  26
ENDBRANCH   1  25
TORSDOF 15
ENDMDL
MODEL 2
REMARK VINA RESULT:     -12.3      1.130      7.540
REMARK SMILES Cc1ncccc1C(=O)Nc1ccccc1C(=O)NCCCCCCNC(=O)c1ccc(-c2c3nc(c(-c4c(F)c(F)c(F)c(F)c4F)c4ccc([nH]4)c(-c4c(F)c(F)c(F)c(F)c4F)c4nc(c(-c5c(F)c(F)c(F)c(F)c5F)c5ccc2[nH]5)C=C4)C=C3)cc1
REMARK SMILES IDX 22 1 21 2 20 3 19 4 17 5 18 6 16 8 11 9 12 10 13 11 15 12
REMARK SMILES IDX 14 13 10 14 8 15 9 16 7 18 1 19 2 20 3 21 4 22 6 23 5 24
REMARK SMILES IDX 23 25 24 26 25 27 26 28 27 29 28 31 29 32 30 33 91 34 31 35
REMARK SMILES IDX 90 36 32 37 33 38 34 39 84 40 35 41 89 42 83 43 85 44 36 45
REMARK SMILES IDX 88 46 82 47 81 48 37 50 69 51 49 52 68 53 50 54 53 55 67 56
REMARK SMILES IDX 86 57 51 58 52 59 66 61 87 62 54 63 38 64 39 65 47 66 40 67
REMARK SMILES IDX 41 68 45 69 48 70 42 71 43 72 46 73 44 74 70 75 71 76 79 77
REMARK SMILES IDX 72 78 73 79 77 80 80 81 74 82 75 83 78 84 76 85 55 86 56 87
REMARK SMILES IDX 64 88 57 89 58 90 62 91 65 92 59 93 60 94 63 95 61 96
REMARK H PARENT 19 7 10 17 26 30 85 49 53 60
REMARK Flexibility Score: inf
ROOT
ATOM      1  C   UNL A   1      32.578  29.413  27.207  1.00  0.00     0.002 C 
ENDROOT
BRANCH   1   2
ATOM      2  C   UNL A   1      31.696  28.216  27.581  1.00  0.00     0.021 C 
BRANCH   2   3
ATOM      3  C   UNL A   1      31.920  26.938  26.779  1.00  0.00     0.116 C 
BRANCH   3   4
ATOM      4  N   UNL A   1      30.792  26.531  25.973  1.00  0.00    -0.352 N 
ATOM      5  C   UNL A   1      30.658  26.433  24.609  1.00  0.00     0.253 C 
ATOM      6  O   UNL A   1      29.569  26.055  24.175  1.00  0.00    -0.269 OA
ATOM      7  H   UNL A   1      29.989  26.282  26.486  1.00  0.00     0.163 HD
BRANCH   5   8
ATOM      8  C   UNL A   1      31.712  26.861  23.637  1.00  0.00     0.063 A 
ATOM      9  C   UNL A   1      32.565  26.057  22.863  1.00  0.00     0.054 A 
ATOM     10  C   UNL A   1      33.653  26.657  22.195  1.00  0.00     0.027 A 
ATOM     11  C   UNL A   1      33.789  28.041  22.121  1.00  0.00     0.002 A 
ATOM     12  C   UNL A   1      31.858  28.265  23.534  1.00  0.00     0.016 A 
ATOM     13  C   UNL A   1      32.863  28.849  22.758  1.00  0.00     0.001 A 
BRANCH   9  14
ATOM     14  N   UNL A   1      32.442  24.690  22.560  1.00  0.00    -0.321 N 
ATOM     15  C   UNL A   1      33.116  23.566  22.967  1.00  0.00     0.257 C 
ATOM     16  O   UNL A   1      32.820  22.500  22.417  1.00  0.00    -0.269 OA
ATOM     17  H   UNL A   1      31.718  24.498  21.921  1.00  0.00     0.170 HD
BRANCH  15  18
ATOM     18  C   UNL A   1      34.161  23.542  24.010  1.00  0.00     0.061 A 
ATOM     19  C   UNL A   1      32.612  23.397  26.048  1.00  0.00     0.067 C 
ATOM     20  C   UNL A   1      33.954  23.486  25.389  1.00  0.00     0.050 A 
ATOM     21  N   UNL A   1      34.995  23.452  26.270  1.00  0.00    -0.261 NA
ATOM     22  C   UNL A   1      36.252  23.423  25.779  1.00  0.00     0.111 A 
ATOM     23  C   UNL A   1      35.479  23.436  23.541  1.00  0.00     0.017 A 
ATOM     24  C   UNL A   1      36.543  23.385  24.431  1.00  0.00     0.021 A 
ENDBRANCH  15  18
ENDBRANCH   9  14
ENDBRANCH   5   8
ENDBRANCH   3   4
ENDBRANCH   2   3
ENDBRANCH   1   2
BRANCH   1  25
ATOM     25  C   UNL A   1      31.991  30.444  26.237  1.00  0.00     0.002 C 
BRANCH  25  26
ATOM     26  C   UNL A   1      31.651  31.822  26.808  1.00  0.00     0.021 C 
BRANCH  26  27
ATOM     27  C   UNL A   1      32.826  32.626  27.350  1.00  0.00     0.116 C 
BRANCH  27  28
ATOM     28  N   UNL A   1      32.484  34.007  27.646  1.00  0.00    -0.352 N 
ATOM     29  C   UNL A   1      33.029  34.874  28.563  1.00  0.00     0.251 C 
ATOM     30  H   UNL A   1      31.751  34.379  27.106  1.00  0.00     0.163 HD
ATOM     31  O   UNL A   1      32.519  35.969  28.759  1.00  0.00    -0.269 OA
BRANCH  29  32
ATOM     32  C   UNL A   1      34.218  34.467  29.341  1.00  0.00     0.039 A 
ATOM     33  C   UNL A   1      34.035  33.948  30.625  1.00  0.00     0.014 A 
ATOM     34  C   UNL A   1      35.503  34.580  28.803  1.00  0.00     0.014 A 
ATOM     35  C   UNL A   1      35.131  33.456  31.335  1.00  0.00     0.010 A 
ATOM     36  C   UNL A   1      36.583  34.025  29.481  1.00  0.00     0.010 A 
ATOM     37  C   UNL A   1      36.405  33.443  30.745  1.00  0.00    -0.014 A 
BRANCH  37  38
ATOM     38  C   UNL A   1      37.554  32.776  31.405  1.00  0.00     0.031 A 
ATOM     39  C   UNL A   1      38.221  31.596  30.762  1.00  0.00     0.074 A 
ATOM     40  C   UNL A   1      37.934  33.183  32.631  1.00  0.00     0.049 A 
ATOM     41  N   UNL A   1      39.174  30.828  31.226  1.00  0.00    -0.248 NA
ATOM     42  C   UNL A   1      37.732  31.212  29.430  1.00  0.00     0.031 C 
ATOM     43  C   UNL A   1      37.341  34.298  33.370  1.00  0.00     0.029 A 
ATOM     44  N   UNL A   1      38.899  32.699  33.478  1.00  0.00    -0.354 N 
ATOM     45  C   UNL A   1      39.390  29.865  30.251  1.00  0.00     0.074 A 
ATOM     46  C   UNL A   1      38.432  30.112  29.194  1.00  0.00     0.031 C 
ATOM     47  C   UNL A   1      37.973  34.432  34.546  1.00  0.00     0.029 A 
ATOM     48  C   UNL A   1      38.979  33.381  34.667  1.00  0.00     0.049 A 
ATOM     49  H   UNL A   1      39.479  31.936  33.254  1.00  0.00     0.167 HD
ATOM     50  C   UNL A   1      40.316  28.875  30.232  1.00  0.00     0.037 A 
ATOM     51  C   UNL A   1      39.765  33.175  35.739  1.00  0.00     0.037 A 
ATOM     52  C   UNL A   1      41.265  28.639  31.290  1.00  0.00     0.049 A 
ATOM     53  C   UNL A   1      40.739  32.029  35.724  1.00  0.00     0.074 A 
ATOM     54  C   UNL A   1      42.288  27.708  31.341  1.00  0.00     0.029 A 
ATOM     55  N   UNL A   1      41.295  29.330  32.494  1.00  0.00    -0.354 N 
ATOM     56  N   UNL A   1      40.992  31.171  34.765  1.00  0.00    -0.248 NA
ATOM     57  C   UNL A   1      41.529  31.817  36.944  1.00  0.00     0.031 C 
ATOM     58  C   UNL A   1      42.890  27.789  32.602  1.00  0.00     0.029 A 
ATOM     59  C   UNL A   1      42.285  28.812  33.315  1.00  0.00     0.049 A 
ATOM     60  H   UNL A   1      40.699  30.078  32.731  1.00  0.00     0.167 HD
ATOM     61  C   UNL A   1      41.984  30.332  35.254  1.00  0.00     0.074 A 
ATOM     62  C   UNL A   1      42.297  30.795  36.591  1.00  0.00     0.031 C 
ATOM     63  C   UNL A   1      42.581  29.277  34.649  1.00  0.00     0.037 A 
BRANCH  50  64
ATOM     64  C   UNL A   1      40.323  27.960  29.040  1.00  0.00     0.064 A 
ATOM     65  C   UNL A   1      41.074  28.248  27.888  1.00  0.00     0.173 A 
ATOM     66  C   UNL A   1      39.568  26.777  29.047  1.00  0.00     0.173 A 
ATOM     67  F   UNL A   1      41.809  29.368  27.825  1.00  0.00    -0.203 F 
ATOM     68  C   UNL A   1      41.026  27.415  26.773  1.00  0.00     0.198 A 
ATOM     69  C   UNL A   1      39.553  25.927  27.944  1.00  0.00     0.198 A 
ATOM     70  F   UNL A   1      38.839  26.444  30.124  1.00  0.00    -0.203 F 
ATOM     71  F   UNL A   1      41.693  27.750  25.660  1.00  0.00    -0.200 F 
ATOM     72  C   UNL A   1      40.269  26.254  26.803  1.00  0.00     0.200 A 
ATOM     73  F   UNL A   1      38.833  24.797  27.981  1.00  0.00    -0.200 F 
ATOM     74  F   UNL A   1      40.221  25.456  25.728  1.00  0.00    -0.200 F 
ENDBRANCH  50  64
BRANCH  51  75
ATOM     75  C   UNL A   1      39.680  34.093  36.904  1.00  0.00     0.064 A 
ATOM     76  C   UNL A   1      38.895  33.760  38.016  1.00  0.00     0.173 A 
ATOM     77  C   UNL A   1      40.392  35.300  36.946  1.00  0.00     0.173 A 
ATOM     78  F   UNL A   1      38.179  32.626  38.013  1.00  0.00    -0.203 F 
ATOM     79  C   UNL A   1      38.820  34.602  39.124  1.00  0.00     0.198 A 
ATOM     80  C   UNL A   1      40.339  36.129  38.065  1.00  0.00     0.198 A 
ATOM     81  F   UNL A   1      41.159  35.665  35.908  1.00  0.00    -0.203 F 
ATOM     82  F   UNL A   1      38.036  34.275  40.159  1.00  0.00    -0.200 F 
ATOM     83  C   UNL A   1      39.549  35.781  39.151  1.00  0.00     0.200 A 
ATOM     84  F   UNL A   1      41.055  37.261  38.093  1.00  0.00    -0.200 F 
ATOM     85  F   UNL A   1      39.486  36.585  40.220  1.00  0.00    -0.200 F 
ENDBRANCH  51  75
BRANCH  63  86
ATOM     86  C   UNL A   1      43.646  28.552  35.420  1.00  0.00     0.064 A 
ATOM     87  C   UNL A   1      43.345  27.444  36.227  1.00  0.00     0.173 A 
ATOM     88  C   UNL A   1      44.993  28.935  35.309  1.00  0.00     0.173 A 
ATOM     89  F   UNL A   1      42.072  27.049  36.382  1.00  0.00    -0.203 F 
ATOM     90  C   UNL A   1      44.349  26.758  36.906  1.00  0.00     0.198 A 
ATOM     91  C   UNL A   1      45.997  28.227  35.963  1.00  0.00     0.198 A 
ATOM     92  F   UNL A   1      45.336  29.985  34.547  1.00  0.00    -0.203 F 
ATOM     93  F   UNL A   1      44.032  25.729  37.704  1.00  0.00    -0.200 F 
ATOM     94  C   UNL A   1      45.674  27.143  36.766  1.00  0.00     0.200 A 
ATOM     95  F   UNL A   1      47.277  28.591  35.813  1.00  0.00    -0.200 F 
ATOM     96  F   UNL A   1      46.639  26.472  37.407  1.00  0.00    -0.200 F 
ENDBRANCH  63  86
ENDBRANCH  37  38
ENDBRANCH  29  32
ENDBRANCH  27  28
ENDBRANCH  26  27
ENDBRANCH  25  26
ENDBRANCH   1  25
TORSDOF 15
ENDMDL
MODEL 3
REMARK VINA RESULT:     -12.3      5.530      9.946
REMARK SMILES Cc1ncccc1C(=O)Nc1ccccc1C(=O)NCCCCCCNC(=O)c1ccc(-c2c3nc(c(-c4c(F)c(F)c(F)c(F)c4F)c4ccc([nH]4)c(-c4c(F)c(F)c(F)c(F)c4F)c4nc(c(-c5c(F)c(F)c(F)c(F)c5F)c5ccc2[nH]5)C=C4)C=C3)cc1
REMARK SMILES IDX 22 1 21 2 20 3 19 4 17 5 18 6 16 8 11 9 12 10 13 11 15 12
REMARK SMILES IDX 14 13 10 14 8 15 9 16 7 18 1 19 2 20 3 21 4 22 6 23 5 24
REMARK SMILES IDX 23 25 24 26 25 27 26 28 27 29 28 31 29 32 30 33 91 34 31 35
REMARK SMILES IDX 90 36 32 37 33 38 34 39 84 40 35 41 89 42 83 43 85 44 36 45
REMARK SMILES IDX 88 46 82 47 81 48 37 50 69 51 49 52 68 53 50 54 53 55 67 56
REMARK SMILES IDX 86 57 51 58 52 59 66 61 87 62 54 63 38 64 39 65 47 66 40 67
REMARK SMILES IDX 41 68 45 69 48 70 42 71 43 72 46 73 44 74 70 75 71 76 79 77
REMARK SMILES IDX 72 78 73 79 77 80 80 81 74 82 75 83 78 84 76 85 55 86 56 87
REMARK SMILES IDX 64 88 57 89 58 90 62 91 65 92 59 93 60 94 63 95 61 96
REMARK H PARENT 19 7 10 17 26 30 85 49 53 60
REMARK Flexibility Score: inf
ROOT
ATOM      1  C   UNL A   1      37.028  22.249  24.414  1.00  0.00     0.002 C 
ENDROOT
BRANCH   1   2
ATOM      2  C   UNL A   1      37.225  23.401  25.406  1.00  0.00     0.021 C 
BRANCH   2   3
ATOM      3  C   UNL A   1      35.958  24.097  25.890  1.00  0.00     0.116 C 
BRANCH   3   4
ATOM      4  N   UNL A   1      35.178  23.333  26.837  1.00  0.00    -0.352 N 
ATOM      5  C   UNL A   1      33.917  22.799  26.731  1.00  0.00     0.253 C 
ATOM      6  O   UNL A   1      33.481  22.184  27.706  1.00  0.00    -0.269 OA
ATOM      7  H   UNL A   1      35.626  23.168  27.699  1.00  0.00     0.163 HD
BRANCH   5   8
ATOM      8  C   UNL A   1      33.016  23.018  25.557  1.00  0.00     0.063 A 
ATOM      9  C   UNL A   1      31.878  23.836  25.469  1.00  0.00     0.054 A 
ATOM     10  C   UNL A   1      31.029  23.712  24.349  1.00  0.00     0.027 A 
ATOM     11  C   UNL A   1      31.390  22.947  23.242  1.00  0.00     0.002 A 
ATOM     12  C   UNL A   1      33.373  22.262  24.414  1.00  0.00     0.016 A 
ATOM     13  C   UNL A   1      32.588  22.253  23.258  1.00  0.00     0.001 A 
BRANCH   9  14
ATOM     14  N   UNL A   1      31.483  24.880  26.324  1.00  0.00    -0.321 N 
ATOM     15  C   UNL A   1      31.589  26.247  26.259  1.00  0.00     0.257 C 
ATOM     16  O   UNL A   1      31.225  26.888  27.250  1.00  0.00    -0.269 OA
ATOM     17  H   UNL A   1      31.033  24.564  27.141  1.00  0.00     0.170 HD
BRANCH  15  18
ATOM     18  C   UNL A   1      32.105  26.997  25.096  1.00  0.00     0.061 A 
ATOM     19  C   UNL A   1      29.888  27.236  23.829  1.00  0.00     0.067 C 
ATOM     20  C   UNL A   1      31.364  27.430  23.995  1.00  0.00     0.050 A 
ATOM     21  N   UNL A   1      31.937  28.134  22.977  1.00  0.00    -0.261 NA
ATOM     22  C   UNL A   1      33.244  28.455  23.074  1.00  0.00     0.111 A 
ATOM     23  C   UNL A   1      33.441  27.415  25.192  1.00  0.00     0.017 A 
ATOM     24  C   UNL A   1      34.027  28.145  24.167  1.00  0.00     0.021 A 
ENDBRANCH  15  18
ENDBRANCH   9  14
ENDBRANCH   5   8
ENDBRANCH   3   4
ENDBRANCH   2   3
ENDBRANCH   1   2
BRANCH   1  25
ATOM     25  C   UNL A   1      36.905  20.834  24.993  1.00  0.00     0.002 C 
BRANCH  25  26
ATOM     26  C   UNL A   1      38.120  19.915  24.847  1.00  0.00     0.021 C 
BRANCH  26  27
ATOM     27  C   UNL A   1      39.305  20.230  25.752  1.00  0.00     0.116 C 
BRANCH  27  28
ATOM     28  N   UNL A   1      40.247  19.129  25.860  1.00  0.00    -0.352 N 
ATOM     29  C   UNL A   1      41.598  19.146  26.114  1.00  0.00     0.251 C 
ATOM     30  H   UNL A   1      39.858  18.234  25.735  1.00  0.00     0.163 HD
ATOM     31  O   UNL A   1      42.255  18.116  26.040  1.00  0.00    -0.269 OA
BRANCH  29  32
ATOM     32  C   UNL A   1      42.267  20.421  26.444  1.00  0.00     0.039 A 
ATOM     33  C   UNL A   1      42.875  21.147  25.415  1.00  0.00     0.014 A 
ATOM     34  C   UNL A   1      42.281  20.908  27.754  1.00  0.00     0.014 A 
ATOM     35  C   UNL A   1      43.416  22.404  25.683  1.00  0.00     0.010 A 
ATOM     36  C   UNL A   1      42.757  22.191  28.005  1.00  0.00     0.010 A 
ATOM     37  C   UNL A   1      43.313  22.958  26.969  1.00  0.00    -0.014 A 
BRANCH  37  38
ATOM     38  C   UNL A   1      43.726  24.355  27.244  1.00  0.00     0.031 A 
ATOM     39  C   UNL A   1      42.725  25.366  27.718  1.00  0.00     0.074 A 
ATOM     40  C   UNL A   1      44.991  24.730  26.975  1.00  0.00     0.049 A 
ATOM     41  N   UNL A   1      42.876  26.651  27.921  1.00  0.00    -0.248 NA
ATOM     42  C   UNL A   1      41.364  24.872  27.972  1.00  0.00     0.031 C 
ATOM     43  C   UNL A   1      46.046  23.845  26.481  1.00  0.00     0.029 A 
ATOM     44  N   UNL A   1      45.602  25.956  27.066  1.00  0.00    -0.354 N 
ATOM     45  C   UNL A   1      41.630  27.120  28.314  1.00  0.00     0.074 A 
ATOM     46  C   UNL A   1      40.722  25.992  28.268  1.00  0.00     0.031 C 
ATOM     47  C   UNL A   1      47.181  24.547  26.341  1.00  0.00     0.029 A 
ATOM     48  C   UNL A   1      46.921  25.942  26.684  1.00  0.00     0.049 A 
ATOM     49  H   UNL A   1      45.140  26.767  27.376  1.00  0.00     0.167 HD
ATOM     50  C   UNL A   1      41.281  28.372  28.695  1.00  0.00     0.037 A 
ATOM     51  C   UNL A   1      47.816  26.944  26.604  1.00  0.00     0.037 A 
ATOM     52  C   UNL A   1      42.194  29.486  28.737  1.00  0.00     0.049 A 
ATOM     53  C   UNL A   1      47.388  28.339  26.967  1.00  0.00     0.074 A 
ATOM     54  C   UNL A   1      41.961  30.779  29.171  1.00  0.00     0.029 A 
ATOM     55  N   UNL A   1      43.515  29.442  28.310  1.00  0.00    -0.354 N 
ATOM     56  N   UNL A   1      46.229  28.759  27.413  1.00  0.00    -0.248 NA
ATOM     57  C   UNL A   1      48.391  29.400  26.806  1.00  0.00     0.031 C 
ATOM     58  C   UNL A   1      43.117  31.533  28.942  1.00  0.00     0.029 A 
ATOM     59  C   UNL A   1      44.093  30.697  28.424  1.00  0.00     0.049 A 
ATOM     60  H   UNL A   1      43.974  28.637  27.976  1.00  0.00     0.167 HD
ATOM     61  C   UNL A   1      46.367  30.126  27.609  1.00  0.00     0.074 A 
ATOM     62  C   UNL A   1      47.730  30.462  27.246  1.00  0.00     0.031 C 
ATOM     63  C   UNL A   1      45.449  31.020  28.050  1.00  0.00     0.037 A 
BRANCH  50  64
ATOM     64  C   UNL A   1      39.844  28.605  29.067  1.00  0.00     0.064 A 
ATOM     65  C   UNL A   1      38.902  29.071  28.135  1.00  0.00     0.173 A 
ATOM     66  C   UNL A   1      39.400  28.359  30.375  1.00  0.00     0.173 A 
ATOM     67  F   UNL A   1      39.273  29.328  26.872  1.00  0.00    -0.203 F 
ATOM     68  C   UNL A   1      37.586  29.331  28.512  1.00  0.00     0.198 A 
ATOM     69  C   UNL A   1      38.074  28.584  30.739  1.00  0.00     0.198 A 
ATOM     70  F   UNL A   1      40.252  27.903  31.306  1.00  0.00    -0.203 F 
ATOM     71  F   UNL A   1      36.727  29.845  27.622  1.00  0.00    -0.200 F 
ATOM     72  C   UNL A   1      37.173  29.084  29.812  1.00  0.00     0.200 A 
ATOM     73  F   UNL A   1      37.672  28.330  31.992  1.00  0.00    -0.200 F 
ATOM     74  F   UNL A   1      35.908  29.339  30.173  1.00  0.00    -0.200 F 
ENDBRANCH  50  64
BRANCH  51  75
ATOM     75  C   UNL A   1      49.213  26.654  26.189  1.00  0.00     0.064 A 
ATOM     76  C   UNL A   1      49.612  26.839  24.858  1.00  0.00     0.173 A 
ATOM     77  C   UNL A   1      50.179  26.213  27.105  1.00  0.00     0.173 A 
ATOM     78  F   UNL A   1      48.718  27.238  23.941  1.00  0.00    -0.203 F 
ATOM     79  C   UNL A   1      50.923  26.590  24.457  1.00  0.00     0.198 A 
ATOM     80  C   UNL A   1      51.497  25.991  26.709  1.00  0.00     0.198 A 
ATOM     81  F   UNL A   1      49.849  26.022  28.390  1.00  0.00    -0.203 F 
ATOM     82  F   UNL A   1      51.269  26.743  23.173  1.00  0.00    -0.200 F 
ATOM     83  C   UNL A   1      51.866  26.174  25.385  1.00  0.00     0.200 A 
ATOM     84  F   UNL A   1      52.408  25.602  27.611  1.00  0.00    -0.200 F 
ATOM     85  F   UNL A   1      53.129  25.945  25.002  1.00  0.00    -0.200 F 
ENDBRANCH  51  75
BRANCH  63  86
ATOM     86  C   UNL A   1      45.886  32.451  28.179  1.00  0.00     0.064 A 
ATOM     87  C   UNL A   1      45.714  33.370  27.133  1.00  0.00     0.173 A 
ATOM     88  C   UNL A   1      46.435  32.923  29.382  1.00  0.00     0.173 A 
ATOM     89  F   UNL A   1      45.211  32.966  25.956  1.00  0.00    -0.203 F 
ATOM     90  C   UNL A   1      46.089  34.703  27.281  1.00  0.00     0.198 A 
ATOM     91  C   UNL A   1      46.779  34.263  29.538  1.00  0.00     0.198 A 
ATOM     92  F   UNL A   1      46.617  32.087  30.415  1.00  0.00    -0.203 F 
ATOM     93  F   UNL A   1      45.954  35.553  26.253  1.00  0.00    -0.200 F 
ATOM     94  C   UNL A   1      46.611  35.151  28.485  1.00  0.00     0.200 A 
ATOM     95  F   UNL A   1      47.268  34.696  30.707  1.00  0.00    -0.200 F 
ATOM     96  F   UNL A   1      46.957  36.436  28.630  1.00  0.00    -0.200 F 
ENDBRANCH  63  86
ENDBRANCH  37  38
ENDBRANCH  29  32
ENDBRANCH  27  28
ENDBRANCH  26  27
ENDBRANCH  25  26
ENDBRANCH   1  25
TORSDOF 15
ENDMDL
