MODEL 1
REMARK VINA RESULT:     -13.4      0.000      0.000
REMARK SMILES O=C(CCCN1C(=O)c2ccc3c4c(ccc(c24)C1=O)C(=O)NC3=O)NCCCCCCNC(=O)c1ccc(-c2c3nc(c(-c4c(F)c(F)c(F)c(F)c4F)c4ccc([nH]4)c(-c4c(F)c(F)c(F)c(F)c4F)c4nc(c(-c5c(F)c(F)c(F)c(F)c5F)c5ccc2[nH]5)C=C4)C=C3)cc1
REMARK SMILES IDX 29 1 28 2 27 3 26 4 1 5 2 6 3 8 4 9 5 10 6 11 19 12 7 13
REMARK SMILES IDX 20 14 17 15 9 16 8 17 16 18 18 19 10 20 15 21 13 22 11 23
REMARK SMILES IDX 14 24 12 25 21 26 24 27 23 28 22 29 25 30 30 32 31 33 32 34
REMARK SMILES IDX 33 35 34 36 35 38 36 39 37 40 98 41 38 42 97 43 39 44 40 45
REMARK SMILES IDX 41 46 91 47 42 48 96 49 90 50 92 51 43 52 95 53 89 54 88 55
REMARK SMILES IDX 44 57 76 58 56 59 75 60 57 61 60 62 74 63 93 64 58 65 59 66
REMARK SMILES IDX 73 68 94 69 61 70 45 71 46 72 54 73 47 74 48 75 52 76 55 77
REMARK SMILES IDX 49 78 50 79 53 80 51 81 77 82 78 83 86 84 79 85 80 86 84 87
REMARK SMILES IDX 87 88 81 89 82 90 85 91 83 92 62 93 63 94 71 95 64 96 65 97
REMARK SMILES IDX 69 98 72 99 66 100 67 101 70 102 68 103
REMARK H PARENT 26 7 23 31 33 37 92 56 60 67
REMARK Flexibility Score: inf
ROOT
ATOM      1  C   UNL A   1      31.421  29.921  25.188  1.00  0.00     0.002 C 
ENDROOT
BRANCH   1   2
ATOM      2  C   UNL A   1      30.328  30.536  24.298  1.00  0.00     0.021 C 
BRANCH   2   3
ATOM      3  C   UNL A   1      29.676  29.580  23.293  1.00  0.00     0.116 C 
BRANCH   3   4
ATOM      4  N   UNL A   1      29.893  28.204  23.669  1.00  0.00    -0.356 N 
ATOM      5  O   UNL A   1      30.844  27.442  21.732  1.00  0.00    -0.275 OA
ATOM      6  C   UNL A   1      30.470  27.245  22.883  1.00  0.00     0.220 C 
ATOM      7  H   UNL A   1      29.601  27.932  24.569  1.00  0.00     0.163 HD
BRANCH   6   8
ATOM      8  C   UNL A   1      30.616  25.893  23.572  1.00  0.00     0.102 C 
BRANCH   8   9
ATOM      9  C   UNL A   1      29.953  25.819  24.954  1.00  0.00     0.032 C 
BRANCH   9  10
ATOM     10  C   UNL A   1      30.788  25.333  26.157  1.00  0.00     0.130 C 
BRANCH  10  11
ATOM     11  N   UNL A   1      31.848  24.352  25.859  1.00  0.00    -0.274 N 
ATOM     12  C   UNL A   1      31.491  23.017  25.727  1.00  0.00     0.261 C 
ATOM     13  C   UNL A   1      33.179  24.780  25.918  1.00  0.00     0.261 C 
ATOM     14  O   UNL A   1      30.357  22.581  25.884  1.00  0.00    -0.269 OA
ATOM     15  C   UNL A   1      32.540  22.033  25.437  1.00  0.00     0.049 A 
ATOM     16  C   UNL A   1      34.235  23.746  25.739  1.00  0.00     0.049 A 
ATOM     17  O   UNL A   1      33.524  25.937  26.135  1.00  0.00    -0.269 OA
ATOM     18  C   UNL A   1      32.172  20.705  25.169  1.00  0.00     0.015 A 
ATOM     19  C   UNL A   1      33.877  22.419  25.480  1.00  0.00     0.009 A 
ATOM     20  C   UNL A   1      35.588  24.102  25.830  1.00  0.00     0.015 A 
ATOM     21  C   UNL A   1      33.149  19.745  24.942  1.00  0.00     0.015 A 
ATOM     22  C   UNL A   1      34.877  21.438  25.272  1.00  0.00     0.009 A 
ATOM     23  C   UNL A   1      36.580  23.137  25.642  1.00  0.00     0.015 A 
ATOM     24  C   UNL A   1      34.495  20.112  24.997  1.00  0.00     0.048 A 
ATOM     25  C   UNL A   1      36.223  21.814  25.355  1.00  0.00     0.048 A 
ATOM     26  C   UNL A   1      35.537  19.089  24.768  1.00  0.00     0.258 C 
ATOM     27  C   UNL A   1      37.276  20.793  25.141  1.00  0.00     0.258 C 
ATOM     28  N   UNL A   1      36.837  19.518  24.860  1.00  0.00    -0.288 N 
ATOM     29  O   UNL A   1      35.246  17.927  24.512  1.00  0.00    -0.269 OA
ATOM     30  O   UNL A   1      38.462  21.072  25.210  1.00  0.00    -0.269 OA
ATOM     31  H   UNL A   1      37.533  18.838  24.707  1.00  0.00     0.173 HD
ENDBRANCH  10  11
ENDBRANCH   9  10
ENDBRANCH   8   9
ENDBRANCH   6   8
ENDBRANCH   3   4
ENDBRANCH   2   3
ENDBRANCH   1   2
BRANCH   1  32
ATOM     32  C   UNL A   1      31.601  30.557  26.567  1.00  0.00     0.002 C 
BRANCH  32  33
ATOM     33  C   UNL A   1      31.518  32.081  26.590  1.00  0.00     0.021 C 
BRANCH  33  34
ATOM     34  C   UNL A   1      32.665  32.779  27.313  1.00  0.00     0.116 C 
BRANCH  34  35
ATOM     35  N   UNL A   1      32.372  34.167  27.639  1.00  0.00    -0.352 N 
ATOM     36  C   UNL A   1      32.956  34.979  28.581  1.00  0.00     0.251 C 
ATOM     37  H   UNL A   1      31.653  34.582  27.109  1.00  0.00     0.163 HD
ATOM     38  O   UNL A   1      32.492  36.089  28.817  1.00  0.00    -0.269 OA
BRANCH  36  39
ATOM     39  C   UNL A   1      34.133  34.496  29.337  1.00  0.00     0.039 A 
ATOM     40  C   UNL A   1      33.945  33.973  30.618  1.00  0.00     0.014 A 
ATOM     41  C   UNL A   1      35.414  34.545  28.779  1.00  0.00     0.014 A 
ATOM     42  C   UNL A   1      35.030  33.430  31.311  1.00  0.00     0.010 A 
ATOM     43  C   UNL A   1      36.479  33.939  29.439  1.00  0.00     0.010 A 
ATOM     44  C   UNL A   1      36.299  33.373  30.711  1.00  0.00    -0.014 A 
BRANCH  44  45
ATOM     45  C   UNL A   1      37.446  32.719  31.392  1.00  0.00     0.031 A 
ATOM     46  C   UNL A   1      38.143  31.552  30.748  1.00  0.00     0.074 A 
ATOM     47  C   UNL A   1      37.812  33.127  32.623  1.00  0.00     0.049 A 
ATOM     48  N   UNL A   1      39.110  30.804  31.217  1.00  0.00    -0.248 NA
ATOM     49  C   UNL A   1      37.674  31.158  29.411  1.00  0.00     0.031 C 
ATOM     50  C   UNL A   1      37.182  34.212  33.377  1.00  0.00     0.029 A 
ATOM     51  N   UNL A   1      38.795  32.666  33.464  1.00  0.00    -0.354 N 
ATOM     52  C   UNL A   1      39.349  29.843  30.243  1.00  0.00     0.074 A 
ATOM     53  C   UNL A   1      38.396  30.072  29.179  1.00  0.00     0.031 C 
ATOM     54  C   UNL A   1      37.804  34.346  34.558  1.00  0.00     0.029 A 
ATOM     55  C   UNL A   1      38.850  33.334  34.664  1.00  0.00     0.049 A 
ATOM     56  H   UNL A   1      39.402  31.927  33.230  1.00  0.00     0.167 HD
ATOM     57  C   UNL A   1      40.293  28.871  30.230  1.00  0.00     0.037 A 
ATOM     58  C   UNL A   1      39.650  33.144  35.732  1.00  0.00     0.037 A 
ATOM     59  C   UNL A   1      41.260  28.666  31.275  1.00  0.00     0.049 A 
ATOM     60  C   UNL A   1      40.690  32.056  35.688  1.00  0.00     0.074 A 
ATOM     61  C   UNL A   1      42.303  27.757  31.318  1.00  0.00     0.029 A 
ATOM     62  N   UNL A   1      41.301  29.377  32.465  1.00  0.00    -0.354 N 
ATOM     63  N   UNL A   1      40.959  31.207  34.729  1.00  0.00    -0.248 NA
ATOM     64  C   UNL A   1      41.543  31.909  36.876  1.00  0.00     0.031 C 
ATOM     65  C   UNL A   1      42.945  27.885  32.554  1.00  0.00     0.029 A 
ATOM     66  C   UNL A   1      42.336  28.910  33.260  1.00  0.00     0.049 A 
ATOM     67  H   UNL A   1      40.686  30.106  32.709  1.00  0.00     0.167 HD
ATOM     68  C   UNL A   1      42.027  30.445  35.182  1.00  0.00     0.074 A 
ATOM     69  C   UNL A   1      42.367  30.943  36.498  1.00  0.00     0.031 C 
ATOM     70  C   UNL A   1      42.670  29.424  34.563  1.00  0.00     0.037 A 
BRANCH  57  71
ATOM     71  C   UNL A   1      40.328  27.952  29.043  1.00  0.00     0.064 A 
ATOM     72  C   UNL A   1      39.597  26.754  29.015  1.00  0.00     0.173 A 
ATOM     73  C   UNL A   1      41.066  28.295  27.900  1.00  0.00     0.173 A 
ATOM     74  F   UNL A   1      38.883  26.374  30.085  1.00  0.00    -0.203 F 
ATOM     75  C   UNL A   1      39.627  25.922  27.899  1.00  0.00     0.198 A 
ATOM     76  C   UNL A   1      41.069  27.476  26.775  1.00  0.00     0.198 A 
ATOM     77  F   UNL A   1      41.779  29.432  27.871  1.00  0.00    -0.203 F 
ATOM     78  F   UNL A   1      38.959  24.760  27.915  1.00  0.00    -0.200 F 
ATOM     79  C   UNL A   1      40.356  26.287  26.777  1.00  0.00     0.200 A 
ATOM     80  F   UNL A   1      41.763  27.837  25.686  1.00  0.00    -0.200 F 
ATOM     81  F   UNL A   1      40.376  25.490  25.701  1.00  0.00    -0.200 F 
ENDBRANCH  57  71
BRANCH  58  82
ATOM     82  C   UNL A   1      39.512  34.015  36.928  1.00  0.00     0.064 A 
ATOM     83  C   UNL A   1      40.168  35.254  36.995  1.00  0.00     0.173 A 
ATOM     84  C   UNL A   1      38.740  33.626  38.032  1.00  0.00     0.173 A 
ATOM     85  F   UNL A   1      40.935  35.660  35.974  1.00  0.00    -0.203 F 
ATOM     86  C   UNL A   1      40.074  36.057  38.130  1.00  0.00     0.198 A 
ATOM     87  C   UNL A   1      38.624  34.444  39.154  1.00  0.00     0.198 A 
ATOM     88  F   UNL A   1      38.090  32.453  38.017  1.00  0.00    -0.203 F 
ATOM     89  F   UNL A   1      40.752  37.212  38.187  1.00  0.00    -0.200 F 
ATOM     90  C   UNL A   1      39.299  35.654  39.206  1.00  0.00     0.200 A 
ATOM     91  F   UNL A   1      37.863  34.057  40.187  1.00  0.00    -0.200 F 
ATOM     92  F   UNL A   1      39.209  36.428  40.296  1.00  0.00    -0.200 F 
ENDBRANCH  58  82
BRANCH  70  93
ATOM     93  C   UNL A   1      43.829  28.801  35.284  1.00  0.00     0.064 A 
ATOM     94  C   UNL A   1      45.132  29.308  35.164  1.00  0.00     0.173 A 
ATOM     95  C   UNL A   1      43.626  27.705  36.139  1.00  0.00     0.173 A 
ATOM     96  F   UNL A   1      45.380  30.344  34.348  1.00  0.00    -0.203 F 
ATOM     97  C   UNL A   1      46.192  28.725  35.853  1.00  0.00     0.198 A 
ATOM     98  C   UNL A   1      44.684  27.145  36.850  1.00  0.00     0.198 A 
ATOM     99  F   UNL A   1      42.399  27.188  36.295  1.00  0.00    -0.203 F 
ATOM    100  F   UNL A   1      47.435  29.196  35.687  1.00  0.00    -0.200 F 
ATOM    101  C   UNL A   1      45.967  27.651  36.701  1.00  0.00     0.200 A 
ATOM    102  F   UNL A   1      44.461  26.117  37.679  1.00  0.00    -0.200 F 
ATOM    103  F   UNL A   1      46.988  27.098  37.369  1.00  0.00    -0.200 F 
ENDBRANCH  70  93
ENDBRANCH  44  45
ENDBRANCH  36  39
ENDBRANCH  34  35
ENDBRANCH  33  34
ENDBRANCH  32  33
ENDBRANCH   1  32
TORSDOF 16
ENDMDL
MODEL 2
REMARK VINA RESULT:     -13.3      0.179      2.156
REMARK SMILES O=C(CCCN1C(=O)c2ccc3c4c(ccc(c24)C1=O)C(=O)NC3=O)NCCCCCCNC(=O)c1ccc(-c2c3nc(c(-c4c(F)c(F)c(F)c(F)c4F)c4ccc([nH]4)c(-c4c(F)c(F)c(F)c(F)c4F)c4nc(c(-c5c(F)c(F)c(F)c(F)c5F)c5ccc2[nH]5)C=C4)C=C3)cc1
REMARK SMILES IDX 29 1 28 2 27 3 26 4 1 5 2 6 3 8 4 9 5 10 6 11 19 12 7 13
REMARK SMILES IDX 20 14 17 15 9 16 8 17 16 18 18 19 10 20 15 21 13 22 11 23
REMARK SMILES IDX 14 24 12 25 21 26 24 27 23 28 22 29 25 30 30 32 31 33 32 34
REMARK SMILES IDX 33 35 34 36 35 38 36 39 37 40 98 41 38 42 97 43 39 44 40 45
REMARK SMILES IDX 41 46 91 47 42 48 96 49 90 50 92 51 43 52 95 53 89 54 88 55
REMARK SMILES IDX 44 57 76 58 56 59 75 60 57 61 60 62 74 63 93 64 58 65 59 66
REMARK SMILES IDX 73 68 94 69 61 70 45 71 46 72 54 73 47 74 48 75 52 76 55 77
REMARK SMILES IDX 49 78 50 79 53 80 51 81 77 82 78 83 86 84 79 85 80 86 84 87
REMARK SMILES IDX 87 88 81 89 82 90 85 91 83 92 62 93 63 94 71 95 64 96 65 97
REMARK SMILES IDX 69 98 72 99 66 100 67 101 70 102 68 103
REMARK H PARENT 26 7 23 31 33 37 92 56 60 67
REMARK Flexibility Score: inf
ROOT
ATOM      1  C   UNL A   1      31.494  29.763  25.512  1.00  0.00     0.002 C 
ENDROOT
BRANCH   1   2
ATOM      2  C   UNL A   1      30.594  30.504  24.509  1.00  0.00     0.021 C 
BRANCH   2   3
ATOM      3  C   UNL A   1      29.915  29.625  23.453  1.00  0.00     0.116 C 
BRANCH   3   4
ATOM      4  N   UNL A   1      30.074  28.224  23.762  1.00  0.00    -0.356 N 
ATOM      5  O   UNL A   1      30.842  27.489  21.736  1.00  0.00    -0.275 OA
ATOM      6  C   UNL A   1      30.537  27.267  22.902  1.00  0.00     0.220 C 
ATOM      7  H   UNL A   1      29.829  27.934  24.670  1.00  0.00     0.163 HD
BRANCH   6   8
ATOM      8  C   UNL A   1      30.648  25.881  23.529  1.00  0.00     0.102 C 
BRANCH   8   9
ATOM      9  C   UNL A   1      30.055  25.783  24.941  1.00  0.00     0.032 C 
BRANCH   9  10
ATOM     10  C   UNL A   1      31.006  25.569  26.137  1.00  0.00     0.130 C 
BRANCH  10  11
ATOM     11  N   UNL A   1      32.003  24.492  25.990  1.00  0.00    -0.274 N 
ATOM     12  C   UNL A   1      33.343  24.842  25.902  1.00  0.00     0.261 C 
ATOM     13  C   UNL A   1      31.541  23.193  25.751  1.00  0.00     0.261 C 
ATOM     14  O   UNL A   1      33.763  25.994  25.892  1.00  0.00    -0.269 OA
ATOM     15  C   UNL A   1      34.342  23.778  25.749  1.00  0.00     0.049 A 
ATOM     16  C   UNL A   1      32.563  22.145  25.480  1.00  0.00     0.049 A 
ATOM     17  O   UNL A   1      30.356  22.876  25.722  1.00  0.00    -0.269 OA
ATOM     18  C   UNL A   1      35.704  24.111  25.794  1.00  0.00     0.015 A 
ATOM     19  C   UNL A   1      33.923  22.471  25.515  1.00  0.00     0.009 A 
ATOM     20  C   UNL A   1      32.163  20.833  25.191  1.00  0.00     0.015 A 
ATOM     21  C   UNL A   1      36.667  23.129  25.601  1.00  0.00     0.015 A 
ATOM     22  C   UNL A   1      34.902  21.471  25.295  1.00  0.00     0.009 A 
ATOM     23  C   UNL A   1      33.122  19.845  24.956  1.00  0.00     0.015 A 
ATOM     24  C   UNL A   1      36.264  21.816  25.349  1.00  0.00     0.048 A 
ATOM     25  C   UNL A   1      34.484  20.163  25.018  1.00  0.00     0.048 A 
ATOM     26  C   UNL A   1      37.287  20.772  25.132  1.00  0.00     0.258 C 
ATOM     27  C   UNL A   1      35.502  19.111  24.784  1.00  0.00     0.258 C 
ATOM     28  N   UNL A   1      36.817  19.510  24.869  1.00  0.00    -0.288 N 
ATOM     29  O   UNL A   1      38.484  21.028  25.186  1.00  0.00    -0.269 OA
ATOM     30  O   UNL A   1      35.186  17.960  24.534  1.00  0.00    -0.269 OA
ATOM     31  H   UNL A   1      37.497  18.812  24.723  1.00  0.00     0.173 HD
ENDBRANCH  10  11
ENDBRANCH   9  10
ENDBRANCH   8   9
ENDBRANCH   6   8
ENDBRANCH   3   4
ENDBRANCH   2   3
ENDBRANCH   1   2
BRANCH   1  32
ATOM     32  C   UNL A   1      31.771  30.487  26.830  1.00  0.00     0.002 C 
BRANCH  32  33
ATOM     33  C   UNL A   1      31.552  31.998  26.794  1.00  0.00     0.021 C 
BRANCH  33  34
ATOM     34  C   UNL A   1      32.768  32.836  27.176  1.00  0.00     0.116 C 
BRANCH  34  35
ATOM     35  N   UNL A   1      32.421  34.190  27.581  1.00  0.00    -0.352 N 
ATOM     36  C   UNL A   1      32.961  34.961  28.582  1.00  0.00     0.251 C 
ATOM     37  H   UNL A   1      31.697  34.612  27.065  1.00  0.00     0.163 HD
ATOM     38  O   UNL A   1      32.455  36.038  28.877  1.00  0.00    -0.269 OA
BRANCH  36  39
ATOM     39  C   UNL A   1      34.142  34.473  29.328  1.00  0.00     0.039 A 
ATOM     40  C   UNL A   1      33.951  33.847  30.562  1.00  0.00     0.014 A 
ATOM     41  C   UNL A   1      35.432  34.617  28.806  1.00  0.00     0.014 A 
ATOM     42  C   UNL A   1      35.043  33.299  31.238  1.00  0.00     0.010 A 
ATOM     43  C   UNL A   1      36.508  34.008  29.445  1.00  0.00     0.010 A 
ATOM     44  C   UNL A   1      36.325  33.341  30.667  1.00  0.00    -0.014 A 
BRANCH  44  45
ATOM     45  C   UNL A   1      37.485  32.686  31.325  1.00  0.00     0.031 A 
ATOM     46  C   UNL A   1      38.181  31.531  30.658  1.00  0.00     0.074 A 
ATOM     47  C   UNL A   1      37.865  33.081  32.555  1.00  0.00     0.049 A 
ATOM     48  N   UNL A   1      39.159  30.783  31.104  1.00  0.00    -0.248 NA
ATOM     49  C   UNL A   1      37.697  31.151  29.322  1.00  0.00     0.031 C 
ATOM     50  C   UNL A   1      37.238  34.153  33.331  1.00  0.00     0.029 A 
ATOM     51  N   UNL A   1      38.862  32.616  33.378  1.00  0.00    -0.354 N 
ATOM     52  C   UNL A   1      39.391  29.836  30.116  1.00  0.00     0.074 A 
ATOM     53  C   UNL A   1      38.423  30.072  29.067  1.00  0.00     0.031 C 
ATOM     54  C   UNL A   1      37.875  34.277  34.506  1.00  0.00     0.029 A 
ATOM     55  C   UNL A   1      38.929  33.270  34.585  1.00  0.00     0.049 A 
ATOM     56  H   UNL A   1      39.471  31.884  33.127  1.00  0.00     0.167 HD
ATOM     57  C   UNL A   1      40.341  28.870  30.078  1.00  0.00     0.037 A 
ATOM     58  C   UNL A   1      39.743  33.072  35.640  1.00  0.00     0.037 A 
ATOM     59  C   UNL A   1      41.323  28.659  31.108  1.00  0.00     0.049 A 
ATOM     60  C   UNL A   1      40.790  31.992  35.570  1.00  0.00     0.074 A 
ATOM     61  C   UNL A   1      42.372  27.756  31.127  1.00  0.00     0.029 A 
ATOM     62  N   UNL A   1      41.375  29.356  32.306  1.00  0.00    -0.354 N 
ATOM     63  N   UNL A   1      41.051  31.155  34.597  1.00  0.00    -0.248 NA
ATOM     64  C   UNL A   1      41.659  31.835  36.745  1.00  0.00     0.031 C 
ATOM     65  C   UNL A   1      43.030  27.873  32.356  1.00  0.00     0.029 A 
ATOM     66  C   UNL A   1      42.424  28.886  33.082  1.00  0.00     0.049 A 
ATOM     67  H   UNL A   1      40.759  30.078  32.567  1.00  0.00     0.167 HD
ATOM     68  C   UNL A   1      42.130  30.395  35.026  1.00  0.00     0.074 A 
ATOM     69  C   UNL A   1      42.484  30.880  36.344  1.00  0.00     0.031 C 
ATOM     70  C   UNL A   1      42.771  29.386  34.387  1.00  0.00     0.037 A 
BRANCH  57  71
ATOM     71  C   UNL A   1      40.367  27.966  28.880  1.00  0.00     0.064 A 
ATOM     72  C   UNL A   1      41.132  28.270  27.743  1.00  0.00     0.173 A 
ATOM     73  C   UNL A   1      39.653  26.758  28.885  1.00  0.00     0.173 A 
ATOM     74  F   UNL A   1      41.823  29.418  27.682  1.00  0.00    -0.203 F 
ATOM     75  C   UNL A   1      41.159  27.412  26.647  1.00  0.00     0.198 A 
ATOM     76  C   UNL A   1      39.708  25.888  27.800  1.00  0.00     0.198 A 
ATOM     77  F   UNL A   1      38.911  26.415  29.949  1.00  0.00    -0.203 F 
ATOM     78  F   UNL A   1      41.859  27.747  25.554  1.00  0.00    -0.200 F 
ATOM     79  C   UNL A   1      40.454  26.218  26.679  1.00  0.00     0.200 A 
ATOM     80  F   UNL A   1      39.037  24.728  27.838  1.00  0.00    -0.200 F 
ATOM     81  F   UNL A   1      40.489  25.390  25.627  1.00  0.00    -0.200 F 
ENDBRANCH  57  71
BRANCH  58  82
ATOM     82  C   UNL A   1      39.616  33.928  36.849  1.00  0.00     0.064 A 
ATOM     83  C   UNL A   1      38.856  33.508  37.950  1.00  0.00     0.173 A 
ATOM     84  C   UNL A   1      40.235  35.184  36.925  1.00  0.00     0.173 A 
ATOM     85  F   UNL A   1      38.227  32.324  37.917  1.00  0.00    -0.203 F 
ATOM     86  C   UNL A   1      38.701  34.322  39.070  1.00  0.00     0.198 A 
ATOM     87  C   UNL A   1      40.103  35.984  38.058  1.00  0.00     0.198 A 
ATOM     88  F   UNL A   1      40.976  35.631  35.900  1.00  0.00    -0.203 F 
ATOM     89  F   UNL A   1      37.927  33.917  40.087  1.00  0.00    -0.200 F 
ATOM     90  C   UNL A   1      39.328  35.557  39.125  1.00  0.00     0.200 A 
ATOM     91  F   UNL A   1      40.722  37.171  38.113  1.00  0.00    -0.200 F 
ATOM     92  F   UNL A   1      39.179  36.338  40.204  1.00  0.00    -0.200 F 
ENDBRANCH  58  82
BRANCH  70  93
ATOM     93  C   UNL A   1      43.944  28.762  35.085  1.00  0.00     0.064 A 
ATOM     94  C   UNL A   1      45.248  29.251  34.920  1.00  0.00     0.173 A 
ATOM     95  C   UNL A   1      43.753  27.683  35.964  1.00  0.00     0.173 A 
ATOM     96  F   UNL A   1      45.484  30.271  34.080  1.00  0.00    -0.203 F 
ATOM     97  C   UNL A   1      46.321  28.668  35.588  1.00  0.00     0.198 A 
ATOM     98  C   UNL A   1      44.825  27.122  36.653  1.00  0.00     0.198 A 
ATOM     99  F   UNL A   1      42.526  27.181  36.162  1.00  0.00    -0.203 F 
ATOM    100  F   UNL A   1      47.564  29.123  35.379  1.00  0.00    -0.200 F 
ATOM    101  C   UNL A   1      46.108  27.611  36.460  1.00  0.00     0.200 A 
ATOM    102  F   UNL A   1      44.614  26.110  37.505  1.00  0.00    -0.200 F 
ATOM    103  F   UNL A   1      47.142  27.057  37.108  1.00  0.00    -0.200 F 
ENDBRANCH  70  93
ENDBRANCH  44  45
ENDBRANCH  36  39
ENDBRANCH  34  35
ENDBRANCH  33  34
ENDBRANCH  32  33
ENDBRANCH   1  32
TORSDOF 16
ENDMDL
MODEL 3
REMARK VINA RESULT:     -12.9      3.231      8.290
REMARK SMILES O=C(CCCN1C(=O)c2ccc3c4c(ccc(c24)C1=O)C(=O)NC3=O)NCCCCCCNC(=O)c1ccc(-c2c3nc(c(-c4c(F)c(F)c(F)c(F)c4F)c4ccc([nH]4)c(-c4c(F)c(F)c(F)c(F)c4F)c4nc(c(-c5c(F)c(F)c(F)c(F)c5F)c5ccc2[nH]5)C=C4)C=C3)cc1
REMARK SMILES IDX 29 1 28 2 27 3 26 4 1 5 2 6 3 8 4 9 5 10 6 11 19 12 7 13
REMARK SMILES IDX 20 14 17 15 9 16 8 17 16 18 18 19 10 20 15 21 13 22 11 23
REMARK SMILES IDX 14 24 12 25 21 26 24 27 23 28 22 29 25 30 30 32 31 33 32 34
REMARK SMILES IDX 33 35 34 36 35 38 36 39 37 40 98 41 38 42 97 43 39 44 40 45
REMARK SMILES IDX 41 46 91 47 42 48 96 49 90 50 92 51 43 52 95 53 89 54 88 55
REMARK SMILES IDX 44 57 76 58 56 59 75 60 57 61 60 62 74 63 93 64 58 65 59 66
REMARK SMILES IDX 73 68 94 69 61 70 45 71 46 72 54 73 47 74 48 75 52 76 55 77
REMARK SMILES IDX 49 78 50 79 53 80 51 81 77 82 78 83 86 84 79 85 80 86 84 87
REMARK SMILES IDX 87 88 81 89 82 90 85 91 83 92 62 93 63 94 71 95 64 96 65 97
REMARK SMILES IDX 69 98 72 99 66 100 67 101 70 102 68 103
REMARK H PARENT 26 7 23 31 33 37 92 56 60 67
REMARK Flexibility Score: inf
ROOT
ATOM      1  C   UNL A   1      34.025  27.653  24.081  1.00  0.00     0.002 C 
ENDROOT
BRANCH   1   2
ATOM      2  C   UNL A   1      33.579  29.092  23.773  1.00  0.00     0.021 C 
BRANCH   2   3
ATOM      3  C   UNL A   1      32.637  29.251  22.574  1.00  0.00     0.116 C 
BRANCH   3   4
ATOM      4  N   UNL A   1      31.265  29.022  22.958  1.00  0.00    -0.356 N 
ATOM      5  O   UNL A   1      30.219  30.069  21.212  1.00  0.00    -0.275 OA
ATOM      6  C   UNL A   1      30.164  29.424  22.253  1.00  0.00     0.220 C 
ATOM      7  H   UNL A   1      31.108  28.535  23.798  1.00  0.00     0.163 HD
BRANCH   6   8
ATOM      8  C   UNL A   1      28.843  28.991  22.879  1.00  0.00     0.102 C 
BRANCH   8   9
ATOM      9  C   UNL A   1      28.996  27.998  24.040  1.00  0.00     0.032 C 
BRANCH   9  10
ATOM     10  C   UNL A   1      28.809  26.491  23.762  1.00  0.00     0.130 C 
BRANCH  10  11
ATOM     11  N   UNL A   1      29.966  25.627  24.058  1.00  0.00    -0.274 N 
ATOM     12  C   UNL A   1      30.122  25.155  25.354  1.00  0.00     0.261 C 
ATOM     13  C   UNL A   1      30.952  25.485  23.075  1.00  0.00     0.261 C 
ATOM     14  O   UNL A   1      29.386  25.441  26.292  1.00  0.00    -0.269 OA
ATOM     15  C   UNL A   1      31.274  24.299  25.660  1.00  0.00     0.049 A 
ATOM     16  C   UNL A   1      32.171  24.711  23.440  1.00  0.00     0.049 A 
ATOM     17  O   UNL A   1      30.886  25.978  21.953  1.00  0.00    -0.269 OA
ATOM     18  C   UNL A   1      31.366  23.710  26.930  1.00  0.00     0.015 A 
ATOM     19  C   UNL A   1      32.274  24.127  24.707  1.00  0.00     0.009 A 
ATOM     20  C   UNL A   1      33.214  24.568  22.515  1.00  0.00     0.015 A 
ATOM     21  C   UNL A   1      32.472  22.937  27.260  1.00  0.00     0.015 A 
ATOM     22  C   UNL A   1      33.415  23.359  25.048  1.00  0.00     0.009 A 
ATOM     23  C   UNL A   1      34.350  23.826  22.849  1.00  0.00     0.015 A 
ATOM     24  C   UNL A   1      33.492  22.767  26.322  1.00  0.00     0.048 A 
ATOM     25  C   UNL A   1      34.442  23.218  24.106  1.00  0.00     0.048 A 
ATOM     26  C   UNL A   1      34.676  21.956  26.674  1.00  0.00     0.258 C 
ATOM     27  C   UNL A   1      35.640  22.418  24.456  1.00  0.00     0.258 C 
ATOM     28  N   UNL A   1      35.647  21.851  25.711  1.00  0.00    -0.288 N 
ATOM     29  O   UNL A   1      34.774  21.412  27.768  1.00  0.00    -0.269 OA
ATOM     30  O   UNL A   1      36.563  22.272  23.672  1.00  0.00    -0.269 OA
ATOM     31  H   UNL A   1      36.437  21.311  25.944  1.00  0.00     0.173 HD
ENDBRANCH  10  11
ENDBRANCH   9  10
ENDBRANCH   8   9
ENDBRANCH   6   8
ENDBRANCH   3   4
ENDBRANCH   2   3
ENDBRANCH   1   2
BRANCH   1  32
ATOM     32  C   UNL A   1      33.959  27.228  25.548  1.00  0.00     0.002 C 
BRANCH  32  33
ATOM     33  C   UNL A   1      32.763  27.774  26.325  1.00  0.00     0.021 C 
BRANCH  33  34
ATOM     34  C   UNL A   1      33.109  28.480  27.631  1.00  0.00     0.116 C 
BRANCH  34  35
ATOM     35  N   UNL A   1      33.198  29.925  27.490  1.00  0.00    -0.352 N 
ATOM     36  C   UNL A   1      34.249  30.762  27.784  1.00  0.00     0.251 C 
ATOM     37  H   UNL A   1      32.393  30.366  27.134  1.00  0.00     0.163 HD
ATOM     38  O   UNL A   1      34.106  31.979  27.731  1.00  0.00    -0.269 OA
BRANCH  36  39
ATOM     39  C   UNL A   1      35.549  30.189  28.196  1.00  0.00     0.039 A 
ATOM     40  C   UNL A   1      36.600  30.167  27.276  1.00  0.00     0.014 A 
ATOM     41  C   UNL A   1      35.737  29.692  29.489  1.00  0.00     0.014 A 
ATOM     42  C   UNL A   1      37.861  29.715  27.674  1.00  0.00     0.010 A 
ATOM     43  C   UNL A   1      37.009  29.310  29.905  1.00  0.00     0.010 A 
ATOM     44  C   UNL A   1      38.086  29.319  29.003  1.00  0.00    -0.014 A 
BRANCH  44  45
ATOM     45  C   UNL A   1      39.438  28.921  29.471  1.00  0.00     0.031 A 
ATOM     46  C   UNL A   1      40.207  29.811  30.408  1.00  0.00     0.074 A 
ATOM     47  C   UNL A   1      40.005  27.796  28.995  1.00  0.00     0.049 A 
ATOM     48  N   UNL A   1      41.426  29.675  30.868  1.00  0.00    -0.248 NA
ATOM     49  C   UNL A   1      39.525  31.029  30.872  1.00  0.00     0.031 C 
ATOM     50  C   UNL A   1      39.385  26.874  28.040  1.00  0.00     0.029 A 
ATOM     51  N   UNL A   1      41.238  27.241  29.236  1.00  0.00    -0.354 N 
ATOM     52  C   UNL A   1      41.661  30.795  31.653  1.00  0.00     0.074 A 
ATOM     53  C   UNL A   1      40.479  31.625  31.573  1.00  0.00     0.031 C 
ATOM     54  C   UNL A   1      40.230  25.862  27.793  1.00  0.00     0.029 A 
ATOM     55  C   UNL A   1      41.466  26.080  28.537  1.00  0.00     0.049 A 
ATOM     56  H   UNL A   1      41.896  27.638  29.851  1.00  0.00     0.167 HD
ATOM     57  C   UNL A   1      42.756  31.093  32.393  1.00  0.00     0.037 A 
ATOM     58  C   UNL A   1      42.554  25.286  28.496  1.00  0.00     0.037 A 
ATOM     59  C   UNL A   1      43.918  30.251  32.497  1.00  0.00     0.049 A 
ATOM     60  C   UNL A   1      43.757  25.642  29.329  1.00  0.00     0.074 A 
ATOM     61  C   UNL A   1      45.046  30.430  33.279  1.00  0.00     0.029 A 
ATOM     62  N   UNL A   1      44.104  29.070  31.794  1.00  0.00    -0.354 N 
ATOM     63  N   UNL A   1      43.936  26.663  30.130  1.00  0.00    -0.248 NA
ATOM     64  C   UNL A   1      44.906  24.729  29.255  1.00  0.00     0.031 C 
ATOM     65  C   UNL A   1      45.935  29.384  33.013  1.00  0.00     0.029 A 
ATOM     66  C   UNL A   1      45.339  28.523  32.105  1.00  0.00     0.049 A 
ATOM     67  H   UNL A   1      43.454  28.678  31.166  1.00  0.00     0.167 HD
ATOM     68  C   UNL A   1      45.201  26.501  30.678  1.00  0.00     0.074 A 
ATOM     69  C   UNL A   1      45.741  25.275  30.128  1.00  0.00     0.031 C 
ATOM     70  C   UNL A   1      45.858  27.296  31.558  1.00  0.00     0.037 A 
BRANCH  57  71
ATOM     71  C   UNL A   1      42.751  32.389  33.153  1.00  0.00     0.064 A 
ATOM     72  C   UNL A   1      43.211  33.583  32.577  1.00  0.00     0.173 A 
ATOM     73  C   UNL A   1      42.238  32.445  34.457  1.00  0.00     0.173 A 
ATOM     74  F   UNL A   1      43.722  33.582  31.337  1.00  0.00    -0.203 F 
ATOM     75  C   UNL A   1      43.183  34.779  33.289  1.00  0.00     0.198 A 
ATOM     76  C   UNL A   1      42.183  33.649  35.155  1.00  0.00     0.198 A 
ATOM     77  F   UNL A   1      41.779  31.333  35.053  1.00  0.00    -0.203 F 
ATOM     78  F   UNL A   1      43.672  35.898  32.736  1.00  0.00    -0.200 F 
ATOM     79  C   UNL A   1      42.662  34.813  34.574  1.00  0.00     0.200 A 
ATOM     80  F   UNL A   1      41.666  33.682  36.391  1.00  0.00    -0.200 F 
ATOM     81  F   UNL A   1      42.627  35.966  35.254  1.00  0.00    -0.200 F 
ENDBRANCH  57  71
BRANCH  58  82
ATOM     82  C   UNL A   1      42.552  24.064  27.650  1.00  0.00     0.064 A 
ATOM     83  C   UNL A   1      42.225  22.813  28.195  1.00  0.00     0.173 A 
ATOM     84  C   UNL A   1      42.889  24.115  26.290  1.00  0.00     0.173 A 
ATOM     85  F   UNL A   1      41.917  22.710  29.496  1.00  0.00    -0.203 F 
ATOM     86  C   UNL A   1      42.259  21.658  27.417  1.00  0.00     0.198 A 
ATOM     87  C   UNL A   1      42.893  22.963  25.506  1.00  0.00     0.198 A 
ATOM     88  F   UNL A   1      43.205  25.287  25.720  1.00  0.00    -0.203 F 
ATOM     89  F   UNL A   1      41.992  20.469  27.975  1.00  0.00    -0.200 F 
ATOM     90  C   UNL A   1      42.588  21.734  26.073  1.00  0.00     0.200 A 
ATOM     91  F   UNL A   1      43.199  23.043  24.204  1.00  0.00    -0.200 F 
ATOM     92  F   UNL A   1      42.619  20.623  25.325  1.00  0.00    -0.200 F 
ENDBRANCH  58  82
BRANCH  70  93
ATOM     93  C   UNL A   1      47.216  26.848  32.011  1.00  0.00     0.064 A 
ATOM     94  C   UNL A   1      47.381  25.949  33.076  1.00  0.00     0.173 A 
ATOM     95  C   UNL A   1      48.369  27.295  31.344  1.00  0.00     0.173 A 
ATOM     96  F   UNL A   1      46.312  25.505  33.754  1.00  0.00    -0.203 F 
ATOM     97  C   UNL A   1      48.649  25.533  33.472  1.00  0.00     0.198 A 
ATOM     98  C   UNL A   1      49.633  26.853  31.724  1.00  0.00     0.198 A 
ATOM     99  F   UNL A   1      48.266  28.150  30.316  1.00  0.00    -0.203 F 
ATOM    100  F   UNL A   1      48.784  24.711  34.521  1.00  0.00    -0.200 F 
ATOM    101  C   UNL A   1      49.773  25.979  32.791  1.00  0.00     0.200 A 
ATOM    102  F   UNL A   1      50.716  27.273  31.056  1.00  0.00    -0.200 F 
ATOM    103  F   UNL A   1      50.992  25.571  33.169  1.00  0.00    -0.200 F 
ENDBRANCH  70  93
ENDBRANCH  44  45
ENDBRANCH  36  39
ENDBRANCH  34  35
ENDBRANCH  33  34
ENDBRANCH  32  33
ENDBRANCH   1  32
TORSDOF 16
ENDMDL
