MODEL 1
REMARK VINA RESULT:     -12.3      0.000      0.000
REMARK SMILES C[C@H](NC(=O)CCN1C(=O)/C(=C/c2ccc([N+](=O)[O-])cc2)SC1=S)C(=O)NCCCCCCNC(=O)c1ccc(-c2c3nc(c(-c4c(F)c(F)c(F)c(F)c4F)c4ccc([nH]4)c(-c4c(F)c(F)c(F)c(F)c4F)c4nc(c(-c5c(F)c(F)c(F)c(F)c5F)c5ccc2[nH]5)C=C4)C=C3)cc1
REMARK SMILES IDX 28 1 27 2 25 3 26 4 2 6 1 7 3 8 4 9 5 11 6 12 7 13 8 14 9 15
REMARK SMILES IDX 23 16 10 17 11 18 22 19 24 20 12 21 13 22 14 23 21 24 15 25
REMARK SMILES IDX 20 26 16 27 17 28 18 29 19 30 29 31 30 32 31 33 32 34 33 35
REMARK SMILES IDX 34 36 35 37 36 39 37 40 38 41 99 42 39 43 98 44 40 45 41 46
REMARK SMILES IDX 42 47 92 48 43 49 97 50 91 51 93 52 44 53 96 54 90 55 89 56
REMARK SMILES IDX 45 58 77 59 57 60 76 61 58 62 61 63 75 64 94 65 59 66 60 67
REMARK SMILES IDX 74 69 95 70 62 71 46 72 47 73 55 74 48 75 49 76 53 77 56 78
REMARK SMILES IDX 50 79 51 80 54 81 52 82 78 83 79 84 87 85 80 86 81 87 85 88
REMARK SMILES IDX 88 89 82 90 83 91 86 92 84 93 63 94 64 95 72 96 65 97 66 98
REMARK SMILES IDX 70 99 73 100 67 101 68 102 71 103 69 104
REMARK H PARENT 27 5 3 10 34 38 93 57 61 68
REMARK Flexibility Score: inf
ROOT
ATOM      1  C   UNL A   1      33.394  26.627  25.378  1.00  0.00     0.116 C 
ENDROOT
BRANCH   1   2
ATOM      2  N   UNL A   1      34.046  27.244  24.255  1.00  0.00    -0.354 N 
ATOM      3  C   UNL A   1      33.638  28.333  23.560  1.00  0.00     0.242 C 
ATOM      4  O   UNL A   1      34.133  28.529  22.448  1.00  0.00    -0.273 OA
ATOM      5  H   UNL A   1      34.887  26.827  23.957  1.00  0.00     0.163 HD
BRANCH   3   6
ATOM      6  C   UNL A   1      32.562  29.272  24.129  1.00  0.00     0.168 C 
ATOM      7  C   UNL A   1      32.158  28.996  25.574  1.00  0.00     0.041 C 
BRANCH   6   8
ATOM      8  N   UNL A   1      31.361  29.474  23.349  1.00  0.00    -0.345 N 
ATOM      9  C   UNL A   1      30.525  28.465  22.955  1.00  0.00     0.222 C 
ATOM     10  H   UNL A   1      31.131  30.394  23.086  1.00  0.00     0.164 HD
ATOM     11  O   UNL A   1      29.869  28.617  21.925  1.00  0.00    -0.275 OA
BRANCH   9  12
ATOM     12  C   UNL A   1      30.339  27.242  23.851  1.00  0.00     0.122 C 
BRANCH  12  13
ATOM     13  C   UNL A   1      30.073  25.854  23.222  1.00  0.00     0.137 C 
BRANCH  13  14
ATOM     14  N   UNL A   1      31.143  24.825  23.326  1.00  0.00    -0.292 N 
ATOM     15  C   UNL A   1      31.232  24.045  24.474  1.00  0.00     0.266 C 
ATOM     16  C   UNL A   1      32.165  24.621  22.419  1.00  0.00     0.148 C 
ATOM     17  O   UNL A   1      30.635  24.231  25.525  1.00  0.00    -0.268 OA
ATOM     18  C   UNL A   1      32.095  22.849  24.221  1.00  0.00     0.081 C 
ATOM     19  S   UNL A   1      32.995  23.105  22.787  1.00  0.00    -0.054 SA
ATOM     20  S   UNL A   1      32.621  25.573  21.130  1.00  0.00    -0.052 S 
ATOM     21  C   UNL A   1      31.922  21.721  24.933  1.00  0.00     0.029 C 
BRANCH  21  22
ATOM     22  C   UNL A   1      32.398  20.350  24.647  1.00  0.00    -0.024 A 
ATOM     23  C   UNL A   1      32.069  19.779  23.400  1.00  0.00     0.015 A 
ATOM     24  C   UNL A   1      33.140  19.584  25.552  1.00  0.00     0.015 A 
ATOM     25  C   UNL A   1      32.502  18.493  23.051  1.00  0.00     0.086 A 
ATOM     26  C   UNL A   1      33.588  18.299  25.211  1.00  0.00     0.086 A 
ATOM     27  C   UNL A   1      33.270  17.759  23.960  1.00  0.00     0.269 A 
BRANCH  27  28
ATOM     28  N   UNL A   1      33.743  16.414  23.600  1.00  0.00     0.062 N 
ATOM     29  O   UNL A   1      33.511  15.492  24.396  1.00  0.00    -0.258 OA
ATOM     30  O   UNL A   1      34.340  16.281  22.524  1.00  0.00    -0.258 OA
ENDBRANCH  27  28
ENDBRANCH  21  22
ENDBRANCH  13  14
ENDBRANCH  12  13
ENDBRANCH   9  12
ENDBRANCH   6   8
ENDBRANCH   3   6
ENDBRANCH   1   2
BRANCH   1  31
ATOM     31  C   UNL A   1      34.348  25.746  26.152  1.00  0.00     0.021 C 
BRANCH  31  32
ATOM     32  C   UNL A   1      35.028  24.666  25.314  1.00  0.00     0.002 C 
BRANCH  32  33
ATOM     33  C   UNL A   1      35.423  23.394  26.070  1.00  0.00     0.002 C 
BRANCH  33  34
ATOM     34  C   UNL A   1      35.899  22.230  25.199  1.00  0.00     0.021 C 
BRANCH  34  35
ATOM     35  C   UNL A   1      37.387  22.226  24.891  1.00  0.00     0.116 C 
BRANCH  35  36
ATOM     36  N   UNL A   1      38.083  21.127  25.531  1.00  0.00    -0.352 N 
ATOM     37  C   UNL A   1      39.220  21.170  26.297  1.00  0.00     0.251 C 
ATOM     38  H   UNL A   1      37.689  20.235  25.400  1.00  0.00     0.163 HD
ATOM     39  O   UNL A   1      39.776  20.142  26.649  1.00  0.00    -0.269 OA
BRANCH  37  40
ATOM     40  C   UNL A   1      39.778  22.486  26.666  1.00  0.00     0.039 A 
ATOM     41  C   UNL A   1      40.840  22.531  27.568  1.00  0.00     0.014 A 
ATOM     42  C   UNL A   1      39.270  23.662  26.106  1.00  0.00     0.014 A 
ATOM     43  C   UNL A   1      41.419  23.759  27.885  1.00  0.00     0.010 A 
ATOM     44  C   UNL A   1      39.902  24.875  26.357  1.00  0.00     0.010 A 
ATOM     45  C   UNL A   1      40.971  24.936  27.264  1.00  0.00    -0.014 A 
BRANCH  45  46
ATOM     46  C   UNL A   1      41.582  26.249  27.585  1.00  0.00     0.031 A 
ATOM     47  C   UNL A   1      42.988  26.544  27.142  1.00  0.00     0.074 A 
ATOM     48  C   UNL A   1      40.887  27.155  28.300  1.00  0.00     0.049 A 
ATOM     49  N   UNL A   1      43.725  27.600  27.374  1.00  0.00    -0.248 NA
ATOM     50  C   UNL A   1      43.669  25.502  26.354  1.00  0.00     0.031 C 
ATOM     51  C   UNL A   1      39.531  26.966  28.815  1.00  0.00     0.029 A 
ATOM     52  N   UNL A   1      41.231  28.414  28.722  1.00  0.00    -0.354 N 
ATOM     53  C   UNL A   1      44.949  27.348  26.766  1.00  0.00     0.074 A 
ATOM     54  C   UNL A   1      44.882  26.013  26.213  1.00  0.00     0.031 C 
ATOM     55  C   UNL A   1      39.150  28.077  29.467  1.00  0.00     0.029 A 
ATOM     56  C   UNL A   1      40.247  29.037  29.452  1.00  0.00     0.049 A 
ATOM     57  H   UNL A   1      42.099  28.831  28.521  1.00  0.00     0.167 HD
ATOM     58  C   UNL A   1      46.017  28.169  26.648  1.00  0.00     0.037 A 
ATOM     59  C   UNL A   1      40.243  30.243  30.052  1.00  0.00     0.037 A 
ATOM     60  C   UNL A   1      46.071  29.504  27.182  1.00  0.00     0.049 A 
ATOM     61  C   UNL A   1      41.459  31.125  29.928  1.00  0.00     0.074 A 
ATOM     62  C   UNL A   1      47.098  30.428  27.095  1.00  0.00     0.029 A 
ATOM     63  N   UNL A   1      45.050  30.108  27.899  1.00  0.00    -0.354 N 
ATOM     64  N   UNL A   1      42.589  30.895  29.304  1.00  0.00    -0.248 NA
ATOM     65  C   UNL A   1      41.395  32.438  30.583  1.00  0.00     0.031 C 
ATOM     66  C   UNL A   1      46.717  31.572  27.800  1.00  0.00     0.029 A 
ATOM     67  C   UNL A   1      45.427  31.387  28.273  1.00  0.00     0.049 A 
ATOM     68  H   UNL A   1      44.183  29.689  28.111  1.00  0.00     0.167 HD
ATOM     69  C   UNL A   1      43.351  32.046  29.456  1.00  0.00     0.074 A 
ATOM     70  C   UNL A   1      42.548  32.979  30.218  1.00  0.00     0.031 C 
ATOM     71  C   UNL A   1      44.603  32.310  29.008  1.00  0.00     0.037 A 
BRANCH  58  72
ATOM     72  C   UNL A   1      47.212  27.658  25.896  1.00  0.00     0.064 A 
ATOM     73  C   UNL A   1      47.307  27.779  24.502  1.00  0.00     0.173 A 
ATOM     74  C   UNL A   1      48.300  27.096  26.581  1.00  0.00     0.173 A 
ATOM     75  F   UNL A   1      46.288  28.295  23.797  1.00  0.00    -0.203 F 
ATOM     76  C   UNL A   1      48.437  27.340  23.818  1.00  0.00     0.198 A 
ATOM     77  C   UNL A   1      49.443  26.688  25.897  1.00  0.00     0.198 A 
ATOM     78  F   UNL A   1      48.264  26.960  27.914  1.00  0.00    -0.203 F 
ATOM     79  F   UNL A   1      48.487  27.428  22.481  1.00  0.00    -0.200 F 
ATOM     80  C   UNL A   1      49.509  26.805  24.516  1.00  0.00     0.200 A 
ATOM     81  F   UNL A   1      50.484  26.185  26.576  1.00  0.00    -0.200 F 
ATOM     82  F   UNL A   1      50.603  26.399  23.860  1.00  0.00    -0.200 F 
ENDBRANCH  58  72
BRANCH  59  83
ATOM     83  C   UNL A   1      39.054  30.698  30.823  1.00  0.00     0.064 A 
ATOM     84  C   UNL A   1      38.926  30.420  32.192  1.00  0.00     0.173 A 
ATOM     85  C   UNL A   1      37.998  31.379  30.198  1.00  0.00     0.173 A 
ATOM     86  F   UNL A   1      39.900  29.757  32.833  1.00  0.00    -0.203 F 
ATOM     87  C   UNL A   1      37.773  30.764  32.893  1.00  0.00     0.198 A 
ATOM     88  C   UNL A   1      36.861  31.756  30.910  1.00  0.00     0.198 A 
ATOM     89  F   UNL A   1      38.071  31.680  28.893  1.00  0.00    -0.203 F 
ATOM     90  F   UNL A   1      37.649  30.420  34.182  1.00  0.00    -0.200 F 
ATOM     91  C   UNL A   1      36.742  31.434  32.252  1.00  0.00     0.200 A 
ATOM     92  F   UNL A   1      35.876  32.420  30.290  1.00  0.00    -0.200 F 
ATOM     93  F   UNL A   1      35.630  31.757  32.925  1.00  0.00    -0.200 F 
ENDBRANCH  59  83
BRANCH  71  94
ATOM     94  C   UNL A   1      45.159  33.679  29.275  1.00  0.00     0.064 A 
ATOM     95  C   UNL A   1      45.928  33.959  30.414  1.00  0.00     0.173 A 
ATOM     96  C   UNL A   1      44.950  34.717  28.353  1.00  0.00     0.173 A 
ATOM     97  F   UNL A   1      46.146  33.005  31.332  1.00  0.00    -0.203 F 
ATOM     98  C   UNL A   1      46.439  35.234  30.636  1.00  0.00     0.198 A 
ATOM     99  C   UNL A   1      45.494  35.981  28.559  1.00  0.00     0.198 A 
ATOM    100  F   UNL A   1      44.229  34.500  27.241  1.00  0.00    -0.203 F 
ATOM    101  F   UNL A   1      47.123  35.493  31.759  1.00  0.00    -0.200 F 
ATOM    102  C   UNL A   1      46.230  36.241  29.705  1.00  0.00     0.200 A 
ATOM    103  F   UNL A   1      45.304  36.946  27.651  1.00  0.00    -0.200 F 
ATOM    104  F   UNL A   1      46.730  37.466  29.917  1.00  0.00    -0.200 F 
ENDBRANCH  71  94
ENDBRANCH  45  46
ENDBRANCH  37  40
ENDBRANCH  35  36
ENDBRANCH  34  35
ENDBRANCH  33  34
ENDBRANCH  32  33
ENDBRANCH  31  32
ENDBRANCH   1  31
TORSDOF 19
ENDMDL
MODEL 2
REMARK VINA RESULT:     -12.2      5.036      8.703
REMARK SMILES C[C@H](NC(=O)CCN1C(=O)/C(=C/c2ccc([N+](=O)[O-])cc2)SC1=S)C(=O)NCCCCCCNC(=O)c1ccc(-c2c3nc(c(-c4c(F)c(F)c(F)c(F)c4F)c4ccc([nH]4)c(-c4c(F)c(F)c(F)c(F)c4F)c4nc(c(-c5c(F)c(F)c(F)c(F)c5F)c5ccc2[nH]5)C=C4)C=C3)cc1
REMARK SMILES IDX 28 1 27 2 25 3 26 4 2 6 1 7 3 8 4 9 5 11 6 12 7 13 8 14 9 15
REMARK SMILES IDX 23 16 10 17 11 18 22 19 24 20 12 21 13 22 14 23 21 24 15 25
REMARK SMILES IDX 20 26 16 27 17 28 18 29 19 30 29 31 30 32 31 33 32 34 33 35
REMARK SMILES IDX 34 36 35 37 36 39 37 40 38 41 99 42 39 43 98 44 40 45 41 46
REMARK SMILES IDX 42 47 92 48 43 49 97 50 91 51 93 52 44 53 96 54 90 55 89 56
REMARK SMILES IDX 45 58 77 59 57 60 76 61 58 62 61 63 75 64 94 65 59 66 60 67
REMARK SMILES IDX 74 69 95 70 62 71 46 72 47 73 55 74 48 75 49 76 53 77 56 78
REMARK SMILES IDX 50 79 51 80 54 81 52 82 78 83 79 84 87 85 80 86 81 87 85 88
REMARK SMILES IDX 88 89 82 90 83 91 86 92 84 93 63 94 64 95 72 96 65 97 66 98
REMARK SMILES IDX 70 99 73 100 67 101 68 102 71 103 69 104
REMARK H PARENT 27 5 3 10 34 38 93 57 61 68
REMARK Flexibility Score: inf
ROOT
ATOM      1  C   UNL A   1      32.776  28.567  26.752  1.00  0.00     0.116 C 
ENDROOT
BRANCH   1   2
ATOM      2  N   UNL A   1      31.639  29.008  25.991  1.00  0.00    -0.354 N 
ATOM      3  C   UNL A   1      31.516  29.052  24.642  1.00  0.00     0.242 C 
ATOM      4  O   UNL A   1      30.616  29.747  24.166  1.00  0.00    -0.273 OA
ATOM      5  H   UNL A   1      30.860  29.313  26.510  1.00  0.00     0.163 HD
BRANCH   3   6
ATOM      6  C   UNL A   1      32.494  28.286  23.737  1.00  0.00     0.168 C 
ATOM      7  C   UNL A   1      33.821  28.991  23.474  1.00  0.00     0.041 C 
BRANCH   6   8
ATOM      8  N   UNL A   1      31.992  27.773  22.482  1.00  0.00    -0.345 N 
ATOM      9  C   UNL A   1      31.593  26.479  22.288  1.00  0.00     0.222 C 
ATOM     10  H   UNL A   1      31.934  28.394  21.721  1.00  0.00     0.164 HD
ATOM     11  O   UNL A   1      31.678  26.003  21.156  1.00  0.00    -0.275 OA
BRANCH   9  12
ATOM     12  C   UNL A   1      30.949  25.705  23.438  1.00  0.00     0.122 C 
BRANCH  12  13
ATOM     13  C   UNL A   1      30.813  24.166  23.354  1.00  0.00     0.137 C 
BRANCH  13  14
ATOM     14  N   UNL A   1      31.869  23.337  23.996  1.00  0.00    -0.292 N 
ATOM     15  C   UNL A   1      32.969  22.931  23.246  1.00  0.00     0.266 C 
ATOM     16  C   UNL A   1      31.829  22.814  25.273  1.00  0.00     0.148 C 
ATOM     17  O   UNL A   1      33.090  23.017  22.032  1.00  0.00    -0.268 OA
ATOM     18  C   UNL A   1      34.064  22.460  24.150  1.00  0.00     0.081 C 
ATOM     19  S   UNL A   1      33.418  22.179  25.710  1.00  0.00    -0.054 SA
ATOM     20  S   UNL A   1      30.546  22.756  26.336  1.00  0.00    -0.052 S 
ATOM     21  C   UNL A   1      35.349  22.524  23.753  1.00  0.00     0.029 C 
BRANCH  21  22
ATOM     22  C   UNL A   1      36.584  22.444  24.564  1.00  0.00    -0.024 A 
ATOM     23  C   UNL A   1      36.992  23.595  25.269  1.00  0.00     0.015 A 
ATOM     24  C   UNL A   1      37.378  21.296  24.653  1.00  0.00     0.015 A 
ATOM     25  C   UNL A   1      38.139  23.588  26.073  1.00  0.00     0.086 A 
ATOM     26  C   UNL A   1      38.524  21.273  25.461  1.00  0.00     0.086 A 
ATOM     27  C   UNL A   1      38.899  22.419  26.172  1.00  0.00     0.269 A 
BRANCH  27  28
ATOM     28  N   UNL A   1      40.098  22.394  27.022  1.00  0.00     0.062 N 
ATOM     29  O   UNL A   1      40.351  21.343  27.629  1.00  0.00    -0.258 OA
ATOM     30  O   UNL A   1      40.787  23.422  27.079  1.00  0.00    -0.258 OA
ENDBRANCH  27  28
ENDBRANCH  21  22
ENDBRANCH  13  14
ENDBRANCH  12  13
ENDBRANCH   9  12
ENDBRANCH   6   8
ENDBRANCH   3   6
ENDBRANCH   1   2
BRANCH   1  31
ATOM     31  C   UNL A   1      33.632  29.733  27.191  1.00  0.00     0.021 C 
BRANCH  31  32
ATOM     32  C   UNL A   1      32.886  31.063  27.278  1.00  0.00     0.002 C 
BRANCH  32  33
ATOM     33  C   UNL A   1      33.688  32.234  27.853  1.00  0.00     0.002 C 
BRANCH  33  34
ATOM     34  C   UNL A   1      32.902  33.528  28.070  1.00  0.00     0.021 C 
BRANCH  34  35
ATOM     35  C   UNL A   1      33.639  34.600  28.858  1.00  0.00     0.116 C 
BRANCH  35  36
ATOM     36  N   UNL A   1      32.813  35.195  29.890  1.00  0.00    -0.352 N 
ATOM     37  C   UNL A   1      32.980  35.141  31.250  1.00  0.00     0.251 C 
ATOM     38  H   UNL A   1      32.032  35.703  29.574  1.00  0.00     0.163 HD
ATOM     39  O   UNL A   1      32.119  35.566  32.003  1.00  0.00    -0.269 OA
BRANCH  37  40
ATOM     40  C   UNL A   1      34.211  34.530  31.790  1.00  0.00     0.039 A 
ATOM     41  C   UNL A   1      34.155  33.216  32.254  1.00  0.00     0.014 A 
ATOM     42  C   UNL A   1      35.414  35.242  31.813  1.00  0.00     0.014 A 
ATOM     43  C   UNL A   1      35.319  32.602  32.714  1.00  0.00     0.010 A 
ATOM     44  C   UNL A   1      36.588  34.601  32.192  1.00  0.00     0.010 A 
ATOM     45  C   UNL A   1      36.547  33.281  32.664  1.00  0.00    -0.014 A 
BRANCH  45  46
ATOM     46  C   UNL A   1      37.795  32.637  33.142  1.00  0.00     0.031 A 
ATOM     47  C   UNL A   1      38.464  31.588  32.298  1.00  0.00     0.074 A 
ATOM     48  C   UNL A   1      38.303  32.972  34.344  1.00  0.00     0.049 A 
ATOM     49  N   UNL A   1      39.520  30.863  32.560  1.00  0.00    -0.248 NA
ATOM     50  C   UNL A   1      37.846  31.294  30.992  1.00  0.00     0.031 C 
ATOM     51  C   UNL A   1      37.723  33.948  35.267  1.00  0.00     0.029 A 
ATOM     52  N   UNL A   1      39.422  32.520  34.999  1.00  0.00    -0.354 N 
ATOM     53  C   UNL A   1      39.691  30.032  31.460  1.00  0.00     0.074 A 
ATOM     54  C   UNL A   1      38.592  30.290  30.557  1.00  0.00     0.031 C 
ATOM     55  C   UNL A   1      38.499  34.037  36.359  1.00  0.00     0.029 A 
ATOM     56  C   UNL A   1      39.607  33.096  36.233  1.00  0.00     0.049 A 
ATOM     57  H   UNL A   1      40.033  31.849  34.620  1.00  0.00     0.167 HD
ATOM     58  C   UNL A   1      40.693  29.158  31.211  1.00  0.00     0.037 A 
ATOM     59  C   UNL A   1      40.558  32.875  37.160  1.00  0.00     0.037 A 
ATOM     60  C   UNL A   1      41.795  28.918  32.104  1.00  0.00     0.049 A 
ATOM     61  C   UNL A   1      41.646  31.873  36.866  1.00  0.00     0.074 A 
ATOM     62  C   UNL A   1      42.876  28.071  31.933  1.00  0.00     0.029 A 
ATOM     63  N   UNL A   1      41.959  29.533  33.336  1.00  0.00    -0.354 N 
ATOM     64  N   UNL A   1      41.825  31.134  35.799  1.00  0.00    -0.248 NA
ATOM     65  C   UNL A   1      42.670  31.685  37.902  1.00  0.00     0.031 C 
ATOM     66  C   UNL A   1      43.669  28.138  33.082  1.00  0.00     0.029 A 
ATOM     67  C   UNL A   1      43.117  29.074  33.942  1.00  0.00     0.049 A 
ATOM     68  H   UNL A   1      41.344  30.198  33.723  1.00  0.00     0.167 HD
ATOM     69  C   UNL A   1      42.999  30.425  36.017  1.00  0.00     0.074 A 
ATOM     70  C   UNL A   1      43.498  30.836  37.312  1.00  0.00     0.031 C 
ATOM     71  C   UNL A   1      43.610  29.516  35.220  1.00  0.00     0.037 A 
BRANCH  58  72
ATOM     72  C   UNL A   1      40.658  28.407  29.911  1.00  0.00     0.064 A 
ATOM     73  C   UNL A   1      39.846  27.275  29.742  1.00  0.00     0.173 A 
ATOM     74  C   UNL A   1      41.393  28.857  28.805  1.00  0.00     0.173 A 
ATOM     75  F   UNL A   1      39.134  26.793  30.773  1.00  0.00    -0.203 F 
ATOM     76  C   UNL A   1      39.787  26.610  28.520  1.00  0.00     0.198 A 
ATOM     77  C   UNL A   1      41.307  28.209  27.575  1.00  0.00     0.198 A 
ATOM     78  F   UNL A   1      42.182  29.936  28.910  1.00  0.00    -0.203 F 
ATOM     79  F   UNL A   1      39.037  25.506  28.395  1.00  0.00    -0.200 F 
ATOM     80  C   UNL A   1      40.508  27.083  27.435  1.00  0.00     0.200 A 
ATOM     81  F   UNL A   1      41.993  28.677  26.523  1.00  0.00    -0.200 F 
ATOM     82  F   UNL A   1      40.437  26.453  26.255  1.00  0.00    -0.200 F 
ENDBRANCH  58  72
BRANCH  59  83
ATOM     83  C   UNL A   1      40.536  33.610  38.454  1.00  0.00     0.064 A 
ATOM     84  C   UNL A   1      39.651  33.247  39.480  1.00  0.00     0.173 A 
ATOM     85  C   UNL A   1      41.365  34.720  38.675  1.00  0.00     0.173 A 
ATOM     86  F   UNL A   1      38.824  32.204  39.313  1.00  0.00    -0.203 F 
ATOM     87  C   UNL A   1      39.564  33.991  40.654  1.00  0.00     0.198 A 
ATOM     88  C   UNL A   1      41.304  35.440  39.866  1.00  0.00     0.198 A 
ATOM     89  F   UNL A   1      42.238  35.106  37.732  1.00  0.00    -0.203 F 
ATOM     90  F   UNL A   1      38.657  33.664  41.586  1.00  0.00    -0.200 F 
ATOM     91  C   UNL A   1      40.392  35.086  40.847  1.00  0.00     0.200 A 
ATOM     92  F   UNL A   1      42.119  36.486  40.056  1.00  0.00    -0.200 F 
ATOM     93  F   UNL A   1      40.303  35.806  41.974  1.00  0.00    -0.200 F 
ENDBRANCH  59  83
BRANCH  71  94
ATOM     94  C   UNL A   1      44.917  28.947  35.695  1.00  0.00     0.064 A 
ATOM     95  C   UNL A   1      46.145  29.550  35.384  1.00  0.00     0.173 A 
ATOM     96  C   UNL A   1      44.935  27.803  36.508  1.00  0.00     0.173 A 
ATOM     97  F   UNL A   1      46.184  30.638  34.600  1.00  0.00    -0.203 F 
ATOM     98  C   UNL A   1      47.343  29.008  35.841  1.00  0.00     0.198 A 
ATOM     99  C   UNL A   1      46.132  27.286  36.994  1.00  0.00     0.198 A 
ATOM    100  F   UNL A   1      43.787  27.193  36.843  1.00  0.00    -0.203 F 
ATOM    101  F   UNL A   1      48.507  29.569  35.485  1.00  0.00    -0.200 F 
ATOM    102  C   UNL A   1      47.335  27.883  36.653  1.00  0.00     0.200 A 
ATOM    103  F   UNL A   1      46.120  26.210  37.791  1.00  0.00    -0.200 F 
ATOM    104  F   UNL A   1      48.490  27.369  37.099  1.00  0.00    -0.200 F 
ENDBRANCH  71  94
ENDBRANCH  45  46
ENDBRANCH  37  40
ENDBRANCH  35  36
ENDBRANCH  34  35
ENDBRANCH  33  34
ENDBRANCH  32  33
ENDBRANCH  31  32
ENDBRANCH   1  31
TORSDOF 19
ENDMDL
MODEL 3
REMARK VINA RESULT:     -11.9      2.813      3.862
REMARK SMILES C[C@H](NC(=O)CCN1C(=O)/C(=C/c2ccc([N+](=O)[O-])cc2)SC1=S)C(=O)NCCCCCCNC(=O)c1ccc(-c2c3nc(c(-c4c(F)c(F)c(F)c(F)c4F)c4ccc([nH]4)c(-c4c(F)c(F)c(F)c(F)c4F)c4nc(c(-c5c(F)c(F)c(F)c(F)c5F)c5ccc2[nH]5)C=C4)C=C3)cc1
REMARK SMILES IDX 28 1 27 2 25 3 26 4 2 6 1 7 3 8 4 9 5 11 6 12 7 13 8 14 9 15
REMARK SMILES IDX 23 16 10 17 11 18 22 19 24 20 12 21 13 22 14 23 21 24 15 25
REMARK SMILES IDX 20 26 16 27 17 28 18 29 19 30 29 31 30 32 31 33 32 34 33 35
REMARK SMILES IDX 34 36 35 37 36 39 37 40 38 41 99 42 39 43 98 44 40 45 41 46
REMARK SMILES IDX 42 47 92 48 43 49 97 50 91 51 93 52 44 53 96 54 90 55 89 56
REMARK SMILES IDX 45 58 77 59 57 60 76 61 58 62 61 63 75 64 94 65 59 66 60 67
REMARK SMILES IDX 74 69 95 70 62 71 46 72 47 73 55 74 48 75 49 76 53 77 56 78
REMARK SMILES IDX 50 79 51 80 54 81 52 82 78 83 79 84 87 85 80 86 81 87 85 88
REMARK SMILES IDX 88 89 82 90 83 91 86 92 84 93 63 94 64 95 72 96 65 97 66 98
REMARK SMILES IDX 70 99 73 100 67 101 68 102 71 103 69 104
REMARK H PARENT 27 5 3 10 34 38 93 57 61 68
REMARK Flexibility Score: inf
ROOT
ATOM      1  C   UNL A   1      33.137  26.786  25.572  1.00  0.00     0.116 C 
ENDROOT
BRANCH   1   2
ATOM      2  N   UNL A   1      33.825  27.402  24.470  1.00  0.00    -0.354 N 
ATOM      3  C   UNL A   1      33.433  28.483  23.752  1.00  0.00     0.242 C 
ATOM      4  O   UNL A   1      33.969  28.676  22.659  1.00  0.00    -0.273 OA
ATOM      5  H   UNL A   1      34.681  26.992  24.207  1.00  0.00     0.163 HD
BRANCH   3   6
ATOM      6  C   UNL A   1      32.327  29.415  24.273  1.00  0.00     0.168 C 
ATOM      7  C   UNL A   1      31.921  29.190  25.727  1.00  0.00     0.041 C 
BRANCH   6   8
ATOM      8  N   UNL A   1      31.127  29.548  23.478  1.00  0.00    -0.345 N 
ATOM      9  C   UNL A   1      30.362  28.493  23.062  1.00  0.00     0.222 C 
ATOM     10  H   UNL A   1      30.843  30.454  23.221  1.00  0.00     0.164 HD
ATOM     11  O   UNL A   1      29.712  28.613  22.024  1.00  0.00    -0.275 OA
BRANCH   9  12
ATOM     12  C   UNL A   1      30.241  27.251  23.944  1.00  0.00     0.122 C 
BRANCH  12  13
ATOM     13  C   UNL A   1      29.967  25.870  23.303  1.00  0.00     0.137 C 
BRANCH  13  14
ATOM     14  N   UNL A   1      31.037  24.839  23.385  1.00  0.00    -0.292 N 
ATOM     15  C   UNL A   1      31.148  24.058  24.532  1.00  0.00     0.266 C 
ATOM     16  C   UNL A   1      32.040  24.632  22.459  1.00  0.00     0.148 C 
ATOM     17  O   UNL A   1      30.572  24.246  25.595  1.00  0.00    -0.268 OA
ATOM     18  C   UNL A   1      32.003  22.861  24.261  1.00  0.00     0.081 C 
ATOM     19  S   UNL A   1      32.873  23.115  22.810  1.00  0.00    -0.054 SA
ATOM     20  S   UNL A   1      32.472  25.583  21.160  1.00  0.00    -0.052 S 
ATOM     21  C   UNL A   1      31.841  21.733  24.978  1.00  0.00     0.029 C 
BRANCH  21  22
ATOM     22  C   UNL A   1      32.308  20.361  24.682  1.00  0.00    -0.024 A 
ATOM     23  C   UNL A   1      32.096  19.852  23.384  1.00  0.00     0.015 A 
ATOM     24  C   UNL A   1      32.931  19.536  25.624  1.00  0.00     0.015 A 
ATOM     25  C   UNL A   1      32.529  18.569  23.026  1.00  0.00     0.086 A 
ATOM     26  C   UNL A   1      33.378  18.253  25.275  1.00  0.00     0.086 A 
ATOM     27  C   UNL A   1      33.179  17.774  23.975  1.00  0.00     0.269 A 
BRANCH  27  28
ATOM     28  N   UNL A   1      33.651  16.432  23.608  1.00  0.00     0.062 N 
ATOM     29  O   UNL A   1      33.391  15.499  24.383  1.00  0.00    -0.258 OA
ATOM     30  O   UNL A   1      34.275  16.310  22.545  1.00  0.00    -0.258 OA
ENDBRANCH  27  28
ENDBRANCH  21  22
ENDBRANCH  13  14
ENDBRANCH  12  13
ENDBRANCH   9  12
ENDBRANCH   6   8
ENDBRANCH   3   6
ENDBRANCH   1   2
BRANCH   1  31
ATOM     31  C   UNL A   1      33.977  25.703  26.209  1.00  0.00     0.021 C 
BRANCH  31  32
ATOM     32  C   UNL A   1      34.826  24.903  25.223  1.00  0.00     0.002 C 
BRANCH  32  33
ATOM     33  C   UNL A   1      35.176  23.477  25.657  1.00  0.00     0.002 C 
BRANCH  33  34
ATOM     34  C   UNL A   1      36.553  22.974  25.224  1.00  0.00     0.021 C 
BRANCH  34  35
ATOM     35  C   UNL A   1      37.729  23.647  25.914  1.00  0.00     0.116 C 
BRANCH  35  36
ATOM     36  N   UNL A   1      38.942  22.859  25.836  1.00  0.00    -0.352 N 
ATOM     37  C   UNL A   1      40.213  23.214  26.210  1.00  0.00     0.251 C 
ATOM     38  H   UNL A   1      38.842  21.953  25.467  1.00  0.00     0.163 HD
ATOM     39  O   UNL A   1      41.166  22.497  25.947  1.00  0.00    -0.269 OA
BRANCH  37  40
ATOM     40  C   UNL A   1      40.414  24.497  26.913  1.00  0.00     0.039 A 
ATOM     41  C   UNL A   1      40.150  24.555  28.282  1.00  0.00     0.014 A 
ATOM     42  C   UNL A   1      40.881  25.623  26.230  1.00  0.00     0.014 A 
ATOM     43  C   UNL A   1      40.388  25.740  28.975  1.00  0.00     0.010 A 
ATOM     44  C   UNL A   1      41.198  26.776  26.938  1.00  0.00     0.010 A 
ATOM     45  C   UNL A   1      40.936  26.851  28.315  1.00  0.00    -0.014 A 
BRANCH  45  46
ATOM     46  C   UNL A   1      41.202  28.117  29.041  1.00  0.00     0.031 A 
ATOM     47  C   UNL A   1      42.564  28.367  29.629  1.00  0.00     0.074 A 
ATOM     48  C   UNL A   1      40.214  29.020  29.199  1.00  0.00     0.049 A 
ATOM     49  N   UNL A   1      42.982  29.374  30.351  1.00  0.00    -0.248 NA
ATOM     50  C   UNL A   1      43.587  27.332  29.396  1.00  0.00     0.031 C 
ATOM     51  C   UNL A   1      38.845  28.871  28.706  1.00  0.00     0.029 A 
ATOM     52  N   UNL A   1      40.211  30.239  29.827  1.00  0.00    -0.354 N 
ATOM     53  C   UNL A   1      44.307  29.094  30.659  1.00  0.00     0.074 A 
ATOM     54  C   UNL A   1      44.607  27.792  30.106  1.00  0.00     0.031 C 
ATOM     55  C   UNL A   1      38.139  29.965  29.032  1.00  0.00     0.029 A 
ATOM     56  C   UNL A   1      38.992  30.873  29.792  1.00  0.00     0.049 A 
ATOM     57  H   UNL A   1      41.006  30.624  30.261  1.00  0.00     0.167 HD
ATOM     58  C   UNL A   1      45.204  29.868  31.312  1.00  0.00     0.037 A 
ATOM     59  C   UNL A   1      38.607  32.047  30.327  1.00  0.00     0.037 A 
ATOM     60  C   UNL A   1      44.907  31.172  31.844  1.00  0.00     0.049 A 
ATOM     61  C   UNL A   1      39.621  32.875  31.076  1.00  0.00     0.074 A 
ATOM     62  C   UNL A   1      45.752  32.049  32.501  1.00  0.00     0.029 A 
ATOM     63  N   UNL A   1      43.667  31.788  31.773  1.00  0.00    -0.354 N 
ATOM     64  N   UNL A   1      40.885  32.623  31.312  1.00  0.00    -0.248 NA
ATOM     65  C   UNL A   1      39.155  34.157  31.622  1.00  0.00     0.031 C 
ATOM     66  C   UNL A   1      45.011  33.174  32.870  1.00  0.00     0.029 A 
ATOM     67  C   UNL A   1      43.720  33.028  32.387  1.00  0.00     0.049 A 
ATOM     68  H   UNL A   1      42.866  31.401  31.349  1.00  0.00     0.167 HD
ATOM     69  C   UNL A   1      41.374  33.727  31.996  1.00  0.00     0.074 A 
ATOM     70  C   UNL A   1      40.274  34.659  32.122  1.00  0.00     0.031 C 
ATOM     71  C   UNL A   1      42.620  33.953  32.479  1.00  0.00     0.037 A 
BRANCH  58  72
ATOM     72  C   UNL A   1      46.598  29.337  31.475  1.00  0.00     0.064 A 
ATOM     73  C   UNL A   1      47.596  29.595  30.521  1.00  0.00     0.173 A 
ATOM     74  C   UNL A   1      46.960  28.617  32.623  1.00  0.00     0.173 A 
ATOM     75  F   UNL A   1      47.299  30.267  29.398  1.00  0.00    -0.203 F 
ATOM     76  C   UNL A   1      48.897  29.134  30.701  1.00  0.00     0.198 A 
ATOM     77  C   UNL A   1      48.270  28.185  32.815  1.00  0.00     0.198 A 
ATOM     78  F   UNL A   1      46.048  28.346  33.567  1.00  0.00    -0.203 F 
ATOM     79  F   UNL A   1      49.822  29.357  29.757  1.00  0.00    -0.200 F 
ATOM     80  C   UNL A   1      49.237  28.440  31.852  1.00  0.00     0.200 A 
ATOM     81  F   UNL A   1      48.600  27.527  33.935  1.00  0.00    -0.200 F 
ATOM     82  F   UNL A   1      50.493  28.013  32.033  1.00  0.00    -0.200 F 
ENDBRANCH  58  72
BRANCH  59  83
ATOM     83  C   UNL A   1      37.204  32.520  30.180  1.00  0.00     0.064 A 
ATOM     84  C   UNL A   1      36.799  33.254  29.055  1.00  0.00     0.173 A 
ATOM     85  C   UNL A   1      36.249  32.290  31.182  1.00  0.00     0.173 A 
ATOM     86  F   UNL A   1      37.678  33.516  28.076  1.00  0.00    -0.203 F 
ATOM     87  C   UNL A   1      35.512  33.776  28.959  1.00  0.00     0.198 A 
ATOM     88  C   UNL A   1      34.950  32.781  31.067  1.00  0.00     0.198 A 
ATOM     89  F   UNL A   1      36.577  31.585  32.275  1.00  0.00    -0.203 F 
ATOM     90  F   UNL A   1      35.177  34.535  27.907  1.00  0.00    -0.200 F 
ATOM     91  C   UNL A   1      34.587  33.537  29.965  1.00  0.00     0.200 A 
ATOM     92  F   UNL A   1      34.055  32.532  32.033  1.00  0.00    -0.200 F 
ATOM     93  F   UNL A   1      33.351  34.047  29.876  1.00  0.00    -0.200 F 
ENDBRANCH  59  83
BRANCH  71  94
ATOM     94  C   UNL A   1      42.880  35.280  33.132  1.00  0.00     0.064 A 
ATOM     95  C   UNL A   1      42.634  35.496  34.496  1.00  0.00     0.173 A 
ATOM     96  C   UNL A   1      43.422  36.339  32.387  1.00  0.00     0.173 A 
ATOM     97  F   UNL A   1      42.105  34.521  35.250  1.00  0.00    -0.203 F 
ATOM     98  C   UNL A   1      42.889  36.733  35.081  1.00  0.00     0.198 A 
ATOM     99  C   UNL A   1      43.711  37.562  32.983  1.00  0.00     0.198 A 
ATOM    100  F   UNL A   1      43.685  36.181  31.080  1.00  0.00    -0.203 F 
ATOM    101  F   UNL A   1      42.593  36.934  36.373  1.00  0.00    -0.200 F 
ATOM    102  C   UNL A   1      43.435  37.761  34.327  1.00  0.00     0.200 A 
ATOM    103  F   UNL A   1      44.254  38.548  32.257  1.00  0.00    -0.200 F 
ATOM    104  F   UNL A   1      43.688  38.949  34.895  1.00  0.00    -0.200 F 
ENDBRANCH  71  94
ENDBRANCH  45  46
ENDBRANCH  37  40
ENDBRANCH  35  36
ENDBRANCH  34  35
ENDBRANCH  33  34
ENDBRANCH  32  33
ENDBRANCH  31  32
ENDBRANCH   1  31
TORSDOF 19
ENDMDL
