MODEL 1
REMARK VINA RESULT:      -9.5      0.000      0.000
REMARK SMILES O=C(NCCCCCCNC(=O)c1ccc(COc2cccc(C(F)(F)F)c2)nc1)c1ccc(-c2c3nc(c(-c4c(F)c(F)c(F)c(F)c4F)c4ccc([nH]4)c(-c4c(F)c(F)c(F)c(F)c4F)c4nc(c(-c5c(F)c(F)c(F)c(F)c5F)c5ccc2[nH]5)C=C4)C=C3)cc1
REMARK SMILES IDX 7 1 6 2 5 3 4 4 3 5 1 6 2 7 31 9 32 10 93 11 33 12 92 13
REMARK SMILES IDX 34 14 35 15 36 16 86 17 37 18 91 19 85 20 87 21 38 22 90 23
REMARK SMILES IDX 84 24 83 25 39 27 71 28 51 29 70 30 52 31 55 32 69 33 88 34
REMARK SMILES IDX 53 35 54 36 68 38 89 39 56 40 40 41 41 42 49 43 42 44 43 45
REMARK SMILES IDX 47 46 50 47 44 48 45 49 48 50 46 51 72 52 73 53 81 54 74 55
REMARK SMILES IDX 75 56 79 57 82 58 76 59 77 60 80 61 78 62 57 63 58 64 66 65
REMARK SMILES IDX 59 66 60 67 64 68 67 69 61 70 62 71 65 72 63 73 8 74 9 75
REMARK SMILES IDX 10 76 11 77 12 79 13 80 14 81 30 82 15 83 29 84 16 85 17 86
REMARK SMILES IDX 18 87 19 88 20 89 28 90 21 91 23 92 22 93 24 94 25 95 26 96
REMARK SMILES IDX 27 97
REMARK H PARENT 3 8 87 26 55 37 10 78
REMARK Flexibility Score: inf
ROOT
ATOM      1  C   UNL A   1      43.185  23.563  27.318  1.00  0.00     0.002 C 
ENDROOT
BRANCH   1   2
ATOM      2  C   UNL A   1      42.756  22.964  25.975  1.00  0.00     0.002 C 
BRANCH   2   3
ATOM      3  C   UNL A   1      41.969  21.656  26.069  1.00  0.00     0.021 C 
BRANCH   3   4
ATOM      4  C   UNL A   1      40.717  21.733  26.935  1.00  0.00     0.116 C 
BRANCH   4   5
ATOM      5  N   UNL A   1      39.533  22.026  26.149  1.00  0.00    -0.352 N 
ATOM      6  O   UNL A   1      37.690  23.175  25.545  1.00  0.00    -0.269 OA
ATOM      7  C   UNL A   1      38.780  23.170  26.108  1.00  0.00     0.251 C 
ATOM      8  H   UNL A   1      39.227  21.298  25.561  1.00  0.00     0.163 HD
BRANCH   7   9
ATOM      9  C   UNL A   1      39.277  24.398  26.759  1.00  0.00     0.039 A 
ATOM     10  C   UNL A   1      40.031  25.335  26.046  1.00  0.00     0.014 A 
ATOM     11  C   UNL A   1      38.955  24.623  28.100  1.00  0.00     0.014 A 
ATOM     12  C   UNL A   1      40.555  26.446  26.701  1.00  0.00     0.010 A 
ATOM     13  C   UNL A   1      39.419  25.774  28.736  1.00  0.00     0.010 A 
ATOM     14  C   UNL A   1      40.240  26.683  28.046  1.00  0.00    -0.014 A 
BRANCH  14  15
ATOM     15  C   UNL A   1      40.718  27.912  28.725  1.00  0.00     0.031 A 
ATOM     16  C   UNL A   1      42.126  28.005  29.231  1.00  0.00     0.074 A 
ATOM     17  C   UNL A   1      39.853  28.922  28.930  1.00  0.00     0.049 A 
ATOM     18  N   UNL A   1      42.688  28.944  29.950  1.00  0.00    -0.248 NA
ATOM     19  C   UNL A   1      43.020  26.887  28.893  1.00  0.00     0.031 C 
ATOM     20  C   UNL A   1      38.460  28.939  28.485  1.00  0.00     0.029 A 
ATOM     21  N   UNL A   1      40.011  30.117  29.586  1.00  0.00    -0.354 N 
ATOM     22  C   UNL A   1      43.990  28.520  30.175  1.00  0.00     0.074 A 
ATOM     23  C   UNL A   1      44.129  27.228  29.536  1.00  0.00     0.031 C 
ATOM     24  C   UNL A   1      37.888  30.085  28.880  1.00  0.00     0.029 A 
ATOM     25  C   UNL A   1      38.854  30.851  29.662  1.00  0.00     0.049 A 
ATOM     26  H   UNL A   1      40.868  30.417  29.965  1.00  0.00     0.167 HD
ATOM     27  C   UNL A   1      44.977  29.158  30.851  1.00  0.00     0.037 A 
ATOM     28  C   UNL A   1      38.585  31.991  30.323  1.00  0.00     0.037 A 
ATOM     29  C   UNL A   1      44.821  30.443  31.483  1.00  0.00     0.049 A 
ATOM     30  C   UNL A   1      39.678  32.657  31.108  1.00  0.00     0.074 A 
ATOM     31  C   UNL A   1      45.767  31.194  32.156  1.00  0.00     0.029 A 
ATOM     32  N   UNL A   1      43.632  31.160  31.535  1.00  0.00    -0.354 N 
ATOM     33  N   UNL A   1      40.919  32.273  31.282  1.00  0.00    -0.248 NA
ATOM     34  C   UNL A   1      39.337  33.914  31.787  1.00  0.00     0.031 C 
ATOM     35  C   UNL A   1      45.138  32.332  32.671  1.00  0.00     0.029 A 
ATOM     36  C   UNL A   1      43.814  32.329  32.257  1.00  0.00     0.049 A 
ATOM     37  H   UNL A   1      42.785  30.879  31.121  1.00  0.00     0.167 HD
ATOM     38  C   UNL A   1      41.517  33.252  32.062  1.00  0.00     0.074 A 
ATOM     39  C   UNL A   1      40.501  34.250  32.330  1.00  0.00     0.031 C 
ATOM     40  C   UNL A   1      42.796  33.319  32.506  1.00  0.00     0.037 A 
BRANCH  27  41
ATOM     41  C   UNL A   1      46.298  28.450  30.978  1.00  0.00     0.064 A 
ATOM     42  C   UNL A   1      47.345  28.662  30.070  1.00  0.00     0.173 A 
ATOM     43  C   UNL A   1      46.519  27.550  32.032  1.00  0.00     0.173 A 
ATOM     44  F   UNL A   1      47.187  29.506  29.039  1.00  0.00    -0.203 F 
ATOM     45  C   UNL A   1      48.547  27.965  30.185  1.00  0.00     0.198 A 
ATOM     46  C   UNL A   1      47.734  26.882  32.165  1.00  0.00     0.198 A 
ATOM     47  F   UNL A   1      45.557  27.316  32.938  1.00  0.00    -0.203 F 
ATOM     48  F   UNL A   1      49.508  28.134  29.265  1.00  0.00    -0.200 F 
ATOM     49  C   UNL A   1      48.742  27.080  31.234  1.00  0.00     0.200 A 
ATOM     50  F   UNL A   1      47.925  26.039  33.189  1.00  0.00    -0.200 F 
ATOM     51  F   UNL A   1      49.896  26.407  31.340  1.00  0.00    -0.200 F 
ENDBRANCH  27  41
BRANCH  28  52
ATOM     52  C   UNL A   1      37.211  32.551  30.268  1.00  0.00     0.064 A 
ATOM     53  C   UNL A   1      36.272  32.259  31.265  1.00  0.00     0.173 A 
ATOM     54  C   UNL A   1      36.831  33.440  29.250  1.00  0.00     0.173 A 
ATOM     55  F   UNL A   1      36.585  31.405  32.250  1.00  0.00    -0.203 F 
ATOM     56  C   UNL A   1      35.003  32.832  31.245  1.00  0.00     0.198 A 
ATOM     57  C   UNL A   1      35.573  34.034  29.247  1.00  0.00     0.198 A 
ATOM     58  F   UNL A   1      37.699  33.758  28.279  1.00  0.00    -0.203 F 
ATOM     59  F   UNL A   1      34.114  32.519  32.197  1.00  0.00    -0.200 F 
ATOM     60  C   UNL A   1      34.657  33.728  30.243  1.00  0.00     0.200 A 
ATOM     61  F   UNL A   1      35.251  34.915  28.289  1.00  0.00    -0.200 F 
ATOM     62  F   UNL A   1      33.444  34.295  30.237  1.00  0.00    -0.200 F 
ENDBRANCH  28  52
BRANCH  40  63
ATOM     63  C   UNL A   1      43.199  34.538  33.286  1.00  0.00     0.064 A 
ATOM     64  C   UNL A   1      43.543  35.742  32.657  1.00  0.00     0.173 A 
ATOM     65  C   UNL A   1      43.158  34.517  34.690  1.00  0.00     0.173 A 
ATOM     66  F   UNL A   1      43.613  35.809  31.319  1.00  0.00    -0.203 F 
ATOM     67  C   UNL A   1      43.838  36.880  33.405  1.00  0.00     0.198 A 
ATOM     68  C   UNL A   1      43.424  35.663  35.433  1.00  0.00     0.198 A 
ATOM     69  F   UNL A   1      42.831  33.389  35.340  1.00  0.00    -0.203 F 
ATOM     70  F   UNL A   1      44.194  38.013  32.784  1.00  0.00    -0.200 F 
ATOM     71  C   UNL A   1      43.767  36.843  34.790  1.00  0.00     0.200 A 
ATOM     72  F   UNL A   1      43.339  35.629  36.769  1.00  0.00    -0.200 F 
ATOM     73  F   UNL A   1      44.028  37.945  35.506  1.00  0.00    -0.200 F 
ENDBRANCH  40  63
ENDBRANCH  14  15
ENDBRANCH   7   9
ENDBRANCH   4   5
ENDBRANCH   3   4
ENDBRANCH   2   3
ENDBRANCH   1   2
BRANCH   1  74
ATOM     74  C   UNL A   1      44.467  22.971  27.910  1.00  0.00     0.021 C 
BRANCH  74  75
ATOM     75  C   UNL A   1      45.698  23.852  27.738  1.00  0.00     0.116 C 
BRANCH  75  76
ATOM     76  N   UNL A   1      46.288  23.684  26.423  1.00  0.00    -0.352 N 
ATOM     77  C   UNL A   1      46.222  24.539  25.358  1.00  0.00     0.252 C 
ATOM     78  H   UNL A   1      46.799  22.854  26.281  1.00  0.00     0.163 HD
ATOM     79  O   UNL A   1      46.546  24.167  24.231  1.00  0.00    -0.269 OA
BRANCH  77  80
ATOM     80  C   UNL A   1      45.756  25.913  25.569  1.00  0.00     0.058 A 
ATOM     81  C   UNL A   1      44.430  26.284  25.333  1.00  0.00     0.017 A 
ATOM     82  C   UNL A   1      46.635  26.860  26.064  1.00  0.00     0.125 A 
ATOM     83  C   UNL A   1      44.034  27.590  25.593  1.00  0.00     0.028 A 
ATOM     84  N   UNL A   1      46.271  28.136  26.332  1.00  0.00    -0.257 NA
ATOM     85  C   UNL A   1      44.968  28.475  26.138  1.00  0.00     0.078 A 
BRANCH  85  86
ATOM     86  C   UNL A   1      44.487  29.774  26.754  1.00  0.00     0.285 C 
BRANCH  86  87
ATOM     87  O   UNL A   1      45.177  30.947  26.272  1.00  0.00    -0.487 OA
BRANCH  87  88
ATOM     88  C   UNL A   1      44.899  32.119  26.923  1.00  0.00     0.120 A 
ATOM     89  C   UNL A   1      45.322  32.234  28.244  1.00  0.00     0.046 A 
ATOM     90  C   UNL A   1      44.094  33.121  26.380  1.00  0.00     0.059 A 
ATOM     91  C   UNL A   1      44.986  33.367  28.991  1.00  0.00     0.004 A 
ATOM     92  C   UNL A   1      43.799  34.293  27.092  1.00  0.00     0.059 A 
ATOM     93  C   UNL A   1      44.241  34.399  28.414  1.00  0.00     0.013 A 
BRANCH  92  94
ATOM     94  C   UNL A   1      42.993  35.392  26.445  1.00  0.00     0.416 C 
ATOM     95  F   UNL A   1      43.625  36.596  26.471  1.00  0.00    -0.166 F 
ATOM     96  F   UNL A   1      42.727  35.135  25.132  1.00  0.00    -0.166 F 
ATOM     97  F   UNL A   1      41.776  35.587  27.028  1.00  0.00    -0.166 F 
ENDBRANCH  92  94
ENDBRANCH  87  88
ENDBRANCH  86  87
ENDBRANCH  85  86
ENDBRANCH  77  80
ENDBRANCH  75  76
ENDBRANCH  74  75
ENDBRANCH   1  74
TORSDOF 17
ENDMDL
MODEL 2
REMARK VINA RESULT:      -9.4      4.456     10.964
REMARK SMILES O=C(NCCCCCCNC(=O)c1ccc(COc2cccc(C(F)(F)F)c2)nc1)c1ccc(-c2c3nc(c(-c4c(F)c(F)c(F)c(F)c4F)c4ccc([nH]4)c(-c4c(F)c(F)c(F)c(F)c4F)c4nc(c(-c5c(F)c(F)c(F)c(F)c5F)c5ccc2[nH]5)C=C4)C=C3)cc1
REMARK SMILES IDX 7 1 6 2 5 3 4 4 3 5 1 6 2 7 31 9 32 10 93 11 33 12 92 13
REMARK SMILES IDX 34 14 35 15 36 16 86 17 37 18 91 19 85 20 87 21 38 22 90 23
REMARK SMILES IDX 84 24 83 25 39 27 71 28 51 29 70 30 52 31 55 32 69 33 88 34
REMARK SMILES IDX 53 35 54 36 68 38 89 39 56 40 40 41 41 42 49 43 42 44 43 45
REMARK SMILES IDX 47 46 50 47 44 48 45 49 48 50 46 51 72 52 73 53 81 54 74 55
REMARK SMILES IDX 75 56 79 57 82 58 76 59 77 60 80 61 78 62 57 63 58 64 66 65
REMARK SMILES IDX 59 66 60 67 64 68 67 69 61 70 62 71 65 72 63 73 8 74 9 75
REMARK SMILES IDX 10 76 11 77 12 79 13 80 14 81 30 82 15 83 29 84 16 85 17 86
REMARK SMILES IDX 18 87 19 88 20 89 28 90 21 91 23 92 22 93 24 94 25 95 26 96
REMARK SMILES IDX 27 97
REMARK H PARENT 3 8 87 26 55 37 10 78
REMARK Flexibility Score: inf
ROOT
ATOM      1  C   UNL A   1      36.979  21.484  25.387  1.00  0.00     0.002 C 
ENDROOT
BRANCH   1   2
ATOM      2  C   UNL A   1      37.126  20.162  24.627  1.00  0.00     0.002 C 
BRANCH   2   3
ATOM      3  C   UNL A   1      38.165  19.197  25.199  1.00  0.00     0.021 C 
BRANCH   3   4
ATOM      4  C   UNL A   1      39.417  19.869  25.749  1.00  0.00     0.116 C 
BRANCH   4   5
ATOM      5  N   UNL A   1      40.507  18.927  25.921  1.00  0.00    -0.352 N 
ATOM      6  O   UNL A   1      42.656  18.255  26.030  1.00  0.00    -0.269 OA
ATOM      7  C   UNL A   1      41.842  19.169  26.112  1.00  0.00     0.251 C 
ATOM      8  H   UNL A   1      40.250  17.977  25.897  1.00  0.00     0.163 HD
BRANCH   7   9
ATOM      9  C   UNL A   1      42.302  20.541  26.403  1.00  0.00     0.039 A 
ATOM     10  C   UNL A   1      42.731  21.388  25.376  1.00  0.00     0.014 A 
ATOM     11  C   UNL A   1      42.274  20.992  27.725  1.00  0.00     0.014 A 
ATOM     12  C   UNL A   1      43.233  22.650  25.682  1.00  0.00     0.010 A 
ATOM     13  C   UNL A   1      42.710  22.283  28.022  1.00  0.00     0.010 A 
ATOM     14  C   UNL A   1      43.212  23.114  27.005  1.00  0.00    -0.014 A 
BRANCH  14  15
ATOM     15  C   UNL A   1      43.659  24.490  27.326  1.00  0.00     0.031 A 
ATOM     16  C   UNL A   1      42.679  25.520  27.805  1.00  0.00     0.074 A 
ATOM     17  C   UNL A   1      44.949  24.819  27.129  1.00  0.00     0.049 A 
ATOM     18  N   UNL A   1      42.859  26.798  28.019  1.00  0.00    -0.248 NA
ATOM     19  C   UNL A   1      41.310  25.051  28.065  1.00  0.00     0.031 C 
ATOM     20  C   UNL A   1      45.989  23.902  26.665  1.00  0.00     0.029 A 
ATOM     21  N   UNL A   1      45.599  26.019  27.271  1.00  0.00    -0.354 N 
ATOM     22  C   UNL A   1      41.624  27.293  28.413  1.00  0.00     0.074 A 
ATOM     23  C   UNL A   1      40.696  26.182  28.385  1.00  0.00     0.031 C 
ATOM     24  C   UNL A   1      47.146  24.569  26.557  1.00  0.00     0.029 A 
ATOM     25  C   UNL A   1      46.914  25.973  26.881  1.00  0.00     0.049 A 
ATOM     26  H   UNL A   1      45.165  26.832  27.617  1.00  0.00     0.167 HD
ATOM     27  C   UNL A   1      41.300  28.561  28.768  1.00  0.00     0.037 A 
ATOM     28  C   UNL A   1      47.822  26.958  26.755  1.00  0.00     0.037 A 
ATOM     29  C   UNL A   1      42.236  29.656  28.789  1.00  0.00     0.049 A 
ATOM     30  C   UNL A   1      47.431  28.364  27.106  1.00  0.00     0.074 A 
ATOM     31  C   UNL A   1      42.021  30.968  29.172  1.00  0.00     0.029 A 
ATOM     32  N   UNL A   1      43.564  29.570  28.390  1.00  0.00    -0.354 N 
ATOM     33  N   UNL A   1      46.273  28.818  27.518  1.00  0.00    -0.248 NA
ATOM     34  C   UNL A   1      48.470  29.394  26.977  1.00  0.00     0.031 C 
ATOM     35  C   UNL A   1      43.197  31.689  28.944  1.00  0.00     0.029 A 
ATOM     36  C   UNL A   1      44.170  30.812  28.488  1.00  0.00     0.049 A 
ATOM     37  H   UNL A   1      44.009  28.747  28.083  1.00  0.00     0.167 HD
ATOM     38  C   UNL A   1      46.448  30.179  27.727  1.00  0.00     0.074 A 
ATOM     39  C   UNL A   1      47.826  30.477  27.395  1.00  0.00     0.031 C 
ATOM     40  C   UNL A   1      45.547  31.093  28.165  1.00  0.00     0.037 A 
BRANCH  27  41
ATOM     41  C   UNL A   1      39.864  28.836  29.119  1.00  0.00     0.064 A 
ATOM     42  C   UNL A   1      39.386  28.731  30.433  1.00  0.00     0.173 A 
ATOM     43  C   UNL A   1      38.953  29.219  28.121  1.00  0.00     0.173 A 
ATOM     44  F   UNL A   1      40.209  28.361  31.425  1.00  0.00    -0.203 F 
ATOM     45  C   UNL A   1      38.041  28.952  30.728  1.00  0.00     0.198 A 
ATOM     46  C   UNL A   1      37.619  29.475  28.425  1.00  0.00     0.198 A 
ATOM     47  F   UNL A   1      39.356  29.347  26.848  1.00  0.00    -0.203 F 
ATOM     48  F   UNL A   1      37.595  28.778  31.980  1.00  0.00    -0.200 F 
ATOM     49  C   UNL A   1      37.161  29.328  29.725  1.00  0.00     0.200 A 
ATOM     50  F   UNL A   1      36.773  29.854  27.457  1.00  0.00    -0.200 F 
ATOM     51  F   UNL A   1      35.868  29.536  30.010  1.00  0.00    -0.200 F 
ENDBRANCH  27  41
BRANCH  28  52
ATOM     52  C   UNL A   1      49.182  26.625  26.261  1.00  0.00     0.064 A 
ATOM     53  C   UNL A   1      49.524  26.804  24.914  1.00  0.00     0.173 A 
ATOM     54  C   UNL A   1      50.185  26.184  27.138  1.00  0.00     0.173 A 
ATOM     55  F   UNL A   1      48.596  27.211  24.037  1.00  0.00    -0.203 F 
ATOM     56  C   UNL A   1      50.817  26.550  24.462  1.00  0.00     0.198 A 
ATOM     57  C   UNL A   1      51.484  25.959  26.691  1.00  0.00     0.198 A 
ATOM     58  F   UNL A   1      49.909  26.009  28.439  1.00  0.00    -0.203 F 
ATOM     59  F   UNL A   1      51.113  26.706  23.165  1.00  0.00    -0.200 F 
ATOM     60  C   UNL A   1      51.799  26.138  25.352  1.00  0.00     0.200 A 
ATOM     61  F   UNL A   1      52.433  25.582  27.559  1.00  0.00    -0.200 F 
ATOM     62  F   UNL A   1      53.046  25.916  24.920  1.00  0.00    -0.200 F 
ENDBRANCH  28  52
BRANCH  40  63
ATOM     63  C   UNL A   1      46.028  32.501  28.368  1.00  0.00     0.064 A 
ATOM     64  C   UNL A   1      45.925  33.472  27.362  1.00  0.00     0.173 A 
ATOM     65  C   UNL A   1      46.523  32.900  29.619  1.00  0.00     0.173 A 
ATOM     66  F   UNL A   1      45.475  33.139  26.143  1.00  0.00    -0.203 F 
ATOM     67  C   UNL A   1      46.308  34.790  27.601  1.00  0.00     0.198 A 
ATOM     68  C   UNL A   1      46.877  34.223  29.863  1.00  0.00     0.198 A 
ATOM     69  F   UNL A   1      46.639  32.008  30.616  1.00  0.00    -0.203 F 
ATOM     70  F   UNL A   1      46.230  35.697  26.617  1.00  0.00    -0.200 F 
ATOM     71  C   UNL A   1      46.771  35.167  28.854  1.00  0.00     0.200 A 
ATOM     72  F   UNL A   1      47.308  34.587  31.078  1.00  0.00    -0.200 F 
ATOM     73  F   UNL A   1      47.116  36.441  29.088  1.00  0.00    -0.200 F 
ENDBRANCH  40  63
ENDBRANCH  14  15
ENDBRANCH   7   9
ENDBRANCH   4   5
ENDBRANCH   3   4
ENDBRANCH   2   3
ENDBRANCH   1   2
BRANCH   1  74
ATOM     74  C   UNL A   1      35.560  22.057  25.420  1.00  0.00     0.021 C 
BRANCH  74  75
ATOM     75  C   UNL A   1      34.679  21.479  26.521  1.00  0.00     0.116 C 
BRANCH  75  76
ATOM     76  N   UNL A   1      34.024  20.259  26.087  1.00  0.00    -0.352 N 
ATOM     77  C   UNL A   1      32.821  20.135  25.451  1.00  0.00     0.252 C 
ATOM     78  H   UNL A   1      34.505  19.421  26.273  1.00  0.00     0.163 HD
ATOM     79  O   UNL A   1      32.263  19.041  25.367  1.00  0.00    -0.269 OA
BRANCH  77  80
ATOM     80  C   UNL A   1      32.191  21.323  24.866  1.00  0.00     0.058 A 
ATOM     81  C   UNL A   1      31.425  22.203  25.635  1.00  0.00     0.017 A 
ATOM     82  C   UNL A   1      32.400  21.614  23.530  1.00  0.00     0.125 A 
ATOM     83  C   UNL A   1      30.889  23.337  25.037  1.00  0.00     0.028 A 
ATOM     84  N   UNL A   1      31.895  22.717  22.927  1.00  0.00    -0.257 NA
ATOM     85  C   UNL A   1      31.186  23.587  23.695  1.00  0.00     0.078 A 
BRANCH  85  86
ATOM     86  C   UNL A   1      30.922  24.966  23.122  1.00  0.00     0.285 C 
BRANCH  86  87
ATOM     87  O   UNL A   1      29.968  25.745  23.875  1.00  0.00    -0.487 OA
BRANCH  87  88
ATOM     88  C   UNL A   1      30.403  26.965  24.318  1.00  0.00     0.120 A 
ATOM     89  C   UNL A   1      30.214  28.058  23.476  1.00  0.00     0.046 A 
ATOM     90  C   UNL A   1      31.149  27.132  25.485  1.00  0.00     0.059 A 
ATOM     91  C   UNL A   1      30.722  29.311  23.830  1.00  0.00     0.004 A 
ATOM     92  C   UNL A   1      31.612  28.393  25.887  1.00  0.00     0.059 A 
ATOM     93  C   UNL A   1      31.405  29.483  25.036  1.00  0.00     0.013 A 
BRANCH  92  94
ATOM     94  C   UNL A   1      32.346  28.550  27.196  1.00  0.00     0.416 C 
ATOM     95  F   UNL A   1      31.777  27.843  28.210  1.00  0.00    -0.166 F 
ATOM     96  F   UNL A   1      33.640  28.124  27.121  1.00  0.00    -0.166 F 
ATOM     97  F   UNL A   1      32.417  29.842  27.626  1.00  0.00    -0.166 F 
ENDBRANCH  92  94
ENDBRANCH  87  88
ENDBRANCH  86  87
ENDBRANCH  85  86
ENDBRANCH  77  80
ENDBRANCH  75  76
ENDBRANCH  74  75
ENDBRANCH   1  74
TORSDOF 17
ENDMDL
MODEL 3
REMARK VINA RESULT:      -9.4      4.760     10.905
REMARK SMILES O=C(NCCCCCCNC(=O)c1ccc(COc2cccc(C(F)(F)F)c2)nc1)c1ccc(-c2c3nc(c(-c4c(F)c(F)c(F)c(F)c4F)c4ccc([nH]4)c(-c4c(F)c(F)c(F)c(F)c4F)c4nc(c(-c5c(F)c(F)c(F)c(F)c5F)c5ccc2[nH]5)C=C4)C=C3)cc1
REMARK SMILES IDX 7 1 6 2 5 3 4 4 3 5 1 6 2 7 31 9 32 10 93 11 33 12 92 13
REMARK SMILES IDX 34 14 35 15 36 16 86 17 37 18 91 19 85 20 87 21 38 22 90 23
REMARK SMILES IDX 84 24 83 25 39 27 71 28 51 29 70 30 52 31 55 32 69 33 88 34
REMARK SMILES IDX 53 35 54 36 68 38 89 39 56 40 40 41 41 42 49 43 42 44 43 45
REMARK SMILES IDX 47 46 50 47 44 48 45 49 48 50 46 51 72 52 73 53 81 54 74 55
REMARK SMILES IDX 75 56 79 57 82 58 76 59 77 60 80 61 78 62 57 63 58 64 66 65
REMARK SMILES IDX 59 66 60 67 64 68 67 69 61 70 62 71 65 72 63 73 8 74 9 75
REMARK SMILES IDX 10 76 11 77 12 79 13 80 14 81 30 82 15 83 29 84 16 85 17 86
REMARK SMILES IDX 18 87 19 88 20 89 28 90 21 91 23 92 22 93 24 94 25 95 26 96
REMARK SMILES IDX 27 97
REMARK H PARENT 3 8 87 26 55 37 10 78
REMARK Flexibility Score: inf
ROOT
ATOM      1  C   UNL A   1      36.130  21.385  24.836  1.00  0.00     0.002 C 
ENDROOT
BRANCH   1   2
ATOM      2  C   UNL A   1      36.661  19.962  25.034  1.00  0.00     0.002 C 
BRANCH   2   3
ATOM      3  C   UNL A   1      38.139  19.768  24.690  1.00  0.00     0.021 C 
BRANCH   3   4
ATOM      4  C   UNL A   1      39.101  20.108  25.822  1.00  0.00     0.116 C 
BRANCH   4   5
ATOM      5  N   UNL A   1      40.197  19.160  25.904  1.00  0.00    -0.352 N 
ATOM      6  O   UNL A   1      42.351  18.493  25.931  1.00  0.00    -0.269 OA
ATOM      7  C   UNL A   1      41.534  19.393  26.096  1.00  0.00     0.251 C 
ATOM      8  H   UNL A   1      39.944  18.214  25.808  1.00  0.00     0.163 HD
BRANCH   7   9
ATOM      9  C   UNL A   1      41.993  20.740  26.489  1.00  0.00     0.039 A 
ATOM     10  C   UNL A   1      42.223  21.058  27.831  1.00  0.00     0.014 A 
ATOM     11  C   UNL A   1      42.223  21.688  25.490  1.00  0.00     0.014 A 
ATOM     12  C   UNL A   1      42.580  22.356  28.185  1.00  0.00     0.010 A 
ATOM     13  C   UNL A   1      42.652  22.969  25.840  1.00  0.00     0.010 A 
ATOM     14  C   UNL A   1      42.813  23.317  27.191  1.00  0.00    -0.014 A 
BRANCH  14  15
ATOM     15  C   UNL A   1      43.283  24.676  27.555  1.00  0.00     0.031 A 
ATOM     16  C   UNL A   1      42.328  25.690  28.111  1.00  0.00     0.074 A 
ATOM     17  C   UNL A   1      44.567  25.004  27.327  1.00  0.00     0.049 A 
ATOM     18  N   UNL A   1      42.526  26.957  28.373  1.00  0.00    -0.248 NA
ATOM     19  C   UNL A   1      40.965  25.220  28.398  1.00  0.00     0.031 C 
ATOM     20  C   UNL A   1      45.583  24.101  26.788  1.00  0.00     0.029 A 
ATOM     21  N   UNL A   1      45.232  26.193  27.497  1.00  0.00    -0.354 N 
ATOM     22  C   UNL A   1      41.309  27.443  28.830  1.00  0.00     0.074 A 
ATOM     23  C   UNL A   1      40.371  26.340  28.787  1.00  0.00     0.031 C 
ATOM     24  C   UNL A   1      46.741  24.765  26.669  1.00  0.00     0.029 A 
ATOM     25  C   UNL A   1      46.532  26.155  27.060  1.00  0.00     0.049 A 
ATOM     26  H   UNL A   1      44.817  26.993  27.892  1.00  0.00     0.167 HD
ATOM     27  C   UNL A   1      41.008  28.696  29.250  1.00  0.00     0.037 A 
ATOM     28  C   UNL A   1      47.443  27.138  26.945  1.00  0.00     0.037 A 
ATOM     29  C   UNL A   1      41.953  29.784  29.285  1.00  0.00     0.049 A 
ATOM     30  C   UNL A   1      47.076  28.530  27.369  1.00  0.00     0.074 A 
ATOM     31  C   UNL A   1      41.761  31.079  29.731  1.00  0.00     0.029 A 
ATOM     32  N   UNL A   1      43.265  29.705  28.837  1.00  0.00    -0.354 N 
ATOM     33  N   UNL A   1      45.937  28.974  27.840  1.00  0.00    -0.248 NA
ATOM     34  C   UNL A   1      48.118  29.558  27.248  1.00  0.00     0.031 C 
ATOM     35  C   UNL A   1      42.935  31.801  29.494  1.00  0.00     0.029 A 
ATOM     36  C   UNL A   1      43.885  30.938  28.967  1.00  0.00     0.049 A 
ATOM     37  H   UNL A   1      43.693  28.894  28.480  1.00  0.00     0.167 HD
ATOM     38  C   UNL A   1      46.130  30.323  28.101  1.00  0.00     0.074 A 
ATOM     39  C   UNL A   1      47.498  30.626  27.734  1.00  0.00     0.031 C 
ATOM     40  C   UNL A   1      45.252  31.224  28.608  1.00  0.00     0.037 A 
BRANCH  27  41
ATOM     41  C   UNL A   1      39.587  28.965  29.662  1.00  0.00     0.064 A 
ATOM     42  C   UNL A   1      38.629  29.447  28.758  1.00  0.00     0.173 A 
ATOM     43  C   UNL A   1      39.177  28.729  30.984  1.00  0.00     0.173 A 
ATOM     44  F   UNL A   1      38.965  29.697  27.484  1.00  0.00    -0.203 F 
ATOM     45  C   UNL A   1      37.327  29.727  29.173  1.00  0.00     0.198 A 
ATOM     46  C   UNL A   1      37.868  28.976  31.387  1.00  0.00     0.198 A 
ATOM     47  F   UNL A   1      40.048  28.259  31.890  1.00  0.00    -0.203 F 
ATOM     48  F   UNL A   1      36.449  30.251  28.307  1.00  0.00    -0.200 F 
ATOM     49  C   UNL A   1      36.947  29.487  30.485  1.00  0.00     0.200 A 
ATOM     50  F   UNL A   1      37.498  28.728  32.651  1.00  0.00    -0.200 F 
ATOM     51  F   UNL A   1      35.697  29.762  30.882  1.00  0.00    -0.200 F 
ENDBRANCH  27  41
BRANCH  28  52
ATOM     52  C   UNL A   1      48.783  26.818  26.390  1.00  0.00     0.064 A 
ATOM     53  C   UNL A   1      49.787  26.272  27.198  1.00  0.00     0.173 A 
ATOM     54  C   UNL A   1      49.063  26.993  25.025  1.00  0.00     0.173 A 
ATOM     55  F   UNL A   1      49.571  26.100  28.510  1.00  0.00    -0.203 F 
ATOM     56  C   UNL A   1      51.024  25.915  26.664  1.00  0.00     0.198 A 
ATOM     57  C   UNL A   1      50.288  26.609  24.488  1.00  0.00     0.198 A 
ATOM     58  F   UNL A   1      48.129  27.502  24.209  1.00  0.00    -0.203 F 
ATOM     59  F   UNL A   1      51.977  25.417  27.463  1.00  0.00    -0.200 F 
ATOM     60  C   UNL A   1      51.269  26.074  25.308  1.00  0.00     0.200 A 
ATOM     61  F   UNL A   1      50.512  26.744  23.173  1.00  0.00    -0.200 F 
ATOM     62  F   UNL A   1      52.451  25.710  24.792  1.00  0.00    -0.200 F 
ENDBRANCH  28  52
BRANCH  40  63
ATOM     63  C   UNL A   1      45.751  32.619  28.854  1.00  0.00     0.064 A 
ATOM     64  C   UNL A   1      46.423  32.970  30.032  1.00  0.00     0.173 A 
ATOM     65  C   UNL A   1      45.622  33.595  27.853  1.00  0.00     0.173 A 
ATOM     66  F   UNL A   1      46.558  32.078  31.026  1.00  0.00    -0.203 F 
ATOM     67  C   UNL A   1      46.944  34.251  30.203  1.00  0.00     0.198 A 
ATOM     68  C   UNL A   1      46.169  34.865  28.015  1.00  0.00     0.198 A 
ATOM     69  F   UNL A   1      44.989  33.308  26.705  1.00  0.00    -0.203 F 
ATOM     70  F   UNL A   1      47.556  34.576  31.350  1.00  0.00    -0.200 F 
ATOM     71  C   UNL A   1      46.826  35.193  29.190  1.00  0.00     0.200 A 
ATOM     72  F   UNL A   1      46.069  35.766  27.029  1.00  0.00    -0.200 F 
ATOM     73  F   UNL A   1      47.348  36.417  29.348  1.00  0.00    -0.200 F 
ENDBRANCH  40  63
ENDBRANCH  14  15
ENDBRANCH   7   9
ENDBRANCH   4   5
ENDBRANCH   3   4
ENDBRANCH   2   3
ENDBRANCH   1   2
BRANCH   1  74
ATOM     74  C   UNL A   1      35.240  21.906  25.967  1.00  0.00     0.021 C 
BRANCH  74  75
ATOM     75  C   UNL A   1      33.778  22.087  25.579  1.00  0.00     0.116 C 
BRANCH  75  76
ATOM     76  N   UNL A   1      33.370  21.110  24.586  1.00  0.00    -0.352 N 
ATOM     77  C   UNL A   1      32.596  21.314  23.479  1.00  0.00     0.252 C 
ATOM     78  H   UNL A   1      33.691  20.190  24.727  1.00  0.00     0.163 HD
ATOM     79  O   UNL A   1      32.116  20.363  22.862  1.00  0.00    -0.269 OA
BRANCH  77  80
ATOM     80  C   UNL A   1      32.336  22.684  23.026  1.00  0.00     0.058 A 
ATOM     81  C   UNL A   1      31.209  23.396  23.446  1.00  0.00     0.017 A 
ATOM     82  C   UNL A   1      33.252  23.313  22.202  1.00  0.00     0.125 A 
ATOM     83  C   UNL A   1      31.037  24.707  23.021  1.00  0.00     0.028 A 
ATOM     84  N   UNL A   1      33.110  24.592  21.781  1.00  0.00    -0.257 NA
ATOM     85  C   UNL A   1      32.031  25.288  22.230  1.00  0.00     0.078 A 
BRANCH  85  86
ATOM     86  C   UNL A   1      32.049  26.793  22.050  1.00  0.00     0.285 C 
BRANCH  86  87
ATOM     87  O   UNL A   1      30.739  27.399  22.009  1.00  0.00    -0.487 OA
BRANCH  87  88
ATOM     88  C   UNL A   1      30.566  28.513  22.784  1.00  0.00     0.120 A 
ATOM     89  C   UNL A   1      31.410  28.671  23.879  1.00  0.00     0.046 A 
ATOM     90  C   UNL A   1      29.502  29.402  22.618  1.00  0.00     0.059 A 
ATOM     91  C   UNL A   1      31.221  29.737  24.763  1.00  0.00     0.004 A 
ATOM     92  C   UNL A   1      29.334  30.513  23.457  1.00  0.00     0.059 A 
ATOM     93  C   UNL A   1      30.198  30.663  24.545  1.00  0.00     0.013 A 
BRANCH  92  94
ATOM     94  C   UNL A   1      28.221  31.497  23.198  1.00  0.00     0.416 C 
ATOM     95  F   UNL A   1      27.135  31.289  23.990  1.00  0.00    -0.166 F 
ATOM     96  F   UNL A   1      28.606  32.787  23.419  1.00  0.00    -0.166 F 
ATOM     97  F   UNL A   1      27.765  31.474  21.913  1.00  0.00    -0.166 F 
ENDBRANCH  92  94
ENDBRANCH  87  88
ENDBRANCH  86  87
ENDBRANCH  85  86
ENDBRANCH  77  80
ENDBRANCH  75  76
ENDBRANCH  74  75
ENDBRANCH   1  74
TORSDOF 17
ENDMDL
