MODEL 1
REMARK VINA RESULT:     -12.4      0.000      0.000
REMARK SMILES O=C(NCCCCCCNC(=O)c1ccc(-c2c3nc(c(-c4c(F)c(F)c(F)c(F)c4F)c4ccc([nH]4)c(-c4c(F)c(F)c(F)c(F)c4F)c4nc(c(-c5c(F)c(F)c(F)c(F)c5F)c5ccc2[nH]5)C=C4)C=C3)cc1)C1=C[C@H]2C=C[C@@H]1[C@@H]1C=C[C@H]21
REMARK SMILES IDX 7 1 6 2 5 3 4 4 3 5 1 6 2 7 76 9 77 10 81 11 78 12 80 13
REMARK SMILES IDX 82 14 79 15 85 16 83 17 84 18 8 19 9 20 10 21 11 22 12 24
REMARK SMILES IDX 13 25 14 26 75 27 15 28 74 29 16 30 17 31 18 32 68 33 19 34
REMARK SMILES IDX 73 35 67 36 69 37 20 38 72 39 66 40 65 41 21 43 53 44 33 45
REMARK SMILES IDX 52 46 34 47 37 48 51 49 70 50 35 51 36 52 50 54 71 55 38 56
REMARK SMILES IDX 22 57 23 58 31 59 24 60 25 61 29 62 32 63 26 64 27 65 30 66
REMARK SMILES IDX 28 67 54 68 55 69 63 70 56 71 57 72 61 73 64 74 58 75 59 76
REMARK SMILES IDX 62 77 60 78 39 79 40 80 48 81 41 82 42 83 46 84 49 85 43 86
REMARK SMILES IDX 44 87 47 88 45 89
REMARK H PARENT 3 8 10 23 69 42 37 53
REMARK Flexibility Score: inf
ROOT
ATOM      1  C   UNL A   1      31.672  30.700  26.069  1.00  0.00     0.002 C 
ENDROOT
BRANCH   1   2
ATOM      2  C   UNL A   1      32.599  29.831  26.925  1.00  0.00     0.002 C 
BRANCH   2   3
ATOM      3  C   UNL A   1      31.980  28.528  27.454  1.00  0.00     0.021 C 
BRANCH   3   4
ATOM      4  C   UNL A   1      31.423  27.603  26.373  1.00  0.00     0.116 C 
BRANCH   4   5
ATOM      5  N   UNL A   1      31.069  26.311  26.931  1.00  0.00    -0.352 N 
ATOM      6  O   UNL A   1      31.054  24.082  27.178  1.00  0.00    -0.270 OA
ATOM      7  C   UNL A   1      31.405  25.062  26.528  1.00  0.00     0.247 C 
ATOM      8  H   UNL A   1      30.493  26.348  27.728  1.00  0.00     0.163 HD
BRANCH   7   9
ATOM      9  C   UNL A   1      32.261  24.892  25.349  1.00  0.00     0.021 C 
ATOM     10  C   UNL A   1      31.941  24.235  24.208  1.00  0.00    -0.009 C 
ATOM     11  C   UNL A   1      33.720  25.330  25.459  1.00  0.00     0.054 C 
ATOM     12  C   UNL A   1      33.129  24.083  23.244  1.00  0.00     0.042 C 
ATOM     13  C   UNL A   1      34.043  26.116  24.184  1.00  0.00    -0.022 C 
ATOM     14  C   UNL A   1      34.494  23.977  25.409  1.00  0.00     0.031 C 
ATOM     15  C   UNL A   1      33.730  25.473  23.040  1.00  0.00    -0.022 C 
ATOM     16  C   UNL A   1      34.163  23.235  24.062  1.00  0.00     0.030 C 
ATOM     17  C   UNL A   1      35.942  23.936  24.951  1.00  0.00    -0.026 C 
ATOM     18  C   UNL A   1      35.658  23.335  23.778  1.00  0.00    -0.026 C 
ENDBRANCH   7   9
ENDBRANCH   4   5
ENDBRANCH   3   4
ENDBRANCH   2   3
ENDBRANCH   1   2
BRANCH   1  19
ATOM     19  C   UNL A   1      31.400  32.102  26.618  1.00  0.00     0.021 C 
BRANCH  19  20
ATOM     20  C   UNL A   1      32.606  32.800  27.243  1.00  0.00     0.116 C 
BRANCH  20  21
ATOM     21  N   UNL A   1      32.335  34.180  27.608  1.00  0.00    -0.352 N 
ATOM     22  C   UNL A   1      32.952  34.963  28.554  1.00  0.00     0.251 C 
ATOM     23  H   UNL A   1      31.608  34.616  27.108  1.00  0.00     0.163 HD
ATOM     24  O   UNL A   1      32.513  36.076  28.818  1.00  0.00    -0.269 OA
BRANCH  22  25
ATOM     25  C   UNL A   1      34.134  34.449  29.280  1.00  0.00     0.039 A 
ATOM     26  C   UNL A   1      33.938  33.792  30.500  1.00  0.00     0.014 A 
ATOM     27  C   UNL A   1      35.425  34.612  28.771  1.00  0.00     0.014 A 
ATOM     28  C   UNL A   1      35.031  33.244  31.176  1.00  0.00     0.010 A 
ATOM     29  C   UNL A   1      36.507  34.018  29.418  1.00  0.00     0.010 A 
ATOM     30  C   UNL A   1      36.319  33.326  30.624  1.00  0.00    -0.014 A 
BRANCH  30  31
ATOM     31  C   UNL A   1      37.481  32.687  31.291  1.00  0.00     0.031 A 
ATOM     32  C   UNL A   1      38.204  31.552  30.623  1.00  0.00     0.074 A 
ATOM     33  C   UNL A   1      37.842  33.084  32.525  1.00  0.00     0.049 A 
ATOM     34  N   UNL A   1      39.178  30.807  31.082  1.00  0.00    -0.248 NA
ATOM     35  C   UNL A   1      37.756  31.191  29.270  1.00  0.00     0.031 C 
ATOM     36  C   UNL A   1      37.192  34.144  33.297  1.00  0.00     0.029 A 
ATOM     37  N   UNL A   1      38.836  32.629  33.357  1.00  0.00    -0.354 N 
ATOM     38  C   UNL A   1      39.451  29.883  30.082  1.00  0.00     0.074 A 
ATOM     39  C   UNL A   1      38.511  30.133  29.009  1.00  0.00     0.031 C 
ATOM     40  C   UNL A   1      37.807  34.262  34.485  1.00  0.00     0.029 A 
ATOM     41  C   UNL A   1      38.874  33.270  34.570  1.00  0.00     0.049 A 
ATOM     42  H   UNL A   1      39.462  31.911  33.106  1.00  0.00     0.167 HD
ATOM     43  C   UNL A   1      40.408  28.927  30.055  1.00  0.00     0.037 A 
ATOM     44  C   UNL A   1      39.673  33.072  35.636  1.00  0.00     0.037 A 
ATOM     45  C   UNL A   1      41.358  28.694  31.111  1.00  0.00     0.049 A 
ATOM     46  C   UNL A   1      40.741  32.015  35.572  1.00  0.00     0.074 A 
ATOM     47  C   UNL A   1      42.390  27.773  31.157  1.00  0.00     0.029 A 
ATOM     48  N   UNL A   1      41.392  29.394  32.307  1.00  0.00    -0.354 N 
ATOM     49  N   UNL A   1      41.017  31.178  34.602  1.00  0.00    -0.248 NA
ATOM     50  C   UNL A   1      41.614  31.882  36.746  1.00  0.00     0.031 C 
ATOM     51  C   UNL A   1      43.034  27.898  32.393  1.00  0.00     0.029 A 
ATOM     52  C   UNL A   1      42.425  28.920  33.102  1.00  0.00     0.049 A 
ATOM     53  H   UNL A   1      40.775  30.119  32.556  1.00  0.00     0.167 HD
ATOM     54  C   UNL A   1      42.104  30.435  35.038  1.00  0.00     0.074 A 
ATOM     55  C   UNL A   1      42.448  30.929  36.356  1.00  0.00     0.031 C 
ATOM     56  C   UNL A   1      42.757  29.430  34.406  1.00  0.00     0.037 A 
BRANCH  43  57
ATOM     57  C   UNL A   1      40.484  28.063  28.831  1.00  0.00     0.064 A 
ATOM     58  C   UNL A   1      39.775  26.856  28.744  1.00  0.00     0.173 A 
ATOM     59  C   UNL A   1      41.243  28.462  27.721  1.00  0.00     0.173 A 
ATOM     60  F   UNL A   1      39.045  26.427  29.784  1.00  0.00    -0.203 F 
ATOM     61  C   UNL A   1      39.840  26.068  27.599  1.00  0.00     0.198 A 
ATOM     62  C   UNL A   1      41.287  27.683  26.567  1.00  0.00     0.198 A 
ATOM     63  F   UNL A   1      41.937  29.609  27.752  1.00  0.00    -0.203 F 
ATOM     64  F   UNL A   1      39.186  24.899  27.553  1.00  0.00    -0.200 F 
ATOM     65  C   UNL A   1      40.590  26.485  26.509  1.00  0.00     0.200 A 
ATOM     66  F   UNL A   1      42.004  28.092  25.511  1.00  0.00    -0.200 F 
ATOM     67  F   UNL A   1      40.648  25.728  25.404  1.00  0.00    -0.200 F 
ENDBRANCH  43  57
BRANCH  44  68
ATOM     68  C   UNL A   1      39.504  33.908  36.850  1.00  0.00     0.064 A 
ATOM     69  C   UNL A   1      40.109  35.170  36.944  1.00  0.00     0.173 A 
ATOM     70  C   UNL A   1      38.738  33.466  37.937  1.00  0.00     0.173 A 
ATOM     71  F   UNL A   1      40.868  35.624  35.936  1.00  0.00    -0.203 F 
ATOM     72  C   UNL A   1      39.967  35.950  38.089  1.00  0.00     0.198 A 
ATOM     73  C   UNL A   1      38.577  34.258  39.072  1.00  0.00     0.198 A 
ATOM     74  F   UNL A   1      38.137  32.268  37.892  1.00  0.00    -0.203 F 
ATOM     75  F   UNL A   1      40.588  37.135  38.170  1.00  0.00    -0.200 F 
ATOM     76  C   UNL A   1      39.198  35.496  39.150  1.00  0.00     0.200 A 
ATOM     77  F   UNL A   1      37.824  33.822  40.090  1.00  0.00    -0.200 F 
ATOM     78  F   UNL A   1      39.060  36.249  40.250  1.00  0.00    -0.200 F 
ENDBRANCH  44  68
BRANCH  56  79
ATOM     79  C   UNL A   1      43.926  28.817  35.117  1.00  0.00     0.064 A 
ATOM     80  C   UNL A   1      45.222  29.334  34.976  1.00  0.00     0.173 A 
ATOM     81  C   UNL A   1      43.740  27.727  35.980  1.00  0.00     0.173 A 
ATOM     82  F   UNL A   1      45.450  30.366  34.151  1.00  0.00    -0.203 F 
ATOM     83  C   UNL A   1      46.294  28.767  35.659  1.00  0.00     0.198 A 
ATOM     84  C   UNL A   1      44.811  27.177  36.677  1.00  0.00     0.198 A 
ATOM     85  F   UNL A   1      42.518  27.200  36.150  1.00  0.00    -0.203 F 
ATOM     86  F   UNL A   1      47.530  29.252  35.481  1.00  0.00    -0.200 F 
ATOM     87  C   UNL A   1      46.088  27.694  36.514  1.00  0.00     0.200 A 
ATOM     88  F   UNL A   1      44.609  26.145  37.509  1.00  0.00    -0.200 F 
ATOM     89  F   UNL A   1      47.121  27.153  37.173  1.00  0.00    -0.200 F 
ENDBRANCH  56  79
ENDBRANCH  30  31
ENDBRANCH  22  25
ENDBRANCH  20  21
ENDBRANCH  19  20
ENDBRANCH   1  19
TORSDOF 13
ENDMDL
MODEL 2
REMARK VINA RESULT:     -12.3      2.063      3.427
REMARK SMILES O=C(NCCCCCCNC(=O)c1ccc(-c2c3nc(c(-c4c(F)c(F)c(F)c(F)c4F)c4ccc([nH]4)c(-c4c(F)c(F)c(F)c(F)c4F)c4nc(c(-c5c(F)c(F)c(F)c(F)c5F)c5ccc2[nH]5)C=C4)C=C3)cc1)C1=C[C@H]2C=C[C@@H]1[C@@H]1C=C[C@H]21
REMARK SMILES IDX 7 1 6 2 5 3 4 4 3 5 1 6 2 7 76 9 77 10 81 11 78 12 80 13
REMARK SMILES IDX 82 14 79 15 85 16 83 17 84 18 8 19 9 20 10 21 11 22 12 24
REMARK SMILES IDX 13 25 14 26 75 27 15 28 74 29 16 30 17 31 18 32 68 33 19 34
REMARK SMILES IDX 73 35 67 36 69 37 20 38 72 39 66 40 65 41 21 43 53 44 33 45
REMARK SMILES IDX 52 46 34 47 37 48 51 49 70 50 35 51 36 52 50 54 71 55 38 56
REMARK SMILES IDX 22 57 23 58 31 59 24 60 25 61 29 62 32 63 26 64 27 65 30 66
REMARK SMILES IDX 28 67 54 68 55 69 63 70 56 71 57 72 61 73 64 74 58 75 59 76
REMARK SMILES IDX 62 77 60 78 39 79 40 80 48 81 41 82 42 83 46 84 49 85 43 86
REMARK SMILES IDX 44 87 47 88 45 89
REMARK H PARENT 3 8 10 23 69 42 37 53
REMARK Flexibility Score: inf
ROOT
ATOM      1  C   UNL A   1      31.406  27.536  26.002  1.00  0.00     0.002 C 
ENDROOT
BRANCH   1   2
ATOM      2  C   UNL A   1      30.838  26.148  25.688  1.00  0.00     0.002 C 
BRANCH   2   3
ATOM      3  C   UNL A   1      30.199  25.997  24.299  1.00  0.00     0.021 C 
BRANCH   3   4
ATOM      4  C   UNL A   1      30.788  24.873  23.446  1.00  0.00     0.116 C 
BRANCH   4   5
ATOM      5  N   UNL A   1      31.781  25.391  22.523  1.00  0.00    -0.352 N 
ATOM      6  O   UNL A   1      33.809  25.782  21.647  1.00  0.00    -0.270 OA
ATOM      7  C   UNL A   1      33.134  25.334  22.569  1.00  0.00     0.247 C 
ATOM      8  H   UNL A   1      31.413  25.859  21.739  1.00  0.00     0.163 HD
BRANCH   7   9
ATOM      9  C   UNL A   1      33.786  24.658  23.696  1.00  0.00     0.021 C 
ATOM     10  C   UNL A   1      34.184  25.230  24.858  1.00  0.00    -0.009 C 
ATOM     11  C   UNL A   1      34.237  23.213  23.496  1.00  0.00     0.054 C 
ATOM     12  C   UNL A   1      35.003  24.283  25.749  1.00  0.00     0.042 C 
ATOM     13  C   UNL A   1      33.803  22.438  24.744  1.00  0.00    -0.022 C 
ATOM     14  C   UNL A   1      35.793  23.328  23.507  1.00  0.00     0.031 C 
ATOM     15  C   UNL A   1      34.193  22.996  25.908  1.00  0.00    -0.022 C 
ATOM     16  C   UNL A   1      36.260  23.947  24.876  1.00  0.00     0.030 C 
ATOM     17  C   UNL A   1      36.650  22.130  23.878  1.00  0.00    -0.026 C 
ATOM     18  C   UNL A   1      37.022  22.639  25.069  1.00  0.00    -0.026 C 
ENDBRANCH   7   9
ENDBRANCH   4   5
ENDBRANCH   3   4
ENDBRANCH   2   3
ENDBRANCH   1   2
BRANCH   1  19
ATOM     19  C   UNL A   1      32.095  28.241  24.831  1.00  0.00     0.021 C 
BRANCH  19  20
ATOM     20  C   UNL A   1      33.168  29.253  25.222  1.00  0.00     0.116 C 
BRANCH  20  21
ATOM     21  N   UNL A   1      32.616  30.477  25.779  1.00  0.00    -0.352 N 
ATOM     22  C   UNL A   1      33.068  31.228  26.837  1.00  0.00     0.251 C 
ATOM     23  H   UNL A   1      31.806  30.817  25.335  1.00  0.00     0.163 HD
ATOM     24  O   UNL A   1      32.407  32.173  27.253  1.00  0.00    -0.269 OA
BRANCH  22  25
ATOM     25  C   UNL A   1      34.343  30.877  27.500  1.00  0.00     0.039 A 
ATOM     26  C   UNL A   1      35.327  31.864  27.626  1.00  0.00     0.014 A 
ATOM     27  C   UNL A   1      34.575  29.589  27.990  1.00  0.00     0.014 A 
ATOM     28  C   UNL A   1      36.515  31.577  28.301  1.00  0.00     0.010 A 
ATOM     29  C   UNL A   1      35.736  29.320  28.711  1.00  0.00     0.010 A 
ATOM     30  C   UNL A   1      36.715  30.311  28.875  1.00  0.00    -0.014 A 
BRANCH  30  31
ATOM     31  C   UNL A   1      37.939  30.009  29.659  1.00  0.00     0.031 A 
ATOM     32  C   UNL A   1      38.964  29.053  29.119  1.00  0.00     0.074 A 
ATOM     33  C   UNL A   1      38.093  30.543  30.886  1.00  0.00     0.049 A 
ATOM     34  N   UNL A   1      40.048  28.593  29.692  1.00  0.00    -0.248 NA
ATOM     35  C   UNL A   1      38.728  28.528  27.767  1.00  0.00     0.031 C 
ATOM     36  C   UNL A   1      37.147  31.448  31.539  1.00  0.00     0.029 A 
ATOM     37  N   UNL A   1      39.096  30.385  31.810  1.00  0.00    -0.354 N 
ATOM     38  C   UNL A   1      40.615  27.716  28.776  1.00  0.00     0.074 A 
ATOM     39  C   UNL A   1      39.733  27.676  27.628  1.00  0.00     0.031 C 
ATOM     40  C   UNL A   1      37.617  31.771  32.755  1.00  0.00     0.029 A 
ATOM     41  C   UNL A   1      38.881  31.075  32.978  1.00  0.00     0.049 A 
ATOM     42  H   UNL A   1      39.894  29.831  31.651  1.00  0.00     0.167 HD
ATOM     43  C   UNL A   1      41.773  27.022  28.877  1.00  0.00     0.037 A 
ATOM     44  C   UNL A   1      39.615  31.131  34.105  1.00  0.00     0.037 A 
ATOM     45  C   UNL A   1      42.662  27.080  30.007  1.00  0.00     0.049 A 
ATOM     46  C   UNL A   1      40.907  30.366  34.183  1.00  0.00     0.074 A 
ATOM     47  C   UNL A   1      43.878  26.443  30.184  1.00  0.00     0.029 A 
ATOM     48  N   UNL A   1      42.431  27.825  31.153  1.00  0.00    -0.354 N 
ATOM     49  N   UNL A   1      41.453  29.574  33.293  1.00  0.00    -0.248 NA
ATOM     50  C   UNL A   1      41.688  30.507  35.419  1.00  0.00     0.031 C 
ATOM     51  C   UNL A   1      44.371  26.782  31.448  1.00  0.00     0.029 A 
ATOM     52  C   UNL A   1      43.479  27.658  32.045  1.00  0.00     0.049 A 
ATOM     53  H   UNL A   1      41.639  28.389  31.311  1.00  0.00     0.167 HD
ATOM     54  C   UNL A   1      42.648  29.142  33.850  1.00  0.00     0.074 A 
ATOM     55  C   UNL A   1      42.756  29.769  35.150  1.00  0.00     0.031 C 
ATOM     56  C   UNL A   1      43.572  28.297  33.331  1.00  0.00     0.037 A 
BRANCH  43  57
ATOM     57  C   UNL A   1      42.153  26.144  27.722  1.00  0.00     0.064 A 
ATOM     58  C   UNL A   1      43.090  26.560  26.765  1.00  0.00     0.173 A 
ATOM     59  C   UNL A   1      41.603  24.860  27.590  1.00  0.00     0.173 A 
ATOM     60  F   UNL A   1      43.635  27.783  26.842  1.00  0.00    -0.203 F 
ATOM     61  C   UNL A   1      43.447  25.732  25.705  1.00  0.00     0.198 A 
ATOM     62  C   UNL A   1      41.980  24.024  26.541  1.00  0.00     0.198 A 
ATOM     63  F   UNL A   1      40.705  24.414  28.481  1.00  0.00    -0.203 F 
ATOM     64  F   UNL A   1      44.314  26.166  24.780  1.00  0.00    -0.200 F 
ATOM     65  C   UNL A   1      42.897  24.463  25.597  1.00  0.00     0.200 A 
ATOM     66  F   UNL A   1      41.456  22.795  26.444  1.00  0.00    -0.200 F 
ATOM     67  F   UNL A   1      43.245  23.664  24.579  1.00  0.00    -0.200 F 
ENDBRANCH  43  57
BRANCH  44  68
ATOM     68  C   UNL A   1      39.153  31.959  35.246  1.00  0.00     0.064 A 
ATOM     69  C   UNL A   1      38.436  31.386  36.306  1.00  0.00     0.173 A 
ATOM     70  C   UNL A   1      39.417  33.335  35.302  1.00  0.00     0.173 A 
ATOM     71  F   UNL A   1      38.142  30.078  36.284  1.00  0.00    -0.203 F 
ATOM     72  C   UNL A   1      37.986  32.164  37.371  1.00  0.00     0.198 A 
ATOM     73  C   UNL A   1      38.987  34.106  36.379  1.00  0.00     0.198 A 
ATOM     74  F   UNL A   1      40.104  33.927  34.313  1.00  0.00    -0.203 F 
ATOM     75  F   UNL A   1      37.268  31.599  38.352  1.00  0.00    -0.200 F 
ATOM     76  C   UNL A   1      38.266  33.521  37.409  1.00  0.00     0.200 A 
ATOM     77  F   UNL A   1      39.270  35.415  36.419  1.00  0.00    -0.200 F 
ATOM     78  F   UNL A   1      37.834  34.267  38.436  1.00  0.00    -0.200 F 
ENDBRANCH  44  68
BRANCH  56  79
ATOM     79  C   UNL A   1      44.792  28.024  34.158  1.00  0.00     0.064 A 
ATOM     80  C   UNL A   1      45.929  28.843  34.079  1.00  0.00     0.173 A 
ATOM     81  C   UNL A   1      44.810  26.957  35.068  1.00  0.00     0.173 A 
ATOM     82  F   UNL A   1      45.964  29.866  33.213  1.00  0.00    -0.203 F 
ATOM     83  C   UNL A   1      47.047  28.589  34.869  1.00  0.00     0.198 A 
ATOM     84  C   UNL A   1      45.921  26.720  35.870  1.00  0.00     0.198 A 
ATOM     85  F   UNL A   1      43.746  26.148  35.181  1.00  0.00    -0.203 F 
ATOM     86  F   UNL A   1      48.136  29.360  34.751  1.00  0.00    -0.200 F 
ATOM     87  C   UNL A   1      47.040  27.533  35.768  1.00  0.00     0.200 A 
ATOM     88  F   UNL A   1      45.911  25.704  36.745  1.00  0.00    -0.200 F 
ATOM     89  F   UNL A   1      48.116  27.293  36.529  1.00  0.00    -0.200 F 
ENDBRANCH  56  79
ENDBRANCH  30  31
ENDBRANCH  22  25
ENDBRANCH  20  21
ENDBRANCH  19  20
ENDBRANCH   1  19
TORSDOF 13
ENDMDL
MODEL 3
REMARK VINA RESULT:     -12.3      0.156      2.001
REMARK SMILES O=C(NCCCCCCNC(=O)c1ccc(-c2c3nc(c(-c4c(F)c(F)c(F)c(F)c4F)c4ccc([nH]4)c(-c4c(F)c(F)c(F)c(F)c4F)c4nc(c(-c5c(F)c(F)c(F)c(F)c5F)c5ccc2[nH]5)C=C4)C=C3)cc1)C1=C[C@H]2C=C[C@@H]1[C@@H]1C=C[C@H]21
REMARK SMILES IDX 7 1 6 2 5 3 4 4 3 5 1 6 2 7 76 9 77 10 81 11 78 12 80 13
REMARK SMILES IDX 82 14 79 15 85 16 83 17 84 18 8 19 9 20 10 21 11 22 12 24
REMARK SMILES IDX 13 25 14 26 75 27 15 28 74 29 16 30 17 31 18 32 68 33 19 34
REMARK SMILES IDX 73 35 67 36 69 37 20 38 72 39 66 40 65 41 21 43 53 44 33 45
REMARK SMILES IDX 52 46 34 47 37 48 51 49 70 50 35 51 36 52 50 54 71 55 38 56
REMARK SMILES IDX 22 57 23 58 31 59 24 60 25 61 29 62 32 63 26 64 27 65 30 66
REMARK SMILES IDX 28 67 54 68 55 69 63 70 56 71 57 72 61 73 64 74 58 75 59 76
REMARK SMILES IDX 62 77 60 78 39 79 40 80 48 81 41 82 42 83 46 84 49 85 43 86
REMARK SMILES IDX 44 87 47 88 45 89
REMARK H PARENT 3 8 10 23 69 42 37 53
REMARK Flexibility Score: inf
ROOT
ATOM      1  C   UNL A   1      31.676  30.739  25.965  1.00  0.00     0.002 C 
ENDROOT
BRANCH   1   2
ATOM      2  C   UNL A   1      32.496  29.767  26.819  1.00  0.00     0.002 C 
BRANCH   2   3
ATOM      3  C   UNL A   1      31.724  28.555  27.364  1.00  0.00     0.021 C 
BRANCH   3   4
ATOM      4  C   UNL A   1      31.416  27.477  26.325  1.00  0.00     0.116 C 
BRANCH   4   5
ATOM      5  N   UNL A   1      31.191  26.194  26.963  1.00  0.00    -0.352 N 
ATOM      6  O   UNL A   1      31.346  23.983  27.310  1.00  0.00    -0.270 OA
ATOM      7  C   UNL A   1      31.584  24.951  26.594  1.00  0.00     0.247 C 
ATOM      8  H   UNL A   1      30.669  26.232  27.797  1.00  0.00     0.163 HD
BRANCH   7   9
ATOM      9  C   UNL A   1      32.367  24.780  25.366  1.00  0.00     0.021 C 
ATOM     10  C   UNL A   1      31.982  24.116  24.250  1.00  0.00    -0.009 C 
ATOM     11  C   UNL A   1      33.828  25.226  25.385  1.00  0.00     0.054 C 
ATOM     12  C   UNL A   1      33.110  23.965  23.216  1.00  0.00     0.042 C 
ATOM     13  C   UNL A   1      34.068  26.008  24.089  1.00  0.00    -0.022 C 
ATOM     14  C   UNL A   1      34.605  23.877  25.294  1.00  0.00     0.031 C 
ATOM     15  C   UNL A   1      33.690  25.358  22.970  1.00  0.00    -0.022 C 
ATOM     16  C   UNL A   1      34.196  23.126  23.973  1.00  0.00     0.030 C 
ATOM     17  C   UNL A   1      36.022  23.841  24.749  1.00  0.00    -0.026 C 
ATOM     18  C   UNL A   1      35.671  23.233  23.598  1.00  0.00    -0.026 C 
ENDBRANCH   7   9
ENDBRANCH   4   5
ENDBRANCH   3   4
ENDBRANCH   2   3
ENDBRANCH   1   2
BRANCH   1  19
ATOM     19  C   UNL A   1      31.382  32.093  26.616  1.00  0.00     0.021 C 
BRANCH  19  20
ATOM     20  C   UNL A   1      32.581  32.770  27.276  1.00  0.00     0.116 C 
BRANCH  20  21
ATOM     21  N   UNL A   1      32.326  34.155  27.630  1.00  0.00    -0.352 N 
ATOM     22  C   UNL A   1      32.964  34.944  28.556  1.00  0.00     0.251 C 
ATOM     23  H   UNL A   1      31.593  34.590  27.138  1.00  0.00     0.163 HD
ATOM     24  O   UNL A   1      32.537  36.064  28.816  1.00  0.00    -0.269 OA
BRANCH  22  25
ATOM     25  C   UNL A   1      34.155  34.431  29.268  1.00  0.00     0.039 A 
ATOM     26  C   UNL A   1      33.979  33.813  30.510  1.00  0.00     0.014 A 
ATOM     27  C   UNL A   1      35.436  34.558  28.723  1.00  0.00     0.014 A 
ATOM     28  C   UNL A   1      35.079  33.266  31.175  1.00  0.00     0.010 A 
ATOM     29  C   UNL A   1      36.523  33.964  29.360  1.00  0.00     0.010 A 
ATOM     30  C   UNL A   1      36.354  33.310  30.590  1.00  0.00    -0.014 A 
BRANCH  30  31
ATOM     31  C   UNL A   1      37.522  32.670  31.245  1.00  0.00     0.031 A 
ATOM     32  C   UNL A   1      38.230  31.526  30.577  1.00  0.00     0.074 A 
ATOM     33  C   UNL A   1      37.902  33.075  32.472  1.00  0.00     0.049 A 
ATOM     34  N   UNL A   1      39.206  30.779  31.030  1.00  0.00    -0.248 NA
ATOM     35  C   UNL A   1      37.762  31.156  29.234  1.00  0.00     0.031 C 
ATOM     36  C   UNL A   1      37.268  34.145  33.244  1.00  0.00     0.029 A 
ATOM     37  N   UNL A   1      38.904  32.622  33.293  1.00  0.00    -0.354 N 
ATOM     38  C   UNL A   1      39.460  29.846  30.034  1.00  0.00     0.074 A 
ATOM     39  C   UNL A   1      38.508  30.093  28.971  1.00  0.00     0.031 C 
ATOM     40  C   UNL A   1      37.899  34.270  34.422  1.00  0.00     0.029 A 
ATOM     41  C   UNL A   1      38.962  33.272  34.501  1.00  0.00     0.049 A 
ATOM     42  H   UNL A   1      39.523  31.899  33.040  1.00  0.00     0.167 HD
ATOM     43  C   UNL A   1      40.413  28.885  30.001  1.00  0.00     0.037 A 
ATOM     44  C   UNL A   1      39.775  33.079  35.557  1.00  0.00     0.037 A 
ATOM     45  C   UNL A   1      41.375  28.655  31.046  1.00  0.00     0.049 A 
ATOM     46  C   UNL A   1      40.837  32.016  35.487  1.00  0.00     0.074 A 
ATOM     47  C   UNL A   1      42.403  27.730  31.086  1.00  0.00     0.029 A 
ATOM     48  N   UNL A   1      41.430  29.365  32.236  1.00  0.00    -0.354 N 
ATOM     49  N   UNL A   1      41.094  31.169  34.521  1.00  0.00    -0.248 NA
ATOM     50  C   UNL A   1      41.724  31.888  36.651  1.00  0.00     0.031 C 
ATOM     51  C   UNL A   1      43.065  27.861  32.311  1.00  0.00     0.029 A 
ATOM     52  C   UNL A   1      42.470  28.893  33.020  1.00  0.00     0.049 A 
ATOM     53  H   UNL A   1      40.820  30.095  32.487  1.00  0.00     0.167 HD
ATOM     54  C   UNL A   1      42.184  30.424  34.949  1.00  0.00     0.074 A 
ATOM     55  C   UNL A   1      42.548  30.927  36.257  1.00  0.00     0.031 C 
ATOM     56  C   UNL A   1      42.823  29.411  34.316  1.00  0.00     0.037 A 
BRANCH  43  57
ATOM     57  C   UNL A   1      40.467  28.010  28.783  1.00  0.00     0.064 A 
ATOM     58  C   UNL A   1      41.236  28.363  27.665  1.00  0.00     0.173 A 
ATOM     59  C   UNL A   1      39.775  26.791  28.749  1.00  0.00     0.173 A 
ATOM     60  F   UNL A   1      41.906  29.525  27.647  1.00  0.00    -0.203 F 
ATOM     61  C   UNL A   1      41.292  27.538  26.545  1.00  0.00     0.198 A 
ATOM     62  C   UNL A   1      39.852  25.956  27.636  1.00  0.00     0.198 A 
ATOM     63  F   UNL A   1      39.029  26.406  29.794  1.00  0.00    -0.203 F 
ATOM     64  F   UNL A   1      42.000  27.914  25.472  1.00  0.00    -0.200 F 
ATOM     65  C   UNL A   1      40.606  26.333  26.534  1.00  0.00     0.200 A 
ATOM     66  F   UNL A   1      39.197  24.787  27.631  1.00  0.00    -0.200 F 
ATOM     67  F   UNL A   1      40.664  25.536  25.458  1.00  0.00    -0.200 F 
ENDBRANCH  43  57
BRANCH  44  68
ATOM     68  C   UNL A   1      39.627  33.926  36.767  1.00  0.00     0.064 A 
ATOM     69  C   UNL A   1      38.861  33.493  37.858  1.00  0.00     0.173 A 
ATOM     70  C   UNL A   1      40.246  35.180  36.857  1.00  0.00     0.173 A 
ATOM     71  F   UNL A   1      38.233  32.310  37.806  1.00  0.00    -0.203 F 
ATOM     72  C   UNL A   1      38.706  34.293  38.989  1.00  0.00     0.198 A 
ATOM     73  C   UNL A   1      40.110  35.968  37.998  1.00  0.00     0.198 A 
ATOM     74  F   UNL A   1      40.993  35.635  35.840  1.00  0.00    -0.203 F 
ATOM     75  F   UNL A   1      37.935  33.873  40.001  1.00  0.00    -0.200 F 
ATOM     76  C   UNL A   1      39.334  35.526  39.059  1.00  0.00     0.200 A 
ATOM     77  F   UNL A   1      40.728  37.155  38.069  1.00  0.00    -0.200 F 
ATOM     78  F   UNL A   1      39.186  36.294  40.149  1.00  0.00    -0.200 F 
ENDBRANCH  44  68
BRANCH  56  79
ATOM     79  C   UNL A   1      43.998  28.798  35.016  1.00  0.00     0.064 A 
ATOM     80  C   UNL A   1      43.841  27.730  35.912  1.00  0.00     0.173 A 
ATOM     81  C   UNL A   1      45.298  29.258  34.759  1.00  0.00     0.173 A 
ATOM     82  F   UNL A   1      42.616  27.266  36.200  1.00  0.00    -0.203 F 
ATOM     83  C   UNL A   1      44.944  27.157  36.539  1.00  0.00     0.198 A 
ATOM     84  C   UNL A   1      46.399  28.669  35.371  1.00  0.00     0.198 A 
ATOM     85  F   UNL A   1      45.499  30.275  33.907  1.00  0.00    -0.203 F 
ATOM     86  F   UNL A   1      44.769  26.163  37.420  1.00  0.00    -0.200 F 
ATOM     87  C   UNL A   1      46.222  27.622  36.264  1.00  0.00     0.200 A 
ATOM     88  F   UNL A   1      47.634  29.113  35.099  1.00  0.00    -0.200 F 
ATOM     89  F   UNL A   1      47.282  27.067  36.866  1.00  0.00    -0.200 F 
ENDBRANCH  56  79
ENDBRANCH  30  31
ENDBRANCH  22  25
ENDBRANCH  20  21
ENDBRANCH  19  20
ENDBRANCH   1  19
TORSDOF 13
ENDMDL
