MODEL 1
REMARK VINA RESULT:     -10.7      0.000      0.000
REMARK SMILES CCN(CC(C)(C)O)C(=O)N1CCC(OCC(=O)NCCCCCCNC(=O)c2ccc(-c3c4nc(c(-c5c(F)c(F)c(F)c(F)c5F)c5ccc([nH]5)c(-c5c(F)c(F)c(F)c(F)c5F)c5nc(c(-c6c(F)c(F)c(F)c(F)c6F)c6ccc3[nH]6)C=C5)C=C4)cc2)CC1
REMARK SMILES IDX 20 1 19 2 17 3 18 4 16 6 15 7 14 8 9 9 10 10 11 11 12 12
REMARK SMILES IDX 93 13 13 14 92 15 3 16 2 17 1 18 4 19 5 20 6 21 7 22 8 23
REMARK SMILES IDX 21 25 22 26 23 27 24 28 25 29 26 30 27 31 28 33 29 34 30 35
REMARK SMILES IDX 91 36 31 37 90 38 32 39 33 40 34 41 84 42 35 43 89 44 83 45
REMARK SMILES IDX 85 46 36 47 88 48 82 49 81 50 37 52 69 53 49 54 68 55 50 56
REMARK SMILES IDX 53 57 67 58 86 59 51 60 52 61 66 63 87 64 54 65 38 66 39 67
REMARK SMILES IDX 47 68 40 69 41 70 45 71 48 72 42 73 43 74 46 75 44 76 70 77
REMARK SMILES IDX 71 78 79 79 72 80 73 81 77 82 80 83 74 84 75 85 78 86 76 87
REMARK SMILES IDX 55 88 56 89 64 90 57 91 58 92 62 93 65 94 59 95 60 96 63 97
REMARK SMILES IDX 61 98
REMARK H PARENT 19 5 8 24 26 32 85 51 53 62
REMARK Flexibility Score: inf
ROOT
ATOM      1  C   UNL A   1      39.414  22.898  26.795  1.00  0.00     0.116 C 
ENDROOT
BRANCH   1   2
ATOM      2  N   UNL A   1      38.696  21.852  26.098  1.00  0.00    -0.354 N 
ATOM      3  C   UNL A   1      37.507  21.914  25.430  1.00  0.00     0.246 C 
ATOM      4  O   UNL A   1      37.139  20.915  24.808  1.00  0.00    -0.272 OA
ATOM      5  H   UNL A   1      39.127  20.967  26.107  1.00  0.00     0.163 HD
BRANCH   3   6
ATOM      6  C   UNL A   1      36.669  23.206  25.443  1.00  0.00     0.260 C 
BRANCH   6   7
ATOM      7  O   UNL A   1      35.444  23.267  26.152  1.00  0.00    -0.368 OA
BRANCH   7   8
ATOM      8  C   UNL A   1      34.246  23.546  25.419  1.00  0.00     0.122 C 
ATOM      9  C   UNL A   1      30.840  25.699  25.498  1.00  0.00     0.320 C 
ATOM     10  O   UNL A   1      30.252  25.281  26.501  1.00  0.00    -0.248 OA
ATOM     11  N   UNL A   1      31.731  24.861  24.853  1.00  0.00    -0.324 N 
ATOM     12  C   UNL A   1      31.739  23.431  25.178  1.00  0.00     0.124 C 
ATOM     13  C   UNL A   1      32.932  25.298  24.189  1.00  0.00     0.124 C 
ATOM     14  C   UNL A   1      32.939  23.067  26.062  1.00  0.00     0.054 C 
ATOM     15  C   UNL A   1      34.162  25.010  25.020  1.00  0.00     0.054 C 
BRANCH   9  16
ATOM     16  N   UNL A   1      30.591  26.986  25.006  1.00  0.00    -0.322 N 
BRANCH  16  17
ATOM     17  C   UNL A   1      29.668  27.032  23.857  1.00  0.00     0.118 C 
ATOM     18  C   UNL A   1      30.201  27.848  22.676  1.00  0.00     0.027 C 
ENDBRANCH  16  17
BRANCH  16  19
ATOM     19  C   UNL A   1      31.421  28.207  25.196  1.00  0.00     0.155 C 
BRANCH  19  20
ATOM     20  C   UNL A   1      31.987  28.530  26.639  1.00  0.00     0.077 C 
ATOM     21  C   UNL A   1      33.459  28.184  26.909  1.00  0.00     0.043 C 
ATOM     22  C   UNL A   1      31.824  30.041  26.876  1.00  0.00     0.043 C 
BRANCH  20  23
ATOM     23  O   UNL A   1      31.212  27.891  27.661  1.00  0.00    -0.389 OA
ATOM     24  H   UNL A   1      31.393  26.938  27.655  1.00  0.00     0.211 HD
ENDBRANCH  20  23
ENDBRANCH  19  20
ENDBRANCH  16  19
ENDBRANCH   9  16
ENDBRANCH   7   8
ENDBRANCH   6   7
ENDBRANCH   3   6
ENDBRANCH   1   2
BRANCH   1  25
ATOM     25  C   UNL A   1      40.679  22.394  27.498  1.00  0.00     0.021 C 
BRANCH  25  26
ATOM     26  C   UNL A   1      41.645  21.573  26.636  1.00  0.00     0.002 C 
BRANCH  26  27
ATOM     27  C   UNL A   1      42.007  20.191  27.187  1.00  0.00     0.002 C 
BRANCH  27  28
ATOM     28  C   UNL A   1      42.277  19.118  26.132  1.00  0.00     0.021 C 
BRANCH  28  29
ATOM     29  C   UNL A   1      43.695  18.561  26.125  1.00  0.00     0.116 C 
BRANCH  29  30
ATOM     30  N   UNL A   1      44.258  18.483  24.787  1.00  0.00    -0.352 N 
ATOM     31  C   UNL A   1      44.715  19.492  23.981  1.00  0.00     0.251 C 
ATOM     32  H   UNL A   1      44.320  17.577  24.407  1.00  0.00     0.163 HD
ATOM     33  O   UNL A   1      45.000  19.256  22.803  1.00  0.00    -0.269 OA
BRANCH  31  34
ATOM     34  C   UNL A   1      44.854  20.869  24.500  1.00  0.00     0.039 A 
ATOM     35  C   UNL A   1      44.397  21.935  23.721  1.00  0.00     0.014 A 
ATOM     36  C   UNL A   1      45.467  21.119  25.732  1.00  0.00     0.014 A 
ATOM     37  C   UNL A   1      44.525  23.246  24.189  1.00  0.00     0.010 A 
ATOM     38  C   UNL A   1      45.521  22.419  26.233  1.00  0.00     0.010 A 
ATOM     39  C   UNL A   1      45.074  23.498  25.456  1.00  0.00    -0.014 A 
BRANCH  39  40
ATOM     40  C   UNL A   1      45.246  24.889  25.955  1.00  0.00     0.031 A 
ATOM     41  C   UNL A   1      46.597  25.551  25.880  1.00  0.00     0.074 A 
ATOM     42  C   UNL A   1      44.204  25.544  26.500  1.00  0.00     0.049 A 
ATOM     43  N   UNL A   1      46.964  26.739  26.293  1.00  0.00    -0.248 NA
ATOM     44  C   UNL A   1      47.689  24.762  25.288  1.00  0.00     0.031 C 
ATOM     45  C   UNL A   1      42.855  25.001  26.668  1.00  0.00     0.029 A 
ATOM     46  N   UNL A   1      44.118  26.813  27.018  1.00  0.00    -0.354 N 
ATOM     47  C   UNL A   1      48.323  26.830  26.020  1.00  0.00     0.074 A 
ATOM     48  C   UNL A   1      48.731  25.556  25.469  1.00  0.00     0.031 C 
ATOM     49  C   UNL A   1      42.070  25.940  27.221  1.00  0.00     0.029 A 
ATOM     50  C   UNL A   1      42.864  27.137  27.477  1.00  0.00     0.049 A 
ATOM     51  H   UNL A   1      44.883  27.433  27.056  1.00  0.00     0.167 HD
ATOM     52  C   UNL A   1      49.152  27.890  26.180  1.00  0.00     0.037 A 
ATOM     53  C   UNL A   1      42.410  28.274  28.037  1.00  0.00     0.037 A 
ATOM     54  C   UNL A   1      48.741  29.167  26.705  1.00  0.00     0.049 A 
ATOM     55  C   UNL A   1      43.354  29.437  28.209  1.00  0.00     0.074 A 
ATOM     56  C   UNL A   1      49.495  30.314  26.879  1.00  0.00     0.029 A 
ATOM     57  N   UNL A   1      47.457  29.462  27.139  1.00  0.00    -0.354 N 
ATOM     58  N   UNL A   1      44.623  29.530  27.895  1.00  0.00    -0.248 NA
ATOM     59  C   UNL A   1      42.792  30.659  28.801  1.00  0.00     0.031 C 
ATOM     60  C   UNL A   1      48.677  31.292  27.457  1.00  0.00     0.029 A 
ATOM     61  C   UNL A   1      47.400  30.772  27.589  1.00  0.00     0.049 A 
ATOM     62  H   UNL A   1      46.699  28.835  27.130  1.00  0.00     0.167 HD
ATOM     63  C   UNL A   1      45.000  30.829  28.210  1.00  0.00     0.074 A 
ATOM     64  C   UNL A   1      43.820  31.490  28.727  1.00  0.00     0.031 C 
ATOM     65  C   UNL A   1      46.213  31.422  28.083  1.00  0.00     0.037 A 
BRANCH  52  66
ATOM     66  C   UNL A   1      50.589  27.713  25.776  1.00  0.00     0.064 A 
ATOM     67  C   UNL A   1      51.578  27.369  26.711  1.00  0.00     0.173 A 
ATOM     68  C   UNL A   1      50.980  27.867  24.437  1.00  0.00     0.173 A 
ATOM     69  F   UNL A   1      51.262  27.223  28.007  1.00  0.00    -0.203 F 
ATOM     70  C   UNL A   1      52.908  27.218  26.327  1.00  0.00     0.198 A 
ATOM     71  C   UNL A   1      52.305  27.681  24.052  1.00  0.00     0.198 A 
ATOM     72  F   UNL A   1      50.076  28.191  23.501  1.00  0.00    -0.203 F 
ATOM     73  F   UNL A   1      53.843  26.947  27.248  1.00  0.00    -0.200 F 
ATOM     74  C   UNL A   1      53.270  27.367  24.996  1.00  0.00     0.200 A 
ATOM     75  F   UNL A   1      52.650  27.812  22.763  1.00  0.00    -0.200 F 
ATOM     76  F   UNL A   1      54.548  27.216  24.628  1.00  0.00    -0.200 F 
ENDBRANCH  52  66
BRANCH  53  77
ATOM     77  C   UNL A   1      40.985  28.392  28.444  1.00  0.00     0.064 A 
ATOM     78  C   UNL A   1      40.028  28.926  27.566  1.00  0.00     0.173 A 
ATOM     79  C   UNL A   1      40.553  28.004  29.719  1.00  0.00     0.173 A 
ATOM     80  F   UNL A   1      40.395  29.331  26.342  1.00  0.00    -0.203 F 
ATOM     81  C   UNL A   1      38.704  29.098  27.962  1.00  0.00     0.198 A 
ATOM     82  C   UNL A   1      39.220  28.146  30.103  1.00  0.00     0.198 A 
ATOM     83  F   UNL A   1      41.425  27.482  30.594  1.00  0.00    -0.203 F 
ATOM     84  F   UNL A   1      37.824  29.666  27.125  1.00  0.00    -0.200 F 
ATOM     85  C   UNL A   1      38.300  28.703  29.228  1.00  0.00     0.200 A 
ATOM     86  F   UNL A   1      38.831  27.750  31.322  1.00  0.00    -0.200 F 
ATOM     87  F   UNL A   1      37.026  28.871  29.610  1.00  0.00    -0.200 F 
ENDBRANCH  53  77
BRANCH  65  88
ATOM     88  C   UNL A   1      46.308  32.876  28.451  1.00  0.00     0.064 A 
ATOM     89  C   UNL A   1      46.096  33.896  27.512  1.00  0.00     0.173 A 
ATOM     90  C   UNL A   1      46.607  33.251  29.771  1.00  0.00     0.173 A 
ATOM     91  F   UNL A   1      45.820  33.593  26.235  1.00  0.00    -0.203 F 
ATOM     92  C   UNL A   1      46.224  35.237  27.870  1.00  0.00     0.198 A 
ATOM     93  C   UNL A   1      46.697  34.592  30.132  1.00  0.00     0.198 A 
ATOM     94  F   UNL A   1      46.808  32.317  30.712  1.00  0.00    -0.203 F 
ATOM     95  F   UNL A   1      46.084  36.192  26.940  1.00  0.00    -0.200 F 
ATOM     96  C   UNL A   1      46.519  35.584  29.179  1.00  0.00     0.200 A 
ATOM     97  F   UNL A   1      46.966  34.925  31.403  1.00  0.00    -0.200 F 
ATOM     98  F   UNL A   1      46.642  36.872  29.521  1.00  0.00    -0.200 F 
ENDBRANCH  65  88
ENDBRANCH  39  40
ENDBRANCH  31  34
ENDBRANCH  29  30
ENDBRANCH  28  29
ENDBRANCH  27  28
ENDBRANCH  26  27
ENDBRANCH  25  26
ENDBRANCH   1  25
TORSDOF 20
ENDMDL
MODEL 2
REMARK VINA RESULT:     -10.5      3.752      5.591
REMARK SMILES CCN(CC(C)(C)O)C(=O)N1CCC(OCC(=O)NCCCCCCNC(=O)c2ccc(-c3c4nc(c(-c5c(F)c(F)c(F)c(F)c5F)c5ccc([nH]5)c(-c5c(F)c(F)c(F)c(F)c5F)c5nc(c(-c6c(F)c(F)c(F)c(F)c6F)c6ccc3[nH]6)C=C5)C=C4)cc2)CC1
REMARK SMILES IDX 20 1 19 2 17 3 18 4 16 6 15 7 14 8 9 9 10 10 11 11 12 12
REMARK SMILES IDX 93 13 13 14 92 15 3 16 2 17 1 18 4 19 5 20 6 21 7 22 8 23
REMARK SMILES IDX 21 25 22 26 23 27 24 28 25 29 26 30 27 31 28 33 29 34 30 35
REMARK SMILES IDX 91 36 31 37 90 38 32 39 33 40 34 41 84 42 35 43 89 44 83 45
REMARK SMILES IDX 85 46 36 47 88 48 82 49 81 50 37 52 69 53 49 54 68 55 50 56
REMARK SMILES IDX 53 57 67 58 86 59 51 60 52 61 66 63 87 64 54 65 38 66 39 67
REMARK SMILES IDX 47 68 40 69 41 70 45 71 48 72 42 73 43 74 46 75 44 76 70 77
REMARK SMILES IDX 71 78 79 79 72 80 73 81 77 82 80 83 74 84 75 85 78 86 76 87
REMARK SMILES IDX 55 88 56 89 64 90 57 91 58 92 62 93 65 94 59 95 60 96 63 97
REMARK SMILES IDX 61 98
REMARK H PARENT 19 5 8 24 26 32 85 51 53 62
REMARK Flexibility Score: inf
ROOT
ATOM      1  C   UNL A   1      34.034  20.740  26.464  1.00  0.00     0.116 C 
ENDROOT
BRANCH   1   2
ATOM      2  N   UNL A   1      33.207  19.594  26.151  1.00  0.00    -0.354 N 
ATOM      3  C   UNL A   1      32.627  19.241  24.967  1.00  0.00     0.246 C 
ATOM      4  O   UNL A   1      32.055  18.151  24.904  1.00  0.00    -0.272 OA
ATOM      5  H   UNL A   1      33.038  18.979  26.901  1.00  0.00     0.163 HD
BRANCH   3   6
ATOM      6  C   UNL A   1      32.710  20.177  23.747  1.00  0.00     0.260 C 
BRANCH   6   7
ATOM      7  O   UNL A   1      31.822  21.273  23.613  1.00  0.00    -0.368 OA
BRANCH   7   8
ATOM      8  C   UNL A   1      32.360  22.598  23.687  1.00  0.00     0.122 C 
ATOM      9  C   UNL A   1      31.682  26.421  22.607  1.00  0.00     0.320 C 
ATOM     10  O   UNL A   1      31.677  26.381  21.372  1.00  0.00    -0.248 OA
ATOM     11  N   UNL A   1      32.402  25.465  23.300  1.00  0.00    -0.324 N 
ATOM     12  C   UNL A   1      33.366  24.627  22.579  1.00  0.00     0.124 C 
ATOM     13  C   UNL A   1      32.024  24.922  24.578  1.00  0.00     0.124 C 
ATOM     14  C   UNL A   1      32.817  23.212  22.357  1.00  0.00     0.054 C 
ATOM     15  C   UNL A   1      31.433  23.538  24.439  1.00  0.00     0.054 C 
BRANCH   9  16
ATOM     16  N   UNL A   1      30.995  27.430  23.293  1.00  0.00    -0.322 N 
BRANCH  16  17
ATOM     17  C   UNL A   1      29.528  27.285  23.285  1.00  0.00     0.118 C 
ATOM     18  C   UNL A   1      28.786  28.585  22.966  1.00  0.00     0.027 C 
ENDBRANCH  16  17
BRANCH  16  19
ATOM     19  C   UNL A   1      31.492  28.790  23.641  1.00  0.00     0.155 C 
BRANCH  19  20
ATOM     20  C   UNL A   1      32.186  29.016  25.046  1.00  0.00     0.077 C 
ATOM     21  C   UNL A   1      31.621  28.232  26.241  1.00  0.00     0.043 C 
ATOM     22  C   UNL A   1      33.666  28.624  24.904  1.00  0.00     0.043 C 
BRANCH  20  23
ATOM     23  O   UNL A   1      32.184  30.400  25.414  1.00  0.00    -0.389 OA
ATOM     24  H   UNL A   1      31.395  30.593  25.944  1.00  0.00     0.211 HD
ENDBRANCH  20  23
ENDBRANCH  19  20
ENDBRANCH  16  19
ENDBRANCH   9  16
ENDBRANCH   7   8
ENDBRANCH   6   7
ENDBRANCH   3   6
ENDBRANCH   1   2
BRANCH   1  25
ATOM     25  C   UNL A   1      33.281  21.839  27.219  1.00  0.00     0.021 C 
BRANCH  25  26
ATOM     26  C   UNL A   1      33.944  23.221  27.233  1.00  0.00     0.002 C 
BRANCH  26  27
ATOM     27  C   UNL A   1      35.385  23.266  26.719  1.00  0.00     0.002 C 
BRANCH  27  28
ATOM     28  C   UNL A   1      35.572  23.937  25.358  1.00  0.00     0.021 C 
BRANCH  28  29
ATOM     29  C   UNL A   1      36.973  23.825  24.769  1.00  0.00     0.116 C 
BRANCH  29  30
ATOM     30  N   UNL A   1      37.734  22.728  25.344  1.00  0.00    -0.352 N 
ATOM     31  C   UNL A   1      38.832  22.772  26.162  1.00  0.00     0.251 C 
ATOM     32  H   UNL A   1      37.415  21.825  25.113  1.00  0.00     0.163 HD
ATOM     33  O   UNL A   1      39.453  21.735  26.413  1.00  0.00    -0.269 OA
BRANCH  31  34
ATOM     34  C   UNL A   1      39.296  24.054  26.735  1.00  0.00     0.039 A 
ATOM     35  C   UNL A   1      38.929  24.382  28.043  1.00  0.00     0.014 A 
ATOM     36  C   UNL A   1      40.057  24.951  25.979  1.00  0.00     0.014 A 
ATOM     37  C   UNL A   1      39.350  25.591  28.602  1.00  0.00     0.010 A 
ATOM     38  C   UNL A   1      40.543  26.119  26.565  1.00  0.00     0.010 A 
ATOM     39  C   UNL A   1      40.174  26.464  27.873  1.00  0.00    -0.014 A 
BRANCH  39  40
ATOM     40  C   UNL A   1      40.604  27.768  28.443  1.00  0.00     0.031 A 
ATOM     41  C   UNL A   1      42.057  28.003  28.765  1.00  0.00     0.074 A 
ATOM     42  C   UNL A   1      39.694  28.726  28.701  1.00  0.00     0.049 A 
ATOM     43  N   UNL A   1      42.630  29.052  29.300  1.00  0.00    -0.248 NA
ATOM     44  C   UNL A   1      42.986  26.900  28.471  1.00  0.00     0.031 C 
ATOM     45  C   UNL A   1      38.253  28.609  28.474  1.00  0.00     0.029 A 
ATOM     46  N   UNL A   1      39.847  29.990  29.215  1.00  0.00    -0.354 N 
ATOM     47  C   UNL A   1      43.976  28.729  29.415  1.00  0.00     0.074 A 
ATOM     48  C   UNL A   1      44.125  27.365  28.958  1.00  0.00     0.031 C 
ATOM     49  C   UNL A   1      37.659  29.763  28.818  1.00  0.00     0.029 A 
ATOM     50  C   UNL A   1      38.669  30.688  29.321  1.00  0.00     0.049 A 
ATOM     51  H   UNL A   1      40.720  30.361  29.483  1.00  0.00     0.167 HD
ATOM     52  C   UNL A   1      45.004  29.507  29.832  1.00  0.00     0.037 A 
ATOM     53  C   UNL A   1      38.436  31.936  29.771  1.00  0.00     0.037 A 
ATOM     54  C   UNL A   1      44.860  30.874  30.264  1.00  0.00     0.049 A 
ATOM     55  C   UNL A   1      39.595  32.780  30.233  1.00  0.00     0.074 A 
ATOM     56  C   UNL A   1      45.841  31.759  30.675  1.00  0.00     0.029 A 
ATOM     57  N   UNL A   1      43.653  31.553  30.336  1.00  0.00    -0.354 N 
ATOM     58  N   UNL A   1      40.871  32.483  30.284  1.00  0.00    -0.248 NA
ATOM     59  C   UNL A   1      39.279  34.142  30.686  1.00  0.00     0.031 C 
ATOM     60  C   UNL A   1      45.223  32.962  31.036  1.00  0.00     0.029 A 
ATOM     61  C   UNL A   1      43.863  32.844  30.795  1.00  0.00     0.049 A 
ATOM     62  H   UNL A   1      42.776  31.175  30.099  1.00  0.00     0.167 HD
ATOM     63  C   UNL A   1      41.513  33.631  30.732  1.00  0.00     0.074 A 
ATOM     64  C   UNL A   1      40.486  34.633  30.924  1.00  0.00     0.031 C 
ATOM     65  C   UNL A   1      42.833  33.837  30.963  1.00  0.00     0.037 A 
BRANCH  52  66
ATOM     66  C   UNL A   1      46.379  28.899  29.833  1.00  0.00     0.064 A 
ATOM     67  C   UNL A   1      46.890  28.242  30.964  1.00  0.00     0.173 A 
ATOM     68  C   UNL A   1      47.186  28.952  28.687  1.00  0.00     0.173 A 
ATOM     69  F   UNL A   1      46.165  28.174  32.091  1.00  0.00    -0.203 F 
ATOM     70  C   UNL A   1      48.168  27.691  30.957  1.00  0.00     0.198 A 
ATOM     71  C   UNL A   1      48.451  28.370  28.674  1.00  0.00     0.198 A 
ATOM     72  F   UNL A   1      46.747  29.563  27.577  1.00  0.00    -0.203 F 
ATOM     73  F   UNL A   1      48.656  27.120  32.068  1.00  0.00    -0.200 F 
ATOM     74  C   UNL A   1      48.945  27.748  29.810  1.00  0.00     0.200 A 
ATOM     75  F   UNL A   1      49.195  28.415  27.560  1.00  0.00    -0.200 F 
ATOM     76  F   UNL A   1      50.173  27.213  29.804  1.00  0.00    -0.200 F 
ENDBRANCH  52  66
BRANCH  53  77
ATOM     77  C   UNL A   1      37.053  32.485  29.773  1.00  0.00     0.064 A 
ATOM     78  C   UNL A   1      36.579  33.243  28.691  1.00  0.00     0.173 A 
ATOM     79  C   UNL A   1      36.190  32.291  30.859  1.00  0.00     0.173 A 
ATOM     80  F   UNL A   1      37.374  33.473  27.636  1.00  0.00    -0.203 F 
ATOM     81  C   UNL A   1      35.308  33.813  28.713  1.00  0.00     0.198 A 
ATOM     82  C   UNL A   1      34.906  32.835  30.867  1.00  0.00     0.198 A 
ATOM     83  F   UNL A   1      36.591  31.570  31.916  1.00  0.00    -0.203 F 
ATOM     84  F   UNL A   1      34.904  34.583  27.693  1.00  0.00    -0.200 F 
ATOM     85  C   UNL A   1      34.472  33.605  29.798  1.00  0.00     0.200 A 
ATOM     86  F   UNL A   1      34.096  32.620  31.911  1.00  0.00    -0.200 F 
ATOM     87  F   UNL A   1      33.250  34.156  29.821  1.00  0.00    -0.200 F 
ENDBRANCH  53  77
BRANCH  65  88
ATOM     88  C   UNL A   1      43.247  35.217  31.389  1.00  0.00     0.064 A 
ATOM     89  C   UNL A   1      43.636  36.196  30.463  1.00  0.00     0.173 A 
ATOM     90  C   UNL A   1      43.244  35.566  32.749  1.00  0.00     0.173 A 
ATOM     91  F   UNL A   1      43.670  35.911  29.152  1.00  0.00    -0.203 F 
ATOM     92  C   UNL A   1      44.050  37.457  30.886  1.00  0.00     0.198 A 
ATOM     93  C   UNL A   1      43.623  36.839  33.164  1.00  0.00     0.198 A 
ATOM     94  F   UNL A   1      42.870  34.672  33.677  1.00  0.00    -0.203 F 
ATOM     95  F   UNL A   1      44.483  38.353  29.987  1.00  0.00    -0.200 F 
ATOM     96  C   UNL A   1      44.038  37.780  32.234  1.00  0.00     0.200 A 
ATOM     97  F   UNL A   1      43.594  37.154  34.467  1.00  0.00    -0.200 F 
ATOM     98  F   UNL A   1      44.436  38.993  32.638  1.00  0.00    -0.200 F 
ENDBRANCH  65  88
ENDBRANCH  39  40
ENDBRANCH  31  34
ENDBRANCH  29  30
ENDBRANCH  28  29
ENDBRANCH  27  28
ENDBRANCH  26  27
ENDBRANCH  25  26
ENDBRANCH   1  25
TORSDOF 20
ENDMDL
MODEL 3
REMARK VINA RESULT:     -10.4      0.943      2.108
REMARK SMILES CCN(CC(C)(C)O)C(=O)N1CCC(OCC(=O)NCCCCCCNC(=O)c2ccc(-c3c4nc(c(-c5c(F)c(F)c(F)c(F)c5F)c5ccc([nH]5)c(-c5c(F)c(F)c(F)c(F)c5F)c5nc(c(-c6c(F)c(F)c(F)c(F)c6F)c6ccc3[nH]6)C=C5)C=C4)cc2)CC1
REMARK SMILES IDX 20 1 19 2 17 3 18 4 16 6 15 7 14 8 9 9 10 10 11 11 12 12
REMARK SMILES IDX 93 13 13 14 92 15 3 16 2 17 1 18 4 19 5 20 6 21 7 22 8 23
REMARK SMILES IDX 21 25 22 26 23 27 24 28 25 29 26 30 27 31 28 33 29 34 30 35
REMARK SMILES IDX 91 36 31 37 90 38 32 39 33 40 34 41 84 42 35 43 89 44 83 45
REMARK SMILES IDX 85 46 36 47 88 48 82 49 81 50 37 52 69 53 49 54 68 55 50 56
REMARK SMILES IDX 53 57 67 58 86 59 51 60 52 61 66 63 87 64 54 65 38 66 39 67
REMARK SMILES IDX 47 68 40 69 41 70 45 71 48 72 42 73 43 74 46 75 44 76 70 77
REMARK SMILES IDX 71 78 79 79 72 80 73 81 77 82 80 83 74 84 75 85 78 86 76 87
REMARK SMILES IDX 55 88 56 89 64 90 57 91 58 92 62 93 65 94 59 95 60 96 63 97
REMARK SMILES IDX 61 98
REMARK H PARENT 19 5 8 24 26 32 85 51 53 62
REMARK Flexibility Score: inf
ROOT
ATOM      1  C   UNL A   1      38.515  23.234  26.500  1.00  0.00     0.116 C 
ENDROOT
BRANCH   1   2
ATOM      2  N   UNL A   1      37.822  22.019  26.124  1.00  0.00    -0.354 N 
ATOM      3  C   UNL A   1      36.516  21.841  25.769  1.00  0.00     0.246 C 
ATOM      4  O   UNL A   1      36.171  20.726  25.372  1.00  0.00    -0.272 OA
ATOM      5  H   UNL A   1      38.373  21.203  26.123  1.00  0.00     0.163 HD
BRANCH   3   6
ATOM      6  C   UNL A   1      35.519  23.011  25.846  1.00  0.00     0.260 C 
BRANCH   6   7
ATOM      7  O   UNL A   1      34.232  22.830  26.413  1.00  0.00    -0.368 OA
BRANCH   7   8
ATOM      8  C   UNL A   1      33.139  23.579  25.873  1.00  0.00     0.122 C 
ATOM      9  C   UNL A   1      31.380  27.205  25.910  1.00  0.00     0.320 C 
ATOM     10  O   UNL A   1      31.034  27.352  27.087  1.00  0.00    -0.248 OA
ATOM     11  N   UNL A   1      31.505  25.922  25.409  1.00  0.00    -0.324 N 
ATOM     12  C   UNL A   1      30.950  24.796  26.167  1.00  0.00     0.124 C 
ATOM     13  C   UNL A   1      32.473  25.518  24.422  1.00  0.00     0.124 C 
ATOM     14  C   UNL A   1      32.056  24.002  26.874  1.00  0.00     0.054 C 
ATOM     15  C   UNL A   1      33.621  24.761  25.050  1.00  0.00     0.054 C 
BRANCH   9  16
ATOM     16  N   UNL A   1      31.614  28.315  25.088  1.00  0.00    -0.322 N 
BRANCH  16  17
ATOM     17  C   UNL A   1      32.882  29.018  25.358  1.00  0.00     0.118 C 
ATOM     18  C   UNL A   1      34.003  28.656  24.379  1.00  0.00     0.027 C 
ENDBRANCH  16  17
BRANCH  16  19
ATOM     19  C   UNL A   1      30.612  29.098  24.315  1.00  0.00     0.155 C 
BRANCH  19  20
ATOM     20  C   UNL A   1      30.551  28.922  22.743  1.00  0.00     0.077 C 
ATOM     21  C   UNL A   1      30.656  27.492  22.192  1.00  0.00     0.043 C 
ATOM     22  C   UNL A   1      29.209  29.498  22.261  1.00  0.00     0.043 C 
BRANCH  20  23
ATOM     23  O   UNL A   1      31.563  29.698  22.089  1.00  0.00    -0.389 OA
ATOM     24  H   UNL A   1      31.356  29.768  21.144  1.00  0.00     0.211 HD
ENDBRANCH  20  23
ENDBRANCH  19  20
ENDBRANCH  16  19
ENDBRANCH   9  16
ENDBRANCH   7   8
ENDBRANCH   6   7
ENDBRANCH   3   6
ENDBRANCH   1   2
BRANCH   1  25
ATOM     25  C   UNL A   1      39.955  22.988  26.959  1.00  0.00     0.021 C 
BRANCH  25  26
ATOM     26  C   UNL A   1      40.757  21.966  26.144  1.00  0.00     0.002 C 
BRANCH  26  27
ATOM     27  C   UNL A   1      41.277  20.759  26.928  1.00  0.00     0.002 C 
BRANCH  27  28
ATOM     28  C   UNL A   1      41.560  19.510  26.092  1.00  0.00     0.021 C 
BRANCH  28  29
ATOM     29  C   UNL A   1      42.909  18.851  26.351  1.00  0.00     0.116 C 
BRANCH  29  30
ATOM     30  N   UNL A   1      43.680  18.660  25.133  1.00  0.00    -0.352 N 
ATOM     31  C   UNL A   1      44.349  19.586  24.378  1.00  0.00     0.251 C 
ATOM     32  H   UNL A   1      43.727  17.733  24.805  1.00  0.00     0.163 HD
ATOM     33  O   UNL A   1      44.806  19.267  23.277  1.00  0.00    -0.269 OA
BRANCH  31  34
ATOM     34  C   UNL A   1      44.516  20.974  24.860  1.00  0.00     0.039 A 
ATOM     35  C   UNL A   1      44.069  22.027  24.057  1.00  0.00     0.014 A 
ATOM     36  C   UNL A   1      45.143  21.246  26.080  1.00  0.00     0.014 A 
ATOM     37  C   UNL A   1      44.223  23.347  24.489  1.00  0.00     0.010 A 
ATOM     38  C   UNL A   1      45.222  22.558  26.546  1.00  0.00     0.010 A 
ATOM     39  C   UNL A   1      44.788  23.623  25.745  1.00  0.00    -0.014 A 
BRANCH  39  40
ATOM     40  C   UNL A   1      44.986  25.023  26.205  1.00  0.00     0.031 A 
ATOM     41  C   UNL A   1      46.341  25.670  26.077  1.00  0.00     0.074 A 
ATOM     42  C   UNL A   1      43.967  25.702  26.764  1.00  0.00     0.049 A 
ATOM     43  N   UNL A   1      46.731  26.863  26.450  1.00  0.00    -0.248 NA
ATOM     44  C   UNL A   1      47.408  24.856  25.473  1.00  0.00     0.031 C 
ATOM     45  C   UNL A   1      42.618  25.177  26.983  1.00  0.00     0.029 A 
ATOM     46  N   UNL A   1      43.907  26.983  27.253  1.00  0.00    -0.354 N 
ATOM     47  C   UNL A   1      48.082  26.935  26.137  1.00  0.00     0.074 A 
ATOM     48  C   UNL A   1      48.462  25.644  25.606  1.00  0.00     0.031 C 
ATOM     49  C   UNL A   1      41.858  26.136  27.535  1.00  0.00     0.029 A 
ATOM     50  C   UNL A   1      42.670  27.331  27.740  1.00  0.00     0.049 A 
ATOM     51  H   UNL A   1      44.679  27.596  27.255  1.00  0.00     0.167 HD
ATOM     52  C   UNL A   1      48.926  27.989  26.249  1.00  0.00     0.037 A 
ATOM     53  C   UNL A   1      42.244  28.486  28.285  1.00  0.00     0.037 A 
ATOM     54  C   UNL A   1      48.542  29.282  26.755  1.00  0.00     0.049 A 
ATOM     55  C   UNL A   1      43.203  29.642  28.403  1.00  0.00     0.074 A 
ATOM     56  C   UNL A   1      49.311  30.425  26.880  1.00  0.00     0.029 A 
ATOM     57  N   UNL A   1      47.274  29.601  27.218  1.00  0.00    -0.354 N 
ATOM     58  N   UNL A   1      44.463  29.715  28.051  1.00  0.00    -0.248 NA
ATOM     59  C   UNL A   1      42.669  30.883  28.981  1.00  0.00     0.031 C 
ATOM     60  C   UNL A   1      48.520  31.425  27.457  1.00  0.00     0.029 A 
ATOM     61  C   UNL A   1      47.242  30.921  27.638  1.00  0.00     0.049 A 
ATOM     62  H   UNL A   1      46.509  28.981  27.245  1.00  0.00     0.167 HD
ATOM     63  C   UNL A   1      44.861  31.018  28.324  1.00  0.00     0.074 A 
ATOM     64  C   UNL A   1      43.703  31.702  28.858  1.00  0.00     0.031 C 
ATOM     65  C   UNL A   1      46.076  31.595  28.149  1.00  0.00     0.037 A 
BRANCH  52  66
ATOM     66  C   UNL A   1      50.349  27.788  25.809  1.00  0.00     0.064 A 
ATOM     67  C   UNL A   1      51.375  27.537  26.733  1.00  0.00     0.173 A 
ATOM     68  C   UNL A   1      50.689  27.825  24.448  1.00  0.00     0.173 A 
ATOM     69  F   UNL A   1      51.108  27.505  28.048  1.00  0.00    -0.203 F 
ATOM     70  C   UNL A   1      52.692  27.362  26.314  1.00  0.00     0.198 A 
ATOM     71  C   UNL A   1      52.001  27.616  24.031  1.00  0.00     0.198 A 
ATOM     72  F   UNL A   1      49.748  28.057  23.521  1.00  0.00    -0.203 F 
ATOM     73  F   UNL A   1      53.663  27.182  27.221  1.00  0.00    -0.200 F 
ATOM     74  C   UNL A   1      53.003  27.395  24.963  1.00  0.00     0.200 A 
ATOM     75  F   UNL A   1      52.297  27.634  22.724  1.00  0.00    -0.200 F 
ATOM     76  F   UNL A   1      54.269  27.222  24.562  1.00  0.00    -0.200 F 
ENDBRANCH  52  66
BRANCH  53  77
ATOM     77  C   UNL A   1      40.831  28.628  28.729  1.00  0.00     0.064 A 
ATOM     78  C   UNL A   1      40.460  28.342  30.052  1.00  0.00     0.173 A 
ATOM     79  C   UNL A   1      39.821  29.022  27.841  1.00  0.00     0.173 A 
ATOM     80  F   UNL A   1      41.386  27.941  30.934  1.00  0.00    -0.203 F 
ATOM     81  C   UNL A   1      39.129  28.411  30.458  1.00  0.00     0.198 A 
ATOM     82  C   UNL A   1      38.494  29.123  28.257  1.00  0.00     0.198 A 
ATOM     83  F   UNL A   1      40.123  29.313  26.567  1.00  0.00    -0.203 F 
ATOM     84  F   UNL A   1      38.795  28.073  31.711  1.00  0.00    -0.200 F 
ATOM     85  C   UNL A   1      38.148  28.806  29.562  1.00  0.00     0.200 A 
ATOM     86  F   UNL A   1      37.552  29.519  27.391  1.00  0.00    -0.200 F 
ATOM     87  F   UNL A   1      36.868  28.870  29.952  1.00  0.00    -0.200 F 
ENDBRANCH  53  77
BRANCH  65  88
ATOM     88  C   UNL A   1      46.195  33.055  28.480  1.00  0.00     0.064 A 
ATOM     89  C   UNL A   1      46.561  33.502  29.759  1.00  0.00     0.173 A 
ATOM     90  C   UNL A   1      45.947  34.024  27.494  1.00  0.00     0.173 A 
ATOM     91  F   UNL A   1      46.796  32.619  30.741  1.00  0.00    -0.203 F 
ATOM     92  C   UNL A   1      46.630  34.863  30.050  1.00  0.00     0.198 A 
ATOM     93  C   UNL A   1      46.054  35.382  27.779  1.00  0.00     0.198 A 
ATOM     94  F   UNL A   1      45.605  33.654  26.251  1.00  0.00    -0.203 F 
ATOM     95  F   UNL A   1      46.914  35.264  31.297  1.00  0.00    -0.200 F 
ATOM     96  C   UNL A   1      46.382  35.801  29.060  1.00  0.00     0.200 A 
ATOM     97  F   UNL A   1      45.830  36.288  26.816  1.00  0.00    -0.200 F 
ATOM     98  F   UNL A   1      46.448  37.108  29.342  1.00  0.00    -0.200 F 
ENDBRANCH  65  88
ENDBRANCH  39  40
ENDBRANCH  31  34
ENDBRANCH  29  30
ENDBRANCH  28  29
ENDBRANCH  27  28
ENDBRANCH  26  27
ENDBRANCH  25  26
ENDBRANCH   1  25
TORSDOF 20
ENDMDL
