MODEL 1
REMARK VINA RESULT:     -11.5      0.000      0.000
REMARK SMILES O=C(Cn1c(SCCOc2ccccc2Cl)nc2ccccc21)NCCCCCCNC(=O)c1ccc(-c2c3nc(c(-c4c(F)c(F)c(F)c(F)c4F)c4ccc([nH]4)c(-c4c(F)c(F)c(F)c(F)c4F)c4nc(c(-c5c(F)c(F)c(F)c(F)c5F)c5ccc2[nH]5)C=C4)C=C3)cc1
REMARK SMILES IDX 25 1 24 2 1 3 2 4 3 6 4 7 5 8 23 9 17 10 18 11 22 12 19 13
REMARK SMILES IDX 21 14 20 15 6 16 7 17 8 18 9 19 10 20 11 21 15 22 12 23
REMARK SMILES IDX 14 24 16 25 13 26 26 27 27 28 28 29 29 30 30 31 31 32 32 33
REMARK SMILES IDX 33 35 34 36 35 37 96 38 36 39 95 40 37 41 38 42 39 43 89 44
REMARK SMILES IDX 40 45 94 46 88 47 90 48 41 49 93 50 87 51 86 52 42 54 74 55
REMARK SMILES IDX 54 56 73 57 55 58 58 59 72 60 91 61 56 62 57 63 71 65 92 66
REMARK SMILES IDX 59 67 43 68 44 69 52 70 45 71 46 72 50 73 53 74 47 75 48 76
REMARK SMILES IDX 51 77 49 78 75 79 76 80 84 81 77 82 78 83 82 84 85 85 79 86
REMARK SMILES IDX 80 87 83 88 81 89 60 90 61 91 69 92 62 93 63 94 67 95 70 96
REMARK SMILES IDX 64 97 65 98 68 99 66 100
REMARK H PARENT 24 5 31 34 90 53 58 64
REMARK Flexibility Score: inf
ROOT
ATOM      1  C   UNL A   1      37.908  23.553  26.657  1.00  0.00     0.116 C 
ENDROOT
BRANCH   1   2
ATOM      2  N   UNL A   1      36.930  24.081  25.725  1.00  0.00    -0.355 N 
ATOM      3  O   UNL A   1      35.124  23.213  26.813  1.00  0.00    -0.273 OA
ATOM      4  C   UNL A   1      35.577  23.971  25.969  1.00  0.00     0.240 C 
ATOM      5  H   UNL A   1      37.237  24.527  24.902  1.00  0.00     0.163 HD
BRANCH   4   6
ATOM      6  C   UNL A   1      34.668  24.796  25.101  1.00  0.00     0.224 C 
BRANCH   6   7
ATOM      7  N   UNL A   1      33.390  25.271  25.619  1.00  0.00    -0.309 N 
ATOM      8  C   UNL A   1      32.139  24.714  25.750  1.00  0.00     0.169 A 
ATOM      9  C   UNL A   1      33.291  26.578  26.107  1.00  0.00     0.069 A 
ATOM     10  N   UNL A   1      31.374  25.459  26.524  1.00  0.00    -0.222 NA
ATOM     11  C   UNL A   1      32.032  26.641  26.687  1.00  0.00     0.090 A 
ATOM     12  C   UNL A   1      34.151  27.686  26.066  1.00  0.00     0.028 A 
ATOM     13  C   UNL A   1      31.595  27.837  27.278  1.00  0.00     0.030 A 
ATOM     14  C   UNL A   1      33.676  28.889  26.603  1.00  0.00     0.002 A 
ATOM     15  C   UNL A   1      32.422  28.966  27.208  1.00  0.00     0.002 A 
BRANCH   8  16
ATOM     16  S   UNL A   1      31.473  23.237  25.140  1.00  0.00    -0.084 SA
BRANCH  16  17
ATOM     17  C   UNL A   1      31.865  22.976  23.386  1.00  0.00     0.119 C 
BRANCH  17  18
ATOM     18  C   UNL A   1      32.285  24.031  22.357  1.00  0.00     0.241 C 
BRANCH  18  19
ATOM     19  O   UNL A   1      31.484  25.197  22.271  1.00  0.00    -0.491 OA
BRANCH  19  20
ATOM     20  C   UNL A   1      32.081  26.391  22.589  1.00  0.00     0.137 A 
ATOM     21  C   UNL A   1      33.387  26.732  22.218  1.00  0.00     0.048 A 
ATOM     22  C   UNL A   1      31.272  27.366  23.189  1.00  0.00     0.083 A 
ATOM     23  C   UNL A   1      33.825  28.051  22.306  1.00  0.00     0.004 A 
ATOM     24  C   UNL A   1      31.728  28.679  23.315  1.00  0.00     0.024 A 
ATOM     25  Cl  UNL A   1      29.679  26.991  23.751  1.00  0.00    -0.080 Cl
ATOM     26  C   UNL A   1      32.991  29.028  22.837  1.00  0.00     0.002 A 
ENDBRANCH  19  20
ENDBRANCH  18  19
ENDBRANCH  17  18
ENDBRANCH  16  17
ENDBRANCH   8  16
ENDBRANCH   6   7
ENDBRANCH   4   6
ENDBRANCH   1   2
BRANCH   1  27
ATOM     27  C   UNL A   1      38.684  22.388  26.087  1.00  0.00     0.021 C 
BRANCH  27  28
ATOM     28  C   UNL A   1      40.166  22.393  26.460  1.00  0.00     0.002 C 
BRANCH  28  29
ATOM     29  C   UNL A   1      40.716  21.099  27.073  1.00  0.00     0.002 C 
BRANCH  29  30
ATOM     30  C   UNL A   1      41.071  19.970  26.095  1.00  0.00     0.021 C 
BRANCH  30  31
ATOM     31  C   UNL A   1      42.471  19.376  26.260  1.00  0.00     0.116 C 
BRANCH  31  32
ATOM     32  N   UNL A   1      43.368  19.677  25.165  1.00  0.00    -0.352 N 
ATOM     33  C   UNL A   1      44.118  20.738  24.772  1.00  0.00     0.251 C 
ATOM     34  H   UNL A   1      43.454  18.917  24.545  1.00  0.00     0.163 HD
ATOM     35  O   UNL A   1      44.818  20.561  23.771  1.00  0.00    -0.269 OA
BRANCH  33  36
ATOM     36  C   UNL A   1      44.112  22.072  25.413  1.00  0.00     0.039 A 
ATOM     37  C   UNL A   1      44.735  22.400  26.616  1.00  0.00     0.014 A 
ATOM     38  C   UNL A   1      43.344  23.050  24.754  1.00  0.00     0.014 A 
ATOM     39  C   UNL A   1      44.505  23.634  27.204  1.00  0.00     0.010 A 
ATOM     40  C   UNL A   1      43.124  24.290  25.327  1.00  0.00     0.010 A 
ATOM     41  C   UNL A   1      43.656  24.551  26.583  1.00  0.00    -0.014 A 
BRANCH  41  42
ATOM     42  C   UNL A   1      43.393  25.803  27.274  1.00  0.00     0.031 A 
ATOM     43  C   UNL A   1      44.369  26.893  26.991  1.00  0.00     0.074 A 
ATOM     44  C   UNL A   1      42.307  25.982  28.051  1.00  0.00     0.049 A 
ATOM     45  N   UNL A   1      45.132  27.524  27.824  1.00  0.00    -0.248 NA
ATOM     46  C   UNL A   1      44.600  27.249  25.581  1.00  0.00     0.031 C 
ATOM     47  C   UNL A   1      41.146  25.103  28.219  1.00  0.00     0.029 A 
ATOM     48  N   UNL A   1      41.978  27.064  28.806  1.00  0.00    -0.354 N 
ATOM     49  C   UNL A   1      45.837  28.460  27.070  1.00  0.00     0.074 A 
ATOM     50  C   UNL A   1      45.556  28.173  25.687  1.00  0.00     0.031 C 
ATOM     51  C   UNL A   1      40.152  25.788  28.831  1.00  0.00     0.029 A 
ATOM     52  C   UNL A   1      40.657  27.091  29.225  1.00  0.00     0.049 A 
ATOM     53  H   UNL A   1      42.625  27.769  29.038  1.00  0.00     0.167 HD
ATOM     54  C   UNL A   1      46.467  29.522  27.642  1.00  0.00     0.037 A 
ATOM     55  C   UNL A   1      40.021  28.147  29.789  1.00  0.00     0.037 A 
ATOM     56  C   UNL A   1      46.701  29.314  29.044  1.00  0.00     0.049 A 
ATOM     57  C   UNL A   1      41.065  29.060  30.320  1.00  0.00     0.074 A 
ATOM     58  C   UNL A   1      47.471  28.430  29.774  1.00  0.00     0.029 A 
ATOM     59  N   UNL A   1      45.821  29.864  29.940  1.00  0.00    -0.354 N 
ATOM     60  N   UNL A   1      41.835  28.773  31.330  1.00  0.00    -0.248 NA
ATOM     61  C   UNL A   1      41.552  30.110  29.438  1.00  0.00     0.031 C 
ATOM     62  C   UNL A   1      46.694  28.134  30.932  1.00  0.00     0.029 A 
ATOM     63  C   UNL A   1      45.525  28.892  30.862  1.00  0.00     0.049 A 
ATOM     64  H   UNL A   1      45.469  30.783  29.927  1.00  0.00     0.167 HD
ATOM     65  C   UNL A   1      43.076  29.288  30.984  1.00  0.00     0.074 A 
ATOM     66  C   UNL A   1      42.821  30.167  29.847  1.00  0.00     0.031 C 
ATOM     67  C   UNL A   1      44.226  28.737  31.470  1.00  0.00     0.037 A 
BRANCH  54  68
ATOM     68  C   UNL A   1      46.594  30.873  26.991  1.00  0.00     0.064 A 
ATOM     69  C   UNL A   1      47.843  31.519  26.945  1.00  0.00     0.173 A 
ATOM     70  C   UNL A   1      45.478  31.674  26.669  1.00  0.00     0.173 A 
ATOM     71  F   UNL A   1      48.966  30.858  27.266  1.00  0.00    -0.203 F 
ATOM     72  C   UNL A   1      47.957  32.880  26.647  1.00  0.00     0.198 A 
ATOM     73  C   UNL A   1      45.600  33.018  26.322  1.00  0.00     0.198 A 
ATOM     74  F   UNL A   1      44.224  31.218  26.786  1.00  0.00    -0.203 F 
ATOM     75  F   UNL A   1      49.154  33.481  26.721  1.00  0.00    -0.200 F 
ATOM     76  C   UNL A   1      46.836  33.628  26.337  1.00  0.00     0.200 A 
ATOM     77  F   UNL A   1      44.498  33.731  26.049  1.00  0.00    -0.200 F 
ATOM     78  F   UNL A   1      46.936  34.943  26.104  1.00  0.00    -0.200 F 
ENDBRANCH  54  68
BRANCH  55  79
ATOM     79  C   UNL A   1      38.628  28.603  29.560  1.00  0.00     0.064 A 
ATOM     80  C   UNL A   1      37.793  28.922  30.645  1.00  0.00     0.173 A 
ATOM     81  C   UNL A   1      38.197  29.033  28.290  1.00  0.00     0.173 A 
ATOM     82  F   UNL A   1      38.150  28.585  31.892  1.00  0.00    -0.203 F 
ATOM     83  C   UNL A   1      36.618  29.661  30.473  1.00  0.00     0.198 A 
ATOM     84  C   UNL A   1      37.022  29.764  28.120  1.00  0.00     0.198 A 
ATOM     85  F   UNL A   1      38.958  28.840  27.204  1.00  0.00    -0.203 F 
ATOM     86  F   UNL A   1      35.886  30.011  31.540  1.00  0.00    -0.200 F 
ATOM     87  C   UNL A   1      36.242  30.095  29.211  1.00  0.00     0.200 A 
ATOM     88  F   UNL A   1      36.689  30.210  26.899  1.00  0.00    -0.200 F 
ATOM     89  F   UNL A   1      35.158  30.866  29.057  1.00  0.00    -0.200 F 
ENDBRANCH  55  79
BRANCH  67  90
ATOM     90  C   UNL A   1      44.099  27.711  32.562  1.00  0.00     0.064 A 
ATOM     91  C   UNL A   1      44.030  26.325  32.332  1.00  0.00     0.173 A 
ATOM     92  C   UNL A   1      44.184  28.136  33.894  1.00  0.00     0.173 A 
ATOM     93  F   UNL A   1      44.052  25.830  31.087  1.00  0.00    -0.203 F 
ATOM     94  C   UNL A   1      43.999  25.415  33.387  1.00  0.00     0.198 A 
ATOM     95  C   UNL A   1      44.191  27.224  34.945  1.00  0.00     0.198 A 
ATOM     96  F   UNL A   1      44.311  29.442  34.174  1.00  0.00    -0.203 F 
ATOM     97  F   UNL A   1      43.921  24.098  33.139  1.00  0.00    -0.200 F 
ATOM     98  C   UNL A   1      44.087  25.864  34.693  1.00  0.00     0.200 A 
ATOM     99  F   UNL A   1      44.329  27.661  36.204  1.00  0.00    -0.200 F 
ATOM    100  F   UNL A   1      44.101  24.989  35.708  1.00  0.00    -0.200 F 
ENDBRANCH  67  90
ENDBRANCH  41  42
ENDBRANCH  33  36
ENDBRANCH  31  32
ENDBRANCH  30  31
ENDBRANCH  29  30
ENDBRANCH  28  29
ENDBRANCH  27  28
ENDBRANCH   1  27
TORSDOF 19
ENDMDL
MODEL 2
REMARK VINA RESULT:     -11.0      1.730      2.824
REMARK SMILES O=C(Cn1c(SCCOc2ccccc2Cl)nc2ccccc21)NCCCCCCNC(=O)c1ccc(-c2c3nc(c(-c4c(F)c(F)c(F)c(F)c4F)c4ccc([nH]4)c(-c4c(F)c(F)c(F)c(F)c4F)c4nc(c(-c5c(F)c(F)c(F)c(F)c5F)c5ccc2[nH]5)C=C4)C=C3)cc1
REMARK SMILES IDX 25 1 24 2 1 3 2 4 3 6 4 7 5 8 23 9 17 10 18 11 22 12 19 13
REMARK SMILES IDX 21 14 20 15 6 16 7 17 8 18 9 19 10 20 11 21 15 22 12 23
REMARK SMILES IDX 14 24 16 25 13 26 26 27 27 28 28 29 29 30 30 31 31 32 32 33
REMARK SMILES IDX 33 35 34 36 35 37 96 38 36 39 95 40 37 41 38 42 39 43 89 44
REMARK SMILES IDX 40 45 94 46 88 47 90 48 41 49 93 50 87 51 86 52 42 54 74 55
REMARK SMILES IDX 54 56 73 57 55 58 58 59 72 60 91 61 56 62 57 63 71 65 92 66
REMARK SMILES IDX 59 67 43 68 44 69 52 70 45 71 46 72 50 73 53 74 47 75 48 76
REMARK SMILES IDX 51 77 49 78 75 79 76 80 84 81 77 82 78 83 82 84 85 85 79 86
REMARK SMILES IDX 80 87 83 88 81 89 60 90 61 91 69 92 62 93 63 94 67 95 70 96
REMARK SMILES IDX 64 97 65 98 68 99 66 100
REMARK H PARENT 24 5 31 34 90 53 58 64
REMARK Flexibility Score: inf
ROOT
ATOM      1  C   UNL A   1      38.386  22.589  26.072  1.00  0.00     0.116 C 
ENDROOT
BRANCH   1   2
ATOM      2  N   UNL A   1      37.370  21.961  25.248  1.00  0.00    -0.355 N 
ATOM      3  O   UNL A   1      35.609  22.744  26.467  1.00  0.00    -0.273 OA
ATOM      4  C   UNL A   1      36.030  22.212  25.451  1.00  0.00     0.240 C 
ATOM      5  H   UNL A   1      37.642  21.343  24.532  1.00  0.00     0.163 HD
BRANCH   4   6
ATOM      6  C   UNL A   1      35.089  21.748  24.373  1.00  0.00     0.224 C 
BRANCH   6   7
ATOM      7  N   UNL A   1      33.903  20.973  24.718  1.00  0.00    -0.309 N 
ATOM      8  C   UNL A   1      32.634  21.294  25.139  1.00  0.00     0.169 A 
ATOM      9  C   UNL A   1      33.956  19.577  24.659  1.00  0.00     0.069 A 
ATOM     10  N   UNL A   1      31.838  20.245  25.066  1.00  0.00    -0.222 NA
ATOM     11  C   UNL A   1      32.644  19.167  24.852  1.00  0.00     0.090 A 
ATOM     12  C   UNL A   1      35.007  18.662  24.490  1.00  0.00     0.028 A 
ATOM     13  C   UNL A   1      32.334  17.798  24.859  1.00  0.00     0.030 A 
ATOM     14  C   UNL A   1      34.691  17.299  24.564  1.00  0.00     0.002 A 
ATOM     15  C   UNL A   1      33.376  16.870  24.737  1.00  0.00     0.002 A 
BRANCH   8  16
ATOM     16  S   UNL A   1      31.943  22.794  25.660  1.00  0.00    -0.084 SA
BRANCH  16  17
ATOM     17  C   UNL A   1      31.312  23.780  24.271  1.00  0.00     0.119 C 
BRANCH  17  18
ATOM     18  C   UNL A   1      31.875  25.099  23.731  1.00  0.00     0.241 C 
BRANCH  18  19
ATOM     19  O   UNL A   1      31.249  26.291  24.171  1.00  0.00    -0.491 OA
BRANCH  19  20
ATOM     20  C   UNL A   1      31.991  27.135  24.958  1.00  0.00     0.137 A 
ATOM     21  C   UNL A   1      33.062  26.715  25.755  1.00  0.00     0.048 A 
ATOM     22  C   UNL A   1      31.743  28.509  24.827  1.00  0.00     0.083 A 
ATOM     23  C   UNL A   1      33.953  27.643  26.289  1.00  0.00     0.004 A 
ATOM     24  C   UNL A   1      32.615  29.438  25.397  1.00  0.00     0.024 A 
ATOM     25  Cl  UNL A   1      30.387  29.096  23.927  1.00  0.00    -0.080 Cl
ATOM     26  C   UNL A   1      33.741  29.003  26.095  1.00  0.00     0.002 A 
ENDBRANCH  19  20
ENDBRANCH  18  19
ENDBRANCH  17  18
ENDBRANCH  16  17
ENDBRANCH   8  16
ENDBRANCH   6   7
ENDBRANCH   4   6
ENDBRANCH   1   2
BRANCH   1  27
ATOM     27  C   UNL A   1      39.713  21.868  26.011  1.00  0.00     0.021 C 
BRANCH  27  28
ATOM     28  C   UNL A   1      40.446  21.812  27.350  1.00  0.00     0.002 C 
BRANCH  28  29
ATOM     29  C   UNL A   1      41.617  20.826  27.442  1.00  0.00     0.002 C 
BRANCH  29  30
ATOM     30  C   UNL A   1      41.697  19.748  26.350  1.00  0.00     0.021 C 
BRANCH  30  31
ATOM     31  C   UNL A   1      43.064  19.083  26.185  1.00  0.00     0.116 C 
BRANCH  31  32
ATOM     32  N   UNL A   1      43.753  19.455  24.968  1.00  0.00    -0.352 N 
ATOM     33  C   UNL A   1      44.345  20.574  24.476  1.00  0.00     0.251 C 
ATOM     34  H   UNL A   1      43.804  18.704  24.334  1.00  0.00     0.163 HD
ATOM     35  O   UNL A   1      44.893  20.453  23.377  1.00  0.00    -0.269 OA
BRANCH  33  36
ATOM     36  C   UNL A   1      44.330  21.903  25.125  1.00  0.00     0.039 A 
ATOM     37  C   UNL A   1      45.103  22.283  26.221  1.00  0.00     0.014 A 
ATOM     38  C   UNL A   1      43.392  22.814  24.604  1.00  0.00     0.014 A 
ATOM     39  C   UNL A   1      44.867  23.495  26.852  1.00  0.00     0.010 A 
ATOM     40  C   UNL A   1      43.164  24.033  25.218  1.00  0.00     0.010 A 
ATOM     41  C   UNL A   1      43.860  24.338  26.380  1.00  0.00    -0.014 A 
BRANCH  41  42
ATOM     42  C   UNL A   1      43.606  25.566  27.117  1.00  0.00     0.031 A 
ATOM     43  C   UNL A   1      44.596  26.655  26.882  1.00  0.00     0.074 A 
ATOM     44  C   UNL A   1      42.517  25.726  27.893  1.00  0.00     0.049 A 
ATOM     45  N   UNL A   1      45.360  27.244  27.744  1.00  0.00    -0.248 NA
ATOM     46  C   UNL A   1      44.840  27.062  25.489  1.00  0.00     0.031 C 
ATOM     47  C   UNL A   1      41.346  24.855  28.020  1.00  0.00     0.029 A 
ATOM     48  N   UNL A   1      42.195  26.782  28.687  1.00  0.00    -0.354 N 
ATOM     49  C   UNL A   1      46.081  28.201  27.032  1.00  0.00     0.074 A 
ATOM     50  C   UNL A   1      45.806  27.970  25.637  1.00  0.00     0.031 C 
ATOM     51  C   UNL A   1      40.355  25.527  28.651  1.00  0.00     0.029 A 
ATOM     52  C   UNL A   1      40.871  26.808  29.098  1.00  0.00     0.049 A 
ATOM     53  H   UNL A   1      42.848  27.470  28.950  1.00  0.00     0.167 HD
ATOM     54  C   UNL A   1      46.719  29.232  27.648  1.00  0.00     0.037 A 
ATOM     55  C   UNL A   1      40.243  27.848  29.699  1.00  0.00     0.037 A 
ATOM     56  C   UNL A   1      46.941  28.968  29.043  1.00  0.00     0.049 A 
ATOM     57  C   UNL A   1      41.294  28.728  30.272  1.00  0.00     0.074 A 
ATOM     58  C   UNL A   1      47.695  28.048  29.743  1.00  0.00     0.029 A 
ATOM     59  N   UNL A   1      46.061  29.493  29.954  1.00  0.00    -0.354 N 
ATOM     60  N   UNL A   1      42.054  28.393  31.275  1.00  0.00    -0.248 NA
ATOM     61  C   UNL A   1      41.798  29.806  29.434  1.00  0.00     0.031 C 
ATOM     62  C   UNL A   1      46.908  27.715  30.883  1.00  0.00     0.029 A 
ATOM     63  C   UNL A   1      45.748  28.489  30.836  1.00  0.00     0.049 A 
ATOM     64  H   UNL A   1      45.719  30.416  29.973  1.00  0.00     0.167 HD
ATOM     65  C   UNL A   1      43.302  28.907  30.957  1.00  0.00     0.074 A 
ATOM     66  C   UNL A   1      43.065  29.833  29.853  1.00  0.00     0.031 C 
ATOM     67  C   UNL A   1      44.443  28.325  31.428  1.00  0.00     0.037 A 
BRANCH  54  68
ATOM     68  C   UNL A   1      46.865  30.606  27.051  1.00  0.00     0.064 A 
ATOM     69  C   UNL A   1      48.120  31.244  27.047  1.00  0.00     0.173 A 
ATOM     70  C   UNL A   1      45.760  31.428  26.743  1.00  0.00     0.173 A 
ATOM     71  F   UNL A   1      49.233  30.563  27.360  1.00  0.00    -0.203 F 
ATOM     72  C   UNL A   1      48.248  32.614  26.803  1.00  0.00     0.198 A 
ATOM     73  C   UNL A   1      45.896  32.782  26.449  1.00  0.00     0.198 A 
ATOM     74  F   UNL A   1      44.501  30.976  26.824  1.00  0.00    -0.203 F 
ATOM     75  F   UNL A   1      49.447  33.203  26.918  1.00  0.00    -0.200 F 
ATOM     76  C   UNL A   1      47.136  33.382  26.506  1.00  0.00     0.200 A 
ATOM     77  F   UNL A   1      44.804  33.513  26.187  1.00  0.00    -0.200 F 
ATOM     78  F   UNL A   1      47.249  34.704  26.324  1.00  0.00    -0.200 F 
ENDBRANCH  54  68
BRANCH  55  79
ATOM     79  C   UNL A   1      38.857  28.329  29.479  1.00  0.00     0.064 A 
ATOM     80  C   UNL A   1      38.013  28.602  30.570  1.00  0.00     0.173 A 
ATOM     81  C   UNL A   1      38.443  28.824  28.227  1.00  0.00     0.173 A 
ATOM     82  F   UNL A   1      38.355  28.201  31.803  1.00  0.00    -0.203 F 
ATOM     83  C   UNL A   1      36.848  29.361  30.422  1.00  0.00     0.198 A 
ATOM     84  C   UNL A   1      37.277  29.575  28.081  1.00  0.00     0.198 A 
ATOM     85  F   UNL A   1      39.213  28.678  27.140  1.00  0.00    -0.203 F 
ATOM     86  F   UNL A   1      36.108  29.664  31.498  1.00  0.00    -0.200 F 
ATOM     87  C   UNL A   1      36.489  29.859  29.180  1.00  0.00     0.200 A 
ATOM     88  F   UNL A   1      36.960  30.083  26.881  1.00  0.00    -0.200 F 
ATOM     89  F   UNL A   1      35.413  30.648  29.053  1.00  0.00    -0.200 F 
ENDBRANCH  55  79
BRANCH  67  90
ATOM     90  C   UNL A   1      44.297  27.259  32.479  1.00  0.00     0.064 A 
ATOM     91  C   UNL A   1      44.207  25.885  32.194  1.00  0.00     0.173 A 
ATOM     92  C   UNL A   1      44.385  27.630  33.827  1.00  0.00     0.173 A 
ATOM     93  F   UNL A   1      44.226  25.439  30.932  1.00  0.00    -0.203 F 
ATOM     94  C   UNL A   1      44.160  24.934  33.213  1.00  0.00     0.198 A 
ATOM     95  C   UNL A   1      44.375  26.678  34.841  1.00  0.00     0.198 A 
ATOM     96  F   UNL A   1      44.531  28.922  34.158  1.00  0.00    -0.203 F 
ATOM     97  F   UNL A   1      44.062  23.630  32.914  1.00  0.00    -0.200 F 
ATOM     98  C   UNL A   1      44.250  25.331  34.536  1.00  0.00     0.200 A 
ATOM     99  F   UNL A   1      44.516  27.063  36.117  1.00  0.00    -0.200 F 
ATOM    100  F   UNL A   1      44.248  24.416  35.516  1.00  0.00    -0.200 F 
ENDBRANCH  67  90
ENDBRANCH  41  42
ENDBRANCH  33  36
ENDBRANCH  31  32
ENDBRANCH  30  31
ENDBRANCH  29  30
ENDBRANCH  28  29
ENDBRANCH  27  28
ENDBRANCH   1  27
TORSDOF 19
ENDMDL
MODEL 3
REMARK VINA RESULT:     -10.9      2.713      4.160
REMARK SMILES O=C(Cn1c(SCCOc2ccccc2Cl)nc2ccccc21)NCCCCCCNC(=O)c1ccc(-c2c3nc(c(-c4c(F)c(F)c(F)c(F)c4F)c4ccc([nH]4)c(-c4c(F)c(F)c(F)c(F)c4F)c4nc(c(-c5c(F)c(F)c(F)c(F)c5F)c5ccc2[nH]5)C=C4)C=C3)cc1
REMARK SMILES IDX 25 1 24 2 1 3 2 4 3 6 4 7 5 8 23 9 17 10 18 11 22 12 19 13
REMARK SMILES IDX 21 14 20 15 6 16 7 17 8 18 9 19 10 20 11 21 15 22 12 23
REMARK SMILES IDX 14 24 16 25 13 26 26 27 27 28 28 29 29 30 30 31 31 32 32 33
REMARK SMILES IDX 33 35 34 36 35 37 96 38 36 39 95 40 37 41 38 42 39 43 89 44
REMARK SMILES IDX 40 45 94 46 88 47 90 48 41 49 93 50 87 51 86 52 42 54 74 55
REMARK SMILES IDX 54 56 73 57 55 58 58 59 72 60 91 61 56 62 57 63 71 65 92 66
REMARK SMILES IDX 59 67 43 68 44 69 52 70 45 71 46 72 50 73 53 74 47 75 48 76
REMARK SMILES IDX 51 77 49 78 75 79 76 80 84 81 77 82 78 83 82 84 85 85 79 86
REMARK SMILES IDX 80 87 83 88 81 89 60 90 61 91 69 92 62 93 63 94 67 95 70 96
REMARK SMILES IDX 64 97 65 98 68 99 66 100
REMARK H PARENT 24 5 31 34 90 53 58 64
REMARK Flexibility Score: inf
ROOT
ATOM      1  C   UNL A   1      32.802  21.763  25.298  1.00  0.00     0.116 C 
ENDROOT
BRANCH   1   2
ATOM      2  N   UNL A   1      31.829  22.394  24.424  1.00  0.00    -0.355 N 
ATOM      3  O   UNL A   1      31.175  23.959  25.947  1.00  0.00    -0.273 OA
ATOM      4  C   UNL A   1      31.180  23.552  24.796  1.00  0.00     0.240 C 
ATOM      5  H   UNL A   1      31.628  21.987  23.550  1.00  0.00     0.163 HD
BRANCH   4   6
ATOM      6  C   UNL A   1      30.422  24.273  23.715  1.00  0.00     0.224 C 
BRANCH   6   7
ATOM      7  N   UNL A   1      30.837  25.605  23.292  1.00  0.00    -0.309 N 
ATOM      8  C   UNL A   1      32.038  26.166  22.926  1.00  0.00     0.169 A 
ATOM      9  C   UNL A   1      29.887  26.629  23.220  1.00  0.00     0.069 A 
ATOM     10  N   UNL A   1      31.852  27.349  22.371  1.00  0.00    -0.222 NA
ATOM     11  C   UNL A   1      30.554  27.685  22.614  1.00  0.00     0.090 A 
ATOM     12  C   UNL A   1      28.554  26.733  23.646  1.00  0.00     0.028 A 
ATOM     13  C   UNL A   1      29.883  28.898  22.390  1.00  0.00     0.030 A 
ATOM     14  C   UNL A   1      27.919  27.971  23.473  1.00  0.00     0.002 A 
ATOM     15  C   UNL A   1      28.567  29.035  22.848  1.00  0.00     0.002 A 
BRANCH   8  16
ATOM     16  S   UNL A   1      33.659  25.566  23.017  1.00  0.00    -0.084 SA
BRANCH  16  17
ATOM     17  C   UNL A   1      34.339  25.670  24.699  1.00  0.00     0.119 C 
BRANCH  17  18
ATOM     18  C   UNL A   1      33.679  26.291  25.935  1.00  0.00     0.241 C 
BRANCH  18  19
ATOM     19  O   UNL A   1      34.280  27.461  26.462  1.00  0.00    -0.491 OA
BRANCH  19  20
ATOM     20  C   UNL A   1      33.576  28.633  26.345  1.00  0.00     0.137 A 
ATOM     21  C   UNL A   1      32.383  28.756  25.623  1.00  0.00     0.048 A 
ATOM     22  C   UNL A   1      34.012  29.717  27.119  1.00  0.00     0.083 A 
ATOM     23  C   UNL A   1      31.570  29.875  25.787  1.00  0.00     0.004 A 
ATOM     24  C   UNL A   1      33.215  30.855  27.250  1.00  0.00     0.024 A 
ATOM     25  Cl  UNL A   1      35.519  29.666  27.968  1.00  0.00    -0.080 Cl
ATOM     26  C   UNL A   1      31.976  30.916  26.613  1.00  0.00     0.002 A 
ENDBRANCH  19  20
ENDBRANCH  18  19
ENDBRANCH  17  18
ENDBRANCH  16  17
ENDBRANCH   8  16
ENDBRANCH   6   7
ENDBRANCH   4   6
ENDBRANCH   1   2
BRANCH   1  27
ATOM     27  C   UNL A   1      34.221  21.944  24.814  1.00  0.00     0.021 C 
BRANCH  27  28
ATOM     28  C   UNL A   1      35.116  20.730  25.062  1.00  0.00     0.002 C 
BRANCH  28  29
ATOM     29  C   UNL A   1      36.625  20.956  24.902  1.00  0.00     0.002 C 
BRANCH  29  30
ATOM     30  C   UNL A   1      37.105  22.414  24.883  1.00  0.00     0.021 C 
BRANCH  30  31
ATOM     31  C   UNL A   1      37.961  22.838  26.077  1.00  0.00     0.116 C 
BRANCH  31  32
ATOM     32  N   UNL A   1      39.326  22.363  26.018  1.00  0.00    -0.352 N 
ATOM     33  C   UNL A   1      40.545  22.825  26.397  1.00  0.00     0.251 C 
ATOM     34  H   UNL A   1      39.386  21.478  25.593  1.00  0.00     0.163 HD
ATOM     35  O   UNL A   1      41.493  22.057  26.214  1.00  0.00    -0.269 OA
BRANCH  33  36
ATOM     36  C   UNL A   1      40.814  24.172  26.948  1.00  0.00     0.039 A 
ATOM     37  C   UNL A   1      41.417  24.444  28.175  1.00  0.00     0.014 A 
ATOM     38  C   UNL A   1      40.345  25.245  26.166  1.00  0.00     0.014 A 
ATOM     39  C   UNL A   1      41.448  25.742  28.662  1.00  0.00     0.010 A 
ATOM     40  C   UNL A   1      40.389  26.544  26.638  1.00  0.00     0.010 A 
ATOM     41  C   UNL A   1      40.883  26.777  27.915  1.00  0.00    -0.014 A 
BRANCH  41  42
ATOM     42  C   UNL A   1      40.881  28.108  28.500  1.00  0.00     0.031 A 
ATOM     43  C   UNL A   1      41.983  28.999  28.038  1.00  0.00     0.074 A 
ATOM     44  C   UNL A   1      39.911  28.524  29.337  1.00  0.00     0.049 A 
ATOM     45  N   UNL A   1      42.907  29.566  28.744  1.00  0.00    -0.248 NA
ATOM     46  C   UNL A   1      42.135  29.195  26.586  1.00  0.00     0.031 C 
ATOM     47  C   UNL A   1      38.650  27.861  29.680  1.00  0.00     0.029 A 
ATOM     48  N   UNL A   1      39.823  29.704  30.008  1.00  0.00    -0.354 N 
ATOM     49  C   UNL A   1      43.675  30.310  27.851  1.00  0.00     0.074 A 
ATOM     50  C   UNL A   1      43.227  29.957  26.528  1.00  0.00     0.031 C 
ATOM     51  C   UNL A   1      37.833  28.745  30.298  1.00  0.00     0.029 A 
ATOM     52  C   UNL A   1      38.566  29.979  30.523  1.00  0.00     0.049 A 
ATOM     53  H   UNL A   1      40.589  30.312  30.119  1.00  0.00     0.167 HD
ATOM     54  C   UNL A   1      44.510  31.300  28.267  1.00  0.00     0.037 A 
ATOM     55  C   UNL A   1      38.154  31.166  31.030  1.00  0.00     0.037 A 
ATOM     56  C   UNL A   1      44.838  31.174  29.660  1.00  0.00     0.049 A 
ATOM     57  C   UNL A   1      39.371  31.940  31.388  1.00  0.00     0.074 A 
ATOM     58  C   UNL A   1      45.526  30.241  30.411  1.00  0.00     0.029 A 
ATOM     59  N   UNL A   1      44.139  31.932  30.564  1.00  0.00    -0.354 N 
ATOM     60  N   UNL A   1      40.177  31.617  32.359  1.00  0.00    -0.248 NA
ATOM     61  C   UNL A   1      39.930  32.820  30.373  1.00  0.00     0.031 C 
ATOM     62  C   UNL A   1      44.822  30.172  31.648  1.00  0.00     0.029 A 
ATOM     63  C   UNL A   1      43.783  31.100  31.596  1.00  0.00     0.049 A 
ATOM     64  H   UNL A   1      43.932  32.891  30.489  1.00  0.00     0.167 HD
ATOM     65  C   UNL A   1      41.445  31.895  31.869  1.00  0.00     0.074 A 
ATOM     66  C   UNL A   1      41.224  32.706  30.675  1.00  0.00     0.031 C 
ATOM     67  C   UNL A   1      42.537  31.208  32.315  1.00  0.00     0.037 A 
BRANCH  54  68
ATOM     68  C   UNL A   1      44.783  32.553  27.480  1.00  0.00     0.064 A 
ATOM     69  C   UNL A   1      45.998  32.700  26.785  1.00  0.00     0.173 A 
ATOM     70  C   UNL A   1      44.014  33.728  27.622  1.00  0.00     0.173 A 
ATOM     71  F   UNL A   1      46.823  31.653  26.623  1.00  0.00    -0.203 F 
ATOM     72  C   UNL A   1      46.431  33.943  26.314  1.00  0.00     0.198 A 
ATOM     73  C   UNL A   1      44.423  34.955  27.106  1.00  0.00     0.198 A 
ATOM     74  F   UNL A   1      42.895  33.754  28.359  1.00  0.00    -0.203 F 
ATOM     75  F   UNL A   1      47.644  34.058  25.755  1.00  0.00    -0.200 F 
ATOM     76  C   UNL A   1      45.644  35.069  26.476  1.00  0.00     0.200 A 
ATOM     77  F   UNL A   1      43.657  36.039  27.295  1.00  0.00    -0.200 F 
ATOM     78  F   UNL A   1      46.081  36.269  26.073  1.00  0.00    -0.200 F 
ENDBRANCH  54  68
BRANCH  55  79
ATOM     79  C   UNL A   1      36.833  31.821  30.867  1.00  0.00     0.064 A 
ATOM     80  C   UNL A   1      35.983  32.000  31.972  1.00  0.00     0.173 A 
ATOM     81  C   UNL A   1      36.517  32.555  29.707  1.00  0.00     0.173 A 
ATOM     82  F   UNL A   1      36.237  31.369  33.127  1.00  0.00    -0.203 F 
ATOM     83  C   UNL A   1      34.906  32.892  31.931  1.00  0.00     0.198 A 
ATOM     84  C   UNL A   1      35.439  33.439  29.666  1.00  0.00     0.198 A 
ATOM     85  F   UNL A   1      37.307  32.507  28.626  1.00  0.00    -0.203 F 
ATOM     86  F   UNL A   1      34.162  33.093  33.028  1.00  0.00    -0.200 F 
ATOM     87  C   UNL A   1      34.645  33.622  30.782  1.00  0.00     0.200 A 
ATOM     88  F   UNL A   1      35.220  34.167  28.561  1.00  0.00    -0.200 F 
ATOM     89  F   UNL A   1      33.660  34.531  30.767  1.00  0.00    -0.200 F 
ENDBRANCH  55  79
BRANCH  67  90
ATOM     90  C   UNL A   1      42.354  30.310  33.508  1.00  0.00     0.064 A 
ATOM     91  C   UNL A   1      42.448  30.749  34.841  1.00  0.00     0.173 A 
ATOM     92  C   UNL A   1      41.937  28.990  33.296  1.00  0.00     0.173 A 
ATOM     93  F   UNL A   1      42.736  32.025  35.128  1.00  0.00    -0.203 F 
ATOM     94  C   UNL A   1      42.183  29.892  35.907  1.00  0.00     0.198 A 
ATOM     95  C   UNL A   1      41.637  28.146  34.361  1.00  0.00     0.198 A 
ATOM     96  F   UNL A   1      41.773  28.532  32.045  1.00  0.00    -0.203 F 
ATOM     97  F   UNL A   1      42.292  30.334  37.170  1.00  0.00    -0.200 F 
ATOM     98  C   UNL A   1      41.772  28.592  35.667  1.00  0.00     0.200 A 
ATOM     99  F   UNL A   1      41.189  26.906  34.122  1.00  0.00    -0.200 F 
ATOM    100  F   UNL A   1      41.475  27.779  36.690  1.00  0.00    -0.200 F 
ENDBRANCH  67  90
ENDBRANCH  41  42
ENDBRANCH  33  36
ENDBRANCH  31  32
ENDBRANCH  30  31
ENDBRANCH  29  30
ENDBRANCH  28  29
ENDBRANCH  27  28
ENDBRANCH   1  27
TORSDOF 19
ENDMDL
