MODEL 1
REMARK VINA RESULT:     -12.9      0.000      0.000
REMARK SMILES COc1ccc(-n2c(SCc3cn(-c4ccc(C(=O)NCCCCCCNC(=O)c5ccc(-c6c7nc(c(-c8c(F)c(F)c(F)c(F)c8F)c8ccc([nH]8)c(-c8c(F)c(F)c(F)c(F)c8F)c8nc(c(-c9c(F)c(F)c(F)c(F)c9F)c9ccc6[nH]9)C=C8)C=C7)cc5)cc4)nn3)nc3ccccc3c2=O)cc1
REMARK SMILES IDX 21 1 20 2 18 3 19 4 17 6 14 7 15 8 94 9 16 10 93 11 13 12
REMARK SMILES IDX 11 13 12 14 96 15 95 16 10 17 9 18 8 19 7 20 104 21 97 22
REMARK SMILES IDX 103 23 105 24 98 25 102 26 99 27 101 28 100 29 6 30 3 31
REMARK SMILES IDX 4 32 107 33 5 34 106 35 2 36 1 37 22 38 23 39 24 40 25 41
REMARK SMILES IDX 26 42 27 43 28 44 29 46 30 47 31 48 92 49 32 50 91 51 33 52
REMARK SMILES IDX 34 53 35 54 85 55 36 56 90 57 84 58 86 59 37 60 89 61 83 62
REMARK SMILES IDX 82 63 38 65 70 66 50 67 69 68 51 69 54 70 68 71 87 72 52 73
REMARK SMILES IDX 53 74 67 76 88 77 55 78 39 79 40 80 48 81 41 82 42 83 46 84
REMARK SMILES IDX 49 85 43 86 44 87 47 88 45 89 71 90 72 91 80 92 73 93 74 94
REMARK SMILES IDX 78 95 81 96 75 97 76 98 79 99 77 100 56 101 57 102 65 103
REMARK SMILES IDX 58 104 59 105 63 106 66 107 60 108 61 109 64 110 62 111
REMARK H PARENT 20 5 27 45 86 64 54 75
REMARK Flexibility Score: inf
ROOT
ATOM      1  C   UNL A   1      40.422  28.878  32.502  1.00  0.00     0.116 C 
ENDROOT
BRANCH   1   2
ATOM      2  N   UNL A   1      40.416  30.256  32.956  1.00  0.00    -0.352 N 
ATOM      3  C   UNL A   1      39.646  31.335  32.605  1.00  0.00     0.251 C 
ATOM      4  O   UNL A   1      39.838  32.402  33.185  1.00  0.00    -0.269 OA
ATOM      5  H   UNL A   1      41.092  30.453  33.644  1.00  0.00     0.163 HD
BRANCH   3   6
ATOM      6  C   UNL A   1      38.560  31.241  31.598  1.00  0.00     0.039 A 
ATOM      7  C   UNL A   1      36.502  30.889  29.774  1.00  0.00     0.066 A 
ATOM      8  C   UNL A   1      36.265  30.619  31.123  1.00  0.00     0.029 A 
ATOM      9  C   UNL A   1      37.726  31.383  29.333  1.00  0.00     0.029 A 
ATOM     10  C   UNL A   1      37.312  30.762  32.028  1.00  0.00     0.016 A 
ATOM     11  C   UNL A   1      38.720  31.624  30.265  1.00  0.00     0.016 A 
BRANCH   7  12
ATOM     12  N   UNL A   1      35.485  30.728  28.835  1.00  0.00    -0.220 N 
ATOM     13  C   UNL A   1      34.262  30.085  27.180  1.00  0.00     0.093 A 
ATOM     14  C   UNL A   1      35.370  29.732  27.903  1.00  0.00     0.141 A 
ATOM     15  N   UNL A   1      33.811  31.297  27.628  1.00  0.00    -0.134 NA
ATOM     16  N   UNL A   1      34.493  31.621  28.708  1.00  0.00    -0.062 NA
BRANCH  13  17
ATOM     17  C   UNL A   1      33.562  29.302  26.151  1.00  0.00     0.138 C 
BRANCH  17  18
ATOM     18  S   UNL A   1      33.596  27.542  26.426  1.00  0.00    -0.081 SA
BRANCH  18  19
ATOM     19  C   UNL A   1      33.388  26.848  24.759  1.00  0.00     0.176 A 
ATOM     20  N   UNL A   1      32.058  26.675  24.432  1.00  0.00    -0.255 N 
ATOM     21  C   UNL A   1      31.506  25.447  24.777  1.00  0.00     0.266 A 
ATOM     22  N   UNL A   1      34.227  25.904  24.451  1.00  0.00    -0.223 NA
ATOM     23  C   UNL A   1      32.492  24.507  25.414  1.00  0.00     0.066 A 
ATOM     24  O   UNL A   1      30.331  25.119  24.655  1.00  0.00    -0.268 OA
ATOM     25  C   UNL A   1      33.856  24.733  25.134  1.00  0.00     0.079 A 
ATOM     26  C   UNL A   1      32.126  23.662  26.455  1.00  0.00     0.016 A 
ATOM     27  C   UNL A   1      34.848  24.035  25.818  1.00  0.00     0.029 A 
ATOM     28  C   UNL A   1      33.132  23.044  27.208  1.00  0.00     0.001 A 
ATOM     29  C   UNL A   1      34.483  23.208  26.876  1.00  0.00     0.002 A 
BRANCH  20  30
ATOM     30  C   UNL A   1      31.342  27.723  23.804  1.00  0.00     0.052 A 
ATOM     31  C   UNL A   1      29.819  29.378  22.133  1.00  0.00     0.119 A 
ATOM     32  C   UNL A   1      29.200  28.701  23.179  1.00  0.00     0.048 A 
ATOM     33  C   UNL A   1      31.206  29.324  21.992  1.00  0.00     0.048 A 
ATOM     34  C   UNL A   1      29.956  27.845  23.992  1.00  0.00     0.030 A 
ATOM     35  C   UNL A   1      31.971  28.521  22.846  1.00  0.00     0.030 A 
BRANCH  31  36
ATOM     36  O   UNL A   1      29.043  30.147  21.309  1.00  0.00    -0.497 OA
ATOM     37  C   UNL A   1      28.701  31.405  21.895  1.00  0.00     0.278 C 
ENDBRANCH  31  36
ENDBRANCH  20  30
ENDBRANCH  18  19
ENDBRANCH  17  18
ENDBRANCH  13  17
ENDBRANCH   7  12
ENDBRANCH   3   6
ENDBRANCH   1   2
BRANCH   1  38
ATOM     38  C   UNL A   1      40.512  27.923  33.697  1.00  0.00     0.021 C 
BRANCH  38  39
ATOM     39  C   UNL A   1      41.940  27.455  33.986  1.00  0.00     0.002 C 
BRANCH  39  40
ATOM     40  C   UNL A   1      42.340  27.478  35.468  1.00  0.00     0.002 C 
BRANCH  40  41
ATOM     41  C   UNL A   1      41.513  26.573  36.395  1.00  0.00     0.021 C 
BRANCH  41  42
ATOM     42  C   UNL A   1      41.951  25.116  36.362  1.00  0.00     0.116 C 
BRANCH  42  43
ATOM     43  N   UNL A   1      43.163  24.903  37.144  1.00  0.00    -0.352 N 
ATOM     44  C   UNL A   1      44.402  24.467  36.724  1.00  0.00     0.251 C 
ATOM     45  H   UNL A   1      43.088  25.099  38.105  1.00  0.00     0.163 HD
ATOM     46  O   UNL A   1      45.189  23.977  37.512  1.00  0.00    -0.269 OA
BRANCH  44  47
ATOM     47  C   UNL A   1      44.761  24.595  35.299  1.00  0.00     0.039 A 
ATOM     48  C   UNL A   1      44.631  23.498  34.445  1.00  0.00     0.014 A 
ATOM     49  C   UNL A   1      45.231  25.818  34.821  1.00  0.00     0.014 A 
ATOM     50  C   UNL A   1      44.903  23.667  33.093  1.00  0.00     0.010 A 
ATOM     51  C   UNL A   1      45.378  26.018  33.468  1.00  0.00     0.010 A 
ATOM     52  C   UNL A   1      45.248  24.939  32.603  1.00  0.00    -0.014 A 
BRANCH  52  53
ATOM     53  C   UNL A   1      45.288  25.168  31.160  1.00  0.00     0.031 A 
ATOM     54  C   UNL A   1      46.423  26.033  30.742  1.00  0.00     0.074 A 
ATOM     55  C   UNL A   1      44.507  24.530  30.261  1.00  0.00     0.049 A 
ATOM     56  N   UNL A   1      46.354  27.239  30.291  1.00  0.00    -0.248 NA
ATOM     57  C   UNL A   1      47.798  25.579  31.014  1.00  0.00     0.031 C 
ATOM     58  C   UNL A   1      43.564  23.437  30.515  1.00  0.00     0.029 A 
ATOM     59  N   UNL A   1      44.462  24.651  28.901  1.00  0.00    -0.354 N 
ATOM     60  C   UNL A   1      47.662  27.614  30.003  1.00  0.00     0.074 A 
ATOM     61  C   UNL A   1      48.510  26.650  30.651  1.00  0.00     0.031 C 
ATOM     62  C   UNL A   1      43.229  22.844  29.349  1.00  0.00     0.029 A 
ATOM     63  C   UNL A   1      43.796  23.612  28.256  1.00  0.00     0.049 A 
ATOM     64  H   UNL A   1      44.866  25.408  28.418  1.00  0.00     0.167 HD
ATOM     65  C   UNL A   1      47.903  28.488  28.988  1.00  0.00     0.037 A 
ATOM     66  C   UNL A   1      43.730  23.386  26.920  1.00  0.00     0.037 A 
ATOM     67  C   UNL A   1      46.686  29.181  28.628  1.00  0.00     0.049 A 
ATOM     68  C   UNL A   1      44.016  24.674  26.250  1.00  0.00     0.074 A 
ATOM     69  C   UNL A   1      45.816  30.059  29.238  1.00  0.00     0.029 A 
ATOM     70  N   UNL A   1      46.015  28.626  27.572  1.00  0.00    -0.354 N 
ATOM     71  N   UNL A   1      43.218  25.702  26.285  1.00  0.00    -0.248 NA
ATOM     72  C   UNL A   1      45.377  24.953  25.817  1.00  0.00     0.031 C 
ATOM     73  C   UNL A   1      44.528  29.771  28.688  1.00  0.00     0.029 A 
ATOM     74  C   UNL A   1      44.668  28.776  27.720  1.00  0.00     0.049 A 
ATOM     75  H   UNL A   1      46.447  28.179  26.807  1.00  0.00     0.167 HD
ATOM     76  C   UNL A   1      44.068  26.789  26.341  1.00  0.00     0.074 A 
ATOM     77  C   UNL A   1      45.350  26.287  25.862  1.00  0.00     0.031 C 
ATOM     78  C   UNL A   1      43.725  27.889  27.076  1.00  0.00     0.037 A 
BRANCH  65  79
ATOM     79  C   UNL A   1      49.026  28.325  27.973  1.00  0.00     0.064 A 
ATOM     80  C   UNL A   1      49.800  29.461  27.641  1.00  0.00     0.173 A 
ATOM     81  C   UNL A   1      49.139  27.243  27.073  1.00  0.00     0.173 A 
ATOM     82  F   UNL A   1      49.762  30.560  28.410  1.00  0.00    -0.203 F 
ATOM     83  C   UNL A   1      50.536  29.538  26.455  1.00  0.00     0.198 A 
ATOM     84  C   UNL A   1      49.914  27.306  25.916  1.00  0.00     0.198 A 
ATOM     85  F   UNL A   1      48.420  26.123  27.199  1.00  0.00    -0.203 F 
ATOM     86  F   UNL A   1      51.134  30.688  26.116  1.00  0.00    -0.200 F 
ATOM     87  C   UNL A   1      50.584  28.463  25.588  1.00  0.00     0.200 A 
ATOM     88  F   UNL A   1      49.927  26.260  25.077  1.00  0.00    -0.200 F 
ATOM     89  F   UNL A   1      51.230  28.556  24.418  1.00  0.00    -0.200 F 
ENDBRANCH  65  79
BRANCH  66  90
ATOM     90  C   UNL A   1      43.670  22.108  26.166  1.00  0.00     0.064 A 
ATOM     91  C   UNL A   1      44.848  21.481  25.717  1.00  0.00     0.173 A 
ATOM     92  C   UNL A   1      42.502  21.324  26.145  1.00  0.00     0.173 A 
ATOM     93  F   UNL A   1      46.014  22.142  25.732  1.00  0.00    -0.203 F 
ATOM     94  C   UNL A   1      44.865  20.137  25.328  1.00  0.00     0.198 A 
ATOM     95  C   UNL A   1      42.519  19.985  25.747  1.00  0.00     0.198 A 
ATOM     96  F   UNL A   1      41.340  21.806  26.607  1.00  0.00    -0.203 F 
ATOM     97  F   UNL A   1      46.024  19.554  24.992  1.00  0.00    -0.200 F 
ATOM     98  C   UNL A   1      43.704  19.385  25.360  1.00  0.00     0.200 A 
ATOM     99  F   UNL A   1      41.394  19.258  25.817  1.00  0.00    -0.200 F 
ATOM    100  F   UNL A   1      43.733  18.078  25.066  1.00  0.00    -0.200 F 
ENDBRANCH  66  90
BRANCH  78 101
ATOM    101  C   UNL A   1      42.265  28.096  27.361  1.00  0.00     0.064 A 
ATOM    102  C   UNL A   1      41.370  28.795  26.532  1.00  0.00     0.173 A 
ATOM    103  C   UNL A   1      41.741  27.489  28.510  1.00  0.00     0.173 A 
ATOM    104  F   UNL A   1      41.771  29.328  25.371  1.00  0.00    -0.203 F 
ATOM    105  C   UNL A   1      40.025  28.922  26.876  1.00  0.00     0.198 A 
ATOM    106  C   UNL A   1      40.391  27.580  28.827  1.00  0.00     0.198 A 
ATOM    107  F   UNL A   1      42.542  26.773  29.317  1.00  0.00    -0.203 F 
ATOM    108  F   UNL A   1      39.194  29.622  26.089  1.00  0.00    -0.200 F 
ATOM    109  C   UNL A   1      39.536  28.311  28.019  1.00  0.00     0.200 A 
ATOM    110  F   UNL A   1      39.918  26.948  29.909  1.00  0.00    -0.200 F 
ATOM    111  F   UNL A   1      38.237  28.407  28.333  1.00  0.00    -0.200 F 
ENDBRANCH  78 101
ENDBRANCH  52  53
ENDBRANCH  44  47
ENDBRANCH  42  43
ENDBRANCH  41  42
ENDBRANCH  40  41
ENDBRANCH  39  40
ENDBRANCH  38  39
ENDBRANCH   1  38
TORSDOF 19
ENDMDL
MODEL 2
REMARK VINA RESULT:     -12.7      3.820      8.528
REMARK SMILES COc1ccc(-n2c(SCc3cn(-c4ccc(C(=O)NCCCCCCNC(=O)c5ccc(-c6c7nc(c(-c8c(F)c(F)c(F)c(F)c8F)c8ccc([nH]8)c(-c8c(F)c(F)c(F)c(F)c8F)c8nc(c(-c9c(F)c(F)c(F)c(F)c9F)c9ccc6[nH]9)C=C8)C=C7)cc5)cc4)nn3)nc3ccccc3c2=O)cc1
REMARK SMILES IDX 21 1 20 2 18 3 19 4 17 6 14 7 15 8 94 9 16 10 93 11 13 12
REMARK SMILES IDX 11 13 12 14 96 15 95 16 10 17 9 18 8 19 7 20 104 21 97 22
REMARK SMILES IDX 103 23 105 24 98 25 102 26 99 27 101 28 100 29 6 30 3 31
REMARK SMILES IDX 4 32 107 33 5 34 106 35 2 36 1 37 22 38 23 39 24 40 25 41
REMARK SMILES IDX 26 42 27 43 28 44 29 46 30 47 31 48 92 49 32 50 91 51 33 52
REMARK SMILES IDX 34 53 35 54 85 55 36 56 90 57 84 58 86 59 37 60 89 61 83 62
REMARK SMILES IDX 82 63 38 65 70 66 50 67 69 68 51 69 54 70 68 71 87 72 52 73
REMARK SMILES IDX 53 74 67 76 88 77 55 78 39 79 40 80 48 81 41 82 42 83 46 84
REMARK SMILES IDX 49 85 43 86 44 87 47 88 45 89 71 90 72 91 80 92 73 93 74 94
REMARK SMILES IDX 78 95 81 96 75 97 76 98 79 99 77 100 56 101 57 102 65 103
REMARK SMILES IDX 58 104 59 105 63 106 66 107 60 108 61 109 64 110 62 111
REMARK H PARENT 20 5 27 45 86 64 54 75
REMARK Flexibility Score: inf
ROOT
ATOM      1  C   UNL A   1      41.952  19.201  27.623  1.00  0.00     0.116 C 
ENDROOT
BRANCH   1   2
ATOM      2  N   UNL A   1      42.654  20.466  27.726  1.00  0.00    -0.352 N 
ATOM      3  C   UNL A   1      42.257  21.759  27.497  1.00  0.00     0.251 C 
ATOM      4  O   UNL A   1      43.066  22.662  27.698  1.00  0.00    -0.269 OA
ATOM      5  H   UNL A   1      43.592  20.381  28.013  1.00  0.00     0.163 HD
BRANCH   3   6
ATOM      6  C   UNL A   1      40.876  22.101  27.073  1.00  0.00     0.039 A 
ATOM      7  C   UNL A   1      38.350  22.708  26.105  1.00  0.00     0.066 A 
ATOM      8  C   UNL A   1      38.936  21.491  25.752  1.00  0.00     0.029 A 
ATOM      9  C   UNL A   1      38.979  23.595  26.972  1.00  0.00     0.029 A 
ATOM     10  C   UNL A   1      40.219  21.209  26.212  1.00  0.00     0.016 A 
ATOM     11  C   UNL A   1      40.206  23.247  27.507  1.00  0.00     0.016 A 
BRANCH   7  12
ATOM     12  N   UNL A   1      37.079  23.038  25.638  1.00  0.00    -0.220 N 
ATOM     13  C   UNL A   1      35.408  23.852  24.545  1.00  0.00     0.093 A 
ATOM     14  C   UNL A   1      36.769  23.704  24.484  1.00  0.00     0.141 A 
ATOM     15  N   UNL A   1      34.967  23.365  25.745  1.00  0.00    -0.134 NA
ATOM     16  N   UNL A   1      35.975  22.770  26.349  1.00  0.00    -0.062 NA
BRANCH  13  17
ATOM     17  C   UNL A   1      34.502  24.350  23.500  1.00  0.00     0.138 C 
BRANCH  17  18
ATOM     18  S   UNL A   1      33.634  25.843  23.938  1.00  0.00    -0.081 SA
BRANCH  18  19
ATOM     19  C   UNL A   1      32.315  25.258  25.042  1.00  0.00     0.176 A 
ATOM     20  N   UNL A   1      31.362  24.522  24.366  1.00  0.00    -0.255 N 
ATOM     21  C   UNL A   1      30.301  25.246  23.837  1.00  0.00     0.266 A 
ATOM     22  N   UNL A   1      31.914  26.127  25.921  1.00  0.00    -0.223 NA
ATOM     23  C   UNL A   1      30.372  26.717  24.143  1.00  0.00     0.066 A 
ATOM     24  O   UNL A   1      29.398  24.805  23.135  1.00  0.00    -0.268 OA
ATOM     25  C   UNL A   1      31.129  27.096  25.271  1.00  0.00     0.079 A 
ATOM     26  C   UNL A   1      29.983  27.675  23.213  1.00  0.00     0.016 A 
ATOM     27  C   UNL A   1      31.403  28.437  25.528  1.00  0.00     0.029 A 
ATOM     28  C   UNL A   1      30.353  29.009  23.424  1.00  0.00     0.001 A 
ATOM     29  C   UNL A   1      31.035  29.392  24.586  1.00  0.00     0.002 A 
BRANCH  20  30
ATOM     30  C   UNL A   1      31.516  23.120  24.232  1.00  0.00     0.052 A 
ATOM     31  C   UNL A   1      32.416  20.479  23.974  1.00  0.00     0.119 A 
ATOM     32  C   UNL A   1      32.121  20.985  25.237  1.00  0.00     0.048 A 
ATOM     33  C   UNL A   1      32.154  21.245  22.838  1.00  0.00     0.048 A 
ATOM     34  C   UNL A   1      31.706  22.317  25.369  1.00  0.00     0.030 A 
ATOM     35  C   UNL A   1      31.675  22.555  22.965  1.00  0.00     0.030 A 
BRANCH  31  36
ATOM     36  O   UNL A   1      32.893  19.200  23.884  1.00  0.00    -0.497 OA
ATOM     37  C   UNL A   1      32.843  18.507  25.133  1.00  0.00     0.278 C 
ENDBRANCH  31  36
ENDBRANCH  20  30
ENDBRANCH  18  19
ENDBRANCH  17  18
ENDBRANCH  13  17
ENDBRANCH   7  12
ENDBRANCH   3   6
ENDBRANCH   1   2
BRANCH   1  38
ATOM     38  C   UNL A   1      42.652  18.283  26.615  1.00  0.00     0.021 C 
BRANCH  38  39
ATOM     39  C   UNL A   1      43.167  19.028  25.381  1.00  0.00     0.002 C 
BRANCH  39  40
ATOM     40  C   UNL A   1      44.601  18.674  24.964  1.00  0.00     0.002 C 
BRANCH  40  41
ATOM     41  C   UNL A   1      45.683  19.683  25.376  1.00  0.00     0.021 C 
BRANCH  41  42
ATOM     42  C   UNL A   1      45.284  21.130  25.127  1.00  0.00     0.116 C 
BRANCH  42  43
ATOM     43  N   UNL A   1      46.348  21.872  24.461  1.00  0.00    -0.352 N 
ATOM     44  C   UNL A   1      46.521  23.236  24.356  1.00  0.00     0.251 C 
ATOM     45  H   UNL A   1      47.039  21.324  24.026  1.00  0.00     0.163 HD
ATOM     46  O   UNL A   1      47.212  23.710  23.473  1.00  0.00    -0.269 OA
BRANCH  44  47
ATOM     47  C   UNL A   1      45.850  24.120  25.327  1.00  0.00     0.039 A 
ATOM     48  C   UNL A   1      46.449  24.385  26.561  1.00  0.00     0.014 A 
ATOM     49  C   UNL A   1      44.615  24.680  25.001  1.00  0.00     0.014 A 
ATOM     50  C   UNL A   1      45.832  25.282  27.425  1.00  0.00     0.010 A 
ATOM     51  C   UNL A   1      44.070  25.659  25.798  1.00  0.00     0.010 A 
ATOM     52  C   UNL A   1      44.656  25.941  27.026  1.00  0.00    -0.014 A 
BRANCH  52  53
ATOM     53  C   UNL A   1      44.151  27.057  27.823  1.00  0.00     0.031 A 
ATOM     54  C   UNL A   1      44.995  28.276  27.712  1.00  0.00     0.074 A 
ATOM     55  C   UNL A   1      42.956  27.070  28.452  1.00  0.00     0.049 A 
ATOM     56  N   UNL A   1      45.743  28.787  28.630  1.00  0.00    -0.248 NA
ATOM     57  C   UNL A   1      45.167  28.903  26.390  1.00  0.00     0.031 C 
ATOM     58  C   UNL A   1      41.902  26.053  28.386  1.00  0.00     0.029 A 
ATOM     59  N   UNL A   1      42.377  28.049  29.209  1.00  0.00    -0.354 N 
ATOM     60  C   UNL A   1      46.300  29.933  28.073  1.00  0.00     0.074 A 
ATOM     61  C   UNL A   1      46.079  29.841  26.656  1.00  0.00     0.031 C 
ATOM     62  C   UNL A   1      40.746  26.564  28.864  1.00  0.00     0.029 A 
ATOM     63  C   UNL A   1      41.011  27.878  29.419  1.00  0.00     0.049 A 
ATOM     64  H   UNL A   1      42.883  28.811  29.575  1.00  0.00     0.167 HD
ATOM     65  C   UNL A   1      46.594  30.995  28.873  1.00  0.00     0.037 A 
ATOM     66  C   UNL A   1      40.154  28.759  29.991  1.00  0.00     0.037 A 
ATOM     67  C   UNL A   1      46.622  30.583  30.259  1.00  0.00     0.049 A 
ATOM     68  C   UNL A   1      40.968  29.680  30.816  1.00  0.00     0.074 A 
ATOM     69  C   UNL A   1      47.380  29.732  31.034  1.00  0.00     0.029 A 
ATOM     70  N   UNL A   1      45.451  30.798  30.933  1.00  0.00    -0.354 N 
ATOM     71  N   UNL A   1      41.590  29.322  31.903  1.00  0.00    -0.248 NA
ATOM     72  C   UNL A   1      41.392  30.948  30.242  1.00  0.00     0.031 C 
ATOM     73  C   UNL A   1      46.491  29.222  32.031  1.00  0.00     0.029 A 
ATOM     74  C   UNL A   1      45.244  29.827  31.868  1.00  0.00     0.049 A 
ATOM     75  H   UNL A   1      44.841  31.553  30.766  1.00  0.00     0.167 HD
ATOM     76  C   UNL A   1      42.762  30.051  31.878  1.00  0.00     0.074 A 
ATOM     77  C   UNL A   1      42.499  31.152  30.958  1.00  0.00     0.031 C 
ATOM     78  C   UNL A   1      43.920  29.501  32.350  1.00  0.00     0.037 A 
BRANCH  65  79
ATOM     79  C   UNL A   1      46.300  32.443  28.506  1.00  0.00     0.064 A 
ATOM     80  C   UNL A   1      47.266  33.425  28.826  1.00  0.00     0.173 A 
ATOM     81  C   UNL A   1      45.015  32.946  28.204  1.00  0.00     0.173 A 
ATOM     82  F   UNL A   1      48.519  33.069  29.149  1.00  0.00    -0.203 F 
ATOM     83  C   UNL A   1      46.939  34.781  28.935  1.00  0.00     0.198 A 
ATOM     84  C   UNL A   1      44.707  34.304  28.266  1.00  0.00     0.198 A 
ATOM     85  F   UNL A   1      43.970  32.151  27.953  1.00  0.00    -0.203 F 
ATOM     86  F   UNL A   1      47.854  35.651  29.383  1.00  0.00    -0.200 F 
ATOM     87  C   UNL A   1      45.657  35.218  28.665  1.00  0.00     0.200 A 
ATOM     88  F   UNL A   1      43.450  34.703  28.023  1.00  0.00    -0.200 F 
ATOM     89  F   UNL A   1      45.322  36.503  28.836  1.00  0.00    -0.200 F 
ENDBRANCH  65  79
BRANCH  66  90
ATOM     90  C   UNL A   1      38.720  29.022  29.709  1.00  0.00     0.064 A 
ATOM     91  C   UNL A   1      37.835  29.373  30.746  1.00  0.00     0.173 A 
ATOM     92  C   UNL A   1      38.258  29.241  28.398  1.00  0.00     0.173 A 
ATOM     93  F   UNL A   1      38.203  29.228  32.027  1.00  0.00    -0.203 F 
ATOM     94  C   UNL A   1      36.593  29.962  30.487  1.00  0.00     0.198 A 
ATOM     95  C   UNL A   1      37.014  29.820  28.141  1.00  0.00     0.198 A 
ATOM     96  F   UNL A   1      39.045  28.995  27.341  1.00  0.00    -0.203 F 
ATOM     97  F   UNL A   1      35.818  30.363  31.505  1.00  0.00    -0.200 F 
ATOM     98  C   UNL A   1      36.190  30.200  29.185  1.00  0.00     0.200 A 
ATOM     99  F   UNL A   1      36.651  30.078  26.876  1.00  0.00    -0.200 F 
ATOM    100  F   UNL A   1      35.037  30.837  28.937  1.00  0.00    -0.200 F 
ENDBRANCH  66  90
BRANCH  78 101
ATOM    101  C   UNL A   1      43.793  28.368  33.327  1.00  0.00     0.064 A 
ATOM    102  C   UNL A   1      43.771  27.004  32.987  1.00  0.00     0.173 A 
ATOM    103  C   UNL A   1      43.761  28.694  34.690  1.00  0.00     0.173 A 
ATOM    104  F   UNL A   1      43.889  26.604  31.714  1.00  0.00    -0.203 F 
ATOM    105  C   UNL A   1      43.664  26.022  33.970  1.00  0.00     0.198 A 
ATOM    106  C   UNL A   1      43.699  27.710  35.669  1.00  0.00     0.198 A 
ATOM    107  F   UNL A   1      43.822  29.979  35.075  1.00  0.00    -0.203 F 
ATOM    108  F   UNL A   1      43.610  24.727  33.622  1.00  0.00    -0.200 F 
ATOM    109  C   UNL A   1      43.634  26.374  35.309  1.00  0.00     0.200 A 
ATOM    110  F   UNL A   1      43.717  28.057  36.963  1.00  0.00    -0.200 F 
ATOM    111  F   UNL A   1      43.563  25.428  36.256  1.00  0.00    -0.200 F 
ENDBRANCH  78 101
ENDBRANCH  52  53
ENDBRANCH  44  47
ENDBRANCH  42  43
ENDBRANCH  41  42
ENDBRANCH  40  41
ENDBRANCH  39  40
ENDBRANCH  38  39
ENDBRANCH   1  38
TORSDOF 19
ENDMDL
MODEL 3
REMARK VINA RESULT:     -12.2      3.920      8.766
REMARK SMILES COc1ccc(-n2c(SCc3cn(-c4ccc(C(=O)NCCCCCCNC(=O)c5ccc(-c6c7nc(c(-c8c(F)c(F)c(F)c(F)c8F)c8ccc([nH]8)c(-c8c(F)c(F)c(F)c(F)c8F)c8nc(c(-c9c(F)c(F)c(F)c(F)c9F)c9ccc6[nH]9)C=C8)C=C7)cc5)cc4)nn3)nc3ccccc3c2=O)cc1
REMARK SMILES IDX 21 1 20 2 18 3 19 4 17 6 14 7 15 8 94 9 16 10 93 11 13 12
REMARK SMILES IDX 11 13 12 14 96 15 95 16 10 17 9 18 8 19 7 20 104 21 97 22
REMARK SMILES IDX 103 23 105 24 98 25 102 26 99 27 101 28 100 29 6 30 3 31
REMARK SMILES IDX 4 32 107 33 5 34 106 35 2 36 1 37 22 38 23 39 24 40 25 41
REMARK SMILES IDX 26 42 27 43 28 44 29 46 30 47 31 48 92 49 32 50 91 51 33 52
REMARK SMILES IDX 34 53 35 54 85 55 36 56 90 57 84 58 86 59 37 60 89 61 83 62
REMARK SMILES IDX 82 63 38 65 70 66 50 67 69 68 51 69 54 70 68 71 87 72 52 73
REMARK SMILES IDX 53 74 67 76 88 77 55 78 39 79 40 80 48 81 41 82 42 83 46 84
REMARK SMILES IDX 49 85 43 86 44 87 47 88 45 89 71 90 72 91 80 92 73 93 74 94
REMARK SMILES IDX 78 95 81 96 75 97 76 98 79 99 77 100 56 101 57 102 65 103
REMARK SMILES IDX 58 104 59 105 63 106 66 107 60 108 61 109 64 110 62 111
REMARK H PARENT 20 5 27 45 86 64 54 75
REMARK Flexibility Score: inf
ROOT
ATOM      1  C   UNL A   1      42.141  19.019  26.749  1.00  0.00     0.116 C 
ENDROOT
BRANCH   1   2
ATOM      2  N   UNL A   1      42.601  20.124  27.568  1.00  0.00    -0.352 N 
ATOM      3  C   UNL A   1      42.086  21.375  27.796  1.00  0.00     0.251 C 
ATOM      4  O   UNL A   1      42.678  22.115  28.579  1.00  0.00    -0.269 OA
ATOM      5  H   UNL A   1      43.441  19.943  28.049  1.00  0.00     0.163 HD
BRANCH   3   6
ATOM      6  C   UNL A   1      40.818  21.836  27.178  1.00  0.00     0.039 A 
ATOM      7  C   UNL A   1      38.517  22.641  25.857  1.00  0.00     0.066 A 
ATOM      8  C   UNL A   1      38.974  21.333  25.684  1.00  0.00     0.029 A 
ATOM      9  C   UNL A   1      39.156  23.529  26.716  1.00  0.00     0.029 A 
ATOM     10  C   UNL A   1      40.150  20.946  26.322  1.00  0.00     0.016 A 
ATOM     11  C   UNL A   1      40.260  23.091  27.425  1.00  0.00     0.016 A 
BRANCH   7  12
ATOM     12  N   UNL A   1      37.360  23.072  25.211  1.00  0.00    -0.220 N 
ATOM     13  C   UNL A   1      35.737  23.364  23.821  1.00  0.00     0.093 A 
ATOM     14  C   UNL A   1      36.779  22.520  24.101  1.00  0.00     0.141 A 
ATOM     15  N   UNL A   1      35.780  24.419  24.692  1.00  0.00    -0.134 NA
ATOM     16  N   UNL A   1      36.700  24.171  25.602  1.00  0.00    -0.062 NA
BRANCH  13  17
ATOM     17  C   UNL A   1      34.662  23.184  22.835  1.00  0.00     0.138 C 
BRANCH  17  18
ATOM     18  S   UNL A   1      33.024  23.447  23.485  1.00  0.00    -0.081 SA
BRANCH  18  19
ATOM     19  C   UNL A   1      33.100  22.702  25.141  1.00  0.00     0.176 A 
ATOM     20  N   UNL A   1      32.055  21.830  25.365  1.00  0.00    -0.255 N 
ATOM     21  C   UNL A   1      30.905  22.391  25.906  1.00  0.00     0.266 A 
ATOM     22  N   UNL A   1      33.435  23.522  26.093  1.00  0.00    -0.223 NA
ATOM     23  C   UNL A   1      31.035  23.862  26.190  1.00  0.00     0.066 A 
ATOM     24  O   UNL A   1      29.840  21.816  26.104  1.00  0.00    -0.268 OA
ATOM     25  C   UNL A   1      32.342  24.360  26.370  1.00  0.00     0.079 A 
ATOM     26  C   UNL A   1      29.977  24.740  25.986  1.00  0.00     0.016 A 
ATOM     27  C   UNL A   1      32.576  25.731  26.455  1.00  0.00     0.029 A 
ATOM     28  C   UNL A   1      30.237  26.116  25.967  1.00  0.00     0.001 A 
ATOM     29  C   UNL A   1      31.522  26.610  26.226  1.00  0.00     0.002 A 
BRANCH  20  30
ATOM     30  C   UNL A   1      32.191  20.462  25.026  1.00  0.00     0.052 A 
ATOM     31  C   UNL A   1      33.048  17.902  24.273  1.00  0.00     0.119 A 
ATOM     32  C   UNL A   1      32.981  18.235  25.623  1.00  0.00     0.048 A 
ATOM     33  C   UNL A   1      32.580  18.796  23.310  1.00  0.00     0.048 A 
ATOM     34  C   UNL A   1      32.587  19.528  25.997  1.00  0.00     0.030 A 
ATOM     35  C   UNL A   1      32.124  20.065  23.688  1.00  0.00     0.030 A 
BRANCH  31  36
ATOM     36  O   UNL A   1      33.508  16.659  23.936  1.00  0.00    -0.497 OA
ATOM     37  C   UNL A   1      34.629  16.256  24.727  1.00  0.00     0.278 C 
ENDBRANCH  31  36
ENDBRANCH  20  30
ENDBRANCH  18  19
ENDBRANCH  17  18
ENDBRANCH  13  17
ENDBRANCH   7  12
ENDBRANCH   3   6
ENDBRANCH   1   2
BRANCH   1  38
ATOM     38  C   UNL A   1      43.275  18.014  26.523  1.00  0.00     0.021 C 
BRANCH  38  39
ATOM     39  C   UNL A   1      44.218  18.417  25.387  1.00  0.00     0.002 C 
BRANCH  39  40
ATOM     40  C   UNL A   1      45.713  18.260  25.700  1.00  0.00     0.002 C 
BRANCH  40  41
ATOM     41  C   UNL A   1      46.633  19.345  25.120  1.00  0.00     0.021 C 
BRANCH  41  42
ATOM     42  C   UNL A   1      46.077  20.753  25.275  1.00  0.00     0.116 C 
BRANCH  42  43
ATOM     43  N   UNL A   1      45.635  21.297  23.997  1.00  0.00    -0.352 N 
ATOM     44  C   UNL A   1      44.732  22.309  23.750  1.00  0.00     0.251 C 
ATOM     45  H   UNL A   1      46.038  20.886  23.198  1.00  0.00     0.163 HD
ATOM     46  O   UNL A   1      44.179  22.399  22.669  1.00  0.00    -0.269 OA
BRANCH  44  47
ATOM     47  C   UNL A   1      44.437  23.282  24.818  1.00  0.00     0.039 A 
ATOM     48  C   UNL A   1      45.441  23.668  25.708  1.00  0.00     0.014 A 
ATOM     49  C   UNL A   1      43.148  23.804  24.929  1.00  0.00     0.014 A 
ATOM     50  C   UNL A   1      45.157  24.643  26.656  1.00  0.00     0.010 A 
ATOM     51  C   UNL A   1      42.902  24.855  25.781  1.00  0.00     0.010 A 
ATOM     52  C   UNL A   1      43.891  25.257  26.669  1.00  0.00    -0.014 A 
BRANCH  52  53
ATOM     53  C   UNL A   1      43.676  26.445  27.494  1.00  0.00     0.031 A 
ATOM     54  C   UNL A   1      44.650  27.531  27.209  1.00  0.00     0.074 A 
ATOM     55  C   UNL A   1      42.609  26.634  28.300  1.00  0.00     0.049 A 
ATOM     56  N   UNL A   1      45.597  27.945  27.980  1.00  0.00    -0.248 NA
ATOM     57  C   UNL A   1      44.693  28.109  25.854  1.00  0.00     0.031 C 
ATOM     58  C   UNL A   1      41.429  25.774  28.436  1.00  0.00     0.029 A 
ATOM     59  N   UNL A   1      42.297  27.696  29.102  1.00  0.00    -0.354 N 
ATOM     60  C   UNL A   1      46.209  28.995  27.302  1.00  0.00     0.074 A 
ATOM     61  C   UNL A   1      45.755  28.914  25.940  1.00  0.00     0.031 C 
ATOM     62  C   UNL A   1      40.445  26.449  29.068  1.00  0.00     0.029 A 
ATOM     63  C   UNL A   1      40.971  27.720  29.528  1.00  0.00     0.049 A 
ATOM     64  H   UNL A   1      42.953  28.384  29.356  1.00  0.00     0.167 HD
ATOM     65  C   UNL A   1      46.768  30.016  28.007  1.00  0.00     0.037 A 
ATOM     66  C   UNL A   1      40.344  28.721  30.193  1.00  0.00     0.037 A 
ATOM     67  C   UNL A   1      46.960  29.624  29.386  1.00  0.00     0.049 A 
ATOM     68  C   UNL A   1      41.396  29.530  30.847  1.00  0.00     0.074 A 
ATOM     69  C   UNL A   1      47.708  28.687  30.064  1.00  0.00     0.029 A 
ATOM     70  N   UNL A   1      45.951  30.011  30.226  1.00  0.00    -0.354 N 
ATOM     71  N   UNL A   1      42.128  29.105  31.837  1.00  0.00    -0.248 NA
ATOM     72  C   UNL A   1      41.892  30.718  30.168  1.00  0.00     0.031 C 
ATOM     73  C   UNL A   1      46.928  28.321  31.205  1.00  0.00     0.029 A 
ATOM     74  C   UNL A   1      45.765  29.092  31.216  1.00  0.00     0.049 A 
ATOM     75  H   UNL A   1      45.430  30.842  30.128  1.00  0.00     0.167 HD
ATOM     76  C   UNL A   1      43.370  29.662  31.604  1.00  0.00     0.074 A 
ATOM     77  C   UNL A   1      43.117  30.775  30.696  1.00  0.00     0.031 C 
ATOM     78  C   UNL A   1      44.503  28.962  31.910  1.00  0.00     0.037 A 
BRANCH  65  79
ATOM     79  C   UNL A   1      46.619  31.486  27.638  1.00  0.00     0.064 A 
ATOM     80  C   UNL A   1      45.321  31.987  27.391  1.00  0.00     0.173 A 
ATOM     81  C   UNL A   1      47.673  32.302  27.172  1.00  0.00     0.173 A 
ATOM     82  F   UNL A   1      44.238  31.292  27.770  1.00  0.00    -0.203 F 
ATOM     83  C   UNL A   1      45.103  33.152  26.648  1.00  0.00     0.198 A 
ATOM     84  C   UNL A   1      47.451  33.489  26.474  1.00  0.00     0.198 A 
ATOM     85  F   UNL A   1      48.957  31.941  27.258  1.00  0.00    -0.203 F 
ATOM     86  F   UNL A   1      43.853  33.506  26.318  1.00  0.00    -0.200 F 
ATOM     87  C   UNL A   1      46.169  33.897  26.182  1.00  0.00     0.200 A 
ATOM     88  F   UNL A   1      48.500  34.183  26.010  1.00  0.00    -0.200 F 
ATOM     89  F   UNL A   1      45.966  34.974  25.411  1.00  0.00    -0.200 F 
ENDBRANCH  65  79
BRANCH  66  90
ATOM     90  C   UNL A   1      38.932  29.178  30.128  1.00  0.00     0.064 A 
ATOM     91  C   UNL A   1      38.175  29.346  31.303  1.00  0.00     0.173 A 
ATOM     92  C   UNL A   1      38.402  29.755  28.960  1.00  0.00     0.173 A 
ATOM     93  F   UNL A   1      38.620  28.857  32.470  1.00  0.00    -0.203 F 
ATOM     94  C   UNL A   1      36.993  30.094  31.318  1.00  0.00     0.198 A 
ATOM     95  C   UNL A   1      37.216  30.493  28.974  1.00  0.00     0.198 A 
ATOM     96  F   UNL A   1      39.072  29.703  27.800  1.00  0.00    -0.203 F 
ATOM     97  F   UNL A   1      36.349  30.303  32.475  1.00  0.00    -0.200 F 
ATOM     98  C   UNL A   1      36.523  30.681  30.156  1.00  0.00     0.200 A 
ATOM     99  F   UNL A   1      36.791  31.086  27.849  1.00  0.00    -0.200 F 
ATOM    100  F   UNL A   1      35.436  31.464  30.183  1.00  0.00    -0.200 F 
ENDBRANCH  66  90
BRANCH  78 101
ATOM    101  C   UNL A   1      44.380  27.872  32.935  1.00  0.00     0.064 A 
ATOM    102  C   UNL A   1      44.329  28.071  34.326  1.00  0.00     0.173 A 
ATOM    103  C   UNL A   1      44.238  26.559  32.465  1.00  0.00     0.173 A 
ATOM    104  F   UNL A   1      44.367  29.301  34.853  1.00  0.00    -0.203 F 
ATOM    105  C   UNL A   1      44.199  26.992  35.200  1.00  0.00     0.198 A 
ATOM    106  C   UNL A   1      44.064  25.492  33.337  1.00  0.00     0.198 A 
ATOM    107  F   UNL A   1      44.237  26.315  31.144  1.00  0.00    -0.203 F 
ATOM    108  F   UNL A   1      44.187  27.200  36.525  1.00  0.00    -0.200 F 
ATOM    109  C   UNL A   1      44.061  25.706  34.706  1.00  0.00     0.200 A 
ATOM    110  F   UNL A   1      43.885  24.257  32.850  1.00  0.00    -0.200 F 
ATOM    111  F   UNL A   1      43.904  24.673  35.545  1.00  0.00    -0.200 F 
ENDBRANCH  78 101
ENDBRANCH  52  53
ENDBRANCH  44  47
ENDBRANCH  42  43
ENDBRANCH  41  42
ENDBRANCH  40  41
ENDBRANCH  39  40
ENDBRANCH  38  39
ENDBRANCH   1  38
TORSDOF 19
ENDMDL
