MODEL 1
REMARK VINA RESULT:     -11.4      0.000      0.000
REMARK SMILES CC[C@H](Oc1c(C)cc(Br)cc1N)C(=O)NCCCCCCNC(=O)c1ccc(-c2c3nc(c(-c4c(F)c(F)c(F)c(F)c4F)c4ccc([nH]4)c(-c4c(F)c(F)c(F)c(F)c4F)c4nc(c(-c5c(F)c(F)c(F)c(F)c5F)c5ccc2[nH]5)C=C4)C=C3)cc1
REMARK SMILES IDX 19 1 18 2 17 3 16 4 14 5 15 6 3 8 2 9 1 10 4 11 5 12 6 13
REMARK SMILES IDX 12 14 7 15 8 16 11 17 9 18 10 19 13 20 20 23 21 24 22 25
REMARK SMILES IDX 23 26 24 27 25 29 26 30 27 31 88 32 28 33 87 34 29 35 30 36
REMARK SMILES IDX 31 37 81 38 32 39 86 40 80 41 82 42 33 43 85 44 79 45 78 46
REMARK SMILES IDX 34 48 66 49 46 50 65 51 47 52 50 53 64 54 83 55 48 56 49 57
REMARK SMILES IDX 63 59 84 60 51 61 35 62 36 63 44 64 37 65 38 66 42 67 45 68
REMARK SMILES IDX 39 69 40 70 43 71 41 72 67 73 68 74 76 75 69 76 70 77 74 78
REMARK SMILES IDX 77 79 71 80 72 81 75 82 73 83 52 84 53 85 61 86 54 87 55 88
REMARK SMILES IDX 59 89 62 90 56 91 57 92 60 93 58 94
REMARK H PARENT 16 7 13 21 13 22 23 28 82 47 50 58
REMARK Flexibility Score: inf
ROOT
ATOM      1  C   UNL A   1      32.341  29.903  26.841  1.00  0.00     0.002 C 
ENDROOT
BRANCH   1   2
ATOM      2  C   UNL A   1      33.298  28.982  26.081  1.00  0.00     0.021 C 
BRANCH   2   3
ATOM      3  C   UNL A   1      33.331  27.548  26.586  1.00  0.00     0.116 C 
BRANCH   3   4
ATOM      4  N   UNL A   1      33.538  26.586  25.523  1.00  0.00    -0.353 N 
ATOM      5  C   UNL A   1      32.592  25.885  24.822  1.00  0.00     0.261 C 
ATOM      6  O   UNL A   1      32.975  25.142  23.915  1.00  0.00    -0.271 OA
ATOM      7  H   UNL A   1      34.474  26.414  25.273  1.00  0.00     0.163 HD
BRANCH   5   8
ATOM      8  C   UNL A   1      31.091  26.071  25.135  1.00  0.00     0.261 C 
BRANCH   8   9
ATOM      9  C   UNL A   1      30.669  24.945  26.117  1.00  0.00     0.052 C 
ATOM     10  C   UNL A   1      30.954  23.485  25.806  1.00  0.00     0.008 C 
ENDBRANCH   8   9
BRANCH   8  11
ATOM     11  O   UNL A   1      30.490  26.241  23.850  1.00  0.00    -0.478 OA
BRANCH  11  12
ATOM     12  C   UNL A   1      29.968  27.427  23.419  1.00  0.00     0.146 A 
ATOM     13  C   UNL A   1      30.681  28.540  22.955  1.00  0.00    -0.006 A 
ATOM     14  C   UNL A   1      28.550  27.464  23.459  1.00  0.00     0.076 A 
ATOM     15  C   UNL A   1      32.137  28.519  22.598  1.00  0.00     0.048 C 
ATOM     16  C   UNL A   1      29.993  29.759  22.822  1.00  0.00     0.023 A 
ATOM     17  C   UNL A   1      27.889  28.684  23.323  1.00  0.00     0.045 A 
ATOM     18  C   UNL A   1      28.618  29.832  23.041  1.00  0.00     0.020 A 
ATOM     19  Br  UNL A   1      27.737  31.501  22.941  1.00  0.00    -0.051 Br
BRANCH  14  20
ATOM     20  N   UNL A   1      27.814  26.321  23.803  1.00  0.00    -0.396 N 
ATOM     21  H   UNL A   1      28.122  25.431  23.514  1.00  0.00     0.156 HD
ATOM     22  H   UNL A   1      26.987  26.408  24.331  1.00  0.00     0.156 HD
ENDBRANCH  14  20
ENDBRANCH  11  12
ENDBRANCH   8  11
ENDBRANCH   5   8
ENDBRANCH   3   4
ENDBRANCH   2   3
ENDBRANCH   1   2
BRANCH   1  23
ATOM     23  C   UNL A   1      31.475  30.817  25.968  1.00  0.00     0.002 C 
BRANCH  23  24
ATOM     24  C   UNL A   1      31.285  32.240  26.495  1.00  0.00     0.021 C 
BRANCH  24  25
ATOM     25  C   UNL A   1      32.494  32.823  27.215  1.00  0.00     0.116 C 
BRANCH  25  26
ATOM     26  N   UNL A   1      32.295  34.211  27.601  1.00  0.00    -0.352 N 
ATOM     27  C   UNL A   1      32.949  34.940  28.562  1.00  0.00     0.251 C 
ATOM     28  H   UNL A   1      31.595  34.693  27.106  1.00  0.00     0.163 HD
ATOM     29  O   UNL A   1      32.550  36.056  28.878  1.00  0.00    -0.269 OA
BRANCH  27  30
ATOM     30  C   UNL A   1      34.125  34.357  29.236  1.00  0.00     0.039 A 
ATOM     31  C   UNL A   1      33.930  33.575  30.376  1.00  0.00     0.014 A 
ATOM     32  C   UNL A   1      35.411  34.565  28.729  1.00  0.00     0.014 A 
ATOM     33  C   UNL A   1      35.024  32.955  30.978  1.00  0.00     0.010 A 
ATOM     34  C   UNL A   1      36.489  33.885  29.284  1.00  0.00     0.010 A 
ATOM     35  C   UNL A   1      36.306  33.080  30.419  1.00  0.00    -0.014 A 
BRANCH  35  36
ATOM     36  C   UNL A   1      37.471  32.389  31.023  1.00  0.00     0.031 A 
ATOM     37  C   UNL A   1      37.947  32.781  32.394  1.00  0.00     0.074 A 
ATOM     38  C   UNL A   1      38.115  31.433  30.326  1.00  0.00     0.049 A 
ATOM     39  N   UNL A   1      38.957  32.314  33.081  1.00  0.00    -0.248 NA
ATOM     40  C   UNL A   1      37.202  33.852  33.074  1.00  0.00     0.031 C 
ATOM     41  C   UNL A   1      37.764  30.993  28.976  1.00  0.00     0.029 A 
ATOM     42  N   UNL A   1      39.197  30.658  30.657  1.00  0.00    -0.354 N 
ATOM     43  C   UNL A   1      38.965  33.030  34.270  1.00  0.00     0.074 A 
ATOM     44  C   UNL A   1      37.905  34.009  34.185  1.00  0.00     0.031 C 
ATOM     45  C   UNL A   1      38.590  30.001  28.608  1.00  0.00     0.029 A 
ATOM     46  C   UNL A   1      39.554  29.762  29.679  1.00  0.00     0.049 A 
ATOM     47  H   UNL A   1      39.675  30.736  31.516  1.00  0.00     0.167 HD
ATOM     48  C   UNL A   1      39.765  32.862  35.349  1.00  0.00     0.037 A 
ATOM     49  C   UNL A   1      40.545  28.851  29.651  1.00  0.00     0.037 A 
ATOM     50  C   UNL A   1      40.808  31.875  35.433  1.00  0.00     0.049 A 
ATOM     51  C   UNL A   1      41.447  28.713  30.847  1.00  0.00     0.074 A 
ATOM     52  C   UNL A   1      41.650  31.603  36.496  1.00  0.00     0.029 A 
ATOM     53  N   UNL A   1      41.151  31.000  34.414  1.00  0.00    -0.354 N 
ATOM     54  N   UNL A   1      41.411  29.359  31.989  1.00  0.00    -0.248 NA
ATOM     55  C   UNL A   1      42.527  27.720  30.755  1.00  0.00     0.031 C 
ATOM     56  C   UNL A   1      42.537  30.598  36.103  1.00  0.00     0.029 A 
ATOM     57  C   UNL A   1      42.211  30.203  34.815  1.00  0.00     0.049 A 
ATOM     58  H   UNL A   1      40.708  30.952  33.536  1.00  0.00     0.167 HD
ATOM     59  C   UNL A   1      42.440  28.834  32.758  1.00  0.00     0.074 A 
ATOM     60  C   UNL A   1      43.076  27.805  31.959  1.00  0.00     0.031 C 
ATOM     61  C   UNL A   1      42.826  29.176  34.011  1.00  0.00     0.037 A 
BRANCH  48  62
ATOM     62  C   UNL A   1      39.534  33.753  36.536  1.00  0.00     0.064 A 
ATOM     63  C   UNL A   1      38.748  33.336  37.621  1.00  0.00     0.173 A 
ATOM     64  C   UNL A   1      40.157  35.007  36.621  1.00  0.00     0.173 A 
ATOM     65  F   UNL A   1      38.120  32.150  37.583  1.00  0.00    -0.203 F 
ATOM     66  C   UNL A   1      38.579  34.148  38.739  1.00  0.00     0.198 A 
ATOM     67  C   UNL A   1      40.013  35.803  37.754  1.00  0.00     0.198 A 
ATOM     68  F   UNL A   1      40.923  35.452  35.613  1.00  0.00    -0.203 F 
ATOM     69  F   UNL A   1      37.792  33.744  39.745  1.00  0.00    -0.200 F 
ATOM     70  C   UNL A   1      39.221  35.375  38.809  1.00  0.00     0.200 A 
ATOM     71  F   UNL A   1      40.645  36.982  37.827  1.00  0.00    -0.200 F 
ATOM     72  F   UNL A   1      39.073  36.148  39.894  1.00  0.00    -0.200 F 
ENDBRANCH  48  62
BRANCH  49  73
ATOM     73  C   UNL A   1      40.707  27.972  28.462  1.00  0.00     0.064 A 
ATOM     74  C   UNL A   1      40.071  26.725  28.400  1.00  0.00     0.173 A 
ATOM     75  C   UNL A   1      41.476  28.366  27.357  1.00  0.00     0.173 A 
ATOM     76  F   UNL A   1      39.340  26.294  29.439  1.00  0.00    -0.203 F 
ATOM     77  C   UNL A   1      40.206  25.900  27.284  1.00  0.00     0.198 A 
ATOM     78  C   UNL A   1      41.587  27.555  26.230  1.00  0.00     0.198 A 
ATOM     79  F   UNL A   1      42.102  29.552  27.362  1.00  0.00    -0.203 F 
ATOM     80  F   UNL A   1      39.616  24.698  27.267  1.00  0.00    -0.200 F 
ATOM     81  C   UNL A   1      40.957  26.320  26.197  1.00  0.00     0.200 A 
ATOM     82  F   UNL A   1      42.299  27.972  25.174  1.00  0.00    -0.200 F 
ATOM     83  F   UNL A   1      41.075  25.533  25.118  1.00  0.00    -0.200 F 
ENDBRANCH  49  73
BRANCH  61  84
ATOM     84  C   UNL A   1      43.975  28.424  34.619  1.00  0.00     0.064 A 
ATOM     85  C   UNL A   1      45.284  28.921  34.569  1.00  0.00     0.173 A 
ATOM     86  C   UNL A   1      43.747  27.239  35.336  1.00  0.00     0.173 A 
ATOM     87  F   UNL A   1      45.555  30.044  33.887  1.00  0.00    -0.203 F 
ATOM     88  C   UNL A   1      46.327  28.254  35.206  1.00  0.00     0.198 A 
ATOM     89  C   UNL A   1      44.787  26.592  35.998  1.00  0.00     0.198 A 
ATOM     90  F   UNL A   1      42.510  26.727  35.422  1.00  0.00    -0.203 F 
ATOM     91  F   UNL A   1      47.577  28.729  35.117  1.00  0.00    -0.200 F 
ATOM     92  C   UNL A   1      46.076  27.098  35.929  1.00  0.00     0.200 A 
ATOM     93  F   UNL A   1      44.537  25.486  36.713  1.00  0.00    -0.200 F 
ATOM     94  F   UNL A   1      47.077  26.469  36.560  1.00  0.00    -0.200 F 
ENDBRANCH  61  84
ENDBRANCH  35  36
ENDBRANCH  27  30
ENDBRANCH  25  26
ENDBRANCH  24  25
ENDBRANCH  23  24
ENDBRANCH   1  23
TORSDOF 17
ENDMDL
MODEL 2
REMARK VINA RESULT:     -11.4      0.455      7.370
REMARK SMILES CC[C@H](Oc1c(C)cc(Br)cc1N)C(=O)NCCCCCCNC(=O)c1ccc(-c2c3nc(c(-c4c(F)c(F)c(F)c(F)c4F)c4ccc([nH]4)c(-c4c(F)c(F)c(F)c(F)c4F)c4nc(c(-c5c(F)c(F)c(F)c(F)c5F)c5ccc2[nH]5)C=C4)C=C3)cc1
REMARK SMILES IDX 19 1 18 2 17 3 16 4 14 5 15 6 3 8 2 9 1 10 4 11 5 12 6 13
REMARK SMILES IDX 12 14 7 15 8 16 11 17 9 18 10 19 13 20 20 23 21 24 22 25
REMARK SMILES IDX 23 26 24 27 25 29 26 30 27 31 88 32 28 33 87 34 29 35 30 36
REMARK SMILES IDX 31 37 81 38 32 39 86 40 80 41 82 42 33 43 85 44 79 45 78 46
REMARK SMILES IDX 34 48 66 49 46 50 65 51 47 52 50 53 64 54 83 55 48 56 49 57
REMARK SMILES IDX 63 59 84 60 51 61 35 62 36 63 44 64 37 65 38 66 42 67 45 68
REMARK SMILES IDX 39 69 40 70 43 71 41 72 67 73 68 74 76 75 69 76 70 77 74 78
REMARK SMILES IDX 77 79 71 80 72 81 75 82 73 83 52 84 53 85 61 86 54 87 55 88
REMARK SMILES IDX 59 89 62 90 56 91 57 92 60 93 58 94
REMARK H PARENT 16 7 13 21 13 22 23 28 82 47 50 58
REMARK Flexibility Score: inf
ROOT
ATOM      1  C   UNL A   1      32.409  29.864  27.029  1.00  0.00     0.002 C 
ENDROOT
BRANCH   1   2
ATOM      2  C   UNL A   1      33.292  28.822  26.341  1.00  0.00     0.021 C 
BRANCH   2   3
ATOM      3  C   UNL A   1      33.050  27.389  26.792  1.00  0.00     0.116 C 
BRANCH   3   4
ATOM      4  N   UNL A   1      33.334  26.420  25.752  1.00  0.00    -0.353 N 
ATOM      5  C   UNL A   1      32.442  25.716  24.988  1.00  0.00     0.261 C 
ATOM      6  O   UNL A   1      32.890  24.967  24.115  1.00  0.00    -0.271 OA
ATOM      7  H   UNL A   1      34.286  26.247  25.574  1.00  0.00     0.163 HD
BRANCH   5   8
ATOM      8  C   UNL A   1      30.922  25.904  25.188  1.00  0.00     0.261 C 
BRANCH   8   9
ATOM      9  C   UNL A   1      30.412  24.733  26.071  1.00  0.00     0.052 C 
ATOM     10  C   UNL A   1      31.380  23.744  26.698  1.00  0.00     0.008 C 
ENDBRANCH   8   9
BRANCH   8  11
ATOM     11  O   UNL A   1      30.429  26.149  23.870  1.00  0.00    -0.478 OA
BRANCH  11  12
ATOM     12  C   UNL A   1      29.940  27.358  23.466  1.00  0.00     0.146 A 
ATOM     13  C   UNL A   1      30.685  28.472  23.059  1.00  0.00    -0.006 A 
ATOM     14  C   UNL A   1      28.522  27.421  23.472  1.00  0.00     0.076 A 
ATOM     15  C   UNL A   1      32.149  28.436  22.738  1.00  0.00     0.048 C 
ATOM     16  C   UNL A   1      30.023  29.708  22.949  1.00  0.00     0.023 A 
ATOM     17  C   UNL A   1      27.888  28.658  23.361  1.00  0.00     0.045 A 
ATOM     18  C   UNL A   1      28.644  29.800  23.136  1.00  0.00     0.020 A 
ATOM     19  Br  UNL A   1      27.797  31.488  23.070  1.00  0.00    -0.051 Br
BRANCH  14  20
ATOM     20  N   UNL A   1      27.756  26.282  23.757  1.00  0.00    -0.396 N 
ATOM     21  H   UNL A   1      27.798  25.499  23.162  1.00  0.00     0.156 HD
ATOM     22  H   UNL A   1      27.176  26.265  24.553  1.00  0.00     0.156 HD
ENDBRANCH  14  20
ENDBRANCH  11  12
ENDBRANCH   8  11
ENDBRANCH   5   8
ENDBRANCH   3   4
ENDBRANCH   2   3
ENDBRANCH   1   2
BRANCH   1  23
ATOM     23  C   UNL A   1      31.646  30.804  26.090  1.00  0.00     0.002 C 
BRANCH  23  24
ATOM     24  C   UNL A   1      31.406  32.216  26.628  1.00  0.00     0.021 C 
BRANCH  24  25
ATOM     25  C   UNL A   1      32.599  32.840  27.341  1.00  0.00     0.116 C 
BRANCH  25  26
ATOM     26  N   UNL A   1      32.388  34.245  27.650  1.00  0.00    -0.352 N 
ATOM     27  C   UNL A   1      33.000  35.020  28.602  1.00  0.00     0.251 C 
ATOM     28  H   UNL A   1      31.713  34.704  27.100  1.00  0.00     0.163 HD
ATOM     29  O   UNL A   1      32.593  36.151  28.845  1.00  0.00    -0.269 OA
BRANCH  27  30
ATOM     30  C   UNL A   1      34.143  34.468  29.356  1.00  0.00     0.039 A 
ATOM     31  C   UNL A   1      33.900  33.815  30.565  1.00  0.00     0.014 A 
ATOM     32  C   UNL A   1      35.445  34.578  28.857  1.00  0.00     0.014 A 
ATOM     33  C   UNL A   1      34.961  33.222  31.251  1.00  0.00     0.010 A 
ATOM     34  C   UNL A   1      36.487  33.921  29.500  1.00  0.00     0.010 A 
ATOM     35  C   UNL A   1      36.256  33.244  30.707  1.00  0.00    -0.014 A 
BRANCH  35  36
ATOM     36  C   UNL A   1      37.384  32.579  31.403  1.00  0.00     0.031 A 
ATOM     37  C   UNL A   1      38.110  31.444  30.737  1.00  0.00     0.074 A 
ATOM     38  C   UNL A   1      37.732  32.976  32.641  1.00  0.00     0.049 A 
ATOM     39  N   UNL A   1      39.102  30.720  31.189  1.00  0.00    -0.248 NA
ATOM     40  C   UNL A   1      37.648  31.056  29.395  1.00  0.00     0.031 C 
ATOM     41  C   UNL A   1      37.079  34.044  33.399  1.00  0.00     0.029 A 
ATOM     42  N   UNL A   1      38.723  32.532  33.480  1.00  0.00    -0.354 N 
ATOM     43  C   UNL A   1      39.382  29.799  30.189  1.00  0.00     0.074 A 
ATOM     44  C   UNL A   1      38.414  30.007  29.136  1.00  0.00     0.031 C 
ATOM     45  C   UNL A   1      37.709  34.198  34.574  1.00  0.00     0.029 A 
ATOM     46  C   UNL A   1      38.783  33.214  34.671  1.00  0.00     0.049 A 
ATOM     47  H   UNL A   1      39.333  31.793  33.251  1.00  0.00     0.167 HD
ATOM     48  C   UNL A   1      40.379  28.886  30.141  1.00  0.00     0.037 A 
ATOM     49  C   UNL A   1      39.614  33.063  35.721  1.00  0.00     0.037 A 
ATOM     50  C   UNL A   1      41.349  28.695  31.186  1.00  0.00     0.049 A 
ATOM     51  C   UNL A   1      40.687  32.011  35.659  1.00  0.00     0.074 A 
ATOM     52  C   UNL A   1      42.418  27.818  31.216  1.00  0.00     0.029 A 
ATOM     53  N   UNL A   1      41.365  29.392  32.384  1.00  0.00    -0.354 N 
ATOM     54  N   UNL A   1      40.978  31.181  34.685  1.00  0.00    -0.248 NA
ATOM     55  C   UNL A   1      41.551  31.872  36.840  1.00  0.00     0.031 C 
ATOM     56  C   UNL A   1      43.052  27.948  32.454  1.00  0.00     0.029 A 
ATOM     57  C   UNL A   1      42.413  28.946  33.173  1.00  0.00     0.049 A 
ATOM     58  H   UNL A   1      40.727  30.098  32.638  1.00  0.00     0.167 HD
ATOM     59  C   UNL A   1      42.070  30.444  35.121  1.00  0.00     0.074 A 
ATOM     60  C   UNL A   1      42.401  30.934  36.445  1.00  0.00     0.031 C 
ATOM     61  C   UNL A   1      42.735  29.450  34.485  1.00  0.00     0.037 A 
BRANCH  48  62
ATOM     62  C   UNL A   1      40.485  28.031  28.911  1.00  0.00     0.064 A 
ATOM     63  C   UNL A   1      39.787  26.819  28.801  1.00  0.00     0.173 A 
ATOM     64  C   UNL A   1      41.237  28.458  27.806  1.00  0.00     0.173 A 
ATOM     65  F   UNL A   1      39.064  26.360  29.834  1.00  0.00    -0.203 F 
ATOM     66  C   UNL A   1      39.853  26.056  27.637  1.00  0.00     0.198 A 
ATOM     67  C   UNL A   1      41.275  27.709  26.632  1.00  0.00     0.198 A 
ATOM     68  F   UNL A   1      41.920  29.611  27.857  1.00  0.00    -0.203 F 
ATOM     69  F   UNL A   1      39.209  24.882  27.571  1.00  0.00    -0.200 F 
ATOM     70  C   UNL A   1      40.586  26.507  26.551  1.00  0.00     0.200 A 
ATOM     71  F   UNL A   1      41.972  28.153  25.578  1.00  0.00    -0.200 F 
ATOM     72  F   UNL A   1      40.634  25.782  25.426  1.00  0.00    -0.200 F 
ENDBRANCH  48  62
BRANCH  49  73
ATOM     73  C   UNL A   1      39.484  33.959  36.900  1.00  0.00     0.064 A 
ATOM     74  C   UNL A   1      38.744  33.563  38.023  1.00  0.00     0.173 A 
ATOM     75  C   UNL A   1      40.111  35.213  36.943  1.00  0.00     0.173 A 
ATOM     76  F   UNL A   1      38.110  32.382  38.024  1.00  0.00    -0.203 F 
ATOM     77  C   UNL A   1      38.629  34.391  39.139  1.00  0.00     0.198 A 
ATOM     78  C   UNL A   1      40.019  36.027  38.069  1.00  0.00     0.198 A 
ATOM     79  F   UNL A   1      40.834  35.638  35.897  1.00  0.00    -0.203 F 
ATOM     80  F   UNL A   1      37.886  34.003  40.185  1.00  0.00    -0.200 F 
ATOM     81  C   UNL A   1      39.273  35.618  39.164  1.00  0.00     0.200 A 
ATOM     82  F   UNL A   1      40.658  37.205  38.096  1.00  0.00    -0.200 F 
ATOM     83  F   UNL A   1      39.173  36.408  40.243  1.00  0.00    -0.200 F 
ENDBRANCH  49  73
BRANCH  61  84
ATOM     84  C   UNL A   1      43.906  28.829  35.191  1.00  0.00     0.064 A 
ATOM     85  C   UNL A   1      43.748  27.732  36.048  1.00  0.00     0.173 A 
ATOM     86  C   UNL A   1      45.210  29.282  34.935  1.00  0.00     0.173 A 
ATOM     87  F   UNL A   1      42.521  27.270  36.334  1.00  0.00    -0.203 F 
ATOM     88  C   UNL A   1      44.850  27.117  36.633  1.00  0.00     0.198 A 
ATOM     89  C   UNL A   1      46.313  28.644  35.496  1.00  0.00     0.198 A 
ATOM     90  F   UNL A   1      45.417  30.323  34.114  1.00  0.00    -0.203 F 
ATOM     91  F   UNL A   1      44.673  26.089  37.477  1.00  0.00    -0.200 F 
ATOM     92  C   UNL A   1      46.132  27.565  36.348  1.00  0.00     0.200 A 
ATOM     93  F   UNL A   1      47.551  29.066  35.203  1.00  0.00    -0.200 F 
ATOM     94  F   UNL A   1      47.194  26.956  36.894  1.00  0.00    -0.200 F 
ENDBRANCH  61  84
ENDBRANCH  35  36
ENDBRANCH  27  30
ENDBRANCH  25  26
ENDBRANCH  24  25
ENDBRANCH  23  24
ENDBRANCH   1  23
TORSDOF 17
ENDMDL
MODEL 3
REMARK VINA RESULT:     -11.4      0.304      7.452
REMARK SMILES CC[C@H](Oc1c(C)cc(Br)cc1N)C(=O)NCCCCCCNC(=O)c1ccc(-c2c3nc(c(-c4c(F)c(F)c(F)c(F)c4F)c4ccc([nH]4)c(-c4c(F)c(F)c(F)c(F)c4F)c4nc(c(-c5c(F)c(F)c(F)c(F)c5F)c5ccc2[nH]5)C=C4)C=C3)cc1
REMARK SMILES IDX 19 1 18 2 17 3 16 4 14 5 15 6 3 8 2 9 1 10 4 11 5 12 6 13
REMARK SMILES IDX 12 14 7 15 8 16 11 17 9 18 10 19 13 20 20 23 21 24 22 25
REMARK SMILES IDX 23 26 24 27 25 29 26 30 27 31 88 32 28 33 87 34 29 35 30 36
REMARK SMILES IDX 31 37 81 38 32 39 86 40 80 41 82 42 33 43 85 44 79 45 78 46
REMARK SMILES IDX 34 48 66 49 46 50 65 51 47 52 50 53 64 54 83 55 48 56 49 57
REMARK SMILES IDX 63 59 84 60 51 61 35 62 36 63 44 64 37 65 38 66 42 67 45 68
REMARK SMILES IDX 39 69 40 70 43 71 41 72 67 73 68 74 76 75 69 76 70 77 74 78
REMARK SMILES IDX 77 79 71 80 72 81 75 82 73 83 52 84 53 85 61 86 54 87 55 88
REMARK SMILES IDX 59 89 62 90 56 91 57 92 60 93 58 94
REMARK H PARENT 16 7 13 21 13 22 23 28 82 47 50 58
REMARK Flexibility Score: inf
ROOT
ATOM      1  C   UNL A   1      32.362  29.796  26.818  1.00  0.00     0.002 C 
ENDROOT
BRANCH   1   2
ATOM      2  C   UNL A   1      33.331  28.944  25.995  1.00  0.00     0.021 C 
BRANCH   2   3
ATOM      3  C   UNL A   1      33.502  27.518  26.496  1.00  0.00     0.116 C 
BRANCH   3   4
ATOM      4  N   UNL A   1      33.651  26.560  25.419  1.00  0.00    -0.353 N 
ATOM      5  C   UNL A   1      32.664  25.893  24.741  1.00  0.00     0.261 C 
ATOM      6  O   UNL A   1      32.999  25.148  23.816  1.00  0.00    -0.271 OA
ATOM      7  H   UNL A   1      34.573  26.365  25.140  1.00  0.00     0.163 HD
BRANCH   5   8
ATOM      8  C   UNL A   1      31.179  26.117  25.101  1.00  0.00     0.261 C 
BRANCH   8   9
ATOM      9  C   UNL A   1      30.764  25.011  26.110  1.00  0.00     0.052 C 
ATOM     10  C   UNL A   1      30.757  23.546  25.708  1.00  0.00     0.008 C 
ENDBRANCH   8   9
BRANCH   8  11
ATOM     11  O   UNL A   1      30.540  26.287  23.835  1.00  0.00    -0.478 OA
BRANCH  11  12
ATOM     12  C   UNL A   1      29.978  27.464  23.431  1.00  0.00     0.146 A 
ATOM     13  C   UNL A   1      30.651  28.594  22.950  1.00  0.00    -0.006 A 
ATOM     14  C   UNL A   1      28.562  27.471  23.524  1.00  0.00     0.076 A 
ATOM     15  C   UNL A   1      32.093  28.606  22.539  1.00  0.00     0.048 C 
ATOM     16  C   UNL A   1      29.933  29.800  22.851  1.00  0.00     0.023 A 
ATOM     17  C   UNL A   1      27.872  28.678  23.421  1.00  0.00     0.045 A 
ATOM     18  C   UNL A   1      28.565  29.842  23.120  1.00  0.00     0.020 A 
ATOM     19  Br  UNL A   1      27.648  31.494  23.065  1.00  0.00    -0.051 Br
BRANCH  14  20
ATOM     20  N   UNL A   1      27.862  26.311  23.886  1.00  0.00    -0.396 N 
ATOM     21  H   UNL A   1      27.575  26.180  24.819  1.00  0.00     0.156 HD
ATOM     22  H   UNL A   1      27.660  25.626  23.208  1.00  0.00     0.156 HD
ENDBRANCH  14  20
ENDBRANCH  11  12
ENDBRANCH   8  11
ENDBRANCH   5   8
ENDBRANCH   3   4
ENDBRANCH   2   3
ENDBRANCH   1   2
BRANCH   1  23
ATOM     23  C   UNL A   1      31.558  30.830  26.024  1.00  0.00     0.002 C 
BRANCH  23  24
ATOM     24  C   UNL A   1      31.327  32.166  26.732  1.00  0.00     0.021 C 
BRANCH  24  25
ATOM     25  C   UNL A   1      32.586  32.827  27.278  1.00  0.00     0.116 C 
BRANCH  25  26
ATOM     26  N   UNL A   1      32.374  34.223  27.627  1.00  0.00    -0.352 N 
ATOM     27  C   UNL A   1      32.989  34.971  28.597  1.00  0.00     0.251 C 
ATOM     28  H   UNL A   1      31.695  34.695  27.094  1.00  0.00     0.163 HD
ATOM     29  O   UNL A   1      32.581  36.094  28.874  1.00  0.00    -0.269 OA
BRANCH  27  30
ATOM     30  C   UNL A   1      34.137  34.402  29.330  1.00  0.00     0.039 A 
ATOM     31  C   UNL A   1      33.904  33.735  30.534  1.00  0.00     0.014 A 
ATOM     32  C   UNL A   1      35.433  34.508  28.816  1.00  0.00     0.014 A 
ATOM     33  C   UNL A   1      34.969  33.125  31.198  1.00  0.00     0.010 A 
ATOM     34  C   UNL A   1      36.479  33.835  29.437  1.00  0.00     0.010 A 
ATOM     35  C   UNL A   1      36.257  33.145  30.638  1.00  0.00    -0.014 A 
BRANCH  35  36
ATOM     36  C   UNL A   1      37.389  32.462  31.311  1.00  0.00     0.031 A 
ATOM     37  C   UNL A   1      38.112  31.344  30.613  1.00  0.00     0.074 A 
ATOM     38  C   UNL A   1      37.743  32.827  32.558  1.00  0.00     0.049 A 
ATOM     39  N   UNL A   1      39.106  30.610  31.041  1.00  0.00    -0.248 NA
ATOM     40  C   UNL A   1      37.643  30.991  29.263  1.00  0.00     0.031 C 
ATOM     41  C   UNL A   1      37.093  33.875  33.346  1.00  0.00     0.029 A 
ATOM     42  N   UNL A   1      38.738  32.362  33.380  1.00  0.00    -0.354 N 
ATOM     43  C   UNL A   1      39.381  29.715  30.016  1.00  0.00     0.074 A 
ATOM     44  C   UNL A   1      38.408  29.949  28.973  1.00  0.00     0.031 C 
ATOM     45  C   UNL A   1      37.729  33.999  34.521  1.00  0.00     0.029 A 
ATOM     46  C   UNL A   1      38.804  33.012  34.588  1.00  0.00     0.049 A 
ATOM     47  H   UNL A   1      39.347  31.629  33.129  1.00  0.00     0.167 HD
ATOM     48  C   UNL A   1      40.378  28.803  29.940  1.00  0.00     0.037 A 
ATOM     49  C   UNL A   1      39.640  32.835  35.629  1.00  0.00     0.037 A 
ATOM     50  C   UNL A   1      41.353  28.586  30.975  1.00  0.00     0.049 A 
ATOM     51  C   UNL A   1      40.713  31.785  35.535  1.00  0.00     0.074 A 
ATOM     52  C   UNL A   1      42.423  27.709  30.977  1.00  0.00     0.029 A 
ATOM     53  N   UNL A   1      41.376  29.251  32.191  1.00  0.00    -0.354 N 
ATOM     54  N   UNL A   1      40.999  30.981  34.539  1.00  0.00    -0.248 NA
ATOM     55  C   UNL A   1      41.582  31.616  36.708  1.00  0.00     0.031 C 
ATOM     56  C   UNL A   1      43.062  27.807  32.215  1.00  0.00     0.029 A 
ATOM     57  C   UNL A   1      42.427  28.785  32.963  1.00  0.00     0.049 A 
ATOM     58  H   UNL A   1      40.739  29.951  32.466  1.00  0.00     0.167 HD
ATOM     59  C   UNL A   1      42.093  30.233  34.951  1.00  0.00     0.074 A 
ATOM     60  C   UNL A   1      42.431  30.688  36.285  1.00  0.00     0.031 C 
ATOM     61  C   UNL A   1      42.755  29.256  34.286  1.00  0.00     0.037 A 
BRANCH  48  62
ATOM     62  C   UNL A   1      40.479  27.981  28.687  1.00  0.00     0.064 A 
ATOM     63  C   UNL A   1      41.254  28.403  27.596  1.00  0.00     0.173 A 
ATOM     64  C   UNL A   1      39.850  26.729  28.601  1.00  0.00     0.173 A 
ATOM     65  F   UNL A   1      41.864  29.597  27.624  1.00  0.00    -0.203 F 
ATOM     66  C   UNL A   1      41.380  27.611  26.458  1.00  0.00     0.198 A 
ATOM     67  C   UNL A   1      40.006  25.926  27.474  1.00  0.00     0.198 A 
ATOM     68  F   UNL A   1      39.101  26.276  29.617  1.00  0.00    -0.203 F 
ATOM     69  F   UNL A   1      42.094  28.054  25.413  1.00  0.00    -0.200 F 
ATOM     70  C   UNL A   1      40.767  26.370  26.403  1.00  0.00     0.200 A 
ATOM     71  F   UNL A   1      39.424  24.720  27.428  1.00  0.00    -0.200 F 
ATOM     72  F   UNL A   1      40.905  25.600  25.314  1.00  0.00    -0.200 F 
ENDBRANCH  48  62
BRANCH  49  73
ATOM     73  C   UNL A   1      39.515  33.700  36.832  1.00  0.00     0.064 A 
ATOM     74  C   UNL A   1      40.136  34.956  36.879  1.00  0.00     0.173 A 
ATOM     75  C   UNL A   1      38.758  33.306  37.945  1.00  0.00     0.173 A 
ATOM     76  F   UNL A   1      40.887  35.370  35.848  1.00  0.00    -0.203 F 
ATOM     77  C   UNL A   1      40.014  35.780  37.997  1.00  0.00     0.198 A 
ATOM     78  C   UNL A   1      38.612  34.142  39.050  1.00  0.00     0.198 A 
ATOM     79  F   UNL A   1      38.140  32.116  37.950  1.00  0.00    -0.203 F 
ATOM     80  F   UNL A   1      40.647  36.960  38.030  1.00  0.00    -0.200 F 
ATOM     81  C   UNL A   1      39.245  35.376  39.078  1.00  0.00     0.200 A 
ATOM     82  F   UNL A   1      37.855  33.755  40.085  1.00  0.00    -0.200 F 
ATOM     83  F   UNL A   1      39.117  36.174  40.147  1.00  0.00    -0.200 F 
ENDBRANCH  49  73
BRANCH  61  84
ATOM     84  C   UNL A   1      43.930  28.617  34.970  1.00  0.00     0.064 A 
ATOM     85  C   UNL A   1      45.217  29.165  34.881  1.00  0.00     0.173 A 
ATOM     86  C   UNL A   1      43.748  27.496  35.794  1.00  0.00     0.173 A 
ATOM     87  F   UNL A   1      45.445  30.229  34.096  1.00  0.00    -0.203 F 
ATOM     88  C   UNL A   1      46.281  28.609  35.584  1.00  0.00     0.198 A 
ATOM     89  C   UNL A   1      44.808  26.962  36.521  1.00  0.00     0.198 A 
ATOM     90  F   UNL A   1      42.533  26.939  35.922  1.00  0.00    -0.203 F 
ATOM     91  F   UNL A   1      47.511  29.129  35.458  1.00  0.00    -0.200 F 
ATOM     92  C   UNL A   1      46.074  27.516  36.412  1.00  0.00     0.200 A 
ATOM     93  F   UNL A   1      44.600  25.918  37.336  1.00  0.00    -0.200 F 
ATOM     94  F   UNL A   1      47.095  26.995  37.106  1.00  0.00    -0.200 F 
ENDBRANCH  61  84
ENDBRANCH  35  36
ENDBRANCH  27  30
ENDBRANCH  25  26
ENDBRANCH  24  25
ENDBRANCH  23  24
ENDBRANCH   1  23
TORSDOF 17
ENDMDL
