MODEL 1
REMARK VINA RESULT:     -11.7      0.000      0.000
REMARK SMILES COCc1cc(C)nc(N/N=C\c2ccc(-c3cccc(C(=O)NCCCCCCNC(=O)c4ccc(-c5c6nc(c(-c7c(F)c(F)c(F)c(F)c7F)c7ccc([nH]7)c(-c7c(F)c(F)c(F)c(F)c7F)c7nc(c(-c8c(F)c(F)c(F)c(F)c8F)c8ccc5[nH]8)C=C7)C=C6)cc4)c3)o2)c1C#N
REMARK SMILES IDX 25 1 24 2 22 3 23 4 21 6 17 7 18 8 97 9 19 10 20 11 16 12
REMARK SMILES IDX 13 13 14 14 98 15 15 16 12 17 11 18 10 19 9 21 4 22 5 23
REMARK SMILES IDX 99 24 6 25 7 26 8 27 3 28 2 29 1 30 100 31 101 32 26 33
REMARK SMILES IDX 27 34 28 35 29 36 30 37 31 38 32 39 33 41 34 42 35 43 96 44
REMARK SMILES IDX 36 45 95 46 37 47 38 48 39 49 89 50 40 51 94 52 88 53 90 54
REMARK SMILES IDX 41 55 93 56 87 57 86 58 42 60 74 61 54 62 73 63 55 64 58 65
REMARK SMILES IDX 72 66 91 67 56 68 57 69 71 71 92 72 59 73 43 74 44 75 52 76
REMARK SMILES IDX 45 77 46 78 50 79 53 80 47 81 48 82 51 83 49 84 75 85 76 86
REMARK SMILES IDX 84 87 77 88 78 89 82 90 85 91 79 92 80 93 83 94 81 95 60 96
REMARK SMILES IDX 61 97 69 98 62 99 63 100 67 101 70 102 64 103 65 104 68 105
REMARK SMILES IDX 66 106
REMARK H PARENT 24 5 10 20 31 40 90 59 58 70
REMARK Flexibility Score: inf
ROOT
ATOM      1  C   UNL A   1      32.013  26.536  25.150  1.00  0.00     0.116 C 
ENDROOT
BRANCH   1   2
ATOM      2  N   UNL A   1      31.646  25.607  26.200  1.00  0.00    -0.352 N 
ATOM      3  C   UNL A   1      32.075  24.340  26.513  1.00  0.00     0.251 C 
ATOM      4  O   UNL A   1      31.638  23.838  27.548  1.00  0.00    -0.269 OA
ATOM      5  H   UNL A   1      30.953  25.953  26.809  1.00  0.00     0.163 HD
BRANCH   3   6
ATOM      6  C   UNL A   1      33.061  23.571  25.693  1.00  0.00     0.040 A 
ATOM      7  C   UNL A   1      35.346  23.016  25.012  1.00  0.00     0.018 A 
ATOM      8  C   UNL A   1      34.854  21.951  24.251  1.00  0.00     0.012 A 
ATOM      9  C   UNL A   1      34.424  23.858  25.639  1.00  0.00     0.025 A 
ATOM     10  C   UNL A   1      33.481  21.685  24.216  1.00  0.00     0.002 A 
ATOM     11  C   UNL A   1      32.594  22.473  24.959  1.00  0.00     0.014 A 
BRANCH   7  12
ATOM     12  C   UNL A   1      36.755  23.126  25.406  1.00  0.00     0.134 A 
ATOM     13  C   UNL A   1      38.665  22.207  25.985  1.00  0.00     0.147 A 
ATOM     14  C   UNL A   1      38.680  23.478  26.519  1.00  0.00     0.053 A 
ATOM     15  O   UNL A   1      37.537  22.030  25.227  1.00  0.00    -0.455 OA
ATOM     16  C   UNL A   1      37.453  24.075  26.140  1.00  0.00     0.051 A 
BRANCH  13  17
ATOM     17  C   UNL A   1      39.528  21.076  26.102  1.00  0.00     0.180 C 
ATOM     18  N   UNL A   1      40.806  20.931  25.913  1.00  0.00    -0.178 NA
BRANCH  18  19
ATOM     19  N   UNL A   1      41.712  21.892  25.576  1.00  0.00    -0.260 N 
ATOM     20  H   UNL A   1      41.583  22.303  24.691  1.00  0.00     0.192 HD
BRANCH  19  21
ATOM     21  C   UNL A   1      42.822  22.388  26.324  1.00  0.00     0.164 A 
ATOM     22  C   UNL A   1      44.938  23.592  26.345  1.00  0.00     0.001 A 
ATOM     23  C   UNL A   1      44.643  24.000  27.634  1.00  0.00     0.031 A 
ATOM     24  C   UNL A   1      43.979  22.831  25.650  1.00  0.00     0.102 A 
ATOM     25  C   UNL A   1      43.674  23.295  28.299  1.00  0.00     0.040 A 
ATOM     26  C   UNL A   1      43.758  23.282  29.793  1.00  0.00     0.067 C 
ATOM     27  N   UNL A   1      42.763  22.518  27.668  1.00  0.00    -0.233 NA
BRANCH  22  28
ATOM     28  C   UNL A   1      46.359  23.820  25.892  1.00  0.00     0.196 C 
BRANCH  28  29
ATOM     29  O   UNL A   1      46.403  24.682  24.742  1.00  0.00    -0.380 OA
ATOM     30  C   UNL A   1      46.319  26.082  25.010  1.00  0.00     0.195 C 
ENDBRANCH  28  29
ENDBRANCH  22  28
BRANCH  24  31
ATOM     31  C   UNL A   1      44.190  22.486  24.276  1.00  0.00     0.103 C 
ATOM     32  N   UNL A   1      44.329  22.191  23.164  1.00  0.00    -0.192 NA
ENDBRANCH  24  31
ENDBRANCH  19  21
ENDBRANCH  18  19
ENDBRANCH  13  17
ENDBRANCH   7  12
ENDBRANCH   3   6
ENDBRANCH   1   2
BRANCH   1  33
ATOM     33  C   UNL A   1      32.717  27.773  25.722  1.00  0.00     0.021 C 
BRANCH  33  34
ATOM     34  C   UNL A   1      31.771  28.762  26.401  1.00  0.00     0.002 C 
BRANCH  34  35
ATOM     35  C   UNL A   1      31.552  30.061  25.622  1.00  0.00     0.002 C 
BRANCH  35  36
ATOM     36  C   UNL A   1      31.445  31.316  26.494  1.00  0.00     0.021 C 
BRANCH  36  37
ATOM     37  C   UNL A   1      32.790  31.848  26.979  1.00  0.00     0.116 C 
BRANCH  37  38
ATOM     38  N   UNL A   1      32.698  33.252  27.339  1.00  0.00    -0.352 N 
ATOM     39  C   UNL A   1      33.334  33.946  28.333  1.00  0.00     0.251 C 
ATOM     40  H   UNL A   1      32.086  33.786  26.783  1.00  0.00     0.163 HD
ATOM     41  O   UNL A   1      32.898  35.036  28.690  1.00  0.00    -0.269 OA
BRANCH  39  42
ATOM     42  C   UNL A   1      34.545  33.392  28.968  1.00  0.00     0.039 A 
ATOM     43  C   UNL A   1      34.402  32.337  29.871  1.00  0.00     0.014 A 
ATOM     44  C   UNL A   1      35.807  33.946  28.730  1.00  0.00     0.014 A 
ATOM     45  C   UNL A   1      35.526  31.825  30.514  1.00  0.00     0.010 A 
ATOM     46  C   UNL A   1      36.939  33.374  29.301  1.00  0.00     0.010 A 
ATOM     47  C   UNL A   1      36.808  32.323  30.219  1.00  0.00    -0.014 A 
BRANCH  47  48
ATOM     48  C   UNL A   1      38.002  31.741  30.877  1.00  0.00     0.031 A 
ATOM     49  C   UNL A   1      38.355  32.103  32.291  1.00  0.00     0.074 A 
ATOM     50  C   UNL A   1      38.779  30.890  30.180  1.00  0.00     0.049 A 
ATOM     51  N   UNL A   1      39.326  31.647  33.043  1.00  0.00    -0.248 NA
ATOM     52  C   UNL A   1      37.528  33.131  32.941  1.00  0.00     0.031 C 
ATOM     53  C   UNL A   1      38.578  30.524  28.778  1.00  0.00     0.029 A 
ATOM     54  N   UNL A   1      39.888  30.177  30.556  1.00  0.00    -0.354 N 
ATOM     55  C   UNL A   1      39.229  32.335  34.245  1.00  0.00     0.074 A 
ATOM     56  C   UNL A   1      38.150  33.288  34.099  1.00  0.00     0.031 C 
ATOM     57  C   UNL A   1      39.506  29.623  28.424  1.00  0.00     0.029 A 
ATOM     58  C   UNL A   1      40.390  29.381  29.559  1.00  0.00     0.049 A 
ATOM     59  H   UNL A   1      40.285  30.231  31.457  1.00  0.00     0.167 HD
ATOM     60  C   UNL A   1      39.958  32.169  35.376  1.00  0.00     0.037 A 
ATOM     61  C   UNL A   1      41.447  28.548  29.557  1.00  0.00     0.037 A 
ATOM     62  C   UNL A   1      41.029  31.215  35.508  1.00  0.00     0.049 A 
ATOM     63  C   UNL A   1      42.232  28.368  30.826  1.00  0.00     0.074 A 
ATOM     64  C   UNL A   1      41.789  30.917  36.626  1.00  0.00     0.029 A 
ATOM     65  N   UNL A   1      41.507  30.414  34.479  1.00  0.00    -0.354 N 
ATOM     66  N   UNL A   1      42.072  28.951  31.990  1.00  0.00    -0.248 NA
ATOM     67  C   UNL A   1      43.333  27.398  30.787  1.00  0.00     0.031 C 
ATOM     68  C   UNL A   1      42.773  29.995  36.254  1.00  0.00     0.029 A 
ATOM     69  C   UNL A   1      42.575  29.650  34.927  1.00  0.00     0.049 A 
ATOM     70  H   UNL A   1      41.140  30.391  33.565  1.00  0.00     0.167 HD
ATOM     71  C   UNL A   1      43.035  28.405  32.827  1.00  0.00     0.074 A 
ATOM     72  C   UNL A   1      43.758  27.425  32.042  1.00  0.00     0.031 C 
ATOM     73  C   UNL A   1      43.297  28.688  34.129  1.00  0.00     0.037 A 
BRANCH  60  74
ATOM     74  C   UNL A   1      39.631  33.055  36.548  1.00  0.00     0.064 A 
ATOM     75  C   UNL A   1      38.668  32.699  37.506  1.00  0.00     0.173 A 
ATOM     76  C   UNL A   1      40.297  34.279  36.720  1.00  0.00     0.173 A 
ATOM     77  F   UNL A   1      37.992  31.545  37.389  1.00  0.00    -0.203 F 
ATOM     78  C   UNL A   1      38.349  33.554  38.558  1.00  0.00     0.198 A 
ATOM     79  C   UNL A   1      40.006  35.112  37.797  1.00  0.00     0.198 A 
ATOM     80  F   UNL A   1      41.233  34.670  35.842  1.00  0.00    -0.203 F 
ATOM     81  F   UNL A   1      37.373  33.224  39.416  1.00  0.00    -0.200 F 
ATOM     82  C   UNL A   1      39.022  34.757  38.707  1.00  0.00     0.200 A 
ATOM     83  F   UNL A   1      40.670  36.266  37.948  1.00  0.00    -0.200 F 
ATOM     84  F   UNL A   1      38.716  35.578  39.720  1.00  0.00    -0.200 F 
ENDBRANCH  60  74
BRANCH  61  85
ATOM     85  C   UNL A   1      41.798  27.814  28.314  1.00  0.00     0.064 A 
ATOM     86  C   UNL A   1      41.162  26.613  27.970  1.00  0.00     0.173 A 
ATOM     87  C   UNL A   1      42.758  28.320  27.426  1.00  0.00     0.173 A 
ATOM     88  F   UNL A   1      40.245  26.081  28.792  1.00  0.00    -0.203 F 
ATOM     89  C   UNL A   1      41.487  25.938  26.795  1.00  0.00     0.198 A 
ATOM     90  C   UNL A   1      43.058  27.662  26.235  1.00  0.00     0.198 A 
ATOM     91  F   UNL A   1      43.387  29.473  27.702  1.00  0.00    -0.203 F 
ATOM     92  F   UNL A   1      40.894  24.770  26.511  1.00  0.00    -0.200 F 
ATOM     93  C   UNL A   1      42.428  26.467  25.925  1.00  0.00     0.200 A 
ATOM     94  F   UNL A   1      43.949  28.191  25.387  1.00  0.00    -0.200 F 
ATOM     95  F   UNL A   1      42.728  25.826  24.788  1.00  0.00    -0.200 F 
ENDBRANCH  61  85
BRANCH  73  96
ATOM     96  C   UNL A   1      44.394  27.901  34.791  1.00  0.00     0.064 A 
ATOM     97  C   UNL A   1      45.719  28.362  34.836  1.00  0.00     0.173 A 
ATOM     98  C   UNL A   1      44.113  26.663  35.392  1.00  0.00     0.173 A 
ATOM     99  F   UNL A   1      46.046  29.532  34.268  1.00  0.00    -0.203 F 
ATOM    100  C   UNL A   1      46.727  27.591  35.409  1.00  0.00     0.198 A 
ATOM    101  C   UNL A   1      45.116  25.915  36.002  1.00  0.00     0.198 A 
ATOM    102  F   UNL A   1      42.863  26.177  35.389  1.00  0.00    -0.203 F 
ATOM    103  F   UNL A   1      47.998  28.018  35.370  1.00  0.00    -0.200 F 
ATOM    104  C   UNL A   1      46.425  26.373  35.997  1.00  0.00     0.200 A 
ATOM    105  F   UNL A   1      44.817  24.747  36.587  1.00  0.00    -0.200 F 
ATOM    106  F   UNL A   1      47.397  25.631  36.547  1.00  0.00    -0.200 F 
ENDBRANCH  73  96
ENDBRANCH  47  48
ENDBRANCH  39  42
ENDBRANCH  37  38
ENDBRANCH  36  37
ENDBRANCH  35  36
ENDBRANCH  34  35
ENDBRANCH  33  34
ENDBRANCH   1  33
TORSDOF 20
ENDMDL
MODEL 2
REMARK VINA RESULT:     -11.2      3.968      7.465
REMARK SMILES COCc1cc(C)nc(N/N=C\c2ccc(-c3cccc(C(=O)NCCCCCCNC(=O)c4ccc(-c5c6nc(c(-c7c(F)c(F)c(F)c(F)c7F)c7ccc([nH]7)c(-c7c(F)c(F)c(F)c(F)c7F)c7nc(c(-c8c(F)c(F)c(F)c(F)c8F)c8ccc5[nH]8)C=C7)C=C6)cc4)c3)o2)c1C#N
REMARK SMILES IDX 25 1 24 2 22 3 23 4 21 6 17 7 18 8 97 9 19 10 20 11 16 12
REMARK SMILES IDX 13 13 14 14 98 15 15 16 12 17 11 18 10 19 9 21 4 22 5 23
REMARK SMILES IDX 99 24 6 25 7 26 8 27 3 28 2 29 1 30 100 31 101 32 26 33
REMARK SMILES IDX 27 34 28 35 29 36 30 37 31 38 32 39 33 41 34 42 35 43 96 44
REMARK SMILES IDX 36 45 95 46 37 47 38 48 39 49 89 50 40 51 94 52 88 53 90 54
REMARK SMILES IDX 41 55 93 56 87 57 86 58 42 60 74 61 54 62 73 63 55 64 58 65
REMARK SMILES IDX 72 66 91 67 56 68 57 69 71 71 92 72 59 73 43 74 44 75 52 76
REMARK SMILES IDX 45 77 46 78 50 79 53 80 47 81 48 82 51 83 49 84 75 85 76 86
REMARK SMILES IDX 84 87 77 88 78 89 82 90 85 91 79 92 80 93 83 94 81 95 60 96
REMARK SMILES IDX 61 97 69 98 62 99 63 100 67 101 70 102 64 103 65 104 68 105
REMARK SMILES IDX 66 106
REMARK H PARENT 24 5 10 20 31 40 90 59 58 70
REMARK Flexibility Score: inf
ROOT
ATOM      1  C   UNL A   1      38.544  33.314  32.787  1.00  0.00     0.116 C 
ENDROOT
BRANCH   1   2
ATOM      2  N   UNL A   1      38.428  32.863  34.160  1.00  0.00    -0.352 N 
ATOM      3  C   UNL A   1      38.559  31.628  34.747  1.00  0.00     0.251 C 
ATOM      4  O   UNL A   1      38.501  31.581  35.976  1.00  0.00    -0.269 OA
ATOM      5  H   UNL A   1      38.212  33.583  34.795  1.00  0.00     0.163 HD
BRANCH   3   6
ATOM      6  C   UNL A   1      38.806  30.367  33.983  1.00  0.00     0.040 A 
ATOM      7  C   UNL A   1      40.183  28.433  33.380  1.00  0.00     0.018 A 
ATOM      8  C   UNL A   1      39.112  27.906  32.651  1.00  0.00     0.012 A 
ATOM      9  C   UNL A   1      40.030  29.700  33.950  1.00  0.00     0.025 A 
ATOM     10  C   UNL A   1      37.893  28.592  32.594  1.00  0.00     0.002 A 
ATOM     11  C   UNL A   1      37.733  29.799  33.283  1.00  0.00     0.014 A 
BRANCH   7  12
ATOM     12  C   UNL A   1      41.331  27.624  33.803  1.00  0.00     0.134 A 
ATOM     13  C   UNL A   1      42.391  26.441  35.321  1.00  0.00     0.147 A 
ATOM     14  C   UNL A   1      43.361  26.906  34.459  1.00  0.00     0.053 A 
ATOM     15  O   UNL A   1      41.149  26.796  34.865  1.00  0.00    -0.455 OA
ATOM     16  C   UNL A   1      42.679  27.663  33.476  1.00  0.00     0.051 A 
BRANCH  13  17
ATOM     17  C   UNL A   1      42.427  25.737  36.562  1.00  0.00     0.180 C 
ATOM     18  N   UNL A   1      43.368  25.063  37.155  1.00  0.00    -0.178 NA
BRANCH  18  19
ATOM     19  N   UNL A   1      44.652  24.882  36.737  1.00  0.00    -0.260 N 
ATOM     20  H   UNL A   1      45.083  25.673  36.341  1.00  0.00     0.192 HD
BRANCH  19  21
ATOM     21  C   UNL A   1      45.462  23.707  36.791  1.00  0.00     0.164 A 
ATOM     22  C   UNL A   1      46.603  21.917  35.599  1.00  0.00     0.001 A 
ATOM     23  C   UNL A   1      47.539  21.895  36.618  1.00  0.00     0.031 A 
ATOM     24  C   UNL A   1      45.585  22.888  35.649  1.00  0.00     0.102 A 
ATOM     25  C   UNL A   1      47.183  22.494  37.798  1.00  0.00     0.040 A 
ATOM     26  C   UNL A   1      47.845  21.982  39.038  1.00  0.00     0.067 C 
ATOM     27  N   UNL A   1      46.181  23.399  37.893  1.00  0.00    -0.233 NA
BRANCH  22  28
ATOM     28  C   UNL A   1      46.642  20.749  34.646  1.00  0.00     0.196 C 
BRANCH  28  29
ATOM     29  O   UNL A   1      47.967  20.197  34.558  1.00  0.00    -0.380 OA
ATOM     30  C   UNL A   1      48.318  19.615  33.303  1.00  0.00     0.195 C 
ENDBRANCH  28  29
ENDBRANCH  22  28
BRANCH  24  31
ATOM     31  C   UNL A   1      44.665  23.025  34.561  1.00  0.00     0.103 C 
ATOM     32  N   UNL A   1      43.895  23.144  33.703  1.00  0.00    -0.192 NA
ENDBRANCH  24  31
ENDBRANCH  19  21
ENDBRANCH  18  19
ENDBRANCH  13  17
ENDBRANCH   7  12
ENDBRANCH   3   6
ENDBRANCH   1   2
BRANCH   1  33
ATOM     33  C   UNL A   1      37.165  33.587  32.173  1.00  0.00     0.021 C 
BRANCH  33  34
ATOM     34  C   UNL A   1      36.847  32.717  30.958  1.00  0.00     0.002 C 
BRANCH  34  35
ATOM     35  C   UNL A   1      35.384  32.280  30.862  1.00  0.00     0.002 C 
BRANCH  35  36
ATOM     36  C   UNL A   1      34.537  33.098  29.882  1.00  0.00     0.021 C 
BRANCH  36  37
ATOM     37  C   UNL A   1      34.712  32.689  28.423  1.00  0.00     0.116 C 
BRANCH  37  38
ATOM     38  N   UNL A   1      34.015  31.445  28.142  1.00  0.00    -0.352 N 
ATOM     39  C   UNL A   1      34.516  30.207  27.847  1.00  0.00     0.251 C 
ATOM     40  H   UNL A   1      33.033  31.502  28.168  1.00  0.00     0.163 HD
ATOM     41  O   UNL A   1      33.792  29.363  27.328  1.00  0.00    -0.269 OA
BRANCH  39  42
ATOM     42  C   UNL A   1      35.921  29.879  28.158  1.00  0.00     0.039 A 
ATOM     43  C   UNL A   1      36.201  29.205  29.348  1.00  0.00     0.014 A 
ATOM     44  C   UNL A   1      36.964  30.288  27.321  1.00  0.00     0.014 A 
ATOM     45  C   UNL A   1      37.523  28.923  29.684  1.00  0.00     0.010 A 
ATOM     46  C   UNL A   1      38.275  29.923  27.610  1.00  0.00     0.010 A 
ATOM     47  C   UNL A   1      38.570  29.258  28.807  1.00  0.00    -0.014 A 
BRANCH  47  48
ATOM     48  C   UNL A   1      39.970  28.913  29.154  1.00  0.00     0.031 A 
ATOM     49  C   UNL A   1      40.802  29.831  30.002  1.00  0.00     0.074 A 
ATOM     50  C   UNL A   1      40.493  27.765  28.683  1.00  0.00     0.049 A 
ATOM     51  N   UNL A   1      42.021  29.663  30.451  1.00  0.00    -0.248 NA
ATOM     52  C   UNL A   1      40.201  31.122  30.373  1.00  0.00     0.031 C 
ATOM     53  C   UNL A   1      39.805  26.831  27.791  1.00  0.00     0.029 A 
ATOM     54  N   UNL A   1      41.717  27.185  28.894  1.00  0.00    -0.354 N 
ATOM     55  C   UNL A   1      42.331  30.823  31.149  1.00  0.00     0.074 A 
ATOM     56  C   UNL A   1      41.201  31.715  31.006  1.00  0.00     0.031 C 
ATOM     57  C   UNL A   1      40.601  25.776  27.563  1.00  0.00     0.029 A 
ATOM     58  C   UNL A   1      41.867  25.979  28.259  1.00  0.00     0.049 A 
ATOM     59  H   UNL A   1      42.420  27.595  29.449  1.00  0.00     0.167 HD
ATOM     60  C   UNL A   1      43.446  31.107  31.865  1.00  0.00     0.037 A 
ATOM     61  C   UNL A   1      42.910  25.130  28.237  1.00  0.00     0.037 A 
ATOM     62  C   UNL A   1      44.564  30.209  32.001  1.00  0.00     0.049 A 
ATOM     63  C   UNL A   1      44.131  25.457  29.050  1.00  0.00     0.074 A 
ATOM     64  C   UNL A   1      45.714  30.367  32.754  1.00  0.00     0.029 A 
ATOM     65  N   UNL A   1      44.680  28.986  31.351  1.00  0.00    -0.354 N 
ATOM     66  N   UNL A   1      44.378  26.513  29.787  1.00  0.00    -0.248 NA
ATOM     67  C   UNL A   1      45.212  24.464  29.043  1.00  0.00     0.031 C 
ATOM     68  C   UNL A   1      46.556  29.279  32.501  1.00  0.00     0.029 A 
ATOM     69  C   UNL A   1      45.899  28.399  31.657  1.00  0.00     0.049 A 
ATOM     70  H   UNL A   1      43.997  28.594  30.760  1.00  0.00     0.167 HD
ATOM     71  C   UNL A   1      45.629  26.304  30.350  1.00  0.00     0.074 A 
ATOM     72  C   UNL A   1      46.079  25.007  29.886  1.00  0.00     0.031 C 
ATOM     73  C   UNL A   1      46.342  27.112  31.176  1.00  0.00     0.037 A 
BRANCH  60  74
ATOM     74  C   UNL A   1      43.516  32.453  32.535  1.00  0.00     0.064 A 
ATOM     75  C   UNL A   1      43.103  32.647  33.863  1.00  0.00     0.173 A 
ATOM     76  C   UNL A   1      44.010  33.568  31.839  1.00  0.00     0.173 A 
ATOM     77  F   UNL A   1      42.612  31.621  34.576  1.00  0.00    -0.203 F 
ATOM     78  C   UNL A   1      43.134  33.910  34.450  1.00  0.00     0.198 A 
ATOM     79  C   UNL A   1      44.080  34.821  32.442  1.00  0.00     0.198 A 
ATOM     80  F   UNL A   1      44.427  33.444  30.570  1.00  0.00    -0.203 F 
ATOM     81  F   UNL A   1      42.664  34.082  35.694  1.00  0.00    -0.200 F 
ATOM     82  C   UNL A   1      43.629  34.995  33.742  1.00  0.00     0.200 A 
ATOM     83  F   UNL A   1      44.574  35.864  31.762  1.00  0.00    -0.200 F 
ATOM     84  F   UNL A   1      43.660  36.209  34.307  1.00  0.00    -0.200 F 
ENDBRANCH  60  74
BRANCH  61  85
ATOM     85  C   UNL A   1      42.823  23.883  27.431  1.00  0.00     0.064 A 
ATOM     86  C   UNL A   1      43.235  23.849  26.092  1.00  0.00     0.173 A 
ATOM     87  C   UNL A   1      42.354  22.690  27.999  1.00  0.00     0.173 A 
ATOM     88  F   UNL A   1      43.680  24.968  25.498  1.00  0.00    -0.203 F 
ATOM     89  C   UNL A   1      43.163  22.674  25.347  1.00  0.00     0.198 A 
ATOM     90  C   UNL A   1      42.315  21.508  27.264  1.00  0.00     0.198 A 
ATOM     91  F   UNL A   1      41.959  22.666  29.281  1.00  0.00    -0.203 F 
ATOM     92  F   UNL A   1      43.524  22.678  24.057  1.00  0.00    -0.200 F 
ATOM     93  C   UNL A   1      42.711  21.503  25.936  1.00  0.00     0.200 A 
ATOM     94  F   UNL A   1      41.901  20.374  27.846  1.00  0.00    -0.200 F 
ATOM     95  F   UNL A   1      42.658  20.369  25.225  1.00  0.00    -0.200 F 
ENDBRANCH  61  85
BRANCH  73  96
ATOM     96  C   UNL A   1      47.671  26.596  31.656  1.00  0.00     0.064 A 
ATOM     97  C   UNL A   1      48.865  26.857  30.965  1.00  0.00     0.173 A 
ATOM     98  C   UNL A   1      47.750  25.828  32.828  1.00  0.00     0.173 A 
ATOM     99  F   UNL A   1      48.846  27.576  29.832  1.00  0.00    -0.203 F 
ATOM    100  C   UNL A   1      50.075  26.325  31.400  1.00  0.00     0.198 A 
ATOM    101  C   UNL A   1      48.969  25.334  33.284  1.00  0.00     0.198 A 
ATOM    102  F   UNL A   1      46.644  25.555  33.536  1.00  0.00    -0.203 F 
ATOM    103  F   UNL A   1      51.189  26.524  30.680  1.00  0.00    -0.200 F 
ATOM    104  C   UNL A   1      50.128  25.570  32.561  1.00  0.00     0.200 A 
ATOM    105  F   UNL A   1      49.019  24.621  34.417  1.00  0.00    -0.200 F 
ATOM    106  F   UNL A   1      51.295  25.058  32.978  1.00  0.00    -0.200 F 
ENDBRANCH  73  96
ENDBRANCH  47  48
ENDBRANCH  39  42
ENDBRANCH  37  38
ENDBRANCH  36  37
ENDBRANCH  35  36
ENDBRANCH  34  35
ENDBRANCH  33  34
ENDBRANCH   1  33
TORSDOF 20
ENDMDL
MODEL 3
REMARK VINA RESULT:     -10.7      1.075      6.994
REMARK SMILES COCc1cc(C)nc(N/N=C\c2ccc(-c3cccc(C(=O)NCCCCCCNC(=O)c4ccc(-c5c6nc(c(-c7c(F)c(F)c(F)c(F)c7F)c7ccc([nH]7)c(-c7c(F)c(F)c(F)c(F)c7F)c7nc(c(-c8c(F)c(F)c(F)c(F)c8F)c8ccc5[nH]8)C=C7)C=C6)cc4)c3)o2)c1C#N
REMARK SMILES IDX 25 1 24 2 22 3 23 4 21 6 17 7 18 8 97 9 19 10 20 11 16 12
REMARK SMILES IDX 13 13 14 14 98 15 15 16 12 17 11 18 10 19 9 21 4 22 5 23
REMARK SMILES IDX 99 24 6 25 7 26 8 27 3 28 2 29 1 30 100 31 101 32 26 33
REMARK SMILES IDX 27 34 28 35 29 36 30 37 31 38 32 39 33 41 34 42 35 43 96 44
REMARK SMILES IDX 36 45 95 46 37 47 38 48 39 49 89 50 40 51 94 52 88 53 90 54
REMARK SMILES IDX 41 55 93 56 87 57 86 58 42 60 74 61 54 62 73 63 55 64 58 65
REMARK SMILES IDX 72 66 91 67 56 68 57 69 71 71 92 72 59 73 43 74 44 75 52 76
REMARK SMILES IDX 45 77 46 78 50 79 53 80 47 81 48 82 51 83 49 84 75 85 76 86
REMARK SMILES IDX 84 87 77 88 78 89 82 90 85 91 79 92 80 93 83 94 81 95 60 96
REMARK SMILES IDX 61 97 69 98 62 99 63 100 67 101 70 102 64 103 65 104 68 105
REMARK SMILES IDX 66 106
REMARK H PARENT 24 5 10 20 31 40 90 59 58 70
REMARK Flexibility Score: inf
ROOT
ATOM      1  C   UNL A   1      31.879  26.503  24.701  1.00  0.00     0.116 C 
ENDROOT
BRANCH   1   2
ATOM      2  N   UNL A   1      31.540  25.725  25.876  1.00  0.00    -0.352 N 
ATOM      3  C   UNL A   1      31.971  24.505  26.339  1.00  0.00     0.251 C 
ATOM      4  O   UNL A   1      31.563  24.148  27.445  1.00  0.00    -0.269 OA
ATOM      5  H   UNL A   1      30.868  26.154  26.454  1.00  0.00     0.163 HD
BRANCH   3   6
ATOM      6  C   UNL A   1      32.927  23.626  25.599  1.00  0.00     0.040 A 
ATOM      7  C   UNL A   1      35.189  22.958  24.938  1.00  0.00     0.018 A 
ATOM      8  C   UNL A   1      34.665  21.813  24.328  1.00  0.00     0.012 A 
ATOM      9  C   UNL A   1      34.292  23.885  25.477  1.00  0.00     0.025 A 
ATOM     10  C   UNL A   1      33.288  21.566  24.360  1.00  0.00     0.002 A 
ATOM     11  C   UNL A   1      32.430  22.452  25.019  1.00  0.00     0.014 A 
BRANCH   7  12
ATOM     12  C   UNL A   1      36.608  23.097  25.282  1.00  0.00     0.134 A 
ATOM     13  C   UNL A   1      38.530  22.224  25.893  1.00  0.00     0.147 A 
ATOM     14  C   UNL A   1      38.564  23.540  26.304  1.00  0.00     0.053 A 
ATOM     15  O   UNL A   1      37.381  21.983  25.186  1.00  0.00    -0.455 OA
ATOM     16  C   UNL A   1      37.329  24.106  25.904  1.00  0.00     0.051 A 
BRANCH  13  17
ATOM     17  C   UNL A   1      39.392  21.104  26.092  1.00  0.00     0.180 C 
ATOM     18  N   UNL A   1      40.683  20.973  26.015  1.00  0.00    -0.178 NA
BRANCH  18  19
ATOM     19  N   UNL A   1      41.604  21.942  25.750  1.00  0.00    -0.260 N 
ATOM     20  H   UNL A   1      41.483  22.418  24.897  1.00  0.00     0.192 HD
BRANCH  19  21
ATOM     21  C   UNL A   1      42.719  22.366  26.534  1.00  0.00     0.164 A 
ATOM     22  C   UNL A   1      44.862  23.517  26.640  1.00  0.00     0.001 A 
ATOM     23  C   UNL A   1      44.566  23.853  27.950  1.00  0.00     0.031 A 
ATOM     24  C   UNL A   1      43.891  22.823  25.894  1.00  0.00     0.102 A 
ATOM     25  C   UNL A   1      43.577  23.132  28.565  1.00  0.00     0.040 A 
ATOM     26  C   UNL A   1      43.649  23.026  30.056  1.00  0.00     0.067 C 
ATOM     27  N   UNL A   1      42.653  22.416  27.882  1.00  0.00    -0.233 NA
BRANCH  22  28
ATOM     28  C   UNL A   1      46.291  23.740  26.211  1.00  0.00     0.196 C 
BRANCH  28  29
ATOM     29  O   UNL A   1      46.881  24.838  26.928  1.00  0.00    -0.380 OA
ATOM     30  C   UNL A   1      46.884  26.095  26.250  1.00  0.00     0.195 C 
ENDBRANCH  28  29
ENDBRANCH  22  28
BRANCH  24  31
ATOM     31  C   UNL A   1      44.104  22.557  24.504  1.00  0.00     0.103 C 
ATOM     32  N   UNL A   1      44.263  22.310  23.383  1.00  0.00    -0.192 NA
ENDBRANCH  24  31
ENDBRANCH  19  21
ENDBRANCH  18  19
ENDBRANCH  13  17
ENDBRANCH   7  12
ENDBRANCH   3   6
ENDBRANCH   1   2
BRANCH   1  33
ATOM     33  C   UNL A   1      32.474  27.863  25.089  1.00  0.00     0.021 C 
BRANCH  33  34
ATOM     34  C   UNL A   1      31.533  28.736  25.918  1.00  0.00     0.002 C 
BRANCH  34  35
ATOM     35  C   UNL A   1      31.632  30.232  25.617  1.00  0.00     0.002 C 
BRANCH  35  36
ATOM     36  C   UNL A   1      31.771  31.124  26.855  1.00  0.00     0.021 C 
BRANCH  36  37
ATOM     37  C   UNL A   1      33.067  31.928  26.895  1.00  0.00     0.116 C 
BRANCH  37  38
ATOM     38  N   UNL A   1      32.821  33.295  27.319  1.00  0.00    -0.352 N 
ATOM     39  C   UNL A   1      33.318  33.983  28.392  1.00  0.00     0.251 C 
ATOM     40  H   UNL A   1      32.203  33.805  26.747  1.00  0.00     0.163 HD
ATOM     41  O   UNL A   1      32.760  35.008  28.771  1.00  0.00    -0.269 OA
BRANCH  39  42
ATOM     42  C   UNL A   1      34.527  33.503  29.089  1.00  0.00     0.039 A 
ATOM     43  C   UNL A   1      35.766  34.019  28.707  1.00  0.00     0.014 A 
ATOM     44  C   UNL A   1      34.453  32.504  30.065  1.00  0.00     0.014 A 
ATOM     45  C   UNL A   1      36.925  33.550  29.321  1.00  0.00     0.010 A 
ATOM     46  C   UNL A   1      35.600  32.105  30.743  1.00  0.00     0.010 A 
ATOM     47  C   UNL A   1      36.851  32.606  30.360  1.00  0.00    -0.014 A 
BRANCH  47  48
ATOM     48  C   UNL A   1      38.088  32.146  31.038  1.00  0.00     0.031 A 
ATOM     49  C   UNL A   1      39.012  31.167  30.372  1.00  0.00     0.074 A 
ATOM     50  C   UNL A   1      38.365  32.610  32.271  1.00  0.00     0.049 A 
ATOM     51  N   UNL A   1      40.163  30.702  30.789  1.00  0.00    -0.248 NA
ATOM     52  C   UNL A   1      38.577  30.614  29.080  1.00  0.00     0.031 C 
ATOM     53  C   UNL A   1      37.505  33.505  33.045  1.00  0.00     0.029 A 
ATOM     54  N   UNL A   1      39.448  32.399  33.085  1.00  0.00    -0.354 N 
ATOM     55  C   UNL A   1      40.583  29.803  29.819  1.00  0.00     0.074 A 
ATOM     56  C   UNL A   1      39.532  29.734  28.826  1.00  0.00     0.031 C 
ATOM     57  C   UNL A   1      38.112  33.800  34.204  1.00  0.00     0.029 A 
ATOM     58  C   UNL A   1      39.381  33.083  34.272  1.00  0.00     0.049 A 
ATOM     59  H   UNL A   1      40.202  31.814  32.840  1.00  0.00     0.167 HD
ATOM     60  C   UNL A   1      41.749  29.115  29.750  1.00  0.00     0.037 A 
ATOM     61  C   UNL A   1      40.245  33.127  35.302  1.00  0.00     0.037 A 
ATOM     62  C   UNL A   1      42.788  29.194  30.745  1.00  0.00     0.049 A 
ATOM     63  C   UNL A   1      41.539  32.370  35.198  1.00  0.00     0.074 A 
ATOM     64  C   UNL A   1      44.035  28.594  30.743  1.00  0.00     0.029 A 
ATOM     65  N   UNL A   1      42.692  29.906  31.934  1.00  0.00    -0.354 N 
ATOM     66  N   UNL A   1      41.972  31.597  34.231  1.00  0.00    -0.248 NA
ATOM     67  C   UNL A   1      42.474  32.507  36.321  1.00  0.00     0.031 C 
ATOM     68  C   UNL A   1      44.660  28.880  31.961  1.00  0.00     0.029 A 
ATOM     69  C   UNL A   1      43.843  29.729  32.688  1.00  0.00     0.049 A 
ATOM     70  H   UNL A   1      41.921  30.457  32.201  1.00  0.00     0.167 HD
ATOM     71  C   UNL A   1      43.236  31.173  34.616  1.00  0.00     0.074 A 
ATOM     72  C   UNL A   1      43.509  31.797  35.896  1.00  0.00     0.031 C 
ATOM     73  C   UNL A   1      44.095  30.344  33.970  1.00  0.00     0.037 A 
BRANCH  60  74
ATOM     74  C   UNL A   1      41.948  28.204  28.568  1.00  0.00     0.064 A 
ATOM     75  C   UNL A   1      41.313  26.955  28.474  1.00  0.00     0.173 A 
ATOM     76  C   UNL A   1      42.784  28.589  27.509  1.00  0.00     0.173 A 
ATOM     77  F   UNL A   1      40.509  26.529  29.461  1.00  0.00    -0.203 F 
ATOM     78  C   UNL A   1      41.547  26.108  27.394  1.00  0.00     0.198 A 
ATOM     79  C   UNL A   1      42.983  27.758  26.409  1.00  0.00     0.198 A 
ATOM     80  F   UNL A   1      43.413  29.774  27.537  1.00  0.00    -0.203 F 
ATOM     81  F   UNL A   1      40.987  24.890  27.364  1.00  0.00    -0.200 F 
ATOM     82  C   UNL A   1      42.376  26.512  26.359  1.00  0.00     0.200 A 
ATOM     83  F   UNL A   1      43.772  28.158  25.402  1.00  0.00    -0.200 F 
ATOM     84  F   UNL A   1      42.599  25.697  25.319  1.00  0.00    -0.200 F 
ENDBRANCH  60  74
BRANCH  61  85
ATOM     85  C   UNL A   1      39.911  33.937  36.503  1.00  0.00     0.064 A 
ATOM     86  C   UNL A   1      40.343  35.263  36.633  1.00  0.00     0.173 A 
ATOM     87  C   UNL A   1      39.123  33.404  37.533  1.00  0.00     0.173 A 
ATOM     88  F   UNL A   1      41.111  35.815  35.680  1.00  0.00    -0.203 F 
ATOM     89  C   UNL A   1      40.014  36.021  37.755  1.00  0.00     0.198 A 
ATOM     90  C   UNL A   1      38.766  34.172  38.638  1.00  0.00     0.198 A 
ATOM     91  F   UNL A   1      38.673  32.143  37.452  1.00  0.00    -0.203 F 
ATOM     92  F   UNL A   1      40.475  37.273  37.874  1.00  0.00    -0.200 F 
ATOM     93  C   UNL A   1      39.219  35.477  38.753  1.00  0.00     0.200 A 
ATOM     94  F   UNL A   1      37.976  33.650  39.587  1.00  0.00    -0.200 F 
ATOM     95  F   UNL A   1      38.889  36.211  39.825  1.00  0.00    -0.200 F 
ENDBRANCH  61  85
BRANCH  73  96
ATOM     96  C   UNL A   1      45.424  30.092  34.626  1.00  0.00     0.064 A 
ATOM     97  C   UNL A   1      46.540  30.910  34.387  1.00  0.00     0.173 A 
ATOM     98  C   UNL A   1      45.584  29.012  35.510  1.00  0.00     0.173 A 
ATOM     99  F   UNL A   1      46.448  31.949  33.544  1.00  0.00    -0.203 F 
ATOM    100  C   UNL A   1      47.774  30.625  34.966  1.00  0.00     0.198 A 
ATOM    101  C   UNL A   1      46.809  28.757  36.120  1.00  0.00     0.198 A 
ATOM    102  F   UNL A   1      44.550  28.202  35.784  1.00  0.00    -0.203 F 
ATOM    103  F   UNL A   1      48.843  31.375  34.661  1.00  0.00    -0.200 F 
ATOM    104  C   UNL A   1      47.906  29.554  35.836  1.00  0.00     0.200 A 
ATOM    105  F   UNL A   1      46.928  27.732  36.975  1.00  0.00    -0.200 F 
ATOM    106  F   UNL A   1      49.096  29.281  36.390  1.00  0.00    -0.200 F 
ENDBRANCH  73  96
ENDBRANCH  47  48
ENDBRANCH  39  42
ENDBRANCH  37  38
ENDBRANCH  36  37
ENDBRANCH  35  36
ENDBRANCH  34  35
ENDBRANCH  33  34
ENDBRANCH   1  33
TORSDOF 20
ENDMDL
