MODEL 1
REMARK VINA RESULT:     -11.8      0.000      0.000
REMARK SMILES C/C=C/C(=O)N[C@@H](Cc1ccc(F)cc1)C(=O)NCCCCCCNC(=O)c1ccc(-c2c3nc(c(-c4c(F)c(F)c(F)c(F)c4F)c4ccc([nH]4)c(-c4c(F)c(F)c(F)c(F)c4F)c4nc(c(-c5c(F)c(F)c(F)c(F)c5F)c5ccc2[nH]5)C=C4)C=C3)cc1
REMARK SMILES IDX 21 1 20 2 19 3 18 4 16 5 17 6 7 8 6 9 4 10 5 11 3 13 1 14
REMARK SMILES IDX 2 15 8 16 9 17 10 18 15 19 11 20 14 21 12 22 13 23 22 24
REMARK SMILES IDX 23 25 24 26 25 27 26 28 27 30 28 31 29 32 90 33 30 34 89 35
REMARK SMILES IDX 31 36 32 37 33 38 83 39 34 40 88 41 82 42 84 43 35 44 87 45
REMARK SMILES IDX 81 46 80 47 36 49 68 50 48 51 67 52 49 53 52 54 66 55 85 56
REMARK SMILES IDX 50 57 51 58 65 60 86 61 53 62 37 63 38 64 46 65 39 66 40 67
REMARK SMILES IDX 44 68 47 69 41 70 42 71 45 72 43 73 69 74 70 75 78 76 71 77
REMARK SMILES IDX 72 78 76 79 79 80 73 81 74 82 77 83 75 84 54 85 55 86 63 87
REMARK SMILES IDX 56 88 57 89 61 90 64 91 58 92 59 93 62 94 60 95
REMARK H PARENT 18 7 6 12 25 29 84 48 52 59
REMARK Flexibility Score: inf
ROOT
ATOM      1  C   UNL A   1      32.967  29.659  26.356  1.00  0.00     0.002 C 
ENDROOT
BRANCH   1   2
ATOM      2  C   UNL A   1      32.583  28.510  27.288  1.00  0.00     0.021 C 
BRANCH   2   3
ATOM      3  C   UNL A   1      32.425  27.151  26.622  1.00  0.00     0.116 C 
BRANCH   3   4
ATOM      4  N   UNL A   1      31.181  26.472  26.891  1.00  0.00    -0.354 N 
ATOM      5  C   UNL A   1      30.289  25.927  26.010  1.00  0.00     0.242 C 
ATOM      6  O   UNL A   1      29.452  25.142  26.471  1.00  0.00    -0.273 OA
ATOM      7  H   UNL A   1      30.940  26.389  27.843  1.00  0.00     0.163 HD
BRANCH   5   8
ATOM      8  C   UNL A   1      30.301  26.236  24.489  1.00  0.00     0.176 C 
BRANCH   8   9
ATOM      9  N   UNL A   1      31.000  25.189  23.741  1.00  0.00    -0.340 N 
ATOM     10  C   UNL A   1      32.090  25.208  22.937  1.00  0.00     0.244 C 
ATOM     11  O   UNL A   1      32.483  24.136  22.475  1.00  0.00    -0.270 OA
ATOM     12  H   UNL A   1      30.599  24.296  23.842  1.00  0.00     0.164 HD
BRANCH  10  13
ATOM     13  C   UNL A   1      32.759  26.454  22.488  1.00  0.00     0.066 C 
ATOM     14  C   UNL A   1      34.058  28.578  22.589  1.00  0.00     0.036 C 
ATOM     15  C   UNL A   1      33.399  27.386  23.209  1.00  0.00    -0.025 C 
ENDBRANCH  10  13
ENDBRANCH   8   9
BRANCH   8  16
ATOM     16  C   UNL A   1      28.982  26.735  23.855  1.00  0.00     0.070 C 
BRANCH  16  17
ATOM     17  C   UNL A   1      28.925  28.053  23.122  1.00  0.00    -0.045 A 
ATOM     18  C   UNL A   1      27.706  28.716  22.897  1.00  0.00     0.007 A 
ATOM     19  C   UNL A   1      30.109  28.629  22.627  1.00  0.00     0.007 A 
ATOM     20  C   UNL A   1      27.688  29.970  22.279  1.00  0.00     0.039 A 
ATOM     21  C   UNL A   1      30.084  29.867  21.983  1.00  0.00     0.039 A 
ATOM     22  C   UNL A   1      28.876  30.536  21.834  1.00  0.00     0.123 A 
ATOM     23  F   UNL A   1      28.860  31.753  21.274  1.00  0.00    -0.207 F 
ENDBRANCH  16  17
ENDBRANCH   8  16
ENDBRANCH   5   8
ENDBRANCH   3   4
ENDBRANCH   2   3
ENDBRANCH   1   2
BRANCH   1  24
ATOM     24  C   UNL A   1      31.817  30.542  25.860  1.00  0.00     0.002 C 
BRANCH  24  25
ATOM     25  C   UNL A   1      31.522  31.793  26.691  1.00  0.00     0.021 C 
BRANCH  25  26
ATOM     26  C   UNL A   1      32.745  32.560  27.176  1.00  0.00     0.116 C 
BRANCH  26  27
ATOM     27  N   UNL A   1      32.436  33.936  27.531  1.00  0.00    -0.352 N 
ATOM     28  C   UNL A   1      33.004  34.735  28.491  1.00  0.00     0.251 C 
ATOM     29  H   UNL A   1      31.715  34.354  27.007  1.00  0.00     0.163 HD
ATOM     30  O   UNL A   1      32.503  35.821  28.774  1.00  0.00    -0.269 OA
BRANCH  28  31
ATOM     31  C   UNL A   1      34.215  34.277  29.203  1.00  0.00     0.039 A 
ATOM     32  C   UNL A   1      34.075  33.550  30.387  1.00  0.00     0.014 A 
ATOM     33  C   UNL A   1      35.486  34.554  28.692  1.00  0.00     0.014 A 
ATOM     34  C   UNL A   1      35.208  33.038  31.022  1.00  0.00     0.010 A 
ATOM     35  C   UNL A   1      36.606  33.979  29.281  1.00  0.00     0.010 A 
ATOM     36  C   UNL A   1      36.478  33.213  30.452  1.00  0.00    -0.014 A 
BRANCH  36  37
ATOM     37  C   UNL A   1      37.697  32.613  31.052  1.00  0.00     0.031 A 
ATOM     38  C   UNL A   1      38.378  31.462  30.368  1.00  0.00     0.074 A 
ATOM     39  C   UNL A   1      38.137  33.045  32.251  1.00  0.00     0.049 A 
ATOM     40  N   UNL A   1      39.357  30.707  30.795  1.00  0.00    -0.248 NA
ATOM     41  C   UNL A   1      37.872  31.093  29.036  1.00  0.00     0.031 C 
ATOM     42  C   UNL A   1      37.547  34.138  33.024  1.00  0.00     0.029 A 
ATOM     43  N   UNL A   1      39.173  32.603  33.038  1.00  0.00    -0.354 N 
ATOM     44  C   UNL A   1      39.570  29.767  29.796  1.00  0.00     0.074 A 
ATOM     45  C   UNL A   1      38.587  30.012  28.764  1.00  0.00     0.031 C 
ATOM     46  C   UNL A   1      38.239  34.294  34.163  1.00  0.00     0.029 A 
ATOM     47  C   UNL A   1      39.286  33.279  34.228  1.00  0.00     0.049 A 
ATOM     48  H   UNL A   1      39.776  31.871  32.774  1.00  0.00     0.167 HD
ATOM     49  C   UNL A   1      40.516  28.802  29.739  1.00  0.00     0.037 A 
ATOM     50  C   UNL A   1      40.127  33.089  35.266  1.00  0.00     0.037 A 
ATOM     51  C   UNL A   1      41.509  28.583  30.756  1.00  0.00     0.049 A 
ATOM     52  C   UNL A   1      41.146  31.984  35.194  1.00  0.00     0.074 A 
ATOM     53  C   UNL A   1      42.542  27.663  30.764  1.00  0.00     0.029 A 
ATOM     54  N   UNL A   1      41.592  29.291  31.946  1.00  0.00    -0.354 N 
ATOM     55  N   UNL A   1      41.367  31.127  34.226  1.00  0.00    -0.248 NA
ATOM     56  C   UNL A   1      42.031  31.814  36.356  1.00  0.00     0.031 C 
ATOM     57  C   UNL A   1      43.216  27.775  31.981  1.00  0.00     0.029 A 
ATOM     58  C   UNL A   1      42.645  28.809  32.706  1.00  0.00     0.049 A 
ATOM     59  H   UNL A   1      40.993  30.027  32.209  1.00  0.00     0.167 HD
ATOM     60  C   UNL A   1      42.431  30.339  34.647  1.00  0.00     0.074 A 
ATOM     61  C   UNL A   1      42.816  30.822  35.955  1.00  0.00     0.031 C 
ATOM     62  C   UNL A   1      43.031  29.310  34.001  1.00  0.00     0.037 A 
BRANCH  49  63
ATOM     63  C   UNL A   1      40.540  27.909  28.532  1.00  0.00     0.064 A 
ATOM     64  C   UNL A   1      39.885  26.668  28.553  1.00  0.00     0.173 A 
ATOM     65  C   UNL A   1      41.279  28.241  27.388  1.00  0.00     0.173 A 
ATOM     66  F   UNL A   1      39.170  26.297  29.626  1.00  0.00    -0.203 F 
ATOM     67  C   UNL A   1      39.984  25.787  27.478  1.00  0.00     0.198 A 
ATOM     68  C   UNL A   1      41.348  27.372  26.302  1.00  0.00     0.198 A 
ATOM     69  F   UNL A   1      41.915  29.420  27.313  1.00  0.00    -0.203 F 
ATOM     70  F   UNL A   1      39.382  24.591  27.538  1.00  0.00    -0.200 F 
ATOM     71  C   UNL A   1      40.712  26.141  26.354  1.00  0.00     0.200 A 
ATOM     72  F   UNL A   1      42.032  27.726  25.205  1.00  0.00    -0.200 F 
ATOM     73  F   UNL A   1      40.799  25.296  25.317  1.00  0.00    -0.200 F 
ENDBRANCH  49  63
BRANCH  50  74
ATOM     74  C   UNL A   1      40.047  33.985  36.449  1.00  0.00     0.064 A 
ATOM     75  C   UNL A   1      40.804  35.164  36.529  1.00  0.00     0.173 A 
ATOM     76  C   UNL A   1      39.234  33.658  37.542  1.00  0.00     0.173 A 
ATOM     77  F   UNL A   1      41.600  35.522  35.511  1.00  0.00    -0.203 F 
ATOM     78  C   UNL A   1      40.767  35.968  37.667  1.00  0.00     0.198 A 
ATOM     79  C   UNL A   1      39.174  34.478  38.668  1.00  0.00     0.198 A 
ATOM     80  F   UNL A   1      38.475  32.553  37.505  1.00  0.00    -0.203 F 
ATOM     81  F   UNL A   1      41.529  37.069  37.733  1.00  0.00    -0.200 F 
ATOM     82  C   UNL A   1      39.949  35.627  38.734  1.00  0.00     0.200 A 
ATOM     83  F   UNL A   1      38.363  34.158  39.685  1.00  0.00    -0.200 F 
ATOM     84  F   UNL A   1      39.904  36.406  39.823  1.00  0.00    -0.200 F 
ENDBRANCH  50  74
BRANCH  62  85
ATOM     85  C   UNL A   1      44.196  28.640  34.667  1.00  0.00     0.064 A 
ATOM     86  C   UNL A   1      45.503  29.095  34.427  1.00  0.00     0.173 A 
ATOM     87  C   UNL A   1      44.035  27.478  35.433  1.00  0.00     0.173 A 
ATOM     88  F   UNL A   1      45.710  30.199  33.693  1.00  0.00    -0.203 F 
ATOM     89  C   UNL A   1      46.604  28.391  34.903  1.00  0.00     0.198 A 
ATOM     90  C   UNL A   1      45.139  26.792  35.932  1.00  0.00     0.198 A 
ATOM     91  F   UNL A   1      42.806  27.010  35.700  1.00  0.00    -0.203 F 
ATOM     92  F   UNL A   1      47.844  28.813  34.613  1.00  0.00    -0.200 F 
ATOM     93  C   UNL A   1      46.422  27.239  35.653  1.00  0.00     0.200 A 
ATOM     94  F   UNL A   1      44.962  25.691  36.675  1.00  0.00    -0.200 F 
ATOM     95  F   UNL A   1      47.485  26.559  36.105  1.00  0.00    -0.200 F 
ENDBRANCH  62  85
ENDBRANCH  36  37
ENDBRANCH  28  31
ENDBRANCH  26  27
ENDBRANCH  25  26
ENDBRANCH  24  25
ENDBRANCH   1  24
TORSDOF 17
ENDMDL
MODEL 2
REMARK VINA RESULT:     -11.8      1.036      2.086
REMARK SMILES C/C=C/C(=O)N[C@@H](Cc1ccc(F)cc1)C(=O)NCCCCCCNC(=O)c1ccc(-c2c3nc(c(-c4c(F)c(F)c(F)c(F)c4F)c4ccc([nH]4)c(-c4c(F)c(F)c(F)c(F)c4F)c4nc(c(-c5c(F)c(F)c(F)c(F)c5F)c5ccc2[nH]5)C=C4)C=C3)cc1
REMARK SMILES IDX 21 1 20 2 19 3 18 4 16 5 17 6 7 8 6 9 4 10 5 11 3 13 1 14
REMARK SMILES IDX 2 15 8 16 9 17 10 18 15 19 11 20 14 21 12 22 13 23 22 24
REMARK SMILES IDX 23 25 24 26 25 27 26 28 27 30 28 31 29 32 90 33 30 34 89 35
REMARK SMILES IDX 31 36 32 37 33 38 83 39 34 40 88 41 82 42 84 43 35 44 87 45
REMARK SMILES IDX 81 46 80 47 36 49 68 50 48 51 67 52 49 53 52 54 66 55 85 56
REMARK SMILES IDX 50 57 51 58 65 60 86 61 53 62 37 63 38 64 46 65 39 66 40 67
REMARK SMILES IDX 44 68 47 69 41 70 42 71 45 72 43 73 69 74 70 75 78 76 71 77
REMARK SMILES IDX 72 78 76 79 79 80 73 81 74 82 77 83 75 84 54 85 55 86 63 87
REMARK SMILES IDX 56 88 57 89 61 90 64 91 58 92 59 93 62 94 60 95
REMARK H PARENT 18 7 6 12 25 29 84 48 52 59
REMARK Flexibility Score: inf
ROOT
ATOM      1  C   UNL A   1      32.791  29.933  27.062  1.00  0.00     0.002 C 
ENDROOT
BRANCH   1   2
ATOM      2  C   UNL A   1      33.800  29.246  26.141  1.00  0.00     0.021 C 
BRANCH   2   3
ATOM      3  C   UNL A   1      33.373  29.112  24.687  1.00  0.00     0.116 C 
BRANCH   3   4
ATOM      4  N   UNL A   1      33.767  27.885  24.038  1.00  0.00    -0.354 N 
ATOM      5  C   UNL A   1      32.983  26.937  23.441  1.00  0.00     0.242 C 
ATOM      6  O   UNL A   1      33.549  26.128  22.696  1.00  0.00    -0.273 OA
ATOM      7  H   UNL A   1      34.735  27.704  24.024  1.00  0.00     0.163 HD
BRANCH   5   8
ATOM      8  C   UNL A   1      31.446  26.854  23.643  1.00  0.00     0.176 C 
BRANCH   8   9
ATOM      9  N   UNL A   1      31.072  27.196  25.016  1.00  0.00    -0.340 N 
ATOM     10  C   UNL A   1      31.116  26.503  26.179  1.00  0.00     0.244 C 
ATOM     11  O   UNL A   1      30.771  27.085  27.209  1.00  0.00    -0.270 OA
ATOM     12  H   UNL A   1      30.719  28.110  25.114  1.00  0.00     0.164 HD
BRANCH  10  13
ATOM     13  C   UNL A   1      31.437  25.057  26.262  1.00  0.00     0.066 C 
ATOM     14  C   UNL A   1      31.184  22.588  26.040  1.00  0.00     0.036 C 
ATOM     15  C   UNL A   1      30.690  23.996  25.927  1.00  0.00    -0.025 C 
ENDBRANCH  10  13
ENDBRANCH   8   9
BRANCH   8  16
ATOM     16  C   UNL A   1      30.551  27.464  22.540  1.00  0.00     0.070 C 
BRANCH  16  17
ATOM     17  C   UNL A   1      29.589  28.584  22.855  1.00  0.00    -0.045 A 
ATOM     18  C   UNL A   1      28.197  28.387  22.827  1.00  0.00     0.007 A 
ATOM     19  C   UNL A   1      30.083  29.865  23.158  1.00  0.00     0.007 A 
ATOM     20  C   UNL A   1      27.330  29.421  23.193  1.00  0.00     0.039 A 
ATOM     21  C   UNL A   1      29.213  30.904  23.493  1.00  0.00     0.039 A 
ATOM     22  C   UNL A   1      27.846  30.666  23.527  1.00  0.00     0.123 A 
ATOM     23  F   UNL A   1      27.015  31.645  23.911  1.00  0.00    -0.207 F 
ENDBRANCH  16  17
ENDBRANCH   8  16
ENDBRANCH   5   8
ENDBRANCH   3   4
ENDBRANCH   2   3
ENDBRANCH   1   2
BRANCH   1  24
ATOM     24  C   UNL A   1      31.607  30.622  26.375  1.00  0.00     0.002 C 
BRANCH  24  25
ATOM     25  C   UNL A   1      31.411  32.105  26.699  1.00  0.00     0.021 C 
BRANCH  25  26
ATOM     26  C   UNL A   1      32.621  32.809  27.299  1.00  0.00     0.116 C 
BRANCH  26  27
ATOM     27  N   UNL A   1      32.353  34.203  27.619  1.00  0.00    -0.352 N 
ATOM     28  C   UNL A   1      32.940  35.007  28.563  1.00  0.00     0.251 C 
ATOM     29  H   UNL A   1      31.649  34.630  27.080  1.00  0.00     0.163 HD
ATOM     30  O   UNL A   1      32.472  36.114  28.817  1.00  0.00    -0.269 OA
BRANCH  28  31
ATOM     31  C   UNL A   1      34.131  34.528  29.294  1.00  0.00     0.039 A 
ATOM     32  C   UNL A   1      33.972  33.967  30.564  1.00  0.00     0.014 A 
ATOM     33  C   UNL A   1      35.402  34.621  28.720  1.00  0.00     0.014 A 
ATOM     34  C   UNL A   1      35.078  33.432  31.228  1.00  0.00     0.010 A 
ATOM     35  C   UNL A   1      36.487  34.019  29.347  1.00  0.00     0.010 A 
ATOM     36  C   UNL A   1      36.336  33.418  30.607  1.00  0.00    -0.014 A 
BRANCH  36  37
ATOM     37  C   UNL A   1      37.518  32.785  31.245  1.00  0.00     0.031 A 
ATOM     38  C   UNL A   1      38.209  31.636  30.565  1.00  0.00     0.074 A 
ATOM     39  C   UNL A   1      37.914  33.183  32.470  1.00  0.00     0.049 A 
ATOM     40  N   UNL A   1      39.157  30.856  31.017  1.00  0.00    -0.248 NA
ATOM     41  C   UNL A   1      37.754  31.305  29.204  1.00  0.00     0.031 C 
ATOM     42  C   UNL A   1      37.309  34.269  33.242  1.00  0.00     0.029 A 
ATOM     43  N   UNL A   1      38.908  32.706  33.290  1.00  0.00    -0.354 N 
ATOM     44  C   UNL A   1      39.397  29.934  30.007  1.00  0.00     0.074 A 
ATOM     45  C   UNL A   1      38.463  30.217  28.940  1.00  0.00     0.031 C 
ATOM     46  C   UNL A   1      37.954  34.389  34.412  1.00  0.00     0.029 A 
ATOM     47  C   UNL A   1      38.981  33.355  34.499  1.00  0.00     0.049 A 
ATOM     48  H   UNL A   1      39.510  31.970  33.036  1.00  0.00     0.167 HD
ATOM     49  C   UNL A   1      40.329  28.954  29.968  1.00  0.00     0.037 A 
ATOM     50  C   UNL A   1      39.773  33.129  35.567  1.00  0.00     0.037 A 
ATOM     51  C   UNL A   1      41.274  28.697  31.022  1.00  0.00     0.049 A 
ATOM     52  C   UNL A   1      40.777  32.008  35.514  1.00  0.00     0.074 A 
ATOM     53  C   UNL A   1      42.291  27.759  31.053  1.00  0.00     0.029 A 
ATOM     54  N   UNL A   1      41.318  29.378  32.229  1.00  0.00    -0.354 N 
ATOM     55  N   UNL A   1      41.025  31.168  34.538  1.00  0.00    -0.248 NA
ATOM     56  C   UNL A   1      41.609  31.799  36.708  1.00  0.00     0.031 C 
ATOM     57  C   UNL A   1      42.914  27.834  32.301  1.00  0.00     0.029 A 
ATOM     58  C   UNL A   1      42.329  28.862  33.023  1.00  0.00     0.049 A 
ATOM     59  H   UNL A   1      40.720  30.118  32.484  1.00  0.00     0.167 HD
ATOM     60  C   UNL A   1      42.057  30.354  34.986  1.00  0.00     0.074 A 
ATOM     61  C   UNL A   1      42.393  30.802  36.320  1.00  0.00     0.031 C 
ATOM     62  C   UNL A   1      42.667  29.329  34.344  1.00  0.00     0.037 A 
BRANCH  49  63
ATOM     63  C   UNL A   1      40.390  28.086  28.744  1.00  0.00     0.064 A 
ATOM     64  C   UNL A   1      39.734  26.846  28.719  1.00  0.00     0.173 A 
ATOM     65  C   UNL A   1      41.164  28.442  27.631  1.00  0.00     0.173 A 
ATOM     66  F   UNL A   1      38.985  26.454  29.761  1.00  0.00    -0.203 F 
ATOM     67  C   UNL A   1      39.866  25.988  27.630  1.00  0.00     0.198 A 
ATOM     68  C   UNL A   1      41.267  27.596  26.530  1.00  0.00     0.198 A 
ATOM     69  F   UNL A   1      41.803  29.621  27.602  1.00  0.00    -0.203 F 
ATOM     70  F   UNL A   1      39.262  24.792  27.645  1.00  0.00    -0.200 F 
ATOM     71  C   UNL A   1      40.629  26.365  26.536  1.00  0.00     0.200 A 
ATOM     72  F   UNL A   1      41.985  27.972  25.463  1.00  0.00    -0.200 F 
ATOM     73  F   UNL A   1      40.748  25.542  25.484  1.00  0.00    -0.200 F 
ENDBRANCH  49  63
BRANCH  50  74
ATOM     74  C   UNL A   1      39.658  34.001  36.766  1.00  0.00     0.064 A 
ATOM     75  C   UNL A   1      40.370  35.206  36.868  1.00  0.00     0.173 A 
ATOM     76  C   UNL A   1      38.854  33.625  37.850  1.00  0.00     0.173 A 
ATOM     77  F   UNL A   1      41.155  35.610  35.859  1.00  0.00    -0.203 F 
ATOM     78  C   UNL A   1      40.300  35.987  38.019  1.00  0.00     0.198 A 
ATOM     79  C   UNL A   1      38.762  34.423  38.989  1.00  0.00     0.198 A 
ATOM     80  F   UNL A   1      38.137  32.493  37.792  1.00  0.00    -0.203 F 
ATOM     81  F   UNL A   1      41.021  37.115  38.106  1.00  0.00    -0.200 F 
ATOM     82  C   UNL A   1      39.493  35.598  39.077  1.00  0.00     0.200 A 
ATOM     83  F   UNL A   1      37.961  34.056  39.998  1.00  0.00    -0.200 F 
ATOM     84  F   UNL A   1      39.417  36.356  40.180  1.00  0.00    -0.200 F 
ENDBRANCH  50  74
BRANCH  62  85
ATOM     85  C   UNL A   1      43.792  28.625  35.044  1.00  0.00     0.064 A 
ATOM     86  C   UNL A   1      43.524  27.545  35.900  1.00  0.00     0.173 A 
ATOM     87  C   UNL A   1      45.110  29.096  34.972  1.00  0.00     0.173 A 
ATOM     88  F   UNL A   1      42.277  27.064  36.012  1.00  0.00    -0.203 F 
ATOM     89  C   UNL A   1      44.529  26.985  36.682  1.00  0.00     0.198 A 
ATOM     90  C   UNL A   1      46.119  28.513  35.734  1.00  0.00     0.198 A 
ATOM     91  F   UNL A   1      45.419  30.117  34.158  1.00  0.00    -0.203 F 
ATOM     92  F   UNL A   1      44.239  25.991  37.534  1.00  0.00    -0.200 F 
ATOM     93  C   UNL A   1      45.826  27.470  36.599  1.00  0.00     0.200 A 
ATOM     94  F   UNL A   1      47.377  28.969  35.637  1.00  0.00    -0.200 F 
ATOM     95  F   UNL A   1      46.792  26.933  37.358  1.00  0.00    -0.200 F 
ENDBRANCH  62  85
ENDBRANCH  36  37
ENDBRANCH  28  31
ENDBRANCH  26  27
ENDBRANCH  25  26
ENDBRANCH  24  25
ENDBRANCH   1  24
TORSDOF 17
ENDMDL
MODEL 3
REMARK VINA RESULT:     -11.8      2.222      3.899
REMARK SMILES C/C=C/C(=O)N[C@@H](Cc1ccc(F)cc1)C(=O)NCCCCCCNC(=O)c1ccc(-c2c3nc(c(-c4c(F)c(F)c(F)c(F)c4F)c4ccc([nH]4)c(-c4c(F)c(F)c(F)c(F)c4F)c4nc(c(-c5c(F)c(F)c(F)c(F)c5F)c5ccc2[nH]5)C=C4)C=C3)cc1
REMARK SMILES IDX 21 1 20 2 19 3 18 4 16 5 17 6 7 8 6 9 4 10 5 11 3 13 1 14
REMARK SMILES IDX 2 15 8 16 9 17 10 18 15 19 11 20 14 21 12 22 13 23 22 24
REMARK SMILES IDX 23 25 24 26 25 27 26 28 27 30 28 31 29 32 90 33 30 34 89 35
REMARK SMILES IDX 31 36 32 37 33 38 83 39 34 40 88 41 82 42 84 43 35 44 87 45
REMARK SMILES IDX 81 46 80 47 36 49 68 50 48 51 67 52 49 53 52 54 66 55 85 56
REMARK SMILES IDX 50 57 51 58 65 60 86 61 53 62 37 63 38 64 46 65 39 66 40 67
REMARK SMILES IDX 44 68 47 69 41 70 42 71 45 72 43 73 69 74 70 75 78 76 71 77
REMARK SMILES IDX 72 78 76 79 79 80 73 81 74 82 77 83 75 84 54 85 55 86 63 87
REMARK SMILES IDX 56 88 57 89 61 90 64 91 58 92 59 93 62 94 60 95
REMARK H PARENT 18 7 6 12 25 29 84 48 52 59
REMARK Flexibility Score: inf
ROOT
ATOM      1  C   UNL A   1      32.488  29.818  27.085  1.00  0.00     0.002 C 
ENDROOT
BRANCH   1   2
ATOM      2  C   UNL A   1      33.790  29.269  26.501  1.00  0.00     0.021 C 
BRANCH   2   3
ATOM      3  C   UNL A   1      33.893  27.753  26.441  1.00  0.00     0.116 C 
BRANCH   3   4
ATOM      4  N   UNL A   1      32.634  27.048  26.423  1.00  0.00    -0.354 N 
ATOM      5  C   UNL A   1      32.381  25.747  26.090  1.00  0.00     0.242 C 
ATOM      6  O   UNL A   1      31.286  25.283  26.431  1.00  0.00    -0.273 OA
ATOM      7  H   UNL A   1      31.847  27.580  26.686  1.00  0.00     0.163 HD
BRANCH   5   8
ATOM      8  C   UNL A   1      33.398  24.848  25.337  1.00  0.00     0.176 C 
BRANCH   8   9
ATOM      9  N   UNL A   1      33.670  25.364  23.994  1.00  0.00    -0.340 N 
ATOM     10  C   UNL A   1      33.591  24.806  22.763  1.00  0.00     0.244 C 
ATOM     11  O   UNL A   1      33.843  25.520  21.791  1.00  0.00    -0.270 OA
ATOM     12  H   UNL A   1      33.970  26.302  23.985  1.00  0.00     0.164 HD
BRANCH  10  13
ATOM     13  C   UNL A   1      33.338  23.363  22.529  1.00  0.00     0.066 C 
ATOM     14  C   UNL A   1      32.155  21.170  22.504  1.00  0.00     0.036 C 
ATOM     15  C   UNL A   1      32.267  22.622  22.849  1.00  0.00    -0.025 C 
ENDBRANCH  10  13
ENDBRANCH   8   9
BRANCH   8  16
ATOM     16  C   UNL A   1      34.636  24.363  26.125  1.00  0.00     0.070 C 
BRANCH  16  17
ATOM     17  C   UNL A   1      35.444  23.180  25.647  1.00  0.00    -0.045 A 
ATOM     18  C   UNL A   1      36.777  23.324  25.225  1.00  0.00     0.007 A 
ATOM     19  C   UNL A   1      34.852  21.905  25.596  1.00  0.00     0.007 A 
ATOM     20  C   UNL A   1      37.525  22.202  24.856  1.00  0.00     0.039 A 
ATOM     21  C   UNL A   1      35.594  20.791  25.198  1.00  0.00     0.039 A 
ATOM     22  C   UNL A   1      36.929  20.947  24.852  1.00  0.00     0.123 A 
ATOM     23  F   UNL A   1      37.658  19.869  24.532  1.00  0.00    -0.207 F 
ENDBRANCH  16  17
ENDBRANCH   8  16
ENDBRANCH   5   8
ENDBRANCH   3   4
ENDBRANCH   2   3
ENDBRANCH   1   2
BRANCH   1  24
ATOM     24  C   UNL A   1      31.664  30.728  26.167  1.00  0.00     0.002 C 
BRANCH  24  25
ATOM     25  C   UNL A   1      31.422  32.152  26.672  1.00  0.00     0.021 C 
BRANCH  25  26
ATOM     26  C   UNL A   1      32.614  32.820  27.345  1.00  0.00     0.116 C 
BRANCH  26  27
ATOM     27  N   UNL A   1      32.364  34.216  27.667  1.00  0.00    -0.352 N 
ATOM     28  C   UNL A   1      32.965  35.013  28.608  1.00  0.00     0.251 C 
ATOM     29  H   UNL A   1      31.661  34.651  27.133  1.00  0.00     0.163 HD
ATOM     30  O   UNL A   1      32.510  36.125  28.866  1.00  0.00    -0.269 OA
BRANCH  28  31
ATOM     31  C   UNL A   1      34.156  34.521  29.332  1.00  0.00     0.039 A 
ATOM     32  C   UNL A   1      33.994  33.929  30.587  1.00  0.00     0.014 A 
ATOM     33  C   UNL A   1      35.428  34.633  28.764  1.00  0.00     0.014 A 
ATOM     34  C   UNL A   1      35.101  33.382  31.241  1.00  0.00     0.010 A 
ATOM     35  C   UNL A   1      36.513  34.021  29.379  1.00  0.00     0.010 A 
ATOM     36  C   UNL A   1      36.361  33.388  30.624  1.00  0.00    -0.014 A 
BRANCH  36  37
ATOM     37  C   UNL A   1      37.544  32.744  31.250  1.00  0.00     0.031 A 
ATOM     38  C   UNL A   1      38.230  31.604  30.553  1.00  0.00     0.074 A 
ATOM     39  C   UNL A   1      37.943  33.126  32.479  1.00  0.00     0.049 A 
ATOM     40  N   UNL A   1      39.177  30.815  30.993  1.00  0.00    -0.248 NA
ATOM     41  C   UNL A   1      37.770  31.290  29.190  1.00  0.00     0.031 C 
ATOM     42  C   UNL A   1      37.344  34.204  33.266  1.00  0.00     0.029 A 
ATOM     43  N   UNL A   1      38.939  32.637  33.290  1.00  0.00    -0.354 N 
ATOM     44  C   UNL A   1      39.412  29.906  29.970  1.00  0.00     0.074 A 
ATOM     45  C   UNL A   1      38.476  30.205  28.909  1.00  0.00     0.031 C 
ATOM     46  C   UNL A   1      37.992  34.307  34.436  1.00  0.00     0.029 A 
ATOM     47  C   UNL A   1      39.017  33.270  34.507  1.00  0.00     0.049 A 
ATOM     48  H   UNL A   1      39.538  31.902  33.025  1.00  0.00     0.167 HD
ATOM     49  C   UNL A   1      40.342  28.924  29.916  1.00  0.00     0.037 A 
ATOM     50  C   UNL A   1      39.812  33.028  35.569  1.00  0.00     0.037 A 
ATOM     51  C   UNL A   1      41.290  28.652  30.963  1.00  0.00     0.049 A 
ATOM     52  C   UNL A   1      40.813  31.907  35.499  1.00  0.00     0.074 A 
ATOM     53  C   UNL A   1      42.305  27.712  30.980  1.00  0.00     0.029 A 
ATOM     54  N   UNL A   1      41.339  29.317  32.180  1.00  0.00    -0.354 N 
ATOM     55  N   UNL A   1      41.056  31.078  34.512  1.00  0.00    -0.248 NA
ATOM     56  C   UNL A   1      41.648  31.680  36.688  1.00  0.00     0.031 C 
ATOM     57  C   UNL A   1      42.931  27.769  32.226  1.00  0.00     0.029 A 
ATOM     58  C   UNL A   1      42.351  28.789  32.963  1.00  0.00     0.049 A 
ATOM     59  H   UNL A   1      40.743  30.055  32.445  1.00  0.00     0.167 HD
ATOM     60  C   UNL A   1      42.088  30.257  34.946  1.00  0.00     0.074 A 
ATOM     61  C   UNL A   1      42.429  30.686  36.285  1.00  0.00     0.031 C 
ATOM     62  C   UNL A   1      42.694  29.238  34.289  1.00  0.00     0.037 A 
BRANCH  49  63
ATOM     63  C   UNL A   1      40.398  28.073  28.681  1.00  0.00     0.064 A 
ATOM     64  C   UNL A   1      39.744  26.831  28.644  1.00  0.00     0.173 A 
ATOM     65  C   UNL A   1      41.164  28.444  27.568  1.00  0.00     0.173 A 
ATOM     66  F   UNL A   1      39.003  26.424  29.685  1.00  0.00    -0.203 F 
ATOM     67  C   UNL A   1      39.871  25.988  27.543  1.00  0.00     0.198 A 
ATOM     68  C   UNL A   1      41.262  27.612  26.455  1.00  0.00     0.198 A 
ATOM     69  F   UNL A   1      41.801  29.624  27.549  1.00  0.00    -0.203 F 
ATOM     70  F   UNL A   1      39.270  24.790  27.547  1.00  0.00    -0.200 F 
ATOM     71  C   UNL A   1      40.627  26.380  26.450  1.00  0.00     0.200 A 
ATOM     72  F   UNL A   1      41.973  28.003  25.389  1.00  0.00    -0.200 F 
ATOM     73  F   UNL A   1      40.741  25.570  25.387  1.00  0.00    -0.200 F 
ENDBRANCH  49  63
BRANCH  50  74
ATOM     74  C   UNL A   1      39.702  33.885  36.780  1.00  0.00     0.064 A 
ATOM     75  C   UNL A   1      38.895  33.518  37.868  1.00  0.00     0.173 A 
ATOM     76  C   UNL A   1      40.379  35.110  36.855  1.00  0.00     0.173 A 
ATOM     77  F   UNL A   1      38.223  32.357  37.845  1.00  0.00    -0.203 F 
ATOM     78  C   UNL A   1      38.753  34.355  38.973  1.00  0.00     0.198 A 
ATOM     79  C   UNL A   1      40.260  35.932  37.974  1.00  0.00     0.198 A 
ATOM     80  F   UNL A   1      41.180  35.495  35.850  1.00  0.00    -0.203 F 
ATOM     81  F   UNL A   1      37.945  33.998  39.981  1.00  0.00    -0.200 F 
ATOM     82  C   UNL A   1      39.438  35.559  39.027  1.00  0.00     0.200 A 
ATOM     83  F   UNL A   1      40.944  37.082  38.033  1.00  0.00    -0.200 F 
ATOM     84  F   UNL A   1      39.310  36.358  40.095  1.00  0.00    -0.200 F 
ENDBRANCH  50  74
BRANCH  62  85
ATOM     85  C   UNL A   1      43.820  28.523  34.977  1.00  0.00     0.064 A 
ATOM     86  C   UNL A   1      43.550  27.447  35.837  1.00  0.00     0.173 A 
ATOM     87  C   UNL A   1      45.141  28.980  34.889  1.00  0.00     0.173 A 
ATOM     88  F   UNL A   1      42.299  26.978  35.963  1.00  0.00    -0.203 F 
ATOM     89  C   UNL A   1      44.559  26.876  36.607  1.00  0.00     0.198 A 
ATOM     90  C   UNL A   1      46.153  28.388  35.640  1.00  0.00     0.198 A 
ATOM     91  F   UNL A   1      45.451  29.998  34.072  1.00  0.00    -0.203 F 
ATOM     92  F   UNL A   1      44.267  25.886  37.464  1.00  0.00    -0.200 F 
ATOM     93  C   UNL A   1      45.859  27.348  36.510  1.00  0.00     0.200 A 
ATOM     94  F   UNL A   1      47.414  28.830  35.529  1.00  0.00    -0.200 F 
ATOM     95  F   UNL A   1      46.828  26.802  37.257  1.00  0.00    -0.200 F 
ENDBRANCH  62  85
ENDBRANCH  36  37
ENDBRANCH  28  31
ENDBRANCH  26  27
ENDBRANCH  25  26
ENDBRANCH  24  25
ENDBRANCH   1  24
TORSDOF 17
ENDMDL
