MODEL 1
REMARK VINA RESULT:     -12.9      0.000      0.000
REMARK SMILES CC(C)CCc1cc2c(cc1Cl)C=C(C(=O)NCCCCCCNC(=O)c1ccc(-c3c4nc(c(-c5c(F)c(F)c(F)c(F)c5F)c5ccc([nH]5)c(-c5c(F)c(F)c(F)c(F)c5F)c5nc(c(-c6c(F)c(F)c(F)c(F)c6F)c6ccc3[nH]6)C=C5)C=C4)cc1)[C@@H](C(F)(F)F)O2
REMARK SMILES IDX 20 1 19 2 18 3 17 4 15 5 16 6 14 8 6 9 7 10 11 11 8 12 10 13
REMARK SMILES IDX 12 14 9 15 95 16 13 17 90 18 5 19 4 20 2 21 1 22 3 23 91 24
REMARK SMILES IDX 92 25 93 26 94 27 21 28 22 29 23 30 24 31 25 32 26 34 27 35
REMARK SMILES IDX 28 36 89 37 29 38 88 39 30 40 31 41 32 42 82 43 33 44 87 45
REMARK SMILES IDX 81 46 83 47 34 48 86 49 80 50 79 51 35 53 67 54 47 55 66 56
REMARK SMILES IDX 48 57 51 58 65 59 84 60 49 61 50 62 64 64 85 65 52 66 36 67
REMARK SMILES IDX 37 68 45 69 38 70 39 71 43 72 46 73 40 74 41 75 44 76 42 77
REMARK SMILES IDX 68 78 69 79 77 80 70 81 71 82 75 83 78 84 72 85 73 86 76 87
REMARK SMILES IDX 74 88 53 89 54 90 62 91 55 92 56 93 60 94 63 95 57 96 58 97
REMARK SMILES IDX 61 98 59 99
REMARK H PARENT 17 7 24 33 83 52 51 63
REMARK Flexibility Score: inf
ROOT
ATOM      1  C   UNL A   1      32.405  29.901  27.276  1.00  0.00     0.002 C 
ENDROOT
BRANCH   1   2
ATOM      2  C   UNL A   1      32.518  28.395  27.022  1.00  0.00     0.021 C 
BRANCH   2   3
ATOM      3  C   UNL A   1      33.873  27.952  26.477  1.00  0.00     0.116 C 
BRANCH   3   4
ATOM      4  N   UNL A   1      33.865  27.861  25.029  1.00  0.00    -0.352 N 
ATOM      5  C   UNL A   1      33.617  26.917  24.093  1.00  0.00     0.251 C 
ATOM      6  O   UNL A   1      33.711  27.306  22.924  1.00  0.00    -0.270 OA
ATOM      7  H   UNL A   1      34.107  28.720  24.615  1.00  0.00     0.163 HD
BRANCH   5   8
ATOM      8  C   UNL A   1      33.251  25.495  24.367  1.00  0.00     0.067 C 
ATOM      9  C   UNL A   1      33.444  20.536  25.364  1.00  0.00    -0.026 A 
ATOM     10  C   UNL A   1      32.435  21.514  25.394  1.00  0.00     0.052 A 
ATOM     11  C   UNL A   1      34.740  20.936  24.992  1.00  0.00     0.045 A 
ATOM     12  C   UNL A   1      32.718  22.842  25.082  1.00  0.00     0.128 A 
ATOM     13  C   UNL A   1      35.025  22.282  24.723  1.00  0.00     0.032 A 
ATOM     14  Cl  UNL A   1      36.040  19.815  24.818  1.00  0.00    -0.084 Cl
ATOM     15  C   UNL A   1      34.013  23.241  24.773  1.00  0.00     0.019 A 
ATOM     16  O   UNL A   1      31.673  23.716  25.142  1.00  0.00    -0.475 OA
ATOM     17  C   UNL A   1      34.287  24.652  24.534  1.00  0.00     0.025 C 
ATOM     18  C   UNL A   1      31.844  24.968  24.421  1.00  0.00     0.314 C 
BRANCH   9  19
ATOM     19  C   UNL A   1      33.065  19.119  25.734  1.00  0.00     0.037 C 
BRANCH  19  20
ATOM     20  C   UNL A   1      32.387  18.290  24.631  1.00  0.00     0.008 C 
BRANCH  20  21
ATOM     21  C   UNL A   1      33.240  18.013  23.379  1.00  0.00    -0.017 C 
ATOM     22  C   UNL A   1      33.904  16.637  23.427  1.00  0.00     0.007 C 
ATOM     23  C   UNL A   1      32.367  18.130  22.126  1.00  0.00     0.007 C 
ENDBRANCH  20  21
ENDBRANCH  19  20
ENDBRANCH   9  19
BRANCH  18  24
ATOM     24  C   UNL A   1      31.207  24.844  23.024  1.00  0.00     0.429 C 
ATOM     25  F   UNL A   1      30.682  26.032  22.633  1.00  0.00    -0.167 F 
ATOM     26  F   UNL A   1      32.106  24.497  22.073  1.00  0.00    -0.167 F 
ATOM     27  F   UNL A   1      30.215  23.927  22.981  1.00  0.00    -0.167 F 
ENDBRANCH  18  24
ENDBRANCH   5   8
ENDBRANCH   3   4
ENDBRANCH   2   3
ENDBRANCH   1   2
BRANCH   1  28
ATOM     28  C   UNL A   1      31.588  30.688  26.241  1.00  0.00     0.002 C 
BRANCH  28  29
ATOM     29  C   UNL A   1      31.445  32.187  26.512  1.00  0.00     0.021 C 
BRANCH  29  30
ATOM     30  C   UNL A   1      32.574  32.804  27.326  1.00  0.00     0.116 C 
BRANCH  30  31
ATOM     31  N   UNL A   1      32.323  34.194  27.670  1.00  0.00    -0.352 N 
ATOM     32  C   UNL A   1      32.950  34.991  28.597  1.00  0.00     0.251 C 
ATOM     33  H   UNL A   1      31.597  34.628  27.164  1.00  0.00     0.163 HD
ATOM     34  O   UNL A   1      32.499  36.101  28.862  1.00  0.00    -0.269 OA
BRANCH  32  35
ATOM     35  C   UNL A   1      34.154  34.497  29.298  1.00  0.00     0.039 A 
ATOM     36  C   UNL A   1      35.420  34.640  28.728  1.00  0.00     0.014 A 
ATOM     37  C   UNL A   1      34.013  33.878  30.543  1.00  0.00     0.014 A 
ATOM     38  C   UNL A   1      36.515  34.021  29.319  1.00  0.00     0.010 A 
ATOM     39  C   UNL A   1      35.132  33.336  31.183  1.00  0.00     0.010 A 
ATOM     40  C   UNL A   1      36.386  33.363  30.554  1.00  0.00    -0.014 A 
BRANCH  40  41
ATOM     41  C   UNL A   1      37.587  32.730  31.159  1.00  0.00     0.031 A 
ATOM     42  C   UNL A   1      38.041  33.094  32.545  1.00  0.00     0.074 A 
ATOM     43  C   UNL A   1      38.220  31.755  30.476  1.00  0.00     0.049 A 
ATOM     44  N   UNL A   1      38.998  32.561  33.265  1.00  0.00    -0.248 NA
ATOM     45  C   UNL A   1      37.338  34.200  33.216  1.00  0.00     0.031 C 
ATOM     46  C   UNL A   1      37.874  31.325  29.121  1.00  0.00     0.029 A 
ATOM     47  N   UNL A   1      39.251  30.925  30.836  1.00  0.00    -0.354 N 
ATOM     48  C   UNL A   1      39.017  33.269  34.459  1.00  0.00     0.074 A 
ATOM     49  C   UNL A   1      38.002  34.294  34.360  1.00  0.00     0.031 C 
ATOM     50  C   UNL A   1      38.622  30.262  28.792  1.00  0.00     0.029 A 
ATOM     51  C   UNL A   1      39.541  29.972  29.889  1.00  0.00     0.049 A 
ATOM     52  H   UNL A   1      39.734  31.003  31.690  1.00  0.00     0.167 HD
ATOM     53  C   UNL A   1      39.798  33.066  35.546  1.00  0.00     0.037 A 
ATOM     54  C   UNL A   1      40.441  28.971  29.903  1.00  0.00     0.037 A 
ATOM     55  C   UNL A   1      40.790  32.027  35.652  1.00  0.00     0.049 A 
ATOM     56  C   UNL A   1      41.314  28.787  31.112  1.00  0.00     0.074 A 
ATOM     57  C   UNL A   1      41.606  31.723  36.726  1.00  0.00     0.029 A 
ATOM     58  N   UNL A   1      41.097  31.123  34.646  1.00  0.00    -0.354 N 
ATOM     59  N   UNL A   1      41.296  29.441  32.247  1.00  0.00    -0.248 NA
ATOM     60  C   UNL A   1      42.337  27.735  31.040  1.00  0.00     0.031 C 
ATOM     61  C   UNL A   1      42.437  30.662  36.358  1.00  0.00     0.029 A 
ATOM     62  C   UNL A   1      42.108  30.276  35.068  1.00  0.00     0.049 A 
ATOM     63  H   UNL A   1      40.661  31.089  33.764  1.00  0.00     0.167 HD
ATOM     64  C   UNL A   1      42.294  28.877  33.028  1.00  0.00     0.074 A 
ATOM     65  C   UNL A   1      42.888  27.814  32.244  1.00  0.00     0.031 C 
ATOM     66  C   UNL A   1      42.683  29.217  34.280  1.00  0.00     0.037 A 
BRANCH  53  67
ATOM     67  C   UNL A   1      39.619  33.980  36.724  1.00  0.00     0.064 A 
ATOM     68  C   UNL A   1      38.827  33.611  37.821  1.00  0.00     0.173 A 
ATOM     69  C   UNL A   1      40.317  35.195  36.796  1.00  0.00     0.173 A 
ATOM     70  F   UNL A   1      38.135  32.463  37.798  1.00  0.00    -0.203 F 
ATOM     71  C   UNL A   1      38.730  34.432  38.941  1.00  0.00     0.198 A 
ATOM     72  C   UNL A   1      40.237  36.002  37.928  1.00  0.00     0.198 A 
ATOM     73  F   UNL A   1      41.097  35.589  35.776  1.00  0.00    -0.203 F 
ATOM     74  F   UNL A   1      37.946  34.073  39.968  1.00  0.00    -0.200 F 
ATOM     75  C   UNL A   1      39.443  35.621  38.998  1.00  0.00     0.200 A 
ATOM     76  F   UNL A   1      40.939  37.142  37.987  1.00  0.00    -0.200 F 
ATOM     77  F   UNL A   1      39.363  36.401  40.086  1.00  0.00    -0.200 F 
ENDBRANCH  53  67
BRANCH  54  78
ATOM     78  C   UNL A   1      40.533  28.055  28.738  1.00  0.00     0.064 A 
ATOM     79  C   UNL A   1      39.817  26.851  28.712  1.00  0.00     0.173 A 
ATOM     80  C   UNL A   1      41.298  28.385  27.608  1.00  0.00     0.173 A 
ATOM     81  F   UNL A   1      39.084  26.484  29.774  1.00  0.00    -0.203 F 
ATOM     82  C   UNL A   1      39.862  26.011  27.601  1.00  0.00     0.198 A 
ATOM     83  C   UNL A   1      41.321  27.558  26.488  1.00  0.00     0.198 A 
ATOM     84  F   UNL A   1      41.998  29.529  27.583  1.00  0.00    -0.203 F 
ATOM     85  F   UNL A   1      39.186  24.855  27.610  1.00  0.00    -0.200 F 
ATOM     86  C   UNL A   1      40.605  26.371  26.486  1.00  0.00     0.200 A 
ATOM     87  F   UNL A   1      42.025  27.918  25.407  1.00  0.00    -0.200 F 
ATOM     88  F   UNL A   1      40.632  25.573  25.410  1.00  0.00    -0.200 F 
ENDBRANCH  54  78
BRANCH  66  89
ATOM     89  C   UNL A   1      43.800  28.433  34.900  1.00  0.00     0.064 A 
ATOM     90  C   UNL A   1      43.556  27.222  35.561  1.00  0.00     0.173 A 
ATOM     91  C   UNL A   1      45.131  28.841  34.735  1.00  0.00     0.173 A 
ATOM     92  F   UNL A   1      42.298  26.799  35.753  1.00  0.00    -0.203 F 
ATOM     93  C   UNL A   1      44.609  26.444  36.034  1.00  0.00     0.198 A 
ATOM     94  C   UNL A   1      46.182  28.050  35.188  1.00  0.00     0.198 A 
ATOM     95  F   UNL A   1      45.414  29.990  34.101  1.00  0.00    -0.203 F 
ATOM     96  F   UNL A   1      44.356  25.296  36.676  1.00  0.00    -0.200 F 
ATOM     97  C   UNL A   1      45.921  26.852  35.836  1.00  0.00     0.200 A 
ATOM     98  F   UNL A   1      47.449  28.438  34.982  1.00  0.00    -0.200 F 
ATOM     99  F   UNL A   1      46.933  26.088  36.269  1.00  0.00    -0.200 F 
ENDBRANCH  66  89
ENDBRANCH  40  41
ENDBRANCH  32  35
ENDBRANCH  30  31
ENDBRANCH  29  30
ENDBRANCH  28  29
ENDBRANCH   1  28
TORSDOF 17
ENDMDL
MODEL 2
REMARK VINA RESULT:     -12.9      0.243      1.608
REMARK SMILES CC(C)CCc1cc2c(cc1Cl)C=C(C(=O)NCCCCCCNC(=O)c1ccc(-c3c4nc(c(-c5c(F)c(F)c(F)c(F)c5F)c5ccc([nH]5)c(-c5c(F)c(F)c(F)c(F)c5F)c5nc(c(-c6c(F)c(F)c(F)c(F)c6F)c6ccc3[nH]6)C=C5)C=C4)cc1)[C@@H](C(F)(F)F)O2
REMARK SMILES IDX 20 1 19 2 18 3 17 4 15 5 16 6 14 8 6 9 7 10 11 11 8 12 10 13
REMARK SMILES IDX 12 14 9 15 95 16 13 17 90 18 5 19 4 20 2 21 1 22 3 23 91 24
REMARK SMILES IDX 92 25 93 26 94 27 21 28 22 29 23 30 24 31 25 32 26 34 27 35
REMARK SMILES IDX 28 36 89 37 29 38 88 39 30 40 31 41 32 42 82 43 33 44 87 45
REMARK SMILES IDX 81 46 83 47 34 48 86 49 80 50 79 51 35 53 67 54 47 55 66 56
REMARK SMILES IDX 48 57 51 58 65 59 84 60 49 61 50 62 64 64 85 65 52 66 36 67
REMARK SMILES IDX 37 68 45 69 38 70 39 71 43 72 46 73 40 74 41 75 44 76 42 77
REMARK SMILES IDX 68 78 69 79 77 80 70 81 71 82 75 83 78 84 72 85 73 86 76 87
REMARK SMILES IDX 74 88 53 89 54 90 62 91 55 92 56 93 60 94 63 95 57 96 58 97
REMARK SMILES IDX 61 98 59 99
REMARK H PARENT 17 7 24 33 83 52 51 63
REMARK Flexibility Score: inf
ROOT
ATOM      1  C   UNL A   1      31.589  29.433  27.213  1.00  0.00     0.002 C 
ENDROOT
BRANCH   1   2
ATOM      2  C   UNL A   1      32.108  28.054  26.797  1.00  0.00     0.021 C 
BRANCH   2   3
ATOM      3  C   UNL A   1      33.584  28.033  26.408  1.00  0.00     0.116 C 
BRANCH   3   4
ATOM      4  N   UNL A   1      33.759  27.885  24.975  1.00  0.00    -0.352 N 
ATOM      5  C   UNL A   1      33.648  26.899  24.056  1.00  0.00     0.251 C 
ATOM      6  O   UNL A   1      33.880  27.245  22.892  1.00  0.00    -0.270 OA
ATOM      7  H   UNL A   1      34.036  28.733  24.559  1.00  0.00     0.163 HD
BRANCH   5   8
ATOM      8  C   UNL A   1      33.276  25.481  24.341  1.00  0.00     0.067 C 
ATOM      9  C   UNL A   1      33.451  20.530  25.380  1.00  0.00    -0.026 A 
ATOM     10  C   UNL A   1      32.446  21.512  25.400  1.00  0.00     0.052 A 
ATOM     11  C   UNL A   1      34.748  20.922  25.004  1.00  0.00     0.045 A 
ATOM     12  C   UNL A   1      32.733  22.836  25.078  1.00  0.00     0.128 A 
ATOM     13  C   UNL A   1      35.038  22.265  24.725  1.00  0.00     0.032 A 
ATOM     14  Cl  UNL A   1      36.045  19.795  24.841  1.00  0.00    -0.084 Cl
ATOM     15  C   UNL A   1      34.030  23.228  24.766  1.00  0.00     0.019 A 
ATOM     16  O   UNL A   1      31.692  23.715  25.130  1.00  0.00    -0.475 OA
ATOM     17  C   UNL A   1      34.309  24.636  24.516  1.00  0.00     0.025 C 
ATOM     18  C   UNL A   1      31.867  24.960  24.399  1.00  0.00     0.314 C 
BRANCH   9  19
ATOM     19  C   UNL A   1      33.066  19.117  25.761  1.00  0.00     0.037 C 
BRANCH  19  20
ATOM     20  C   UNL A   1      32.400  18.277  24.660  1.00  0.00     0.008 C 
BRANCH  20  21
ATOM     21  C   UNL A   1      33.238  18.050  23.387  1.00  0.00    -0.017 C 
ATOM     22  C   UNL A   1      33.962  16.704  23.406  1.00  0.00     0.007 C 
ATOM     23  C   UNL A   1      32.335  18.143  22.154  1.00  0.00     0.007 C 
ENDBRANCH  20  21
ENDBRANCH  19  20
ENDBRANCH   9  19
BRANCH  18  24
ATOM     24  C   UNL A   1      31.231  24.826  23.002  1.00  0.00     0.429 C 
ATOM     25  F   UNL A   1      30.230  23.910  23.021  1.00  0.00    -0.167 F 
ATOM     26  F   UNL A   1      30.675  25.984  22.573  1.00  0.00    -0.167 F 
ATOM     27  F   UNL A   1      32.117  24.441  22.059  1.00  0.00    -0.167 F 
ENDBRANCH  18  24
ENDBRANCH   5   8
ENDBRANCH   3   4
ENDBRANCH   2   3
ENDBRANCH   1   2
BRANCH   1  28
ATOM     28  C   UNL A   1      31.776  30.553  26.180  1.00  0.00     0.002 C 
BRANCH  28  29
ATOM     29  C   UNL A   1      31.508  31.972  26.684  1.00  0.00     0.021 C 
BRANCH  29  30
ATOM     30  C   UNL A   1      32.728  32.701  27.230  1.00  0.00     0.116 C 
BRANCH  30  31
ATOM     31  N   UNL A   1      32.429  34.062  27.645  1.00  0.00    -0.352 N 
ATOM     32  C   UNL A   1      33.015  34.824  28.626  1.00  0.00     0.251 C 
ATOM     33  H   UNL A   1      31.699  34.501  27.151  1.00  0.00     0.163 HD
ATOM     34  O   UNL A   1      32.526  35.904  28.944  1.00  0.00    -0.269 OA
BRANCH  32  35
ATOM     35  C   UNL A   1      34.222  34.329  29.321  1.00  0.00     0.039 A 
ATOM     36  C   UNL A   1      35.496  34.601  28.820  1.00  0.00     0.014 A 
ATOM     37  C   UNL A   1      34.076  33.575  30.489  1.00  0.00     0.014 A 
ATOM     38  C   UNL A   1      36.605  33.986  29.388  1.00  0.00     0.010 A 
ATOM     39  C   UNL A   1      35.203  33.033  31.115  1.00  0.00     0.010 A 
ATOM     40  C   UNL A   1      36.474  33.196  30.544  1.00  0.00    -0.014 A 
BRANCH  40  41
ATOM     41  C   UNL A   1      37.689  32.572  31.128  1.00  0.00     0.031 A 
ATOM     42  C   UNL A   1      38.148  32.921  32.517  1.00  0.00     0.074 A 
ATOM     43  C   UNL A   1      38.331  31.619  30.425  1.00  0.00     0.049 A 
ATOM     44  N   UNL A   1      39.119  32.391  33.220  1.00  0.00    -0.248 NA
ATOM     45  C   UNL A   1      37.434  34.004  33.211  1.00  0.00     0.031 C 
ATOM     46  C   UNL A   1      37.981  31.205  29.065  1.00  0.00     0.029 A 
ATOM     47  N   UNL A   1      39.377  30.798  30.763  1.00  0.00    -0.354 N 
ATOM     48  C   UNL A   1      39.138  33.079  34.425  1.00  0.00     0.074 A 
ATOM     49  C   UNL A   1      38.106  34.090  34.351  1.00  0.00     0.031 C 
ATOM     50  C   UNL A   1      38.743  30.160  28.713  1.00  0.00     0.029 A 
ATOM     51  C   UNL A   1      39.674  29.865  29.798  1.00  0.00     0.049 A 
ATOM     52  H   UNL A   1      39.867  30.870  31.614  1.00  0.00     0.167 HD
ATOM     53  C   UNL A   1      39.931  32.871  35.502  1.00  0.00     0.037 A 
ATOM     54  C   UNL A   1      40.590  28.878  29.789  1.00  0.00     0.037 A 
ATOM     55  C   UNL A   1      40.938  31.845  35.584  1.00  0.00     0.049 A 
ATOM     56  C   UNL A   1      41.475  28.688  30.988  1.00  0.00     0.074 A 
ATOM     57  C   UNL A   1      41.768  31.536  36.647  1.00  0.00     0.029 A 
ATOM     58  N   UNL A   1      41.251  30.963  34.560  1.00  0.00    -0.354 N 
ATOM     59  N   UNL A   1      41.456  29.324  32.133  1.00  0.00    -0.248 NA
ATOM     60  C   UNL A   1      42.513  27.654  30.890  1.00  0.00     0.031 C 
ATOM     61  C   UNL A   1      42.612  30.495  36.254  1.00  0.00     0.029 A 
ATOM     62  C   UNL A   1      42.278  30.125  34.961  1.00  0.00     0.049 A 
ATOM     63  H   UNL A   1      40.809  30.936  33.681  1.00  0.00     0.167 HD
ATOM     64  C   UNL A   1      42.469  28.762  32.896  1.00  0.00     0.074 A 
ATOM     65  C   UNL A   1      43.073  27.721  32.091  1.00  0.00     0.031 C 
ATOM     66  C   UNL A   1      42.863  29.088  34.151  1.00  0.00     0.037 A 
BRANCH  53  67
ATOM     67  C   UNL A   1      39.747  33.762  36.697  1.00  0.00     0.064 A 
ATOM     68  C   UNL A   1      40.340  35.031  36.760  1.00  0.00     0.173 A 
ATOM     69  C   UNL A   1      38.900  33.378  37.748  1.00  0.00     0.173 A 
ATOM     70  F   UNL A   1      41.163  35.441  35.784  1.00  0.00    -0.203 F 
ATOM     71  C   UNL A   1      40.100  35.880  37.838  1.00  0.00     0.198 A 
ATOM     72  C   UNL A   1      38.644  34.239  38.812  1.00  0.00     0.198 A 
ATOM     73  F   UNL A   1      38.301  32.177  37.730  1.00  0.00    -0.203 F 
ATOM     74  F   UNL A   1      40.698  37.078  37.891  1.00  0.00    -0.200 F 
ATOM     75  C   UNL A   1      39.245  35.487  38.858  1.00  0.00     0.200 A 
ATOM     76  F   UNL A   1      37.805  33.864  39.788  1.00  0.00    -0.200 F 
ATOM     77  F   UNL A   1      39.001  36.313  39.885  1.00  0.00    -0.200 F 
ENDBRANCH  53  67
BRANCH  54  78
ATOM     78  C   UNL A   1      40.686  27.984  28.607  1.00  0.00     0.064 A 
ATOM     79  C   UNL A   1      39.971  26.779  28.558  1.00  0.00     0.173 A 
ATOM     80  C   UNL A   1      41.454  28.334  27.486  1.00  0.00     0.173 A 
ATOM     81  F   UNL A   1      39.236  26.393  29.611  1.00  0.00    -0.203 F 
ATOM     82  C   UNL A   1      40.021  25.959  27.432  1.00  0.00     0.198 A 
ATOM     83  C   UNL A   1      41.481  27.527  26.352  1.00  0.00     0.198 A 
ATOM     84  F   UNL A   1      42.153  29.479  27.483  1.00  0.00    -0.203 F 
ATOM     85  F   UNL A   1      39.346  24.802  27.419  1.00  0.00    -0.200 F 
ATOM     86  C   UNL A   1      40.767  26.339  26.327  1.00  0.00     0.200 A 
ATOM     87  F   UNL A   1      42.188  27.907  25.280  1.00  0.00    -0.200 F 
ATOM     88  F   UNL A   1      40.798  25.560  25.237  1.00  0.00    -0.200 F 
ENDBRANCH  54  78
BRANCH  66  89
ATOM     89  C   UNL A   1      43.997  28.311  34.749  1.00  0.00     0.064 A 
ATOM     90  C   UNL A   1      45.315  28.780  34.677  1.00  0.00     0.173 A 
ATOM     91  C   UNL A   1      43.747  27.149  35.494  1.00  0.00     0.173 A 
ATOM     92  F   UNL A   1      45.603  29.880  33.966  1.00  0.00    -0.203 F 
ATOM     93  C   UNL A   1      46.346  28.112  35.333  1.00  0.00     0.198 A 
ATOM     94  C   UNL A   1      44.775  26.498  36.168  1.00  0.00     0.198 A 
ATOM     95  F   UNL A   1      42.498  26.668  35.598  1.00  0.00    -0.203 F 
ATOM     96  F   UNL A   1      47.603  28.568  35.241  1.00  0.00    -0.200 F 
ATOM     97  C   UNL A   1      46.073  26.980  36.087  1.00  0.00     0.200 A 
ATOM     98  F   UNL A   1      44.508  25.413  36.908  1.00  0.00    -0.200 F 
ATOM     99  F   UNL A   1      47.063  26.354  36.740  1.00  0.00    -0.200 F 
ENDBRANCH  66  89
ENDBRANCH  40  41
ENDBRANCH  32  35
ENDBRANCH  30  31
ENDBRANCH  29  30
ENDBRANCH  28  29
ENDBRANCH   1  28
TORSDOF 17
ENDMDL
MODEL 3
REMARK VINA RESULT:     -12.5      0.453      1.672
REMARK SMILES CC(C)CCc1cc2c(cc1Cl)C=C(C(=O)NCCCCCCNC(=O)c1ccc(-c3c4nc(c(-c5c(F)c(F)c(F)c(F)c5F)c5ccc([nH]5)c(-c5c(F)c(F)c(F)c(F)c5F)c5nc(c(-c6c(F)c(F)c(F)c(F)c6F)c6ccc3[nH]6)C=C5)C=C4)cc1)[C@@H](C(F)(F)F)O2
REMARK SMILES IDX 20 1 19 2 18 3 17 4 15 5 16 6 14 8 6 9 7 10 11 11 8 12 10 13
REMARK SMILES IDX 12 14 9 15 95 16 13 17 90 18 5 19 4 20 2 21 1 22 3 23 91 24
REMARK SMILES IDX 92 25 93 26 94 27 21 28 22 29 23 30 24 31 25 32 26 34 27 35
REMARK SMILES IDX 28 36 89 37 29 38 88 39 30 40 31 41 32 42 82 43 33 44 87 45
REMARK SMILES IDX 81 46 83 47 34 48 86 49 80 50 79 51 35 53 67 54 47 55 66 56
REMARK SMILES IDX 48 57 51 58 65 59 84 60 49 61 50 62 64 64 85 65 52 66 36 67
REMARK SMILES IDX 37 68 45 69 38 70 39 71 43 72 46 73 40 74 41 75 44 76 42 77
REMARK SMILES IDX 68 78 69 79 77 80 70 81 71 82 75 83 78 84 72 85 73 86 76 87
REMARK SMILES IDX 74 88 53 89 54 90 62 91 55 92 56 93 60 94 63 95 57 96 58 97
REMARK SMILES IDX 61 98 59 99
REMARK H PARENT 17 7 24 33 83 52 51 63
REMARK Flexibility Score: inf
ROOT
ATOM      1  C   UNL A   1      31.765  29.505  26.455  1.00  0.00     0.002 C 
ENDROOT
BRANCH   1   2
ATOM      2  C   UNL A   1      33.064  29.349  27.252  1.00  0.00     0.021 C 
BRANCH   2   3
ATOM      3  C   UNL A   1      34.066  28.380  26.631  1.00  0.00     0.116 C 
BRANCH   3   4
ATOM      4  N   UNL A   1      33.987  28.381  25.182  1.00  0.00    -0.352 N 
ATOM      5  C   UNL A   1      33.688  27.499  24.202  1.00  0.00     0.251 C 
ATOM      6  O   UNL A   1      33.727  27.961  23.056  1.00  0.00    -0.270 OA
ATOM      7  H   UNL A   1      34.213  29.264  24.811  1.00  0.00     0.163 HD
BRANCH   5   8
ATOM      8  C   UNL A   1      33.327  26.064  24.403  1.00  0.00     0.067 C 
ATOM      9  C   UNL A   1      33.531  21.081  25.270  1.00  0.00    -0.026 A 
ATOM     10  C   UNL A   1      32.504  22.041  25.243  1.00  0.00     0.052 A 
ATOM     11  C   UNL A   1      34.845  21.513  25.019  1.00  0.00     0.045 A 
ATOM     12  C   UNL A   1      32.787  23.382  24.994  1.00  0.00     0.128 A 
ATOM     13  C   UNL A   1      35.126  22.871  24.814  1.00  0.00     0.032 A 
ATOM     14  Cl  UNL A   1      36.177  20.419  24.923  1.00  0.00    -0.084 Cl
ATOM     15  C   UNL A   1      34.096  23.811  24.806  1.00  0.00     0.019 A 
ATOM     16  O   UNL A   1      31.724  24.236  24.991  1.00  0.00    -0.475 OA
ATOM     17  C   UNL A   1      34.361  25.233  24.632  1.00  0.00     0.025 C 
ATOM     18  C   UNL A   1      31.930  25.512  24.323  1.00  0.00     0.314 C 
BRANCH   9  19
ATOM     19  C   UNL A   1      33.149  19.647  25.566  1.00  0.00     0.037 C 
BRANCH  19  20
ATOM     20  C   UNL A   1      33.146  18.686  24.366  1.00  0.00     0.008 C 
BRANCH  20  21
ATOM     21  C   UNL A   1      33.950  17.385  24.545  1.00  0.00    -0.017 C 
ATOM     22  C   UNL A   1      33.329  16.463  25.594  1.00  0.00     0.007 C 
ATOM     23  C   UNL A   1      34.055  16.656  23.202  1.00  0.00     0.007 C 
ENDBRANCH  20  21
ENDBRANCH  19  20
ENDBRANCH   9  19
BRANCH  18  24
ATOM     24  C   UNL A   1      31.415  25.419  22.875  1.00  0.00     0.429 C 
ATOM     25  F   UNL A   1      30.384  24.541  22.792  1.00  0.00    -0.167 F 
ATOM     26  F   UNL A   1      30.941  26.602  22.416  1.00  0.00    -0.167 F 
ATOM     27  F   UNL A   1      32.367  25.012  22.006  1.00  0.00    -0.167 F 
ENDBRANCH  18  24
ENDBRANCH   5   8
ENDBRANCH   3   4
ENDBRANCH   2   3
ENDBRANCH   1   2
BRANCH   1  28
ATOM     28  C   UNL A   1      31.511  30.900  25.867  1.00  0.00     0.002 C 
BRANCH  28  29
ATOM     29  C   UNL A   1      31.333  32.027  26.886  1.00  0.00     0.021 C 
BRANCH  29  30
ATOM     30  C   UNL A   1      32.600  32.806  27.211  1.00  0.00     0.116 C 
BRANCH  30  31
ATOM     31  N   UNL A   1      32.330  34.183  27.591  1.00  0.00    -0.352 N 
ATOM     32  C   UNL A   1      32.940  34.962  28.543  1.00  0.00     0.251 C 
ATOM     33  H   UNL A   1      31.602  34.622  27.092  1.00  0.00     0.163 HD
ATOM     34  O   UNL A   1      32.474  36.059  28.836  1.00  0.00    -0.269 OA
BRANCH  32  35
ATOM     35  C   UNL A   1      34.146  34.464  29.240  1.00  0.00     0.039 A 
ATOM     36  C   UNL A   1      35.416  34.661  28.697  1.00  0.00     0.014 A 
ATOM     37  C   UNL A   1      34.001  33.783  30.453  1.00  0.00     0.014 A 
ATOM     38  C   UNL A   1      36.517  34.040  29.275  1.00  0.00     0.010 A 
ATOM     39  C   UNL A   1      35.123  33.238  31.085  1.00  0.00     0.010 A 
ATOM     40  C   UNL A   1      36.385  33.323  30.477  1.00  0.00    -0.014 A 
BRANCH  40  41
ATOM     41  C   UNL A   1      37.592  32.690  31.070  1.00  0.00     0.031 A 
ATOM     42  C   UNL A   1      38.054  33.048  32.455  1.00  0.00     0.074 A 
ATOM     43  C   UNL A   1      38.222  31.720  30.379  1.00  0.00     0.049 A 
ATOM     44  N   UNL A   1      39.017  32.514  33.166  1.00  0.00    -0.248 NA
ATOM     45  C   UNL A   1      37.353  34.149  33.136  1.00  0.00     0.031 C 
ATOM     46  C   UNL A   1      37.868  31.296  29.023  1.00  0.00     0.029 A 
ATOM     47  N   UNL A   1      39.257  30.890  30.728  1.00  0.00    -0.354 N 
ATOM     48  C   UNL A   1      39.043  33.216  34.363  1.00  0.00     0.074 A 
ATOM     49  C   UNL A   1      38.025  34.239  34.276  1.00  0.00     0.031 C 
ATOM     50  C   UNL A   1      38.617  30.237  28.684  1.00  0.00     0.029 A 
ATOM     51  C   UNL A   1      39.543  29.943  29.774  1.00  0.00     0.049 A 
ATOM     52  H   UNL A   1      39.747  30.966  31.578  1.00  0.00     0.167 HD
ATOM     53  C   UNL A   1      39.832  33.010  35.444  1.00  0.00     0.037 A 
ATOM     54  C   UNL A   1      40.447  28.944  29.777  1.00  0.00     0.037 A 
ATOM     55  C   UNL A   1      40.826  31.973  35.538  1.00  0.00     0.049 A 
ATOM     56  C   UNL A   1      41.328  28.756  30.979  1.00  0.00     0.074 A 
ATOM     57  C   UNL A   1      41.650  31.665  36.605  1.00  0.00     0.029 A 
ATOM     58  N   UNL A   1      41.128  31.074  34.525  1.00  0.00    -0.354 N 
ATOM     59  N   UNL A   1      41.316  29.405  32.117  1.00  0.00    -0.248 NA
ATOM     60  C   UNL A   1      42.353  27.708  30.894  1.00  0.00     0.031 C 
ATOM     61  C   UNL A   1      42.482  30.608  36.226  1.00  0.00     0.029 A 
ATOM     62  C   UNL A   1      42.145  30.228  34.937  1.00  0.00     0.049 A 
ATOM     63  H   UNL A   1      40.687  31.044  33.646  1.00  0.00     0.167 HD
ATOM     64  C   UNL A   1      42.320  28.840  32.888  1.00  0.00     0.074 A 
ATOM     65  C   UNL A   1      42.912  27.782  32.095  1.00  0.00     0.031 C 
ATOM     66  C   UNL A   1      42.717  29.174  34.139  1.00  0.00     0.037 A 
BRANCH  53  67
ATOM     67  C   UNL A   1      39.658  33.916  36.628  1.00  0.00     0.064 A 
ATOM     68  C   UNL A   1      38.839  33.560  37.708  1.00  0.00     0.173 A 
ATOM     69  C   UNL A   1      40.387  35.112  36.723  1.00  0.00     0.173 A 
ATOM     70  F   UNL A   1      38.116  32.431  37.663  1.00  0.00    -0.203 F 
ATOM     71  C   UNL A   1      38.746  34.373  38.835  1.00  0.00     0.198 A 
ATOM     72  C   UNL A   1      40.311  35.910  37.861  1.00  0.00     0.198 A 
ATOM     73  F   UNL A   1      41.194  35.493  35.720  1.00  0.00    -0.203 F 
ATOM     74  F   UNL A   1      37.936  34.025  39.845  1.00  0.00    -0.200 F 
ATOM     75  C   UNL A   1      39.489  35.541  38.915  1.00  0.00     0.200 A 
ATOM     76  F   UNL A   1      41.042  37.030  37.943  1.00  0.00    -0.200 F 
ATOM     77  F   UNL A   1      39.413  36.312  40.008  1.00  0.00    -0.200 F 
ENDBRANCH  53  67
BRANCH  54  78
ATOM     78  C   UNL A   1      40.533  28.035  28.606  1.00  0.00     0.064 A 
ATOM     79  C   UNL A   1      41.326  28.363  27.498  1.00  0.00     0.173 A 
ATOM     80  C   UNL A   1      39.866  26.800  28.589  1.00  0.00     0.173 A 
ATOM     81  F   UNL A   1      41.970  29.539  27.460  1.00  0.00    -0.203 F 
ATOM     82  C   UNL A   1      41.448  27.492  26.417  1.00  0.00     0.198 A 
ATOM     83  C   UNL A   1      40.010  25.919  27.521  1.00  0.00     0.198 A 
ATOM     84  F   UNL A   1      39.099  26.438  29.628  1.00  0.00    -0.203 F 
ATOM     85  F   UNL A   1      42.194  27.840  25.360  1.00  0.00    -0.200 F 
ATOM     86  C   UNL A   1      40.799  26.266  26.435  1.00  0.00     0.200 A 
ATOM     87  F   UNL A   1      39.397  24.729  27.550  1.00  0.00    -0.200 F 
ATOM     88  F   UNL A   1      40.933  25.420  25.404  1.00  0.00    -0.200 F 
ENDBRANCH  54  78
BRANCH  66  89
ATOM     89  C   UNL A   1      43.841  28.390  34.748  1.00  0.00     0.064 A 
ATOM     90  C   UNL A   1      45.169  28.821  34.638  1.00  0.00     0.173 A 
ATOM     91  C   UNL A   1      43.573  27.263  35.538  1.00  0.00     0.173 A 
ATOM     92  F   UNL A   1      45.473  29.886  33.883  1.00  0.00    -0.203 F 
ATOM     93  C   UNL A   1      46.192  28.151  35.302  1.00  0.00     0.198 A 
ATOM     94  C   UNL A   1      44.595  26.610  36.219  1.00  0.00     0.198 A 
ATOM     95  F   UNL A   1      42.314  26.819  35.679  1.00  0.00    -0.203 F 
ATOM     96  F   UNL A   1      47.459  28.569  35.174  1.00  0.00    -0.200 F 
ATOM     97  C   UNL A   1      45.903  27.054  36.101  1.00  0.00     0.200 A 
ATOM     98  F   UNL A   1      44.312  25.559  37.003  1.00  0.00    -0.200 F 
ATOM     99  F   UNL A   1      46.887  26.426  36.761  1.00  0.00    -0.200 F 
ENDBRANCH  66  89
ENDBRANCH  40  41
ENDBRANCH  32  35
ENDBRANCH  30  31
ENDBRANCH  29  30
ENDBRANCH  28  29
ENDBRANCH   1  28
TORSDOF 17
ENDMDL
