MODEL 1
REMARK VINA RESULT:     -12.0      0.000      0.000
REMARK SMILES COc1ccc(CSc2ncccc2C(=O)NCCCCCCNC(=O)c2ccc(-c3c4nc(c(-c5c(F)c(F)c(F)c(F)c5F)c5ccc([nH]5)c(-c5c(F)c(F)c(F)c(F)c5F)c5nc(c(-c6c(F)c(F)c(F)c(F)c6F)c6ccc3[nH]6)C=C5)C=C4)cc2)cc1
REMARK SMILES IDX 19 1 18 2 17 3 15 4 16 5 14 7 9 8 10 9 11 10 13 11 12 12
REMARK SMILES IDX 8 13 7 14 6 15 3 16 4 17 91 18 5 19 90 20 2 21 1 22 20 23
REMARK SMILES IDX 21 24 22 25 23 26 24 27 25 28 26 30 27 31 28 32 89 33 29 34
REMARK SMILES IDX 88 35 30 36 31 37 32 38 82 39 33 40 87 41 81 42 83 43 34 44
REMARK SMILES IDX 86 45 80 46 79 47 35 49 67 50 47 51 66 52 48 53 51 54 65 55
REMARK SMILES IDX 84 56 49 57 50 58 64 60 85 61 52 62 36 63 37 64 45 65 38 66
REMARK SMILES IDX 39 67 43 68 46 69 40 70 41 71 44 72 42 73 68 74 69 75 77 76
REMARK SMILES IDX 70 77 71 78 75 79 78 80 72 81 73 82 76 83 74 84 53 85 54 86
REMARK SMILES IDX 62 87 55 88 56 89 60 90 63 91 57 92 58 93 61 94 59 95
REMARK H PARENT 17 6 24 29 83 48 51 59
REMARK Flexibility Score: inf
ROOT
ATOM      1  C   UNL A   1      33.548  29.645  26.929  1.00  0.00     0.021 C 
ENDROOT
BRANCH   1   2
ATOM      2  C   UNL A   1      34.005  28.190  27.011  1.00  0.00     0.116 C 
BRANCH   2   3
ATOM      3  N   UNL A   1      34.043  27.560  25.710  1.00  0.00    -0.352 N 
ATOM      4  C   UNL A   1      33.729  26.352  25.144  1.00  0.00     0.254 C 
ATOM      5  O   UNL A   1      33.857  26.365  23.918  1.00  0.00    -0.269 OA
ATOM      6  H   UNL A   1      34.397  28.180  25.033  1.00  0.00     0.163 HD
BRANCH   4   7
ATOM      7  C   UNL A   1      33.236  25.120  25.851  1.00  0.00     0.072 A 
ATOM      8  C   UNL A   1      31.933  25.050  26.385  1.00  0.00     0.109 A 
ATOM      9  N   UNL A   1      31.479  23.991  27.124  1.00  0.00    -0.249 NA
ATOM     10  C   UNL A   1      32.310  22.962  27.352  1.00  0.00     0.112 A 
ATOM     11  C   UNL A   1      34.030  23.985  26.070  1.00  0.00     0.018 A 
ATOM     12  C   UNL A   1      33.578  22.906  26.832  1.00  0.00     0.021 A 
BRANCH   8  13
ATOM     13  S   UNL A   1      30.644  26.272  26.197  1.00  0.00    -0.101 SA
BRANCH  13  14
ATOM     14  C   UNL A   1      30.244  25.988  24.449  1.00  0.00     0.112 C 
BRANCH  14  15
ATOM     15  C   UNL A   1      29.978  27.237  23.640  1.00  0.00    -0.037 A 
ATOM     16  C   UNL A   1      29.457  29.608  22.218  1.00  0.00     0.118 A 
ATOM     17  C   UNL A   1      30.770  29.214  22.462  1.00  0.00     0.047 A 
ATOM     18  C   UNL A   1      28.400  28.808  22.650  1.00  0.00     0.047 A 
ATOM     19  C   UNL A   1      31.029  28.048  23.185  1.00  0.00     0.008 A 
ATOM     20  C   UNL A   1      28.661  27.630  23.360  1.00  0.00     0.008 A 
BRANCH  16  21
ATOM     21  O   UNL A   1      29.283  30.757  21.495  1.00  0.00    -0.497 OA
ATOM     22  C   UNL A   1      27.936  30.948  21.069  1.00  0.00     0.278 C 
ENDBRANCH  16  21
ENDBRANCH  14  15
ENDBRANCH  13  14
ENDBRANCH   8  13
ENDBRANCH   4   7
ENDBRANCH   2   3
ENDBRANCH   1   2
BRANCH   1  23
ATOM     23  C   UNL A   1      32.023  29.821  26.913  1.00  0.00     0.002 C 
BRANCH  23  24
ATOM     24  C   UNL A   1      31.489  30.900  25.959  1.00  0.00     0.002 C 
BRANCH  24  25
ATOM     25  C   UNL A   1      31.292  32.287  26.575  1.00  0.00     0.021 C 
BRANCH  25  26
ATOM     26  C   UNL A   1      32.521  32.852  27.275  1.00  0.00     0.116 C 
BRANCH  26  27
ATOM     27  N   UNL A   1      32.360  34.256  27.610  1.00  0.00    -0.352 N 
ATOM     28  C   UNL A   1      32.991  35.001  28.576  1.00  0.00     0.251 C 
ATOM     29  H   UNL A   1      31.702  34.746  27.066  1.00  0.00     0.163 HD
ATOM     30  O   UNL A   1      32.585  36.124  28.854  1.00  0.00    -0.269 OA
BRANCH  28  31
ATOM     31  C   UNL A   1      34.155  34.444  29.296  1.00  0.00     0.039 A 
ATOM     32  C   UNL A   1      33.949  33.818  30.529  1.00  0.00     0.014 A 
ATOM     33  C   UNL A   1      35.446  34.555  28.773  1.00  0.00     0.014 A 
ATOM     34  C   UNL A   1      35.029  33.254  31.209  1.00  0.00     0.010 A 
ATOM     35  C   UNL A   1      36.513  33.933  29.418  1.00  0.00     0.010 A 
ATOM     36  C   UNL A   1      36.315  33.280  30.644  1.00  0.00    -0.014 A 
BRANCH  36  37
ATOM     37  C   UNL A   1      37.462  32.624  31.319  1.00  0.00     0.031 A 
ATOM     38  C   UNL A   1      38.174  31.476  30.661  1.00  0.00     0.074 A 
ATOM     39  C   UNL A   1      37.820  33.021  32.554  1.00  0.00     0.049 A 
ATOM     40  N   UNL A   1      39.155  30.738  31.116  1.00  0.00    -0.248 NA
ATOM     41  C   UNL A   1      37.700  31.086  29.323  1.00  0.00     0.031 C 
ATOM     42  C   UNL A   1      37.177  34.092  33.316  1.00  0.00     0.029 A 
ATOM     43  N   UNL A   1      38.807  32.564  33.392  1.00  0.00    -0.354 N 
ATOM     44  C   UNL A   1      39.406  29.793  30.131  1.00  0.00     0.074 A 
ATOM     45  C   UNL A   1      38.440  30.015  29.076  1.00  0.00     0.031 C 
ATOM     46  C   UNL A   1      37.799  34.226  34.497  1.00  0.00     0.029 A 
ATOM     47  C   UNL A   1      38.861  33.228  34.592  1.00  0.00     0.049 A 
ATOM     48  H   UNL A   1      39.418  31.829  33.154  1.00  0.00     0.167 HD
ATOM     49  C   UNL A   1      40.369  28.841  30.098  1.00  0.00     0.037 A 
ATOM     50  C   UNL A   1      39.673  33.050  35.651  1.00  0.00     0.037 A 
ATOM     51  C   UNL A   1      41.343  28.639  31.140  1.00  0.00     0.049 A 
ATOM     52  C   UNL A   1      40.728  31.980  35.595  1.00  0.00     0.074 A 
ATOM     53  C   UNL A   1      42.403  27.751  31.171  1.00  0.00     0.029 A 
ATOM     54  N   UNL A   1      41.370  29.336  32.340  1.00  0.00    -0.354 N 
ATOM     55  N   UNL A   1      41.004  31.140  34.628  1.00  0.00    -0.248 NA
ATOM     56  C   UNL A   1      41.588  31.839  36.778  1.00  0.00     0.031 C 
ATOM     57  C   UNL A   1      43.042  27.875  32.411  1.00  0.00     0.029 A 
ATOM     58  C   UNL A   1      42.410  28.876  33.131  1.00  0.00     0.049 A 
ATOM     59  H   UNL A   1      40.742  30.051  32.592  1.00  0.00     0.167 HD
ATOM     60  C   UNL A   1      42.081  30.386  35.073  1.00  0.00     0.074 A 
ATOM     61  C   UNL A   1      42.419  30.880  36.393  1.00  0.00     0.031 C 
ATOM     62  C   UNL A   1      42.732  29.376  34.445  1.00  0.00     0.037 A 
BRANCH  49  63
ATOM     63  C   UNL A   1      40.413  27.940  28.897  1.00  0.00     0.064 A 
ATOM     64  C   UNL A   1      39.708  26.728  28.858  1.00  0.00     0.173 A 
ATOM     65  C   UNL A   1      41.153  28.304  27.761  1.00  0.00     0.173 A 
ATOM     66  F   UNL A   1      38.993  26.328  29.920  1.00  0.00    -0.203 F 
ATOM     67  C   UNL A   1      39.771  25.896  27.742  1.00  0.00     0.198 A 
ATOM     68  C   UNL A   1      41.188  27.486  26.636  1.00  0.00     0.198 A 
ATOM     69  F   UNL A   1      41.841  29.456  27.743  1.00  0.00    -0.203 F 
ATOM     70  F   UNL A   1      39.135  24.717  27.752  1.00  0.00    -0.200 F 
ATOM     71  C   UNL A   1      40.507  26.278  26.631  1.00  0.00     0.200 A 
ATOM     72  F   UNL A   1      41.889  27.862  25.557  1.00  0.00    -0.200 F 
ATOM     73  F   UNL A   1      40.565  25.478  25.557  1.00  0.00    -0.200 F 
ENDBRANCH  49  63
BRANCH  50  74
ATOM     74  C   UNL A   1      39.535  33.929  36.841  1.00  0.00     0.064 A 
ATOM     75  C   UNL A   1      38.777  33.523  37.947  1.00  0.00     0.173 A 
ATOM     76  C   UNL A   1      40.166  35.179  36.904  1.00  0.00     0.173 A 
ATOM     77  F   UNL A   1      38.139  32.344  37.924  1.00  0.00    -0.203 F 
ATOM     78  C   UNL A   1      38.644  34.340  39.068  1.00  0.00     0.198 A 
ATOM     79  C   UNL A   1      40.055  35.984  38.035  1.00  0.00     0.198 A 
ATOM     80  F   UNL A   1      40.906  35.611  35.872  1.00  0.00    -0.203 F 
ATOM     81  F   UNL A   1      37.885  33.943  40.098  1.00  0.00    -0.200 F 
ATOM     82  C   UNL A   1      39.290  35.566  39.114  1.00  0.00     0.200 A 
ATOM     83  F   UNL A   1      40.692  37.162  38.081  1.00  0.00    -0.200 F 
ATOM     84  F   UNL A   1      39.170  36.348  40.195  1.00  0.00    -0.200 F 
ENDBRANCH  50  74
BRANCH  62  85
ATOM     85  C   UNL A   1      43.888  28.750  35.168  1.00  0.00     0.064 A 
ATOM     86  C   UNL A   1      43.717  27.636  36.002  1.00  0.00     0.173 A 
ATOM     87  C   UNL A   1      45.189  29.250  34.998  1.00  0.00     0.173 A 
ATOM     88  F   UNL A   1      42.491  27.131  36.212  1.00  0.00    -0.203 F 
ATOM     89  C   UNL A   1      44.802  27.060  36.658  1.00  0.00     0.198 A 
ATOM     90  C   UNL A   1      46.275  28.653  35.631  1.00  0.00     0.198 A 
ATOM     91  F   UNL A   1      45.406  30.311  34.206  1.00  0.00    -0.203 F 
ATOM     92  F   UNL A   1      44.608  26.024  37.487  1.00  0.00    -0.200 F 
ATOM     93  C   UNL A   1      46.080  27.563  36.466  1.00  0.00     0.200 A 
ATOM     94  F   UNL A   1      47.510  29.133  35.434  1.00  0.00    -0.200 F 
ATOM     95  F   UNL A   1      47.124  27.003  37.093  1.00  0.00    -0.200 F 
ENDBRANCH  62  85
ENDBRANCH  36  37
ENDBRANCH  28  31
ENDBRANCH  26  27
ENDBRANCH  25  26
ENDBRANCH  24  25
ENDBRANCH  23  24
ENDBRANCH   1  23
TORSDOF 17
ENDMDL
MODEL 2
REMARK VINA RESULT:     -11.9      0.862      2.203
REMARK SMILES COc1ccc(CSc2ncccc2C(=O)NCCCCCCNC(=O)c2ccc(-c3c4nc(c(-c5c(F)c(F)c(F)c(F)c5F)c5ccc([nH]5)c(-c5c(F)c(F)c(F)c(F)c5F)c5nc(c(-c6c(F)c(F)c(F)c(F)c6F)c6ccc3[nH]6)C=C5)C=C4)cc2)cc1
REMARK SMILES IDX 19 1 18 2 17 3 15 4 16 5 14 7 9 8 10 9 11 10 13 11 12 12
REMARK SMILES IDX 8 13 7 14 6 15 3 16 4 17 91 18 5 19 90 20 2 21 1 22 20 23
REMARK SMILES IDX 21 24 22 25 23 26 24 27 25 28 26 30 27 31 28 32 89 33 29 34
REMARK SMILES IDX 88 35 30 36 31 37 32 38 82 39 33 40 87 41 81 42 83 43 34 44
REMARK SMILES IDX 86 45 80 46 79 47 35 49 67 50 47 51 66 52 48 53 51 54 65 55
REMARK SMILES IDX 84 56 49 57 50 58 64 60 85 61 52 62 36 63 37 64 45 65 38 66
REMARK SMILES IDX 39 67 43 68 46 69 40 70 41 71 44 72 42 73 68 74 69 75 77 76
REMARK SMILES IDX 70 77 71 78 75 79 78 80 72 81 73 82 76 83 74 84 53 85 54 86
REMARK SMILES IDX 62 87 55 88 56 89 60 90 63 91 57 92 58 93 61 94 59 95
REMARK H PARENT 17 6 24 29 83 48 51 59
REMARK Flexibility Score: inf
ROOT
ATOM      1  C   UNL A   1      32.461  28.546  27.108  1.00  0.00     0.021 C 
ENDROOT
BRANCH   1   2
ATOM      2  C   UNL A   1      33.693  27.905  26.472  1.00  0.00     0.116 C 
BRANCH   2   3
ATOM      3  N   UNL A   1      33.662  27.987  25.029  1.00  0.00    -0.352 N 
ATOM      4  C   UNL A   1      33.416  27.167  23.958  1.00  0.00     0.254 C 
ATOM      5  O   UNL A   1      33.417  27.783  22.890  1.00  0.00    -0.269 OA
ATOM      6  H   UNL A   1      33.881  28.897  24.727  1.00  0.00     0.163 HD
BRANCH   4   7
ATOM      7  C   UNL A   1      33.125  25.693  23.993  1.00  0.00     0.072 A 
ATOM      8  C   UNL A   1      31.895  25.197  24.475  1.00  0.00     0.109 A 
ATOM      9  N   UNL A   1      31.629  23.862  24.620  1.00  0.00    -0.249 NA
ATOM     10  C   UNL A   1      32.579  22.975  24.286  1.00  0.00     0.112 A 
ATOM     11  C   UNL A   1      34.049  24.713  23.601  1.00  0.00     0.018 A 
ATOM     12  C   UNL A   1      33.788  23.350  23.757  1.00  0.00     0.021 A 
BRANCH   8  13
ATOM     13  S   UNL A   1      30.477  26.169  24.954  1.00  0.00    -0.101 SA
BRANCH  13  14
ATOM     14  C   UNL A   1      29.957  26.734  23.310  1.00  0.00     0.112 C 
BRANCH  14  15
ATOM     15  C   UNL A   1      29.332  28.110  23.272  1.00  0.00    -0.037 A 
ATOM     16  C   UNL A   1      28.203  30.682  23.109  1.00  0.00     0.118 A 
ATOM     17  C   UNL A   1      27.389  29.555  23.030  1.00  0.00     0.047 A 
ATOM     18  C   UNL A   1      29.575  30.535  23.303  1.00  0.00     0.047 A 
ATOM     19  C   UNL A   1      27.951  28.278  23.091  1.00  0.00     0.008 A 
ATOM     20  C   UNL A   1      30.136  29.255  23.381  1.00  0.00     0.008 A 
BRANCH  16  21
ATOM     21  O   UNL A   1      27.577  31.898  23.051  1.00  0.00    -0.497 OA
ATOM     22  C   UNL A   1      28.467  32.966  22.731  1.00  0.00     0.278 C 
ENDBRANCH  16  21
ENDBRANCH  14  15
ENDBRANCH  13  14
ENDBRANCH   8  13
ENDBRANCH   4   7
ENDBRANCH   2   3
ENDBRANCH   1   2
BRANCH   1  23
ATOM     23  C   UNL A   1      32.518  30.079  27.174  1.00  0.00     0.002 C 
BRANCH  23  24
ATOM     24  C   UNL A   1      31.444  30.820  26.363  1.00  0.00     0.002 C 
BRANCH  24  25
ATOM     25  C   UNL A   1      31.404  32.338  26.554  1.00  0.00     0.021 C 
BRANCH  25  26
ATOM     26  C   UNL A   1      32.623  32.923  27.257  1.00  0.00     0.116 C 
BRANCH  26  27
ATOM     27  N   UNL A   1      32.408  34.300  27.666  1.00  0.00    -0.352 N 
ATOM     28  C   UNL A   1      32.989  35.008  28.689  1.00  0.00     0.251 C 
ATOM     29  H   UNL A   1      31.747  34.798  27.134  1.00  0.00     0.163 HD
ATOM     30  O   UNL A   1      32.540  36.099  29.020  1.00  0.00    -0.269 OA
BRANCH  28  31
ATOM     31  C   UNL A   1      34.154  34.447  29.407  1.00  0.00     0.039 A 
ATOM     32  C   UNL A   1      33.947  33.808  30.632  1.00  0.00     0.014 A 
ATOM     33  C   UNL A   1      35.446  34.568  28.888  1.00  0.00     0.014 A 
ATOM     34  C   UNL A   1      35.027  33.240  31.310  1.00  0.00     0.010 A 
ATOM     35  C   UNL A   1      36.513  33.943  29.530  1.00  0.00     0.010 A 
ATOM     36  C   UNL A   1      36.314  33.277  30.749  1.00  0.00    -0.014 A 
BRANCH  36  37
ATOM     37  C   UNL A   1      37.462  32.618  31.420  1.00  0.00     0.031 A 
ATOM     38  C   UNL A   1      38.167  31.468  30.760  1.00  0.00     0.074 A 
ATOM     39  C   UNL A   1      37.824  33.015  32.654  1.00  0.00     0.049 A 
ATOM     40  N   UNL A   1      39.148  30.727  31.213  1.00  0.00    -0.248 NA
ATOM     41  C   UNL A   1      37.688  31.078  29.425  1.00  0.00     0.031 C 
ATOM     42  C   UNL A   1      37.187  34.088  33.417  1.00  0.00     0.029 A 
ATOM     43  N   UNL A   1      38.813  32.556  33.488  1.00  0.00    -0.354 N 
ATOM     44  C   UNL A   1      39.393  29.781  30.228  1.00  0.00     0.074 A 
ATOM     45  C   UNL A   1      38.424  30.004  29.176  1.00  0.00     0.031 C 
ATOM     46  C   UNL A   1      37.814  34.222  34.596  1.00  0.00     0.029 A 
ATOM     47  C   UNL A   1      38.873  33.220  34.688  1.00  0.00     0.049 A 
ATOM     48  H   UNL A   1      39.421  31.819  33.249  1.00  0.00     0.167 HD
ATOM     49  C   UNL A   1      40.353  28.825  30.193  1.00  0.00     0.037 A 
ATOM     50  C   UNL A   1      39.688  33.040  35.745  1.00  0.00     0.037 A 
ATOM     51  C   UNL A   1      41.330  28.622  31.231  1.00  0.00     0.049 A 
ATOM     52  C   UNL A   1      40.739  31.968  35.686  1.00  0.00     0.074 A 
ATOM     53  C   UNL A   1      42.388  27.730  31.259  1.00  0.00     0.029 A 
ATOM     54  N   UNL A   1      41.363  29.320  32.430  1.00  0.00    -0.354 N 
ATOM     55  N   UNL A   1      41.010  31.126  34.719  1.00  0.00    -0.248 NA
ATOM     56  C   UNL A   1      41.604  31.824  36.866  1.00  0.00     0.031 C 
ATOM     57  C   UNL A   1      43.031  27.853  32.496  1.00  0.00     0.029 A 
ATOM     58  C   UNL A   1      42.405  28.857  33.218  1.00  0.00     0.049 A 
ATOM     59  H   UNL A   1      40.738  30.037  32.684  1.00  0.00     0.167 HD
ATOM     60  C   UNL A   1      42.086  30.369  35.160  1.00  0.00     0.074 A 
ATOM     61  C   UNL A   1      42.430  30.863  36.478  1.00  0.00     0.031 C 
ATOM     62  C   UNL A   1      42.732  29.357  34.531  1.00  0.00     0.037 A 
BRANCH  49  63
ATOM     63  C   UNL A   1      40.390  27.924  28.991  1.00  0.00     0.064 A 
ATOM     64  C   UNL A   1      41.141  28.246  27.851  1.00  0.00     0.173 A 
ATOM     65  C   UNL A   1      39.679  26.714  28.988  1.00  0.00     0.173 A 
ATOM     66  F   UNL A   1      41.831  29.396  27.798  1.00  0.00    -0.203 F 
ATOM     67  C   UNL A   1      41.152  27.407  26.739  1.00  0.00     0.198 A 
ATOM     68  C   UNL A   1      39.718  25.863  27.886  1.00  0.00     0.198 A 
ATOM     69  F   UNL A   1      38.949  26.355  30.054  1.00  0.00    -0.203 F 
ATOM     70  F   UNL A   1      41.832  27.764  25.640  1.00  0.00    -0.200 F 
ATOM     71  C   UNL A   1      40.445  26.215  26.759  1.00  0.00     0.200 A 
ATOM     72  F   UNL A   1      39.045  24.705  27.912  1.00  0.00    -0.200 F 
ATOM     73  F   UNL A   1      40.458  25.408  25.689  1.00  0.00    -0.200 F 
ENDBRANCH  49  63
BRANCH  50  74
ATOM     74  C   UNL A   1      39.557  33.921  36.934  1.00  0.00     0.064 A 
ATOM     75  C   UNL A   1      40.194  35.167  36.977  1.00  0.00     0.173 A 
ATOM     76  C   UNL A   1      38.784  33.543  38.041  1.00  0.00     0.173 A 
ATOM     77  F   UNL A   1      40.960  35.562  35.948  1.00  0.00    -0.203 F 
ATOM     78  C   UNL A   1      40.074  36.000  38.086  1.00  0.00     0.198 A 
ATOM     79  C   UNL A   1      38.643  34.387  39.141  1.00  0.00     0.198 A 
ATOM     80  F   UNL A   1      38.151  32.361  38.048  1.00  0.00    -0.203 F 
ATOM     81  F   UNL A   1      40.722  37.173  38.116  1.00  0.00    -0.200 F 
ATOM     82  C   UNL A   1      39.292  35.613  39.165  1.00  0.00     0.200 A 
ATOM     83  F   UNL A   1      37.876  34.016  40.174  1.00  0.00    -0.200 F 
ATOM     84  F   UNL A   1      39.170  36.418  40.228  1.00  0.00    -0.200 F 
ENDBRANCH  50  74
BRANCH  62  85
ATOM     85  C   UNL A   1      43.889  28.728  35.251  1.00  0.00     0.064 A 
ATOM     86  C   UNL A   1      45.195  29.223  35.115  1.00  0.00     0.173 A 
ATOM     87  C   UNL A   1      43.685  27.641  36.113  1.00  0.00     0.173 A 
ATOM     88  F   UNL A   1      45.445  30.251  34.289  1.00  0.00    -0.203 F 
ATOM     89  C   UNL A   1      46.256  28.636  35.799  1.00  0.00     0.198 A 
ATOM     90  C   UNL A   1      44.743  27.076  36.818  1.00  0.00     0.198 A 
ATOM     91  F   UNL A   1      42.454  27.134  36.282  1.00  0.00    -0.203 F 
ATOM     92  F   UNL A   1      47.502  29.096  35.618  1.00  0.00    -0.200 F 
ATOM     93  C   UNL A   1      46.029  27.569  36.655  1.00  0.00     0.200 A 
ATOM     94  F   UNL A   1      44.520  26.053  37.654  1.00  0.00    -0.200 F 
ATOM     95  F   UNL A   1      47.052  27.010  37.317  1.00  0.00    -0.200 F 
ENDBRANCH  62  85
ENDBRANCH  36  37
ENDBRANCH  28  31
ENDBRANCH  26  27
ENDBRANCH  25  26
ENDBRANCH  24  25
ENDBRANCH  23  24
ENDBRANCH   1  23
TORSDOF 17
ENDMDL
MODEL 3
REMARK VINA RESULT:     -11.8      1.695      3.650
REMARK SMILES COc1ccc(CSc2ncccc2C(=O)NCCCCCCNC(=O)c2ccc(-c3c4nc(c(-c5c(F)c(F)c(F)c(F)c5F)c5ccc([nH]5)c(-c5c(F)c(F)c(F)c(F)c5F)c5nc(c(-c6c(F)c(F)c(F)c(F)c6F)c6ccc3[nH]6)C=C5)C=C4)cc2)cc1
REMARK SMILES IDX 19 1 18 2 17 3 15 4 16 5 14 7 9 8 10 9 11 10 13 11 12 12
REMARK SMILES IDX 8 13 7 14 6 15 3 16 4 17 91 18 5 19 90 20 2 21 1 22 20 23
REMARK SMILES IDX 21 24 22 25 23 26 24 27 25 28 26 30 27 31 28 32 89 33 29 34
REMARK SMILES IDX 88 35 30 36 31 37 32 38 82 39 33 40 87 41 81 42 83 43 34 44
REMARK SMILES IDX 86 45 80 46 79 47 35 49 67 50 47 51 66 52 48 53 51 54 65 55
REMARK SMILES IDX 84 56 49 57 50 58 64 60 85 61 52 62 36 63 37 64 45 65 38 66
REMARK SMILES IDX 39 67 43 68 46 69 40 70 41 71 44 72 42 73 68 74 69 75 77 76
REMARK SMILES IDX 70 77 71 78 75 79 78 80 72 81 73 82 76 83 74 84 53 85 54 86
REMARK SMILES IDX 62 87 55 88 56 89 60 90 63 91 57 92 58 93 61 94 59 95
REMARK H PARENT 17 6 24 29 83 48 51 59
REMARK Flexibility Score: inf
ROOT
ATOM      1  C   UNL A   1      33.606  29.464  27.041  1.00  0.00     0.021 C 
ENDROOT
BRANCH   1   2
ATOM      2  C   UNL A   1      33.879  28.072  26.475  1.00  0.00     0.116 C 
BRANCH   2   3
ATOM      3  N   UNL A   1      32.716  27.217  26.555  1.00  0.00    -0.352 N 
ATOM      4  C   UNL A   1      32.001  26.375  25.743  1.00  0.00     0.254 C 
ATOM      5  O   UNL A   1      31.115  25.778  26.356  1.00  0.00    -0.269 OA
ATOM      6  H   UNL A   1      32.323  27.247  27.457  1.00  0.00     0.163 HD
BRANCH   4   7
ATOM      7  C   UNL A   1      32.231  26.116  24.280  1.00  0.00     0.072 A 
ATOM      8  C   UNL A   1      33.375  25.428  23.825  1.00  0.00     0.109 A 
ATOM      9  N   UNL A   1      33.674  25.261  22.500  1.00  0.00    -0.249 NA
ATOM     10  C   UNL A   1      32.840  25.772  21.582  1.00  0.00     0.112 A 
ATOM     11  C   UNL A   1      31.369  26.569  23.271  1.00  0.00     0.018 A 
ATOM     12  C   UNL A   1      31.673  26.412  21.917  1.00  0.00     0.021 A 
BRANCH   8  13
ATOM     13  S   UNL A   1      34.611  24.640  24.844  1.00  0.00    -0.101 SA
BRANCH  13  14
ATOM     14  C   UNL A   1      35.055  23.273  23.737  1.00  0.00     0.112 C 
BRANCH  14  15
ATOM     15  C   UNL A   1      34.303  21.983  23.975  1.00  0.00    -0.037 A 
ATOM     16  C   UNL A   1      32.891  19.610  24.512  1.00  0.00     0.118 A 
ATOM     17  C   UNL A   1      32.280  20.641  23.804  1.00  0.00     0.047 A 
ATOM     18  C   UNL A   1      34.216  19.741  24.925  1.00  0.00     0.047 A 
ATOM     19  C   UNL A   1      32.974  21.827  23.554  1.00  0.00     0.008 A 
ATOM     20  C   UNL A   1      34.917  20.923  24.659  1.00  0.00     0.008 A 
BRANCH  16  21
ATOM     21  O   UNL A   1      32.151  18.476  24.710  1.00  0.00    -0.497 OA
ATOM     22  C   UNL A   1      32.667  17.648  25.750  1.00  0.00     0.278 C 
ENDBRANCH  16  21
ENDBRANCH  14  15
ENDBRANCH  13  14
ENDBRANCH   8  13
ENDBRANCH   4   7
ENDBRANCH   2   3
ENDBRANCH   1   2
BRANCH   1  23
ATOM     23  C   UNL A   1      32.115  29.807  27.165  1.00  0.00     0.002 C 
BRANCH  23  24
ATOM     24  C   UNL A   1      31.570  30.793  26.121  1.00  0.00     0.002 C 
BRANCH  24  25
ATOM     25  C   UNL A   1      31.392  32.235  26.605  1.00  0.00     0.021 C 
BRANCH  25  26
ATOM     26  C   UNL A   1      32.633  32.850  27.241  1.00  0.00     0.116 C 
BRANCH  26  27
ATOM     27  N   UNL A   1      32.415  34.231  27.635  1.00  0.00    -0.352 N 
ATOM     28  C   UNL A   1      32.985  34.947  28.659  1.00  0.00     0.251 C 
ATOM     29  H   UNL A   1      31.764  34.726  27.088  1.00  0.00     0.163 HD
ATOM     30  O   UNL A   1      32.534  36.042  28.973  1.00  0.00    -0.269 OA
BRANCH  28  31
ATOM     31  C   UNL A   1      34.137  34.389  29.398  1.00  0.00     0.039 A 
ATOM     32  C   UNL A   1      33.898  33.630  30.547  1.00  0.00     0.014 A 
ATOM     33  C   UNL A   1      35.448  34.630  28.977  1.00  0.00     0.014 A 
ATOM     34  C   UNL A   1      34.969  33.064  31.240  1.00  0.00     0.010 A 
ATOM     35  C   UNL A   1      36.512  34.011  29.629  1.00  0.00     0.010 A 
ATOM     36  C   UNL A   1      36.283  33.226  30.769  1.00  0.00    -0.014 A 
BRANCH  36  37
ATOM     37  C   UNL A   1      37.428  32.574  31.452  1.00  0.00     0.031 A 
ATOM     38  C   UNL A   1      38.140  31.421  30.805  1.00  0.00     0.074 A 
ATOM     39  C   UNL A   1      37.782  32.980  32.686  1.00  0.00     0.049 A 
ATOM     40  N   UNL A   1      39.120  30.686  31.269  1.00  0.00    -0.248 NA
ATOM     41  C   UNL A   1      37.670  31.020  29.470  1.00  0.00     0.031 C 
ATOM     42  C   UNL A   1      37.137  34.058  33.437  1.00  0.00     0.029 A 
ATOM     43  N   UNL A   1      38.766  32.530  33.530  1.00  0.00    -0.354 N 
ATOM     44  C   UNL A   1      39.373  29.733  30.293  1.00  0.00     0.074 A 
ATOM     45  C   UNL A   1      38.410  29.947  29.233  1.00  0.00     0.031 C 
ATOM     46  C   UNL A   1      37.756  34.201  34.619  1.00  0.00     0.029 A 
ATOM     47  C   UNL A   1      38.816  33.203  34.725  1.00  0.00     0.049 A 
ATOM     48  H   UNL A   1      39.377  31.793  33.299  1.00  0.00     0.167 HD
ATOM     49  C   UNL A   1      40.335  28.779  30.271  1.00  0.00     0.037 A 
ATOM     50  C   UNL A   1      39.625  33.032  35.788  1.00  0.00     0.037 A 
ATOM     51  C   UNL A   1      41.305  28.585  31.316  1.00  0.00     0.049 A 
ATOM     52  C   UNL A   1      40.679  31.961  35.743  1.00  0.00     0.074 A 
ATOM     53  C   UNL A   1      42.365  27.696  31.358  1.00  0.00     0.029 A 
ATOM     54  N   UNL A   1      41.329  29.292  32.511  1.00  0.00    -0.354 N 
ATOM     55  N   UNL A   1      40.958  31.114  34.784  1.00  0.00    -0.248 NA
ATOM     56  C   UNL A   1      41.536  31.829  36.930  1.00  0.00     0.031 C 
ATOM     57  C   UNL A   1      43.000  27.829  32.599  1.00  0.00     0.029 A 
ATOM     58  C   UNL A   1      42.367  28.837  33.309  1.00  0.00     0.049 A 
ATOM     59  H   UNL A   1      40.702  30.009  32.756  1.00  0.00     0.167 HD
ATOM     60  C   UNL A   1      42.033  30.362  35.238  1.00  0.00     0.074 A 
ATOM     61  C   UNL A   1      42.367  30.866  36.555  1.00  0.00     0.031 C 
ATOM     62  C   UNL A   1      42.685  29.347  34.620  1.00  0.00     0.037 A 
BRANCH  49  63
ATOM     63  C   UNL A   1      40.382  27.869  29.076  1.00  0.00     0.064 A 
ATOM     64  C   UNL A   1      39.653  26.671  29.033  1.00  0.00     0.173 A 
ATOM     65  C   UNL A   1      41.150  28.210  27.952  1.00  0.00     0.173 A 
ATOM     66  F   UNL A   1      38.912  26.293  30.085  1.00  0.00    -0.203 F 
ATOM     67  C   UNL A   1      39.719  25.830  27.925  1.00  0.00     0.198 A 
ATOM     68  C   UNL A   1      41.188  27.382  26.833  1.00  0.00     0.198 A 
ATOM     69  F   UNL A   1      41.860  29.347  27.937  1.00  0.00    -0.203 F 
ATOM     70  F   UNL A   1      39.060  24.664  27.931  1.00  0.00    -0.200 F 
ATOM     71  C   UNL A   1      40.482  26.189  26.824  1.00  0.00     0.200 A 
ATOM     72  F   UNL A   1      41.915  27.736  25.764  1.00  0.00    -0.200 F 
ATOM     73  F   UNL A   1      40.543  25.380  25.757  1.00  0.00    -0.200 F 
ENDBRANCH  49  63
BRANCH  50  74
ATOM     74  C   UNL A   1      39.484  33.921  36.970  1.00  0.00     0.064 A 
ATOM     75  C   UNL A   1      40.102  35.177  37.000  1.00  0.00     0.173 A 
ATOM     76  C   UNL A   1      38.721  33.541  38.083  1.00  0.00     0.173 A 
ATOM     77  F   UNL A   1      40.858  35.575  35.966  1.00  0.00    -0.203 F 
ATOM     78  C   UNL A   1      39.973  36.018  38.103  1.00  0.00     0.198 A 
ATOM     79  C   UNL A   1      38.571  34.392  39.176  1.00  0.00     0.198 A 
ATOM     80  F   UNL A   1      38.106  32.349  38.103  1.00  0.00    -0.203 F 
ATOM     81  F   UNL A   1      40.603  37.200  38.120  1.00  0.00    -0.200 F 
ATOM     82  C   UNL A   1      39.201  35.628  39.187  1.00  0.00     0.200 A 
ATOM     83  F   UNL A   1      37.813  34.018  40.215  1.00  0.00    -0.200 F 
ATOM     84  F   UNL A   1      39.070  36.440  40.244  1.00  0.00    -0.200 F 
ENDBRANCH  50  74
BRANCH  62  85
ATOM     85  C   UNL A   1      43.839  28.726  35.352  1.00  0.00     0.064 A 
ATOM     86  C   UNL A   1      43.649  27.690  36.278  1.00  0.00     0.173 A 
ATOM     87  C   UNL A   1      45.153  29.149  35.098  1.00  0.00     0.173 A 
ATOM     88  F   UNL A   1      42.411  27.262  36.568  1.00  0.00    -0.203 F 
ATOM     89  C   UNL A   1      44.731  27.117  36.941  1.00  0.00     0.198 A 
ATOM     90  C   UNL A   1      46.234  28.553  35.740  1.00  0.00     0.198 A 
ATOM     91  F   UNL A   1      45.388  30.133  34.216  1.00  0.00    -0.203 F 
ATOM     92  F   UNL A   1      44.523  26.160  37.856  1.00  0.00    -0.200 F 
ATOM     93  C   UNL A   1      46.023  27.542  36.666  1.00  0.00     0.200 A 
ATOM     94  F   UNL A   1      47.482  28.957  35.464  1.00  0.00    -0.200 F 
ATOM     95  F   UNL A   1      47.063  26.985  37.300  1.00  0.00    -0.200 F 
ENDBRANCH  62  85
ENDBRANCH  36  37
ENDBRANCH  28  31
ENDBRANCH  26  27
ENDBRANCH  25  26
ENDBRANCH  24  25
ENDBRANCH  23  24
ENDBRANCH   1  23
TORSDOF 17
ENDMDL
