MODEL 1
REMARK VINA RESULT:     -10.8      0.000      0.000
REMARK SMILES COc1cc([C@H]2CC(c3ccc(S(C)(=O)=O)cc3)=NN2c2ccc(C(=O)NCCCCCCNC(=O)c3ccc(-c4c5nc(c(-c6c(F)c(F)c(F)c(F)c6F)c6ccc([nH]6)c(-c6c(F)c(F)c(F)c(F)c6F)c6nc(c(-c7c(F)c(F)c(F)c(F)c7F)c7ccc4[nH]7)C=C6)C=C5)cc3)cc2)cc(OC)c1OC
REMARK SMILES IDX 30 1 29 2 28 3 27 4 25 5 26 6 24 8 21 9 22 10 101 11 23 12
REMARK SMILES IDX 100 13 20 14 6 15 7 16 8 17 19 18 5 19 3 20 4 21 106 22
REMARK SMILES IDX 103 23 102 24 2 25 1 26 107 27 108 28 104 29 105 30 9 31
REMARK SMILES IDX 10 32 18 33 11 34 17 35 12 36 13 37 14 38 15 39 16 40 31 41
REMARK SMILES IDX 32 42 33 43 34 44 35 45 36 47 37 48 38 49 99 50 39 51 98 52
REMARK SMILES IDX 40 53 41 54 42 55 92 56 43 57 97 58 91 59 93 60 44 61 96 62
REMARK SMILES IDX 90 63 89 64 45 66 77 67 57 68 76 69 58 70 61 71 75 72 94 73
REMARK SMILES IDX 59 74 60 75 74 77 95 78 62 79 46 80 47 81 55 82 48 83 49 84
REMARK SMILES IDX 53 85 56 86 50 87 51 88 54 89 52 90 78 91 79 92 87 93 80 94
REMARK SMILES IDX 81 95 85 96 88 97 82 98 83 99 86 100 84 101 63 102 64 103
REMARK SMILES IDX 72 104 65 105 66 106 70 107 73 108 67 109 68 110 71 111
REMARK SMILES IDX 69 112
REMARK H PARENT 27 7 34 46 93 65 61 76
REMARK Flexibility Score: inf
ROOT
ATOM      1  C   UNL A   1      32.840  28.765  27.302  1.00  0.00     0.002 C 
ENDROOT
BRANCH   1   2
ATOM      2  C   UNL A   1      31.788  29.617  26.579  1.00  0.00     0.021 C 
BRANCH   2   3
ATOM      3  C   UNL A   1      31.974  29.638  25.060  1.00  0.00     0.116 C 
BRANCH   3   4
ATOM      4  N   UNL A   1      30.962  28.816  24.431  1.00  0.00    -0.352 N 
ATOM      5  C   UNL A   1      30.872  27.466  24.217  1.00  0.00     0.251 C 
ATOM      6  O   UNL A   1      29.879  27.050  23.621  1.00  0.00    -0.269 OA
ATOM      7  H   UNL A   1      30.190  29.324  24.090  1.00  0.00     0.163 HD
BRANCH   5   8
ATOM      8  C   UNL A   1      31.878  26.493  24.726  1.00  0.00     0.039 A 
ATOM      9  C   UNL A   1      33.866  24.635  25.479  1.00  0.00     0.060 A 
ATOM     10  C   UNL A   1      34.052  25.473  24.376  1.00  0.00     0.029 A 
ATOM     11  C   UNL A   1      32.700  24.776  26.233  1.00  0.00     0.029 A 
ATOM     12  C   UNL A   1      33.064  26.379  23.990  1.00  0.00     0.016 A 
ATOM     13  C   UNL A   1      31.734  25.726  25.885  1.00  0.00     0.016 A 
BRANCH   9  14
ATOM     14  N   UNL A   1      34.846  23.725  25.821  1.00  0.00    -0.257 N 
ATOM     15  C   UNL A   1      34.615  22.429  26.457  1.00  0.00     0.144 C 
ATOM     16  C   UNL A   1      36.053  21.917  26.680  1.00  0.00     0.091 C 
ATOM     17  C   UNL A   1      36.835  23.118  26.219  1.00  0.00     0.071 C 
ATOM     18  N   UNL A   1      36.141  24.104  25.752  1.00  0.00    -0.176 NA
BRANCH  15  19
ATOM     19  C   UNL A   1      33.740  21.548  25.575  1.00  0.00    -0.015 A 
ATOM     20  C   UNL A   1      32.694  21.081  23.412  1.00  0.00     0.164 A 
ATOM     21  C   UNL A   1      33.393  21.947  24.277  1.00  0.00     0.056 A 
ATOM     22  C   UNL A   1      32.342  19.777  23.812  1.00  0.00     0.203 A 
ATOM     23  C   UNL A   1      32.689  19.379  25.120  1.00  0.00     0.164 A 
ATOM     24  C   UNL A   1      33.367  20.261  25.977  1.00  0.00     0.056 A 
BRANCH  20  25
ATOM     25  O   UNL A   1      32.487  21.521  22.128  1.00  0.00    -0.493 OA
ATOM     26  C   UNL A   1      32.889  22.881  21.960  1.00  0.00     0.278 C 
ENDBRANCH  20  25
BRANCH  22  27
ATOM     27  O   UNL A   1      31.695  18.843  23.053  1.00  0.00    -0.490 OA
ATOM     28  C   UNL A   1      32.364  18.130  22.030  1.00  0.00     0.278 C 
ENDBRANCH  22  27
BRANCH  23  29
ATOM     29  O   UNL A   1      32.432  18.176  25.734  1.00  0.00    -0.493 OA
ATOM     30  C   UNL A   1      33.110  17.020  25.264  1.00  0.00     0.278 C 
ENDBRANCH  23  29
ENDBRANCH  15  19
BRANCH  17  31
ATOM     31  C   UNL A   1      38.297  23.200  26.334  1.00  0.00    -0.002 A 
ATOM     32  C   UNL A   1      38.868  24.460  26.550  1.00  0.00     0.011 A 
ATOM     33  C   UNL A   1      39.099  22.073  26.149  1.00  0.00     0.011 A 
ATOM     34  C   UNL A   1      40.254  24.598  26.598  1.00  0.00     0.021 A 
ATOM     35  C   UNL A   1      40.491  22.212  26.169  1.00  0.00     0.021 A 
ATOM     36  C   UNL A   1      41.059  23.473  26.389  1.00  0.00     0.067 A 
BRANCH  36  37
ATOM     37  S   UNL A   1      42.827  23.662  26.423  1.00  0.00     0.175 S 
ATOM     38  C   UNL A   1      43.451  22.059  25.985  1.00  0.00     0.163 C 
ATOM     39  O   UNL A   1      43.165  24.591  25.358  1.00  0.00    -0.224 OA
ATOM     40  O   UNL A   1      43.215  23.924  27.793  1.00  0.00    -0.224 OA
ENDBRANCH  36  37
ENDBRANCH  17  31
ENDBRANCH   9  14
ENDBRANCH   5   8
ENDBRANCH   3   4
ENDBRANCH   2   3
ENDBRANCH   1   2
BRANCH   1  41
ATOM     41  C   UNL A   1      34.225  28.761  26.643  1.00  0.00     0.002 C 
BRANCH  41  42
ATOM     42  C   UNL A   1      35.191  29.828  27.166  1.00  0.00     0.021 C 
BRANCH  42  43
ATOM     43  C   UNL A   1      35.112  30.062  28.671  1.00  0.00     0.116 C 
BRANCH  43  44
ATOM     44  N   UNL A   1      34.600  31.387  28.983  1.00  0.00    -0.352 N 
ATOM     45  C   UNL A   1      34.925  32.217  30.025  1.00  0.00     0.251 C 
ATOM     46  H   UNL A   1      33.924  31.737  28.358  1.00  0.00     0.163 HD
ATOM     47  O   UNL A   1      34.243  33.208  30.268  1.00  0.00    -0.269 OA
BRANCH  45  48
ATOM     48  C   UNL A   1      36.098  31.908  30.867  1.00  0.00     0.039 A 
ATOM     49  C   UNL A   1      37.267  32.655  30.702  1.00  0.00     0.014 A 
ATOM     50  C   UNL A   1      36.050  30.869  31.802  1.00  0.00     0.014 A 
ATOM     51  C   UNL A   1      38.376  32.393  31.510  1.00  0.00     0.010 A 
ATOM     52  C   UNL A   1      37.134  30.649  32.647  1.00  0.00     0.010 A 
ATOM     53  C   UNL A   1      38.308  31.405  32.505  1.00  0.00    -0.014 A 
BRANCH  53  54
ATOM     54  C   UNL A   1      39.460  31.129  33.397  1.00  0.00     0.031 A 
ATOM     55  C   UNL A   1      39.613  31.891  34.682  1.00  0.00     0.074 A 
ATOM     56  C   UNL A   1      40.403  30.247  33.016  1.00  0.00     0.049 A 
ATOM     57  N   UNL A   1      40.594  31.869  35.549  1.00  0.00    -0.248 NA
ATOM     58  C   UNL A   1      38.528  32.826  35.026  1.00  0.00     0.031 C 
ATOM     59  C   UNL A   1      40.386  29.475  31.773  1.00  0.00     0.029 A 
ATOM     60  N   UNL A   1      41.569  29.864  33.631  1.00  0.00    -0.354 N 
ATOM     61  C   UNL A   1      40.256  32.797  36.524  1.00  0.00     0.074 A 
ATOM     62  C   UNL A   1      39.002  33.398  36.123  1.00  0.00     0.031 C 
ATOM     63  C   UNL A   1      41.482  28.701  31.722  1.00  0.00     0.029 A 
ATOM     64  C   UNL A   1      42.294  28.946  32.910  1.00  0.00     0.049 A 
ATOM     65  H   UNL A   1      41.858  30.213  34.505  1.00  0.00     0.167 HD
ATOM     66  C   UNL A   1      40.922  33.106  37.662  1.00  0.00     0.037 A 
ATOM     67  C   UNL A   1      43.484  28.376  33.176  1.00  0.00     0.037 A 
ATOM     68  C   UNL A   1      42.152  32.482  38.075  1.00  0.00     0.049 A 
ATOM     69  C   UNL A   1      44.200  28.730  34.452  1.00  0.00     0.074 A 
ATOM     70  C   UNL A   1      42.873  32.680  39.239  1.00  0.00     0.029 A 
ATOM     71  N   UNL A   1      42.842  31.535  37.333  1.00  0.00    -0.354 N 
ATOM     72  N   UNL A   1      43.844  29.566  35.395  1.00  0.00    -0.248 NA
ATOM     73  C   UNL A   1      45.482  28.055  34.701  1.00  0.00     0.031 C 
ATOM     74  C   UNL A   1      44.019  31.880  39.184  1.00  0.00     0.029 A 
ATOM     75  C   UNL A   1      43.990  31.150  38.006  1.00  0.00     0.049 A 
ATOM     76  H   UNL A   1      42.558  31.186  36.456  1.00  0.00     0.167 HD
ATOM     77  C   UNL A   1      44.838  29.498  36.361  1.00  0.00     0.074 A 
ATOM     78  C   UNL A   1      45.809  28.531  35.894  1.00  0.00     0.031 C 
ATOM     79  C   UNL A   1      44.938  30.176  37.530  1.00  0.00     0.037 A 
BRANCH  66  80
ATOM     80  C   UNL A   1      40.331  34.164  38.548  1.00  0.00     0.064 A 
ATOM     81  C   UNL A   1      40.684  35.514  38.415  1.00  0.00     0.173 A 
ATOM     82  C   UNL A   1      39.376  33.826  39.519  1.00  0.00     0.173 A 
ATOM     83  F   UNL A   1      41.601  35.887  37.510  1.00  0.00    -0.203 F 
ATOM     84  C   UNL A   1      40.125  36.486  39.241  1.00  0.00     0.198 A 
ATOM     85  C   UNL A   1      38.797  34.805  40.324  1.00  0.00     0.198 A 
ATOM     86  F   UNL A   1      39.000  32.550  39.684  1.00  0.00    -0.203 F 
ATOM     87  F   UNL A   1      40.513  37.764  39.128  1.00  0.00    -0.200 F 
ATOM     88  C   UNL A   1      39.178  36.131  40.190  1.00  0.00     0.200 A 
ATOM     89  F   UNL A   1      37.875  34.462  41.233  1.00  0.00    -0.200 F 
ATOM     90  F   UNL A   1      38.636  37.068  40.981  1.00  0.00    -0.200 F 
ENDBRANCH  66  80
BRANCH  67  91
ATOM     91  C   UNL A   1      44.062  27.391  32.227  1.00  0.00     0.064 A 
ATOM     92  C   UNL A   1      43.986  26.015  32.486  1.00  0.00     0.173 A 
ATOM     93  C   UNL A   1      44.695  27.799  31.044  1.00  0.00     0.173 A 
ATOM     94  F   UNL A   1      43.406  25.578  33.614  1.00  0.00    -0.203 F 
ATOM     95  C   UNL A   1      44.537  25.086  31.607  1.00  0.00     0.198 A 
ATOM     96  C   UNL A   1      45.223  26.867  30.154  1.00  0.00     0.198 A 
ATOM     97  F   UNL A   1      44.788  29.104  30.748  1.00  0.00    -0.203 F 
ATOM     98  F   UNL A   1      44.486  23.779  31.899  1.00  0.00    -0.200 F 
ATOM     99  C   UNL A   1      45.150  25.512  30.439  1.00  0.00     0.200 A 
ATOM    100  F   UNL A   1      45.803  27.283  29.019  1.00  0.00    -0.200 F 
ATOM    101  F   UNL A   1      45.677  24.618  29.591  1.00  0.00    -0.200 F 
ENDBRANCH  67  91
BRANCH  79 102
ATOM    102  C   UNL A   1      46.119  29.871  38.404  1.00  0.00     0.064 A 
ATOM    103  C   UNL A   1      47.249  30.698  38.427  1.00  0.00     0.173 A 
ATOM    104  C   UNL A   1      46.096  28.761  39.263  1.00  0.00     0.173 A 
ATOM    105  F   UNL A   1      47.324  31.762  37.612  1.00  0.00    -0.203 F 
ATOM    106  C   UNL A   1      48.325  30.415  39.264  1.00  0.00     0.198 A 
ATOM    107  C   UNL A   1      47.160  28.495  40.117  1.00  0.00     0.198 A 
ATOM    108  F   UNL A   1      45.033  27.943  39.280  1.00  0.00    -0.203 F 
ATOM    109  F   UNL A   1      49.414  31.195  39.240  1.00  0.00    -0.200 F 
ATOM    110  C   UNL A   1      48.277  29.318  40.113  1.00  0.00     0.200 A 
ATOM    111  F   UNL A   1      47.109  27.444  40.944  1.00  0.00    -0.200 F 
ATOM    112  F   UNL A   1      49.310  29.052  40.924  1.00  0.00    -0.200 F 
ENDBRANCH  79 102
ENDBRANCH  53  54
ENDBRANCH  45  48
ENDBRANCH  43  44
ENDBRANCH  42  43
ENDBRANCH  41  42
ENDBRANCH   1  41
TORSDOF 20
ENDMDL
MODEL 2
REMARK VINA RESULT:     -10.6      6.465      9.882
REMARK SMILES COc1cc([C@H]2CC(c3ccc(S(C)(=O)=O)cc3)=NN2c2ccc(C(=O)NCCCCCCNC(=O)c3ccc(-c4c5nc(c(-c6c(F)c(F)c(F)c(F)c6F)c6ccc([nH]6)c(-c6c(F)c(F)c(F)c(F)c6F)c6nc(c(-c7c(F)c(F)c(F)c(F)c7F)c7ccc4[nH]7)C=C6)C=C5)cc3)cc2)cc(OC)c1OC
REMARK SMILES IDX 30 1 29 2 28 3 27 4 25 5 26 6 24 8 21 9 22 10 101 11 23 12
REMARK SMILES IDX 100 13 20 14 6 15 7 16 8 17 19 18 5 19 3 20 4 21 106 22
REMARK SMILES IDX 103 23 102 24 2 25 1 26 107 27 108 28 104 29 105 30 9 31
REMARK SMILES IDX 10 32 18 33 11 34 17 35 12 36 13 37 14 38 15 39 16 40 31 41
REMARK SMILES IDX 32 42 33 43 34 44 35 45 36 47 37 48 38 49 99 50 39 51 98 52
REMARK SMILES IDX 40 53 41 54 42 55 92 56 43 57 97 58 91 59 93 60 44 61 96 62
REMARK SMILES IDX 90 63 89 64 45 66 77 67 57 68 76 69 58 70 61 71 75 72 94 73
REMARK SMILES IDX 59 74 60 75 74 77 95 78 62 79 46 80 47 81 55 82 48 83 49 84
REMARK SMILES IDX 53 85 56 86 50 87 51 88 54 89 52 90 78 91 79 92 87 93 80 94
REMARK SMILES IDX 81 95 85 96 88 97 82 98 83 99 86 100 84 101 63 102 64 103
REMARK SMILES IDX 72 104 65 105 66 106 70 107 73 108 67 109 68 110 71 111
REMARK SMILES IDX 69 112
REMARK H PARENT 27 7 34 46 93 65 61 76
REMARK Flexibility Score: inf
ROOT
ATOM      1  C   UNL A   1      38.011  23.561  25.982  1.00  0.00     0.002 C 
ENDROOT
BRANCH   1   2
ATOM      2  C   UNL A   1      37.582  22.112  25.715  1.00  0.00     0.021 C 
BRANCH   2   3
ATOM      3  C   UNL A   1      37.106  21.883  24.279  1.00  0.00     0.116 C 
BRANCH   3   4
ATOM      4  N   UNL A   1      35.796  21.265  24.289  1.00  0.00    -0.352 N 
ATOM      5  C   UNL A   1      34.548  21.756  24.567  1.00  0.00     0.251 C 
ATOM      6  O   UNL A   1      33.603  20.968  24.514  1.00  0.00    -0.269 OA
ATOM      7  H   UNL A   1      35.804  20.310  24.052  1.00  0.00     0.163 HD
BRANCH   5   8
ATOM      8  C   UNL A   1      34.285  23.191  24.861  1.00  0.00     0.039 A 
ATOM      9  C   UNL A   1      33.918  25.965  25.244  1.00  0.00     0.060 A 
ATOM     10  C   UNL A   1      34.226  25.452  23.981  1.00  0.00     0.029 A 
ATOM     11  C   UNL A   1      33.740  25.071  26.300  1.00  0.00     0.029 A 
ATOM     12  C   UNL A   1      34.427  24.084  23.792  1.00  0.00     0.016 A 
ATOM     13  C   UNL A   1      33.880  23.692  26.101  1.00  0.00     0.016 A 
BRANCH   9  14
ATOM     14  N   UNL A   1      33.757  27.326  25.410  1.00  0.00    -0.257 N 
ATOM     15  C   UNL A   1      33.179  28.237  24.424  1.00  0.00     0.144 C 
ATOM     16  C   UNL A   1      33.350  29.608  25.113  1.00  0.00     0.091 C 
ATOM     17  C   UNL A   1      34.122  29.195  26.337  1.00  0.00     0.071 C 
ATOM     18  N   UNL A   1      34.336  27.926  26.474  1.00  0.00    -0.176 NA
BRANCH  15  19
ATOM     19  C   UNL A   1      31.744  27.843  24.106  1.00  0.00    -0.015 A 
ATOM     20  C   UNL A   1      29.704  26.612  24.670  1.00  0.00     0.164 A 
ATOM     21  C   UNL A   1      31.071  26.886  24.879  1.00  0.00     0.056 A 
ATOM     22  C   UNL A   1      28.961  27.308  23.697  1.00  0.00     0.203 A 
ATOM     23  C   UNL A   1      29.640  28.268  22.918  1.00  0.00     0.164 A 
ATOM     24  C   UNL A   1      31.007  28.514  23.125  1.00  0.00     0.056 A 
BRANCH  20  25
ATOM     25  O   UNL A   1      29.108  25.734  25.541  1.00  0.00    -0.493 OA
ATOM     26  C   UNL A   1      30.066  24.901  26.196  1.00  0.00     0.278 C 
ENDBRANCH  20  25
BRANCH  22  27
ATOM     27  O   UNL A   1      27.630  27.151  23.428  1.00  0.00    -0.490 OA
ATOM     28  C   UNL A   1      26.722  28.230  23.538  1.00  0.00     0.278 C 
ENDBRANCH  22  27
BRANCH  23  29
ATOM     29  O   UNL A   1      29.135  29.045  21.904  1.00  0.00    -0.493 OA
ATOM     30  C   UNL A   1      29.728  30.314  21.667  1.00  0.00     0.278 C 
ENDBRANCH  23  29
ENDBRANCH  15  19
BRANCH  17  31
ATOM     31  C   UNL A   1      34.653  30.166  27.301  1.00  0.00    -0.002 A 
ATOM     32  C   UNL A   1      35.949  29.962  27.793  1.00  0.00     0.011 A 
ATOM     33  C   UNL A   1      33.862  31.212  27.780  1.00  0.00     0.011 A 
ATOM     34  C   UNL A   1      36.470  30.820  28.760  1.00  0.00     0.021 A 
ATOM     35  C   UNL A   1      34.373  32.058  28.771  1.00  0.00     0.021 A 
ATOM     36  C   UNL A   1      35.670  31.853  29.257  1.00  0.00     0.067 A 
BRANCH  36  37
ATOM     37  S   UNL A   1      36.332  32.926  30.513  1.00  0.00     0.175 S 
ATOM     38  C   UNL A   1      36.072  32.043  32.030  1.00  0.00     0.163 C 
ATOM     39  O   UNL A   1      37.762  33.011  30.273  1.00  0.00    -0.224 OA
ATOM     40  O   UNL A   1      35.510  34.116  30.552  1.00  0.00    -0.224 OA
ENDBRANCH  36  37
ENDBRANCH  17  31
ENDBRANCH   9  14
ENDBRANCH   5   8
ENDBRANCH   3   4
ENDBRANCH   2   3
ENDBRANCH   1   2
BRANCH   1  41
ATOM     41  C   UNL A   1      38.956  23.741  27.178  1.00  0.00     0.002 C 
BRANCH  41  42
ATOM     42  C   UNL A   1      39.921  24.924  27.064  1.00  0.00     0.021 C 
BRANCH  42  43
ATOM     43  C   UNL A   1      40.401  25.472  28.404  1.00  0.00     0.116 C 
BRANCH  43  44
ATOM     44  N   UNL A   1      39.372  26.259  29.064  1.00  0.00    -0.352 N 
ATOM     45  C   UNL A   1      39.459  27.515  29.609  1.00  0.00     0.251 C 
ATOM     46  H   UNL A   1      38.487  25.830  29.128  1.00  0.00     0.163 HD
ATOM     47  O   UNL A   1      38.559  27.948  30.321  1.00  0.00    -0.269 OA
BRANCH  45  48
ATOM     48  C   UNL A   1      40.651  28.346  29.345  1.00  0.00     0.039 A 
ATOM     49  C   UNL A   1      41.513  28.651  30.401  1.00  0.00     0.014 A 
ATOM     50  C   UNL A   1      40.904  28.841  28.061  1.00  0.00     0.014 A 
ATOM     51  C   UNL A   1      42.659  29.413  30.162  1.00  0.00     0.010 A 
ATOM     52  C   UNL A   1      42.076  29.548  27.813  1.00  0.00     0.010 A 
ATOM     53  C   UNL A   1      42.961  29.846  28.861  1.00  0.00    -0.014 A 
BRANCH  53  54
ATOM     54  C   UNL A   1      44.187  30.628  28.574  1.00  0.00     0.031 A 
ATOM     55  C   UNL A   1      44.127  32.128  28.527  1.00  0.00     0.074 A 
ATOM     56  C   UNL A   1      45.336  29.987  28.286  1.00  0.00     0.049 A 
ATOM     57  N   UNL A   1      45.059  32.987  28.199  1.00  0.00    -0.248 NA
ATOM     58  C   UNL A   1      42.834  32.746  28.868  1.00  0.00     0.031 C 
ATOM     59  C   UNL A   1      45.510  28.535  28.261  1.00  0.00     0.029 A 
ATOM     60  N   UNL A   1      46.572  30.477  27.943  1.00  0.00    -0.354 N 
ATOM     61  C   UNL A   1      44.462  34.238  28.274  1.00  0.00     0.074 A 
ATOM     62  C   UNL A   1      43.077  34.027  28.635  1.00  0.00     0.031 C 
ATOM     63  C   UNL A   1      46.780  28.250  27.934  1.00  0.00     0.029 A 
ATOM     64  C   UNL A   1      47.501  29.497  27.694  1.00  0.00     0.049 A 
ATOM     65  H   UNL A   1      46.772  31.439  27.883  1.00  0.00     0.167 HD
ATOM     66  C   UNL A   1      45.025  35.454  28.078  1.00  0.00     0.037 A 
ATOM     67  C   UNL A   1      48.786  29.596  27.306  1.00  0.00     0.037 A 
ATOM     68  C   UNL A   1      46.412  35.661  27.753  1.00  0.00     0.049 A 
ATOM     69  C   UNL A   1      49.390  30.960  27.103  1.00  0.00     0.074 A 
ATOM     70  C   UNL A   1      47.093  36.856  27.594  1.00  0.00     0.029 A 
ATOM     71  N   UNL A   1      47.331  34.645  27.537  1.00  0.00    -0.354 N 
ATOM     72  N   UNL A   1      48.832  32.138  27.231  1.00  0.00    -0.248 NA
ATOM     73  C   UNL A   1      50.805  31.005  26.706  1.00  0.00     0.031 C 
ATOM     74  C   UNL A   1      48.415  36.561  27.246  1.00  0.00     0.029 A 
ATOM     75  C   UNL A   1      48.570  35.184  27.230  1.00  0.00     0.049 A 
ATOM     76  H   UNL A   1      47.132  33.682  27.593  1.00  0.00     0.167 HD
ATOM     77  C   UNL A   1      49.830  33.064  26.962  1.00  0.00     0.074 A 
ATOM     78  C   UNL A   1      51.032  32.311  26.671  1.00  0.00     0.031 C 
ATOM     79  C   UNL A   1      49.757  34.417  26.955  1.00  0.00     0.037 A 
BRANCH  66  80
ATOM     80  C   UNL A   1      44.140  36.659  28.217  1.00  0.00     0.064 A 
ATOM     81  C   UNL A   1      43.213  37.007  27.224  1.00  0.00     0.173 A 
ATOM     82  C   UNL A   1      44.200  37.455  29.370  1.00  0.00     0.173 A 
ATOM     83  F   UNL A   1      43.126  36.284  26.097  1.00  0.00    -0.203 F 
ATOM     84  C   UNL A   1      42.396  38.126  27.367  1.00  0.00     0.198 A 
ATOM     85  C   UNL A   1      43.360  38.557  29.522  1.00  0.00     0.198 A 
ATOM     86  F   UNL A   1      45.065  37.163  30.351  1.00  0.00    -0.203 F 
ATOM     87  F   UNL A   1      41.551  38.466  26.385  1.00  0.00    -0.200 F 
ATOM     88  C   UNL A   1      42.466  38.895  28.518  1.00  0.00     0.200 A 
ATOM     89  F   UNL A   1      43.422  39.293  30.640  1.00  0.00    -0.200 F 
ATOM     90  F   UNL A   1      41.675  39.968  28.658  1.00  0.00    -0.200 F 
ENDBRANCH  66  80
BRANCH  67  91
ATOM     91  C   UNL A   1      49.596  28.367  27.108  1.00  0.00     0.064 A 
ATOM     92  C   UNL A   1      49.560  27.672  25.891  1.00  0.00     0.173 A 
ATOM     93  C   UNL A   1      50.421  27.863  28.124  1.00  0.00     0.173 A 
ATOM     94  F   UNL A   1      48.771  28.105  24.897  1.00  0.00    -0.203 F 
ATOM     95  C   UNL A   1      50.307  26.511  25.703  1.00  0.00     0.198 A 
ATOM     96  C   UNL A   1      51.186  26.717  27.926  1.00  0.00     0.198 A 
ATOM     97  F   UNL A   1      50.494  28.495  29.305  1.00  0.00    -0.203 F 
ATOM     98  F   UNL A   1      50.223  25.845  24.544  1.00  0.00    -0.200 F 
ATOM     99  C   UNL A   1      51.123  26.038  26.718  1.00  0.00     0.200 A 
ATOM    100  F   UNL A   1      51.985  26.270  28.905  1.00  0.00    -0.200 F 
ATOM    101  F   UNL A   1      51.845  24.923  26.537  1.00  0.00    -0.200 F 
ENDBRANCH  67  91
BRANCH  79 102
ATOM    102  C   UNL A   1      51.019  35.172  26.659  1.00  0.00     0.064 A 
ATOM    103  C   UNL A   1      51.329  35.606  25.363  1.00  0.00     0.173 A 
ATOM    104  C   UNL A   1      51.905  35.506  27.695  1.00  0.00     0.173 A 
ATOM    105  F   UNL A   1      50.521  35.298  24.337  1.00  0.00    -0.203 F 
ATOM    106  C   UNL A   1      52.491  36.329  25.110  1.00  0.00     0.198 A 
ATOM    107  C   UNL A   1      53.051  36.251  27.444  1.00  0.00     0.198 A 
ATOM    108  F   UNL A   1      51.648  35.118  28.954  1.00  0.00    -0.203 F 
ATOM    109  F   UNL A   1      52.789  36.698  23.857  1.00  0.00    -0.200 F 
ATOM    110  C   UNL A   1      53.347  36.658  26.152  1.00  0.00     0.200 A 
ATOM    111  F   UNL A   1      53.872  36.578  28.452  1.00  0.00    -0.200 F 
ATOM    112  F   UNL A   1      54.461  37.361  25.908  1.00  0.00    -0.200 F 
ENDBRANCH  79 102
ENDBRANCH  53  54
ENDBRANCH  45  48
ENDBRANCH  43  44
ENDBRANCH  42  43
ENDBRANCH  41  42
ENDBRANCH   1  41
TORSDOF 20
ENDMDL
MODEL 3
REMARK VINA RESULT:     -10.5      7.831     14.130
REMARK SMILES COc1cc([C@H]2CC(c3ccc(S(C)(=O)=O)cc3)=NN2c2ccc(C(=O)NCCCCCCNC(=O)c3ccc(-c4c5nc(c(-c6c(F)c(F)c(F)c(F)c6F)c6ccc([nH]6)c(-c6c(F)c(F)c(F)c(F)c6F)c6nc(c(-c7c(F)c(F)c(F)c(F)c7F)c7ccc4[nH]7)C=C6)C=C5)cc3)cc2)cc(OC)c1OC
REMARK SMILES IDX 30 1 29 2 28 3 27 4 25 5 26 6 24 8 21 9 22 10 101 11 23 12
REMARK SMILES IDX 100 13 20 14 6 15 7 16 8 17 19 18 5 19 3 20 4 21 106 22
REMARK SMILES IDX 103 23 102 24 2 25 1 26 107 27 108 28 104 29 105 30 9 31
REMARK SMILES IDX 10 32 18 33 11 34 17 35 12 36 13 37 14 38 15 39 16 40 31 41
REMARK SMILES IDX 32 42 33 43 34 44 35 45 36 47 37 48 38 49 99 50 39 51 98 52
REMARK SMILES IDX 40 53 41 54 42 55 92 56 43 57 97 58 91 59 93 60 44 61 96 62
REMARK SMILES IDX 90 63 89 64 45 66 77 67 57 68 76 69 58 70 61 71 75 72 94 73
REMARK SMILES IDX 59 74 60 75 74 77 95 78 62 79 46 80 47 81 55 82 48 83 49 84
REMARK SMILES IDX 53 85 56 86 50 87 51 88 54 89 52 90 78 91 79 92 87 93 80 94
REMARK SMILES IDX 81 95 85 96 88 97 82 98 83 99 86 100 84 101 63 102 64 103
REMARK SMILES IDX 72 104 65 105 66 106 70 107 73 108 67 109 68 110 71 111
REMARK SMILES IDX 69 112
REMARK H PARENT 27 7 34 46 93 65 61 76
REMARK Flexibility Score: inf
ROOT
ATOM      1  C   UNL A   1      45.021  43.980  29.310  1.00  0.00     0.002 C 
ENDROOT
BRANCH   1   2
ATOM      2  C   UNL A   1      44.036  44.544  30.343  1.00  0.00     0.021 C 
BRANCH   2   3
ATOM      3  C   UNL A   1      44.630  44.639  31.750  1.00  0.00     0.116 C 
BRANCH   3   4
ATOM      4  N   UNL A   1      43.571  44.834  32.718  1.00  0.00    -0.352 N 
ATOM      5  C   UNL A   1      42.816  43.955  33.447  1.00  0.00     0.251 C 
ATOM      6  O   UNL A   1      41.954  44.426  34.190  1.00  0.00    -0.269 OA
ATOM      7  H   UNL A   1      43.351  45.779  32.883  1.00  0.00     0.163 HD
BRANCH   5   8
ATOM      8  C   UNL A   1      43.034  42.482  33.427  1.00  0.00     0.039 A 
ATOM      9  C   UNL A   1      43.267  39.673  33.255  1.00  0.00     0.060 A 
ATOM     10  C   UNL A   1      42.653  40.404  32.234  1.00  0.00     0.029 A 
ATOM     11  C   UNL A   1      43.812  40.368  34.335  1.00  0.00     0.029 A 
ATOM     12  C   UNL A   1      42.519  41.790  32.324  1.00  0.00     0.016 A 
ATOM     13  C   UNL A   1      43.735  41.764  34.400  1.00  0.00     0.016 A 
BRANCH   9  14
ATOM     14  N   UNL A   1      43.357  38.300  33.156  1.00  0.00    -0.257 N 
ATOM     15  C   UNL A   1      43.904  37.566  32.015  1.00  0.00     0.144 C 
ATOM     16  C   UNL A   1      43.654  36.100  32.424  1.00  0.00     0.091 C 
ATOM     17  C   UNL A   1      42.883  36.308  33.700  1.00  0.00     0.071 C 
ATOM     18  N   UNL A   1      42.731  37.536  34.079  1.00  0.00    -0.176 NA
BRANCH  15  19
ATOM     19  C   UNL A   1      45.363  37.939  31.789  1.00  0.00    -0.015 A 
ATOM     20  C   UNL A   1      47.059  39.289  30.651  1.00  0.00     0.164 A 
ATOM     21  C   UNL A   1      45.728  38.842  30.781  1.00  0.00     0.056 A 
ATOM     22  C   UNL A   1      48.061  38.866  31.545  1.00  0.00     0.203 A 
ATOM     23  C   UNL A   1      47.693  37.955  32.557  1.00  0.00     0.164 A 
ATOM     24  C   UNL A   1      46.367  37.503  32.660  1.00  0.00     0.056 A 
BRANCH  20  25
ATOM     25  O   UNL A   1      47.300  40.248  29.699  1.00  0.00    -0.493 OA
ATOM     26  C   UNL A   1      47.733  39.676  28.464  1.00  0.00     0.278 C 
ENDBRANCH  20  25
BRANCH  22  27
ATOM     27  O   UNL A   1      49.371  39.254  31.537  1.00  0.00    -0.490 OA
ATOM     28  C   UNL A   1      50.348  38.542  30.800  1.00  0.00     0.278 C 
ENDBRANCH  22  27
BRANCH  23  29
ATOM     29  O   UNL A   1      48.495  37.390  33.519  1.00  0.00    -0.493 OA
ATOM     30  C   UNL A   1      47.902  36.496  34.451  1.00  0.00     0.278 C 
ENDBRANCH  23  29
ENDBRANCH  15  19
BRANCH  17  31
ATOM     31  C   UNL A   1      42.289  35.198  34.454  1.00  0.00    -0.002 A 
ATOM     32  C   UNL A   1      42.270  33.932  33.855  1.00  0.00     0.011 A 
ATOM     33  C   UNL A   1      41.684  35.411  35.694  1.00  0.00     0.011 A 
ATOM     34  C   UNL A   1      41.656  32.863  34.504  1.00  0.00     0.021 A 
ATOM     35  C   UNL A   1      41.043  34.346  36.336  1.00  0.00     0.021 A 
ATOM     36  C   UNL A   1      41.030  33.081  35.735  1.00  0.00     0.067 A 
BRANCH  36  37
ATOM     37  S   UNL A   1      40.223  31.718  36.544  1.00  0.00     0.175 S 
ATOM     38  C   UNL A   1      38.947  31.224  35.413  1.00  0.00     0.163 C 
ATOM     39  O   UNL A   1      41.202  30.646  36.624  1.00  0.00    -0.224 OA
ATOM     40  O   UNL A   1      39.580  32.231  37.734  1.00  0.00    -0.224 OA
ENDBRANCH  36  37
ENDBRANCH  17  31
ENDBRANCH   9  14
ENDBRANCH   5   8
ENDBRANCH   3   4
ENDBRANCH   2   3
ENDBRANCH   1   2
BRANCH   1  41
ATOM     41  C   UNL A   1      44.590  42.656  28.668  1.00  0.00     0.002 C 
BRANCH  41  42
ATOM     42  C   UNL A   1      45.083  42.444  27.234  1.00  0.00     0.021 C 
BRANCH  42  43
ATOM     43  C   UNL A   1      44.330  41.364  26.465  1.00  0.00     0.116 C 
BRANCH  43  44
ATOM     44  N   UNL A   1      42.917  41.682  26.333  1.00  0.00    -0.352 N 
ATOM     45  C   UNL A   1      41.827  40.868  26.504  1.00  0.00     0.251 C 
ATOM     46  H   UNL A   1      42.715  42.614  26.088  1.00  0.00     0.163 HD
ATOM     47  O   UNL A   1      40.714  41.234  26.142  1.00  0.00    -0.269 OA
BRANCH  45  48
ATOM     48  C   UNL A   1      41.999  39.535  27.117  1.00  0.00     0.039 A 
ATOM     49  C   UNL A   1      41.914  38.399  26.307  1.00  0.00     0.014 A 
ATOM     50  C   UNL A   1      42.220  39.407  28.492  1.00  0.00     0.014 A 
ATOM     51  C   UNL A   1      42.101  37.134  26.867  1.00  0.00     0.010 A 
ATOM     52  C   UNL A   1      42.466  38.150  29.037  1.00  0.00     0.010 A 
ATOM     53  C   UNL A   1      42.402  37.002  28.232  1.00  0.00    -0.014 A 
BRANCH  53  54
ATOM     54  C   UNL A   1      42.637  35.673  28.845  1.00  0.00     0.031 A 
ATOM     55  C   UNL A   1      41.481  34.880  29.385  1.00  0.00     0.074 A 
ATOM     56  C   UNL A   1      43.896  35.213  28.980  1.00  0.00     0.049 A 
ATOM     57  N   UNL A   1      41.486  33.748  30.042  1.00  0.00    -0.248 NA
ATOM     58  C   UNL A   1      40.140  35.452  29.183  1.00  0.00     0.031 C 
ATOM     59  C   UNL A   1      45.102  35.909  28.531  1.00  0.00     0.029 A 
ATOM     60  N   UNL A   1      44.369  34.057  29.549  1.00  0.00    -0.354 N 
ATOM     61  C   UNL A   1      40.158  33.485  30.348  1.00  0.00     0.074 A 
ATOM     62  C   UNL A   1      39.378  34.595  29.845  1.00  0.00     0.031 C 
ATOM     63  C   UNL A   1      46.177  35.161  28.830  1.00  0.00     0.029 A 
ATOM     64  C   UNL A   1      45.738  33.951  29.520  1.00  0.00     0.049 A 
ATOM     65  H   UNL A   1      43.783  33.369  29.939  1.00  0.00     0.167 HD
ATOM     66  C   UNL A   1      39.635  32.404  30.975  1.00  0.00     0.037 A 
ATOM     67  C   UNL A   1      46.547  32.990  30.004  1.00  0.00     0.037 A 
ATOM     68  C   UNL A   1      40.410  31.286  31.444  1.00  0.00     0.049 A 
ATOM     69  C   UNL A   1      45.939  31.796  30.690  1.00  0.00     0.074 A 
ATOM     70  C   UNL A   1      39.969  30.116  32.037  1.00  0.00     0.029 A 
ATOM     71  N   UNL A   1      41.793  31.201  31.370  1.00  0.00    -0.354 N 
ATOM     72  N   UNL A   1      44.679  31.529  30.924  1.00  0.00    -0.248 NA
ATOM     73  C   UNL A   1      46.870  30.766  31.174  1.00  0.00     0.031 C 
ATOM     74  C   UNL A   1      41.088  29.339  32.355  1.00  0.00     0.029 A 
ATOM     75  C   UNL A   1      42.223  30.005  31.922  1.00  0.00     0.049 A 
ATOM     76  H   UNL A   1      42.382  31.889  30.984  1.00  0.00     0.167 HD
ATOM     77  C   UNL A   1      44.659  30.292  31.553  1.00  0.00     0.074 A 
ATOM     78  C   UNL A   1      46.036  29.856  31.657  1.00  0.00     0.031 C 
ATOM     79  C   UNL A   1      43.597  29.582  32.005  1.00  0.00     0.037 A 
BRANCH  66  80
ATOM     80  C   UNL A   1      38.149  32.376  31.186  1.00  0.00     0.064 A 
ATOM     81  C   UNL A   1      37.557  32.957  32.317  1.00  0.00     0.173 A 
ATOM     82  C   UNL A   1      37.306  31.790  30.231  1.00  0.00     0.173 A 
ATOM     83  F   UNL A   1      38.320  33.519  33.266  1.00  0.00    -0.203 F 
ATOM     84  C   UNL A   1      36.176  32.926  32.499  1.00  0.00     0.198 A 
ATOM     85  C   UNL A   1      35.923  31.787  30.402  1.00  0.00     0.198 A 
ATOM     86  F   UNL A   1      37.821  31.225  29.129  1.00  0.00    -0.203 F 
ATOM     87  F   UNL A   1      35.637  33.445  33.611  1.00  0.00    -0.200 F 
ATOM     88  C   UNL A   1      35.361  32.347  31.538  1.00  0.00     0.200 A 
ATOM     89  F   UNL A   1      35.136  31.237  29.467  1.00  0.00    -0.200 F 
ATOM     90  F   UNL A   1      34.032  32.324  31.711  1.00  0.00    -0.200 F 
ENDBRANCH  66  80
BRANCH  67  91
ATOM     91  C   UNL A   1      48.018  33.105  29.835  1.00  0.00     0.064 A 
ATOM     92  C   UNL A   1      48.791  33.826  30.756  1.00  0.00     0.173 A 
ATOM     93  C   UNL A   1      48.680  32.500  28.758  1.00  0.00     0.173 A 
ATOM     94  F   UNL A   1      48.199  34.439  31.792  1.00  0.00    -0.203 F 
ATOM     95  C   UNL A   1      50.169  33.951  30.597  1.00  0.00     0.198 A 
ATOM     96  C   UNL A   1      50.061  32.603  28.615  1.00  0.00     0.198 A 
ATOM     97  F   UNL A   1      47.986  31.794  27.853  1.00  0.00    -0.203 F 
ATOM     98  F   UNL A   1      50.879  34.679  31.469  1.00  0.00    -0.200 F 
ATOM     99  C   UNL A   1      50.804  33.334  29.529  1.00  0.00     0.200 A 
ATOM    100  F   UNL A   1      50.673  31.995  27.589  1.00  0.00    -0.200 F 
ATOM    101  F   UNL A   1      52.131  33.450  29.378  1.00  0.00    -0.200 F 
ENDBRANCH  67  91
BRANCH  79 102
ATOM    102  C   UNL A   1      43.877  28.243  32.620  1.00  0.00     0.064 A 
ATOM    103  C   UNL A   1      44.009  27.088  31.838  1.00  0.00     0.173 A 
ATOM    104  C   UNL A   1      44.061  28.126  34.007  1.00  0.00     0.173 A 
ATOM    105  F   UNL A   1      43.826  27.148  30.510  1.00  0.00    -0.203 F 
ATOM    106  C   UNL A   1      44.296  25.858  32.423  1.00  0.00     0.198 A 
ATOM    107  C   UNL A   1      44.374  26.900  34.585  1.00  0.00     0.198 A 
ATOM    108  F   UNL A   1      43.951  29.204  34.797  1.00  0.00    -0.203 F 
ATOM    109  F   UNL A   1      44.377  24.759  31.661  1.00  0.00    -0.200 F 
ATOM    110  C   UNL A   1      44.485  25.766  33.795  1.00  0.00     0.200 A 
ATOM    111  F   UNL A   1      44.568  26.814  35.908  1.00  0.00    -0.200 F 
ATOM    112  F   UNL A   1      44.769  24.583  34.355  1.00  0.00    -0.200 F 
ENDBRANCH  79 102
ENDBRANCH  53  54
ENDBRANCH  45  48
ENDBRANCH  43  44
ENDBRANCH  42  43
ENDBRANCH  41  42
ENDBRANCH   1  41
TORSDOF 20
ENDMDL
