MODEL 1
REMARK VINA RESULT:     -11.2      0.000      0.000
REMARK SMILES CC(C)C[C@@H](C(=O)NCCCCCCNC(=O)c1ccc(-c2c3nc(c(-c4c(F)c(F)c(F)c(F)c4F)c4ccc([nH]4)c(-c4c(F)c(F)c(F)c(F)c4F)c4nc(c(-c5c(F)c(F)c(F)c(F)c5F)c5ccc2[nH]5)C=C4)C=C3)cc1)[C@@H]1CCC[C@@H](C)C1
REMARK SMILES IDX 11 1 10 2 9 3 8 4 6 5 7 6 5 8 4 9 2 10 1 11 3 12 81 13 82 14
REMARK SMILES IDX 87 15 83 16 85 17 84 18 86 19 12 20 13 21 14 22 15 23 16 24
REMARK SMILES IDX 17 26 18 27 19 28 80 29 20 30 79 31 21 32 22 33 23 34 73 35
REMARK SMILES IDX 24 36 78 37 72 38 74 39 25 40 77 41 71 42 70 43 26 45 58 46
REMARK SMILES IDX 38 47 57 48 39 49 42 50 56 51 75 52 40 53 41 54 55 56 76 57
REMARK SMILES IDX 43 58 27 59 28 60 36 61 29 62 30 63 34 64 37 65 31 66 32 67
REMARK SMILES IDX 35 68 33 69 59 70 60 71 68 72 61 73 62 74 66 75 69 76 63 77
REMARK SMILES IDX 64 78 67 79 65 80 44 81 45 82 53 83 46 84 47 85 51 86 54 87
REMARK SMILES IDX 48 88 49 89 52 90 50 91
REMARK H PARENT 8 7 15 25 74 44 42 55
REMARK Flexibility Score: inf
ROOT
ATOM      1  C   UNL A   1      32.977  29.674  25.882  1.00  0.00     0.002 C 
ENDROOT
BRANCH   1   2
ATOM      2  C   UNL A   1      32.816  29.101  24.471  1.00  0.00     0.021 C 
BRANCH   2   3
ATOM      3  C   UNL A   1      34.029  28.334  23.935  1.00  0.00     0.116 C 
BRANCH   3   4
ATOM      4  N   UNL A   1      33.815  27.774  22.614  1.00  0.00    -0.356 N 
ATOM      5  C   UNL A   1      33.362  26.564  22.196  1.00  0.00     0.223 C 
ATOM      6  O   UNL A   1      33.308  26.378  20.976  1.00  0.00    -0.275 OA
ATOM      7  H   UNL A   1      34.041  28.390  21.880  1.00  0.00     0.163 HD
BRANCH   5   8
ATOM      8  C   UNL A   1      32.905  25.463  23.157  1.00  0.00     0.082 C 
BRANCH   8   9
ATOM      9  C   UNL A   1      33.687  24.150  22.873  1.00  0.00     0.016 C 
BRANCH   9  10
ATOM     10  C   UNL A   1      34.787  23.841  23.914  1.00  0.00    -0.017 C 
ATOM     11  C   UNL A   1      34.692  24.792  25.108  1.00  0.00     0.007 C 
ATOM     12  C   UNL A   1      34.672  22.393  24.402  1.00  0.00     0.007 C 
ENDBRANCH   9  10
ENDBRANCH   8   9
BRANCH   8  13
ATOM     13  C   UNL A   1      31.363  25.229  23.226  1.00  0.00     0.002 C 
ATOM     14  C   UNL A   1      30.541  26.331  23.920  1.00  0.00     0.004 C 
ATOM     15  C   UNL A   1      31.033  23.865  23.889  1.00  0.00     0.007 C 
ATOM     16  C   UNL A   1      30.656  26.352  25.432  1.00  0.00     0.001 C 
ATOM     17  C   UNL A   1      31.094  23.882  25.431  1.00  0.00    -0.014 C 
ATOM     18  C   UNL A   1      30.243  25.014  26.015  1.00  0.00     0.003 C 
ATOM     19  C   UNL A   1      30.636  22.545  26.012  1.00  0.00     0.007 C 
ENDBRANCH   8  13
ENDBRANCH   5   8
ENDBRANCH   3   4
ENDBRANCH   2   3
ENDBRANCH   1   2
BRANCH   1  20
ATOM     20  C   UNL A   1      31.679  30.166  26.522  1.00  0.00     0.002 C 
BRANCH  20  21
ATOM     21  C   UNL A   1      31.497  31.685  26.526  1.00  0.00     0.021 C 
BRANCH  21  22
ATOM     22  C   UNL A   1      32.736  32.487  26.915  1.00  0.00     0.116 C 
BRANCH  22  23
ATOM     23  N   UNL A   1      32.410  33.814  27.406  1.00  0.00    -0.352 N 
ATOM     24  C   UNL A   1      32.987  34.515  28.433  1.00  0.00     0.251 C 
ATOM     25  H   UNL A   1      31.675  34.274  26.939  1.00  0.00     0.163 HD
ATOM     26  O   UNL A   1      32.494  35.574  28.819  1.00  0.00    -0.269 OA
BRANCH  24  27
ATOM     27  C   UNL A   1      34.190  33.979  29.101  1.00  0.00     0.039 A 
ATOM     28  C   UNL A   1      34.025  33.032  30.114  1.00  0.00     0.014 A 
ATOM     29  C   UNL A   1      35.472  34.403  28.733  1.00  0.00     0.014 A 
ATOM     30  C   UNL A   1      35.147  32.473  30.725  1.00  0.00     0.010 A 
ATOM     31  C   UNL A   1      36.592  33.801  29.303  1.00  0.00     0.010 A 
ATOM     32  C   UNL A   1      36.439  32.833  30.306  1.00  0.00    -0.014 A 
BRANCH  32  33
ATOM     33  C   UNL A   1      37.629  32.185  30.912  1.00  0.00     0.031 A 
ATOM     34  C   UNL A   1      38.094  32.570  32.288  1.00  0.00     0.074 A 
ATOM     35  C   UNL A   1      38.307  31.261  30.203  1.00  0.00     0.049 A 
ATOM     36  N   UNL A   1      39.089  32.088  32.988  1.00  0.00    -0.248 NA
ATOM     37  C   UNL A   1      37.358  33.653  32.957  1.00  0.00     0.031 C 
ATOM     38  C   UNL A   1      37.991  30.851  28.834  1.00  0.00     0.029 A 
ATOM     39  N   UNL A   1      39.398  30.500  30.537  1.00  0.00    -0.354 N 
ATOM     40  C   UNL A   1      39.100  32.807  34.175  1.00  0.00     0.074 A 
ATOM     41  C   UNL A   1      38.049  33.796  34.079  1.00  0.00     0.031 C 
ATOM     42  C   UNL A   1      38.849  29.890  28.456  1.00  0.00     0.029 A 
ATOM     43  C   UNL A   1      39.787  29.633  29.545  1.00  0.00     0.049 A 
ATOM     44  H   UNL A   1      39.859  30.570  31.404  1.00  0.00     0.167 HD
ATOM     45  C   UNL A   1      39.900  32.642  35.256  1.00  0.00     0.037 A 
ATOM     46  C   UNL A   1      40.781  28.727  29.522  1.00  0.00     0.037 A 
ATOM     47  C   UNL A   1      40.934  31.644  35.356  1.00  0.00     0.049 A 
ATOM     48  C   UNL A   1      41.639  28.548  30.744  1.00  0.00     0.074 A 
ATOM     49  C   UNL A   1      41.756  31.355  36.432  1.00  0.00     0.029 A 
ATOM     50  N   UNL A   1      41.290  30.772  34.337  1.00  0.00    -0.354 N 
ATOM     51  N   UNL A   1      41.587  29.178  31.892  1.00  0.00    -0.248 NA
ATOM     52  C   UNL A   1      42.687  27.520  30.670  1.00  0.00     0.031 C 
ATOM     53  C   UNL A   1      42.637  30.337  36.050  1.00  0.00     0.029 A 
ATOM     54  C   UNL A   1      42.333  29.959  34.752  1.00  0.00     0.049 A 
ATOM     55  H   UNL A   1      40.864  30.736  33.450  1.00  0.00     0.167 HD
ATOM     56  C   UNL A   1      42.577  28.614  32.683  1.00  0.00     0.074 A 
ATOM     57  C   UNL A   1      43.198  27.571  31.892  1.00  0.00     0.031 C 
ATOM     58  C   UNL A   1      42.945  28.932  33.948  1.00  0.00     0.037 A 
BRANCH  45  59
ATOM     59  C   UNL A   1      39.683  33.558  36.425  1.00  0.00     0.064 A 
ATOM     60  C   UNL A   1      40.269  34.833  36.477  1.00  0.00     0.173 A 
ATOM     61  C   UNL A   1      38.849  33.177  37.486  1.00  0.00     0.173 A 
ATOM     62  F   UNL A   1      41.084  35.241  35.493  1.00  0.00    -0.203 F 
ATOM     63  C   UNL A   1      40.048  35.680  37.560  1.00  0.00     0.198 A 
ATOM     64  C   UNL A   1      38.608  34.037  38.554  1.00  0.00     0.198 A 
ATOM     65  F   UNL A   1      38.260  31.971  37.484  1.00  0.00    -0.203 F 
ATOM     66  F   UNL A   1      40.654  36.874  37.609  1.00  0.00    -0.200 F 
ATOM     67  C   UNL A   1      39.212  35.284  38.593  1.00  0.00     0.200 A 
ATOM     68  F   UNL A   1      37.791  33.658  39.547  1.00  0.00    -0.200 F 
ATOM     69  F   UNL A   1      38.994  36.104  39.631  1.00  0.00    -0.200 F 
ENDBRANCH  45  59
BRANCH  46  70
ATOM     70  C   UNL A   1      40.992  27.889  28.314  1.00  0.00     0.064 A 
ATOM     71  C   UNL A   1      40.368  26.641  28.185  1.00  0.00     0.173 A 
ATOM     72  C   UNL A   1      41.823  28.317  27.268  1.00  0.00     0.173 A 
ATOM     73  F   UNL A   1      39.581  26.181  29.169  1.00  0.00    -0.203 F 
ATOM     74  C   UNL A   1      40.583  25.842  27.064  1.00  0.00     0.198 A 
ATOM     75  C   UNL A   1      42.014  27.529  26.135  1.00  0.00     0.198 A 
ATOM     76  F   UNL A   1      42.437  29.505  27.340  1.00  0.00    -0.203 F 
ATOM     77  F   UNL A   1      40.009  24.634  26.986  1.00  0.00    -0.200 F 
ATOM     78  C   UNL A   1      41.401  26.288  26.038  1.00  0.00     0.200 A 
ATOM     79  F   UNL A   1      42.795  27.970  25.139  1.00  0.00    -0.200 F 
ATOM     80  F   UNL A   1      41.603  25.521  24.958  1.00  0.00    -0.200 F 
ENDBRANCH  46  70
BRANCH  58  81
ATOM     81  C   UNL A   1      44.061  28.131  34.553  1.00  0.00     0.064 A 
ATOM     82  C   UNL A   1      45.396  28.551  34.464  1.00  0.00     0.173 A 
ATOM     83  C   UNL A   1      43.792  26.936  35.238  1.00  0.00     0.173 A 
ATOM     84  F   UNL A   1      45.706  29.678  33.807  1.00  0.00    -0.203 F 
ATOM     85  C   UNL A   1      46.425  27.785  35.006  1.00  0.00     0.198 A 
ATOM     86  C   UNL A   1      44.820  26.189  35.803  1.00  0.00     0.198 A 
ATOM     87  F   UNL A   1      42.531  26.494  35.357  1.00  0.00    -0.203 F 
ATOM     88  F   UNL A   1      47.698  28.175  34.857  1.00  0.00    -0.200 F 
ATOM     89  C   UNL A   1      46.135  26.607  35.679  1.00  0.00     0.200 A 
ATOM     90  F   UNL A   1      44.538  25.056  36.463  1.00  0.00    -0.200 F 
ATOM     91  F   UNL A   1      47.128  25.869  36.196  1.00  0.00    -0.200 F 
ENDBRANCH  58  81
ENDBRANCH  32  33
ENDBRANCH  24  27
ENDBRANCH  22  23
ENDBRANCH  21  22
ENDBRANCH  20  21
ENDBRANCH   1  20
TORSDOF 16
ENDMDL
MODEL 2
REMARK VINA RESULT:     -11.1      0.831      7.518
REMARK SMILES CC(C)C[C@@H](C(=O)NCCCCCCNC(=O)c1ccc(-c2c3nc(c(-c4c(F)c(F)c(F)c(F)c4F)c4ccc([nH]4)c(-c4c(F)c(F)c(F)c(F)c4F)c4nc(c(-c5c(F)c(F)c(F)c(F)c5F)c5ccc2[nH]5)C=C4)C=C3)cc1)[C@@H]1CCC[C@@H](C)C1
REMARK SMILES IDX 11 1 10 2 9 3 8 4 6 5 7 6 5 8 4 9 2 10 1 11 3 12 81 13 82 14
REMARK SMILES IDX 87 15 83 16 85 17 84 18 86 19 12 20 13 21 14 22 15 23 16 24
REMARK SMILES IDX 17 26 18 27 19 28 80 29 20 30 79 31 21 32 22 33 23 34 73 35
REMARK SMILES IDX 24 36 78 37 72 38 74 39 25 40 77 41 71 42 70 43 26 45 58 46
REMARK SMILES IDX 38 47 57 48 39 49 42 50 56 51 75 52 40 53 41 54 55 56 76 57
REMARK SMILES IDX 43 58 27 59 28 60 36 61 29 62 30 63 34 64 37 65 31 66 32 67
REMARK SMILES IDX 35 68 33 69 59 70 60 71 68 72 61 73 62 74 66 75 69 76 63 77
REMARK SMILES IDX 64 78 67 79 65 80 44 81 45 82 53 83 46 84 47 85 51 86 54 87
REMARK SMILES IDX 48 88 49 89 52 90 50 91
REMARK H PARENT 8 7 15 25 74 44 42 55
REMARK Flexibility Score: inf
ROOT
ATOM      1  C   UNL A   1      32.801  30.089  25.880  1.00  0.00     0.002 C 
ENDROOT
BRANCH   1   2
ATOM      2  C   UNL A   1      32.691  29.336  24.551  1.00  0.00     0.021 C 
BRANCH   2   3
ATOM      3  C   UNL A   1      33.533  28.060  24.450  1.00  0.00     0.116 C 
BRANCH   3   4
ATOM      4  N   UNL A   1      33.651  27.557  23.094  1.00  0.00    -0.356 N 
ATOM      5  C   UNL A   1      33.448  26.327  22.554  1.00  0.00     0.223 C 
ATOM      6  O   UNL A   1      33.653  26.209  21.342  1.00  0.00    -0.275 OA
ATOM      7  H   UNL A   1      33.930  28.238  22.440  1.00  0.00     0.163 HD
BRANCH   5   8
ATOM      8  C   UNL A   1      32.965  25.125  23.368  1.00  0.00     0.082 C 
BRANCH   8   9
ATOM      9  C   UNL A   1      33.792  23.862  22.997  1.00  0.00     0.016 C 
BRANCH   9  10
ATOM     10  C   UNL A   1      34.800  23.434  24.088  1.00  0.00    -0.017 C 
ATOM     11  C   UNL A   1      34.743  24.381  25.288  1.00  0.00     0.007 C 
ATOM     12  C   UNL A   1      34.512  22.002  24.552  1.00  0.00     0.007 C 
ENDBRANCH   9  10
ENDBRANCH   8   9
BRANCH   8  13
ATOM     13  C   UNL A   1      31.427  24.858  23.323  1.00  0.00     0.002 C 
ATOM     14  C   UNL A   1      30.520  26.067  23.615  1.00  0.00     0.004 C 
ATOM     15  C   UNL A   1      31.032  23.695  24.273  1.00  0.00     0.007 C 
ATOM     16  C   UNL A   1      30.456  26.476  25.074  1.00  0.00     0.001 C 
ATOM     17  C   UNL A   1      30.911  24.106  25.756  1.00  0.00    -0.014 C 
ATOM     18  C   UNL A   1      29.989  25.315  25.930  1.00  0.00     0.003 C 
ATOM     19  C   UNL A   1      30.400  22.943  26.605  1.00  0.00     0.007 C 
ENDBRANCH   8  13
ENDBRANCH   5   8
ENDBRANCH   3   4
ENDBRANCH   2   3
ENDBRANCH   1   2
BRANCH   1  20
ATOM     20  C   UNL A   1      31.480  30.646  26.408  1.00  0.00     0.002 C 
BRANCH  20  21
ATOM     21  C   UNL A   1      31.429  32.170  26.538  1.00  0.00     0.021 C 
BRANCH  21  22
ATOM     22  C   UNL A   1      32.626  32.802  27.244  1.00  0.00     0.116 C 
BRANCH  22  23
ATOM     23  N   UNL A   1      32.384  34.182  27.626  1.00  0.00    -0.352 N 
ATOM     24  C   UNL A   1      32.981  34.915  28.618  1.00  0.00     0.251 C 
ATOM     25  H   UNL A   1      31.698  34.656  27.101  1.00  0.00     0.163 HD
ATOM     26  O   UNL A   1      32.555  36.032  28.910  1.00  0.00    -0.269 OA
BRANCH  24  27
ATOM     27  C   UNL A   1      34.122  34.347  29.364  1.00  0.00     0.039 A 
ATOM     28  C   UNL A   1      33.869  33.678  30.564  1.00  0.00     0.014 A 
ATOM     29  C   UNL A   1      35.431  34.470  28.886  1.00  0.00     0.014 A 
ATOM     30  C   UNL A   1      34.924  33.089  31.260  1.00  0.00     0.010 A 
ATOM     31  C   UNL A   1      36.475  33.830  29.553  1.00  0.00     0.010 A 
ATOM     32  C   UNL A   1      36.231  33.137  30.747  1.00  0.00    -0.014 A 
BRANCH  32  33
ATOM     33  C   UNL A   1      37.339  32.450  31.457  1.00  0.00     0.031 A 
ATOM     34  C   UNL A   1      38.061  31.299  30.816  1.00  0.00     0.074 A 
ATOM     35  C   UNL A   1      37.676  32.854  32.696  1.00  0.00     0.049 A 
ATOM     36  N   UNL A   1      39.071  30.602  31.271  1.00  0.00    -0.248 NA
ATOM     37  C   UNL A   1      37.571  30.857  29.502  1.00  0.00     0.031 C 
ATOM     38  C   UNL A   1      37.006  33.917  33.448  1.00  0.00     0.029 A 
ATOM     39  N   UNL A   1      38.665  32.421  33.541  1.00  0.00    -0.354 N 
ATOM     40  C   UNL A   1      39.336  29.643  30.304  1.00  0.00     0.074 A 
ATOM     41  C   UNL A   1      38.346  29.809  29.262  1.00  0.00     0.031 C 
ATOM     42  C   UNL A   1      37.624  34.075  34.629  1.00  0.00     0.029 A 
ATOM     43  C   UNL A   1      38.717  33.111  34.728  1.00  0.00     0.049 A 
ATOM     44  H   UNL A   1      39.280  31.684  33.319  1.00  0.00     0.167 HD
ATOM     45  C   UNL A   1      40.330  28.721  30.276  1.00  0.00     0.037 A 
ATOM     46  C   UNL A   1      39.557  32.987  35.771  1.00  0.00     0.037 A 
ATOM     47  C   UNL A   1      41.325  28.571  31.306  1.00  0.00     0.049 A 
ATOM     48  C   UNL A   1      40.665  31.973  35.704  1.00  0.00     0.074 A 
ATOM     49  C   UNL A   1      42.409  27.710  31.341  1.00  0.00     0.029 A 
ATOM     50  N   UNL A   1      41.355  29.299  32.487  1.00  0.00    -0.354 N 
ATOM     51  N   UNL A   1      40.956  31.125  34.747  1.00  0.00    -0.248 NA
ATOM     52  C   UNL A   1      41.571  31.907  36.860  1.00  0.00     0.031 C 
ATOM     53  C   UNL A   1      43.072  27.888  32.561  1.00  0.00     0.029 A 
ATOM     54  C   UNL A   1      42.427  28.892  33.266  1.00  0.00     0.049 A 
ATOM     55  H   UNL A   1      40.711  30.000  32.734  1.00  0.00     0.167 HD
ATOM     56  C   UNL A   1      42.085  30.441  35.173  1.00  0.00     0.074 A 
ATOM     57  C   UNL A   1      42.442  30.991  36.465  1.00  0.00     0.031 C 
ATOM     58  C   UNL A   1      42.763  29.444  34.554  1.00  0.00     0.037 A 
BRANCH  45  59
ATOM     59  C   UNL A   1      40.394  27.807  29.087  1.00  0.00     0.064 A 
ATOM     60  C   UNL A   1      39.653  26.617  29.037  1.00  0.00     0.173 A 
ATOM     61  C   UNL A   1      41.172  28.144  27.969  1.00  0.00     0.173 A 
ATOM     62  F   UNL A   1      38.904  26.243  30.085  1.00  0.00    -0.203 F 
ATOM     63  C   UNL A   1      39.710  25.784  27.922  1.00  0.00     0.198 A 
ATOM     64  C   UNL A   1      41.204  27.323  26.845  1.00  0.00     0.198 A 
ATOM     65  F   UNL A   1      41.895  29.274  27.964  1.00  0.00    -0.203 F 
ATOM     66  F   UNL A   1      39.030  24.629  27.915  1.00  0.00    -0.200 F 
ATOM     67  C   UNL A   1      40.479  26.142  26.825  1.00  0.00     0.200 A 
ATOM     68  F   UNL A   1      41.939  27.675  25.781  1.00  0.00    -0.200 F 
ATOM     69  F   UNL A   1      40.526  25.343  25.750  1.00  0.00    -0.200 F 
ENDBRANCH  45  59
BRANCH  46  70
ATOM     70  C   UNL A   1      39.409  33.877  36.951  1.00  0.00     0.064 A 
ATOM     71  C   UNL A   1      38.694  33.459  38.082  1.00  0.00     0.173 A 
ATOM     72  C   UNL A   1      39.973  35.160  36.971  1.00  0.00     0.173 A 
ATOM     73  F   UNL A   1      38.119  32.248  38.101  1.00  0.00    -0.203 F 
ATOM     74  C   UNL A   1      38.532  34.299  39.182  1.00  0.00     0.198 A 
ATOM     75  C   UNL A   1      39.834  35.988  38.082  1.00  0.00     0.198 A 
ATOM     76  F   UNL A   1      40.671  35.604  35.917  1.00  0.00    -0.203 F 
ATOM     77  F   UNL A   1      37.807  33.892  40.232  1.00  0.00    -0.200 F 
ATOM     78  C   UNL A   1      39.107  35.561  39.183  1.00  0.00     0.200 A 
ATOM     79  F   UNL A   1      40.403  37.202  38.086  1.00  0.00    -0.200 F 
ATOM     80  F   UNL A   1      38.954  36.367  40.243  1.00  0.00    -0.200 F 
ENDBRANCH  46  70
BRANCH  58  81
ATOM     81  C   UNL A   1      43.966  28.897  35.266  1.00  0.00     0.064 A 
ATOM     82  C   UNL A   1      43.863  27.818  36.156  1.00  0.00     0.173 A 
ATOM     83  C   UNL A   1      45.236  29.451  35.049  1.00  0.00     0.173 A 
ATOM     84  F   UNL A   1      42.668  27.263  36.409  1.00  0.00    -0.203 F 
ATOM     85  C   UNL A   1      44.982  27.338  36.831  1.00  0.00     0.198 A 
ATOM     86  C   UNL A   1      46.358  28.949  35.703  1.00  0.00     0.198 A 
ATOM     87  F   UNL A   1      45.390  30.480  34.203  1.00  0.00    -0.203 F 
ATOM     88  F   UNL A   1      44.850  26.345  37.722  1.00  0.00    -0.200 F 
ATOM     89  C   UNL A   1      46.228  27.900  36.601  1.00  0.00     0.200 A 
ATOM     90  F   UNL A   1      47.563  29.487  35.472  1.00  0.00    -0.200 F 
ATOM     91  F   UNL A   1      47.304  27.439  37.254  1.00  0.00    -0.200 F 
ENDBRANCH  58  81
ENDBRANCH  32  33
ENDBRANCH  24  27
ENDBRANCH  22  23
ENDBRANCH  21  22
ENDBRANCH  20  21
ENDBRANCH   1  20
TORSDOF 16
ENDMDL
MODEL 3
REMARK VINA RESULT:     -10.9      5.185     10.758
REMARK SMILES CC(C)C[C@@H](C(=O)NCCCCCCNC(=O)c1ccc(-c2c3nc(c(-c4c(F)c(F)c(F)c(F)c4F)c4ccc([nH]4)c(-c4c(F)c(F)c(F)c(F)c4F)c4nc(c(-c5c(F)c(F)c(F)c(F)c5F)c5ccc2[nH]5)C=C4)C=C3)cc1)[C@@H]1CCC[C@@H](C)C1
REMARK SMILES IDX 11 1 10 2 9 3 8 4 6 5 7 6 5 8 4 9 2 10 1 11 3 12 81 13 82 14
REMARK SMILES IDX 87 15 83 16 85 17 84 18 86 19 12 20 13 21 14 22 15 23 16 24
REMARK SMILES IDX 17 26 18 27 19 28 80 29 20 30 79 31 21 32 22 33 23 34 73 35
REMARK SMILES IDX 24 36 78 37 72 38 74 39 25 40 77 41 71 42 70 43 26 45 58 46
REMARK SMILES IDX 38 47 57 48 39 49 42 50 56 51 75 52 40 53 41 54 55 56 76 57
REMARK SMILES IDX 43 58 27 59 28 60 36 61 29 62 30 63 34 64 37 65 31 66 32 67
REMARK SMILES IDX 35 68 33 69 59 70 60 71 68 72 61 73 62 74 66 75 69 76 63 77
REMARK SMILES IDX 64 78 67 79 65 80 44 81 45 82 53 83 46 84 47 85 51 86 54 87
REMARK SMILES IDX 48 88 49 89 52 90 50 91
REMARK H PARENT 8 7 15 25 74 44 42 55
REMARK Flexibility Score: inf
ROOT
ATOM      1  C   UNL A   1      36.639  22.113  24.665  1.00  0.00     0.002 C 
ENDROOT
BRANCH   1   2
ATOM      2  C   UNL A   1      36.031  23.082  25.684  1.00  0.00     0.021 C 
BRANCH   2   3
ATOM      3  C   UNL A   1      34.703  23.720  25.268  1.00  0.00     0.116 C 
BRANCH   3   4
ATOM      4  N   UNL A   1      33.642  23.519  26.236  1.00  0.00    -0.356 N 
ATOM      5  C   UNL A   1      32.489  24.194  26.484  1.00  0.00     0.223 C 
ATOM      6  O   UNL A   1      31.786  23.777  27.410  1.00  0.00    -0.275 OA
ATOM      7  H   UNL A   1      33.783  22.744  26.826  1.00  0.00     0.163 HD
BRANCH   5   8
ATOM      8  C   UNL A   1      32.034  25.403  25.664  1.00  0.00     0.082 C 
BRANCH   8   9
ATOM      9  C   UNL A   1      31.595  26.555  26.610  1.00  0.00     0.016 C 
BRANCH   9  10
ATOM     10  C   UNL A   1      32.694  27.613  26.859  1.00  0.00    -0.017 C 
ATOM     11  C   UNL A   1      33.629  27.723  25.654  1.00  0.00     0.007 C 
ATOM     12  C   UNL A   1      32.067  28.981  27.146  1.00  0.00     0.007 C 
ENDBRANCH   9  10
ENDBRANCH   8   9
BRANCH   8  13
ATOM     13  C   UNL A   1      30.969  25.105  24.562  1.00  0.00     0.002 C 
ATOM     14  C   UNL A   1      31.515  24.651  23.196  1.00  0.00     0.004 C 
ATOM     15  C   UNL A   1      30.030  26.323  24.347  1.00  0.00     0.007 C 
ATOM     16  C   UNL A   1      32.139  25.754  22.363  1.00  0.00     0.001 C 
ATOM     17  C   UNL A   1      30.631  27.432  23.457  1.00  0.00    -0.014 C 
ATOM     18  C   UNL A   1      31.142  26.871  22.127  1.00  0.00     0.003 C 
ATOM     19  C   UNL A   1      29.606  28.533  23.189  1.00  0.00     0.007 C 
ENDBRANCH   8  13
ENDBRANCH   5   8
ENDBRANCH   3   4
ENDBRANCH   2   3
ENDBRANCH   1   2
BRANCH   1  20
ATOM     20  C   UNL A   1      36.499  20.636  25.029  1.00  0.00     0.002 C 
BRANCH  20  21
ATOM     21  C   UNL A   1      37.776  19.808  24.869  1.00  0.00     0.021 C 
BRANCH  21  22
ATOM     22  C   UNL A   1      38.941  20.232  25.759  1.00  0.00     0.116 C 
BRANCH  22  23
ATOM     23  N   UNL A   1      39.988  19.227  25.824  1.00  0.00    -0.352 N 
ATOM     24  C   UNL A   1      41.326  19.397  26.059  1.00  0.00     0.251 C 
ATOM     25  H   UNL A   1      39.696  18.297  25.681  1.00  0.00     0.163 HD
ATOM     26  O   UNL A   1      42.106  18.452  25.936  1.00  0.00    -0.269 OA
BRANCH  24  27
ATOM     27  C   UNL A   1      41.843  20.730  26.432  1.00  0.00     0.039 A 
ATOM     28  C   UNL A   1      42.198  21.616  25.413  1.00  0.00     0.014 A 
ATOM     29  C   UNL A   1      41.974  21.106  27.773  1.00  0.00     0.014 A 
ATOM     30  C   UNL A   1      42.640  22.899  25.738  1.00  0.00     0.010 A 
ATOM     31  C   UNL A   1      42.359  22.406  28.094  1.00  0.00     0.010 A 
ATOM     32  C   UNL A   1      42.698  23.313  27.079  1.00  0.00    -0.014 A 
BRANCH  32  33
ATOM     33  C   UNL A   1      43.102  24.701  27.416  1.00  0.00     0.031 A 
ATOM     34  C   UNL A   1      44.505  25.173  27.161  1.00  0.00     0.074 A 
ATOM     35  C   UNL A   1      42.202  25.530  27.979  1.00  0.00     0.049 A 
ATOM     36  N   UNL A   1      45.027  26.357  27.360  1.00  0.00    -0.248 NA
ATOM     37  C   UNL A   1      45.453  24.180  26.634  1.00  0.00     0.031 C 
ATOM     38  C   UNL A   1      40.829  25.167  28.334  1.00  0.00     0.029 A 
ATOM     39  N   UNL A   1      42.305  26.846  28.348  1.00  0.00    -0.354 N 
ATOM     40  C   UNL A   1      46.359  26.251  26.985  1.00  0.00     0.074 A 
ATOM     41  C   UNL A   1      46.581  24.874  26.600  1.00  0.00     0.031 C 
ATOM     42  C   UNL A   1      40.207  26.245  28.840  1.00  0.00     0.029 A 
ATOM     43  C   UNL A   1      41.143  27.365  28.866  1.00  0.00     0.049 A 
ATOM     44  H   UNL A   1      43.133  27.370  28.251  1.00  0.00     0.167 HD
ATOM     45  C   UNL A   1      47.306  27.221  26.944  1.00  0.00     0.037 A 
ATOM     46  C   UNL A   1      40.863  28.606  29.302  1.00  0.00     0.037 A 
ATOM     47  C   UNL A   1      47.076  28.594  27.310  1.00  0.00     0.049 A 
ATOM     48  C   UNL A   1      41.924  29.669  29.223  1.00  0.00     0.074 A 
ATOM     49  C   UNL A   1      47.952  29.664  27.244  1.00  0.00     0.029 A 
ATOM     50  N   UNL A   1      45.881  29.087  27.816  1.00  0.00    -0.354 N 
ATOM     51  N   UNL A   1      43.158  29.577  28.790  1.00  0.00    -0.248 NA
ATOM     52  C   UNL A   1      41.548  31.013  29.683  1.00  0.00     0.031 C 
ATOM     53  C   UNL A   1      47.301  30.796  27.748  1.00  0.00     0.029 A 
ATOM     54  C   UNL A   1      46.004  30.441  28.086  1.00  0.00     0.049 A 
ATOM     55  H   UNL A   1      45.067  28.554  27.962  1.00  0.00     0.167 HD
ATOM     56  C   UNL A   1      43.699  30.849  28.905  1.00  0.00     0.074 A 
ATOM     57  C   UNL A   1      42.650  31.702  29.426  1.00  0.00     0.031 C 
ATOM     58  C   UNL A   1      44.953  31.274  28.612  1.00  0.00     0.037 A 
BRANCH  45  59
ATOM     59  C   UNL A   1      48.678  26.830  26.478  1.00  0.00     0.064 A 
ATOM     60  C   UNL A   1      49.611  26.251  27.351  1.00  0.00     0.173 A 
ATOM     61  C   UNL A   1      49.050  26.997  25.136  1.00  0.00     0.173 A 
ATOM     62  F   UNL A   1      49.309  26.080  28.647  1.00  0.00    -0.203 F 
ATOM     63  C   UNL A   1      50.877  25.879  26.903  1.00  0.00     0.198 A 
ATOM     64  C   UNL A   1      50.306  26.599  24.685  1.00  0.00     0.198 A 
ATOM     65  F   UNL A   1      48.193  27.542  24.259  1.00  0.00    -0.203 F 
ATOM     66  F   UNL A   1      51.768  25.370  27.765  1.00  0.00    -0.200 F 
ATOM     67  C   UNL A   1      51.219  26.046  25.570  1.00  0.00     0.200 A 
ATOM     68  F   UNL A   1      50.633  26.750  23.395  1.00  0.00    -0.200 F 
ATOM     69  F   UNL A   1      52.435  25.680  25.139  1.00  0.00    -0.200 F 
ENDBRANCH  45  59
BRANCH  46  70
ATOM     70  C   UNL A   1      39.505  28.923  29.813  1.00  0.00     0.064 A 
ATOM     71  C   UNL A   1      38.526  29.467  28.970  1.00  0.00     0.173 A 
ATOM     72  C   UNL A   1      39.159  28.692  31.153  1.00  0.00     0.173 A 
ATOM     73  F   UNL A   1      38.817  29.725  27.686  1.00  0.00    -0.203 F 
ATOM     74  C   UNL A   1      37.259  29.788  29.452  1.00  0.00     0.198 A 
ATOM     75  C   UNL A   1      37.883  28.987  31.626  1.00  0.00     0.198 A 
ATOM     76  F   UNL A   1      40.057  28.167  31.997  1.00  0.00    -0.203 F 
ATOM     77  F   UNL A   1      36.357  30.348  28.635  1.00  0.00    -0.200 F 
ATOM     78  C   UNL A   1      36.937  29.542  30.778  1.00  0.00     0.200 A 
ATOM     79  F   UNL A   1      37.570  28.735  32.905  1.00  0.00    -0.200 F 
ATOM     80  F   UNL A   1      35.716  29.847  31.240  1.00  0.00    -0.200 F 
ENDBRANCH  46  70
BRANCH  58  81
ATOM     81  C   UNL A   1      45.247  32.728  28.838  1.00  0.00     0.064 A 
ATOM     82  C   UNL A   1      45.810  33.183  30.039  1.00  0.00     0.173 A 
ATOM     83  C   UNL A   1      44.973  33.675  27.840  1.00  0.00     0.173 A 
ATOM     84  F   UNL A   1      46.077  32.319  31.030  1.00  0.00    -0.203 F 
ATOM     85  C   UNL A   1      46.053  34.539  30.247  1.00  0.00     0.198 A 
ATOM     86  C   UNL A   1      45.245  35.025  28.040  1.00  0.00     0.198 A 
ATOM     87  F   UNL A   1      44.440  33.290  26.671  1.00  0.00    -0.203 F 
ATOM     88  F   UNL A   1      46.537  34.958  31.424  1.00  0.00    -0.200 F 
ATOM     89  C   UNL A   1      45.775  35.457  29.246  1.00  0.00     0.200 A 
ATOM     90  F   UNL A   1      44.985  35.910  27.067  1.00  0.00    -0.200 F 
ATOM     91  F   UNL A   1      46.006  36.762  29.449  1.00  0.00    -0.200 F 
ENDBRANCH  58  81
ENDBRANCH  32  33
ENDBRANCH  24  27
ENDBRANCH  22  23
ENDBRANCH  21  22
ENDBRANCH  20  21
ENDBRANCH   1  20
TORSDOF 16
ENDMDL
