MODEL 1
REMARK VINA RESULT:     -13.2      0.000      0.000
REMARK SMILES Cc1ccc(NC(=O)c2csc(Br)c2)c(C(=O)NCCCCCCNC(=O)c2ccc(-c3c4nc(c(-c5c(F)c(F)c(F)c(F)c5F)c5ccc([nH]5)c(-c5c(F)c(F)c(F)c(F)c5F)c5nc(c(-c6c(F)c(F)c(F)c(F)c6F)c6ccc3[nH]6)C=C5)C=C4)cc2)c1
REMARK SMILES IDX 21 1 20 2 19 3 18 4 16 5 17 6 15 8 1 9 2 10 3 11 91 12 4 13
REMARK SMILES IDX 5 14 6 15 7 16 8 18 9 19 10 20 14 21 11 22 12 23 13 24 22 25
REMARK SMILES IDX 23 26 24 27 25 28 26 29 27 31 28 32 29 33 90 34 30 35 89 36
REMARK SMILES IDX 31 37 32 38 33 39 83 40 34 41 88 42 82 43 84 44 35 45 87 46
REMARK SMILES IDX 81 47 80 48 36 50 68 51 48 52 67 53 49 54 52 55 66 56 85 57
REMARK SMILES IDX 50 58 51 59 65 61 86 62 53 63 37 64 38 65 46 66 39 67 40 68
REMARK SMILES IDX 44 69 47 70 41 71 42 72 45 73 43 74 69 75 70 76 78 77 71 78
REMARK SMILES IDX 72 79 76 80 79 81 73 82 74 83 77 84 75 85 54 86 55 87 63 88
REMARK SMILES IDX 56 89 57 90 61 91 64 92 58 93 59 94 62 95 60 96
REMARK H PARENT 18 7 6 17 25 30 84 49 52 60
REMARK Flexibility Score: inf
ROOT
ATOM      1  C   UNL A   1      32.855  28.825  25.249  1.00  0.00     0.002 C 
ENDROOT
BRANCH   1   2
ATOM      2  C   UNL A   1      33.968  28.956  24.195  1.00  0.00     0.021 C 
BRANCH   2   3
ATOM      3  C   UNL A   1      33.471  29.105  22.753  1.00  0.00     0.116 C 
BRANCH   3   4
ATOM      4  N   UNL A   1      33.584  27.858  22.025  1.00  0.00    -0.352 N 
ATOM      5  C   UNL A   1      33.013  26.617  22.133  1.00  0.00     0.253 C 
ATOM      6  O   UNL A   1      33.365  25.807  21.269  1.00  0.00    -0.269 OA
ATOM      7  H   UNL A   1      34.222  27.915  21.277  1.00  0.00     0.163 HD
BRANCH   5   8
ATOM      8  C   UNL A   1      32.016  26.179  23.175  1.00  0.00     0.063 A 
ATOM      9  C   UNL A   1      28.287  26.507  23.996  1.00  0.00     0.044 C 
ATOM     10  C   UNL A   1      29.744  26.169  24.111  1.00  0.00    -0.050 A 
ATOM     11  C   UNL A   1      30.188  25.400  25.179  1.00  0.00     0.005 A 
ATOM     12  C   UNL A   1      30.677  26.610  23.161  1.00  0.00     0.019 A 
ATOM     13  C   UNL A   1      31.528  25.028  25.262  1.00  0.00     0.027 A 
ATOM     14  C   UNL A   1      32.439  25.329  24.240  1.00  0.00     0.054 A 
BRANCH  14  15
ATOM     15  N   UNL A   1      33.773  24.844  24.269  1.00  0.00    -0.321 N 
ATOM     16  C   UNL A   1      34.357  23.599  24.208  1.00  0.00     0.256 C 
ATOM     17  H   UNL A   1      34.435  25.567  24.353  1.00  0.00     0.170 HD
ATOM     18  O   UNL A   1      35.550  23.486  24.489  1.00  0.00    -0.269 OA
BRANCH  16  19
ATOM     19  C   UNL A   1      33.589  22.432  23.797  1.00  0.00     0.052 A 
ATOM     20  C   UNL A   1      32.777  22.452  22.674  1.00  0.00     0.080 A 
ATOM     21  C   UNL A   1      33.502  21.161  24.466  1.00  0.00     0.041 A 
ATOM     22  S   UNL A   1      32.055  20.932  22.357  1.00  0.00    -0.136 S 
ATOM     23  C   UNL A   1      32.751  20.264  23.749  1.00  0.00     0.071 A 
ATOM     24  Br  UNL A   1      32.535  18.470  24.239  1.00  0.00    -0.039 Br
ENDBRANCH  16  19
ENDBRANCH  14  15
ENDBRANCH   5   8
ENDBRANCH   3   4
ENDBRANCH   2   3
ENDBRANCH   1   2
BRANCH   1  25
ATOM     25  C   UNL A   1      31.946  30.053  25.445  1.00  0.00     0.002 C 
BRANCH  25  26
ATOM     26  C   UNL A   1      32.203  30.888  26.704  1.00  0.00     0.021 C 
BRANCH  26  27
ATOM     27  C   UNL A   1      33.393  30.408  27.527  1.00  0.00     0.116 C 
BRANCH  27  28
ATOM     28  N   UNL A   1      33.981  31.449  28.365  1.00  0.00    -0.352 N 
ATOM     29  C   UNL A   1      35.184  31.439  29.051  1.00  0.00     0.251 C 
ATOM     30  H   UNL A   1      33.449  32.272  28.454  1.00  0.00     0.163 HD
ATOM     31  O   UNL A   1      35.536  32.399  29.717  1.00  0.00    -0.269 OA
BRANCH  29  32
ATOM     32  C   UNL A   1      36.094  30.288  28.858  1.00  0.00     0.039 A 
ATOM     33  C   UNL A   1      36.526  29.597  29.995  1.00  0.00     0.014 A 
ATOM     34  C   UNL A   1      36.680  30.052  27.617  1.00  0.00     0.014 A 
ATOM     35  C   UNL A   1      37.706  28.861  29.932  1.00  0.00     0.010 A 
ATOM     36  C   UNL A   1      37.892  29.389  27.570  1.00  0.00     0.010 A 
ATOM     37  C   UNL A   1      38.441  28.862  28.744  1.00  0.00    -0.014 A 
BRANCH  37  38
ATOM     38  C   UNL A   1      39.850  28.484  28.694  1.00  0.00     0.031 A 
ATOM     39  C   UNL A   1      40.272  27.123  28.315  1.00  0.00     0.074 A 
ATOM     40  C   UNL A   1      40.798  29.410  28.965  1.00  0.00     0.049 A 
ATOM     41  N   UNL A   1      41.378  26.586  28.715  1.00  0.00    -0.248 NA
ATOM     42  C   UNL A   1      39.474  26.243  27.468  1.00  0.00     0.031 C 
ATOM     43  C   UNL A   1      42.241  29.284  28.767  1.00  0.00     0.029 A 
ATOM     44  N   UNL A   1      40.652  30.604  29.693  1.00  0.00    -0.354 N 
ATOM     45  C   UNL A   1      41.560  25.430  28.003  1.00  0.00     0.074 A 
ATOM     46  C   UNL A   1      40.324  25.228  27.279  1.00  0.00     0.031 C 
ATOM     47  C   UNL A   1      42.864  30.132  29.597  1.00  0.00     0.029 A 
ATOM     48  C   UNL A   1      41.850  30.744  30.434  1.00  0.00     0.049 A 
ATOM     49  H   UNL A   1      39.879  31.214  29.687  1.00  0.00     0.167 HD
ATOM     50  C   UNL A   1      42.776  24.814  28.007  1.00  0.00     0.037 A 
ATOM     51  C   UNL A   1      41.838  30.742  31.798  1.00  0.00     0.037 A 
ATOM     52  C   UNL A   1      43.754  25.500  28.841  1.00  0.00     0.049 A 
ATOM     53  C   UNL A   1      42.628  29.622  32.441  1.00  0.00     0.074 A 
ATOM     54  C   UNL A   1      44.799  26.374  28.594  1.00  0.00     0.029 A 
ATOM     55  N   UNL A   1      43.540  25.547  30.206  1.00  0.00    -0.354 N 
ATOM     56  N   UNL A   1      43.251  28.684  31.785  1.00  0.00    -0.248 NA
ATOM     57  C   UNL A   1      42.680  29.413  33.891  1.00  0.00     0.031 C 
ATOM     58  C   UNL A   1      45.223  26.929  29.834  1.00  0.00     0.029 A 
ATOM     59  C   UNL A   1      44.431  26.394  30.831  1.00  0.00     0.049 A 
ATOM     60  H   UNL A   1      42.838  25.039  30.673  1.00  0.00     0.167 HD
ATOM     61  C   UNL A   1      43.710  27.742  32.668  1.00  0.00     0.074 A 
ATOM     62  C   UNL A   1      43.333  28.243  33.975  1.00  0.00     0.031 C 
ATOM     63  C   UNL A   1      44.320  26.591  32.264  1.00  0.00     0.037 A 
BRANCH  50  64
ATOM     64  C   UNL A   1      43.107  23.691  27.067  1.00  0.00     0.064 A 
ATOM     65  C   UNL A   1      42.688  22.372  27.329  1.00  0.00     0.173 A 
ATOM     66  C   UNL A   1      43.875  23.864  25.902  1.00  0.00     0.173 A 
ATOM     67  F   UNL A   1      41.898  22.082  28.369  1.00  0.00    -0.203 F 
ATOM     68  C   UNL A   1      43.091  21.295  26.537  1.00  0.00     0.198 A 
ATOM     69  C   UNL A   1      44.324  22.781  25.143  1.00  0.00     0.198 A 
ATOM     70  F   UNL A   1      44.200  25.092  25.469  1.00  0.00    -0.203 F 
ATOM     71  F   UNL A   1      42.672  20.056  26.837  1.00  0.00    -0.200 F 
ATOM     72  C   UNL A   1      43.940  21.495  25.467  1.00  0.00     0.200 A 
ATOM     73  F   UNL A   1      45.145  22.991  24.104  1.00  0.00    -0.200 F 
ATOM     74  F   UNL A   1      44.377  20.452  24.747  1.00  0.00    -0.200 F 
ENDBRANCH  50  64
BRANCH  51  75
ATOM     75  C   UNL A   1      40.608  31.353  32.363  1.00  0.00     0.064 A 
ATOM     76  C   UNL A   1      40.440  32.749  32.253  1.00  0.00     0.173 A 
ATOM     77  C   UNL A   1      39.478  30.588  32.669  1.00  0.00     0.173 A 
ATOM     78  F   UNL A   1      41.492  33.529  31.955  1.00  0.00    -0.203 F 
ATOM     79  C   UNL A   1      39.180  33.334  32.329  1.00  0.00     0.198 A 
ATOM     80  C   UNL A   1      38.219  31.182  32.765  1.00  0.00     0.198 A 
ATOM     81  F   UNL A   1      39.567  29.253  32.763  1.00  0.00    -0.203 F 
ATOM     82  F   UNL A   1      39.038  34.649  32.105  1.00  0.00    -0.200 F 
ATOM     83  C   UNL A   1      38.066  32.546  32.561  1.00  0.00     0.200 A 
ATOM     84  F   UNL A   1      37.138  30.415  32.968  1.00  0.00    -0.200 F 
ATOM     85  F   UNL A   1      36.844  33.093  32.550  1.00  0.00    -0.200 F 
ENDBRANCH  51  75
BRANCH  63  86
ATOM     86  C   UNL A   1      44.854  25.548  33.201  1.00  0.00     0.064 A 
ATOM     87  C   UNL A   1      46.213  25.199  33.244  1.00  0.00     0.173 A 
ATOM     88  C   UNL A   1      43.989  24.772  34.004  1.00  0.00     0.173 A 
ATOM     89  F   UNL A   1      47.107  25.828  32.469  1.00  0.00    -0.203 F 
ATOM     90  C   UNL A   1      46.681  24.174  34.071  1.00  0.00     0.198 A 
ATOM     91  C   UNL A   1      44.451  23.717  34.788  1.00  0.00     0.198 A 
ATOM     92  F   UNL A   1      42.674  25.030  34.067  1.00  0.00    -0.203 F 
ATOM     93  F   UNL A   1      47.993  23.907  34.120  1.00  0.00    -0.200 F 
ATOM     94  C   UNL A   1      45.799  23.426  34.833  1.00  0.00     0.200 A 
ATOM     95  F   UNL A   1      43.580  22.988  35.502  1.00  0.00    -0.200 F 
ATOM     96  F   UNL A   1      46.247  22.431  35.608  1.00  0.00    -0.200 F 
ENDBRANCH  63  86
ENDBRANCH  37  38
ENDBRANCH  29  32
ENDBRANCH  27  28
ENDBRANCH  26  27
ENDBRANCH  25  26
ENDBRANCH   1  25
TORSDOF 15
ENDMDL
MODEL 2
REMARK VINA RESULT:     -13.1      1.908      3.123
REMARK SMILES Cc1ccc(NC(=O)c2csc(Br)c2)c(C(=O)NCCCCCCNC(=O)c2ccc(-c3c4nc(c(-c5c(F)c(F)c(F)c(F)c5F)c5ccc([nH]5)c(-c5c(F)c(F)c(F)c(F)c5F)c5nc(c(-c6c(F)c(F)c(F)c(F)c6F)c6ccc3[nH]6)C=C5)C=C4)cc2)c1
REMARK SMILES IDX 21 1 20 2 19 3 18 4 16 5 17 6 15 8 1 9 2 10 3 11 91 12 4 13
REMARK SMILES IDX 5 14 6 15 7 16 8 18 9 19 10 20 14 21 11 22 12 23 13 24 22 25
REMARK SMILES IDX 23 26 24 27 25 28 26 29 27 31 28 32 29 33 90 34 30 35 89 36
REMARK SMILES IDX 31 37 32 38 33 39 83 40 34 41 88 42 82 43 84 44 35 45 87 46
REMARK SMILES IDX 81 47 80 48 36 50 68 51 48 52 67 53 49 54 52 55 66 56 85 57
REMARK SMILES IDX 50 58 51 59 65 61 86 62 53 63 37 64 38 65 46 66 39 67 40 68
REMARK SMILES IDX 44 69 47 70 41 71 42 72 45 73 43 74 69 75 70 76 78 77 71 78
REMARK SMILES IDX 72 79 76 80 79 81 73 82 74 83 77 84 75 85 54 86 55 87 63 88
REMARK SMILES IDX 56 89 57 90 61 91 64 92 58 93 59 94 62 95 60 96
REMARK H PARENT 18 7 6 17 25 30 84 49 52 60
REMARK Flexibility Score: inf
ROOT
ATOM      1  C   UNL A   1      31.858  28.703  27.469  1.00  0.00     0.002 C 
ENDROOT
BRANCH   1   2
ATOM      2  C   UNL A   1      31.489  27.400  26.739  1.00  0.00     0.021 C 
BRANCH   2   3
ATOM      3  C   UNL A   1      32.664  26.448  26.491  1.00  0.00     0.116 C 
BRANCH   3   4
ATOM      4  N   UNL A   1      32.279  25.069  26.707  1.00  0.00    -0.352 N 
ATOM      5  C   UNL A   1      32.783  23.851  26.331  1.00  0.00     0.253 C 
ATOM      6  O   UNL A   1      32.157  22.876  26.761  1.00  0.00    -0.269 OA
ATOM      7  H   UNL A   1      31.463  24.986  27.252  1.00  0.00     0.163 HD
BRANCH   5   8
ATOM      8  C   UNL A   1      34.002  23.613  25.478  1.00  0.00     0.063 A 
ATOM      9  C   UNL A   1      37.823  23.541  25.766  1.00  0.00     0.044 C 
ATOM     10  C   UNL A   1      36.440  23.516  25.185  1.00  0.00    -0.050 A 
ATOM     11  C   UNL A   1      36.266  23.228  23.838  1.00  0.00     0.005 A 
ATOM     12  C   UNL A   1      35.309  23.777  25.973  1.00  0.00     0.019 A 
ATOM     13  C   UNL A   1      34.983  23.143  23.302  1.00  0.00     0.027 A 
ATOM     14  C   UNL A   1      33.841  23.245  24.108  1.00  0.00     0.054 A 
BRANCH  14  15
ATOM     15  N   UNL A   1      32.540  23.035  23.582  1.00  0.00    -0.321 N 
ATOM     16  C   UNL A   1      31.488  23.851  23.233  1.00  0.00     0.256 C 
ATOM     17  H   UNL A   1      32.345  22.083  23.431  1.00  0.00     0.170 HD
ATOM     18  O   UNL A   1      30.388  23.345  23.011  1.00  0.00    -0.269 OA
BRANCH  16  19
ATOM     19  C   UNL A   1      31.669  25.290  23.104  1.00  0.00     0.052 A 
ATOM     20  C   UNL A   1      30.607  26.173  23.223  1.00  0.00     0.080 A 
ATOM     21  C   UNL A   1      32.886  25.996  22.800  1.00  0.00     0.041 A 
ATOM     22  S   UNL A   1      31.097  27.810  23.121  1.00  0.00    -0.136 S 
ATOM     23  C   UNL A   1      32.704  27.356  22.841  1.00  0.00     0.071 A 
ATOM     24  Br  UNL A   1      34.095  28.593  22.636  1.00  0.00    -0.039 Br
ENDBRANCH  16  19
ENDBRANCH  14  15
ENDBRANCH   5   8
ENDBRANCH   3   4
ENDBRANCH   2   3
ENDBRANCH   1   2
BRANCH   1  25
ATOM     25  C   UNL A   1      31.869  29.988  26.621  1.00  0.00     0.002 C 
BRANCH  25  26
ATOM     26  C   UNL A   1      32.860  31.073  27.053  1.00  0.00     0.021 C 
BRANCH  26  27
ATOM     27  C   UNL A   1      34.150  30.523  27.651  1.00  0.00     0.116 C 
BRANCH  27  28
ATOM     28  N   UNL A   1      34.665  31.321  28.761  1.00  0.00    -0.352 N 
ATOM     29  C   UNL A   1      35.791  31.109  29.537  1.00  0.00     0.251 C 
ATOM     30  H   UNL A   1      34.139  32.122  28.987  1.00  0.00     0.163 HD
ATOM     31  O   UNL A   1      36.088  31.877  30.438  1.00  0.00    -0.269 OA
BRANCH  29  32
ATOM     32  C   UNL A   1      36.700  29.999  29.170  1.00  0.00     0.039 A 
ATOM     33  C   UNL A   1      37.087  29.110  30.178  1.00  0.00     0.014 A 
ATOM     34  C   UNL A   1      37.326  29.981  27.927  1.00  0.00     0.014 A 
ATOM     35  C   UNL A   1      38.263  28.382  30.023  1.00  0.00     0.010 A 
ATOM     36  C   UNL A   1      38.534  29.322  27.801  1.00  0.00     0.010 A 
ATOM     37  C   UNL A   1      39.039  28.586  28.878  1.00  0.00    -0.014 A 
BRANCH  37  38
ATOM     38  C   UNL A   1      40.446  28.205  28.807  1.00  0.00     0.031 A 
ATOM     39  C   UNL A   1      40.866  26.894  28.279  1.00  0.00     0.074 A 
ATOM     40  C   UNL A   1      41.396  29.085  29.199  1.00  0.00     0.049 A 
ATOM     41  N   UNL A   1      41.961  26.304  28.631  1.00  0.00    -0.248 NA
ATOM     42  C   UNL A   1      40.076  26.125  27.322  1.00  0.00     0.031 C 
ATOM     43  C   UNL A   1      42.840  28.970  29.010  1.00  0.00     0.029 A 
ATOM     44  N   UNL A   1      41.245  30.187  30.059  1.00  0.00    -0.354 N 
ATOM     45  C   UNL A   1      42.148  25.237  27.792  1.00  0.00     0.074 A 
ATOM     46  C   UNL A   1      40.922  25.132  27.029  1.00  0.00     0.031 C 
ATOM     47  C   UNL A   1      43.455  29.711  29.944  1.00  0.00     0.029 A 
ATOM     48  C   UNL A   1      42.431  30.229  30.830  1.00  0.00     0.049 A 
ATOM     49  H   UNL A   1      40.476  30.801  30.112  1.00  0.00     0.167 HD
ATOM     50  C   UNL A   1      43.359  24.615  27.743  1.00  0.00     0.037 A 
ATOM     51  C   UNL A   1      42.397  30.069  32.184  1.00  0.00     0.037 A 
ATOM     52  C   UNL A   1      44.327  25.192  28.666  1.00  0.00     0.049 A 
ATOM     53  C   UNL A   1      43.168  28.875  32.705  1.00  0.00     0.074 A 
ATOM     54  C   UNL A   1      45.383  26.080  28.539  1.00  0.00     0.029 A 
ATOM     55  N   UNL A   1      44.091  25.081  30.024  1.00  0.00    -0.354 N 
ATOM     56  N   UNL A   1      43.796  28.015  31.953  1.00  0.00    -0.248 NA
ATOM     57  C   UNL A   1      43.195  28.498  34.120  1.00  0.00     0.031 C 
ATOM     58  C   UNL A   1      45.789  26.483  29.843  1.00  0.00     0.029 A 
ATOM     59  C   UNL A   1      44.977  25.841  30.758  1.00  0.00     0.049 A 
ATOM     60  H   UNL A   1      43.378  24.528  30.418  1.00  0.00     0.167 HD
ATOM     61  C   UNL A   1      44.234  26.972  32.727  1.00  0.00     0.074 A 
ATOM     62  C   UNL A   1      43.839  27.321  34.078  1.00  0.00     0.031 C 
ATOM     63  C   UNL A   1      44.844  25.872  32.202  1.00  0.00     0.037 A 
BRANCH  50  64
ATOM     64  C   UNL A   1      43.698  23.607  26.684  1.00  0.00     0.064 A 
ATOM     65  C   UNL A   1      43.228  22.281  26.759  1.00  0.00     0.173 A 
ATOM     66  C   UNL A   1      44.525  23.896  25.583  1.00  0.00     0.173 A 
ATOM     67  F   UNL A   1      42.382  21.893  27.721  1.00  0.00    -0.203 F 
ATOM     68  C   UNL A   1      43.634  21.297  25.856  1.00  0.00     0.198 A 
ATOM     69  C   UNL A   1      44.975  22.900  24.713  1.00  0.00     0.198 A 
ATOM     70  F   UNL A   1      44.907  25.156  25.322  1.00  0.00    -0.203 F 
ATOM     71  F   UNL A   1      43.163  20.047  25.979  1.00  0.00    -0.200 F 
ATOM     72  C   UNL A   1      44.536  21.598  24.856  1.00  0.00     0.200 A 
ATOM     73  F   UNL A   1      45.849  23.207  23.744  1.00  0.00    -0.200 F 
ATOM     74  F   UNL A   1      44.975  20.638  24.029  1.00  0.00    -0.200 F 
ENDBRANCH  50  64
BRANCH  51  75
ATOM     75  C   UNL A   1      41.161  30.621  32.797  1.00  0.00     0.064 A 
ATOM     76  C   UNL A   1      41.017  32.021  32.874  1.00  0.00     0.173 A 
ATOM     77  C   UNL A   1      40.012  29.842  32.968  1.00  0.00     0.173 A 
ATOM     78  F   UNL A   1      42.088  32.815  32.711  1.00  0.00    -0.203 F 
ATOM     79  C   UNL A   1      39.764  32.614  32.999  1.00  0.00     0.198 A 
ATOM     80  C   UNL A   1      38.760  30.440  33.114  1.00  0.00     0.198 A 
ATOM     81  F   UNL A   1      40.079  28.505  32.882  1.00  0.00    -0.203 F 
ATOM     82  F   UNL A   1      39.648  33.949  32.952  1.00  0.00    -0.200 F 
ATOM     83  C   UNL A   1      38.633  31.822  33.094  1.00  0.00     0.200 A 
ATOM     84  F   UNL A   1      37.663  29.673  33.184  1.00  0.00    -0.200 F 
ATOM     85  F   UNL A   1      37.419  32.388  33.128  1.00  0.00    -0.200 F 
ENDBRANCH  51  75
BRANCH  63  86
ATOM     86  C   UNL A   1      45.355  24.721  33.019  1.00  0.00     0.064 A 
ATOM     87  C   UNL A   1      44.518  23.690  33.473  1.00  0.00     0.173 A 
ATOM     88  C   UNL A   1      46.689  24.685  33.481  1.00  0.00     0.173 A 
ATOM     89  F   UNL A   1      43.217  23.669  33.148  1.00  0.00    -0.203 F 
ATOM     90  C   UNL A   1      44.996  22.665  34.293  1.00  0.00     0.198 A 
ATOM     91  C   UNL A   1      47.150  23.691  34.341  1.00  0.00     0.198 A 
ATOM     92  F   UNL A   1      47.588  25.601  33.092  1.00  0.00    -0.203 F 
ATOM     93  F   UNL A   1      44.175  21.672  34.662  1.00  0.00    -0.200 F 
ATOM     94  C   UNL A   1      46.307  22.672  34.737  1.00  0.00     0.200 A 
ATOM     95  F   UNL A   1      48.417  23.726  34.779  1.00  0.00    -0.200 F 
ATOM     96  F   UNL A   1      46.758  21.701  35.541  1.00  0.00    -0.200 F 
ENDBRANCH  63  86
ENDBRANCH  37  38
ENDBRANCH  29  32
ENDBRANCH  27  28
ENDBRANCH  26  27
ENDBRANCH  25  26
ENDBRANCH   1  25
TORSDOF 15
ENDMDL
MODEL 3
REMARK VINA RESULT:     -13.1      3.513      9.763
REMARK SMILES Cc1ccc(NC(=O)c2csc(Br)c2)c(C(=O)NCCCCCCNC(=O)c2ccc(-c3c4nc(c(-c5c(F)c(F)c(F)c(F)c5F)c5ccc([nH]5)c(-c5c(F)c(F)c(F)c(F)c5F)c5nc(c(-c6c(F)c(F)c(F)c(F)c6F)c6ccc3[nH]6)C=C5)C=C4)cc2)c1
REMARK SMILES IDX 21 1 20 2 19 3 18 4 16 5 17 6 15 8 1 9 2 10 3 11 91 12 4 13
REMARK SMILES IDX 5 14 6 15 7 16 8 18 9 19 10 20 14 21 11 22 12 23 13 24 22 25
REMARK SMILES IDX 23 26 24 27 25 28 26 29 27 31 28 32 29 33 90 34 30 35 89 36
REMARK SMILES IDX 31 37 32 38 33 39 83 40 34 41 88 42 82 43 84 44 35 45 87 46
REMARK SMILES IDX 81 47 80 48 36 50 68 51 48 52 67 53 49 54 52 55 66 56 85 57
REMARK SMILES IDX 50 58 51 59 65 61 86 62 53 63 37 64 38 65 46 66 39 67 40 68
REMARK SMILES IDX 44 69 47 70 41 71 42 72 45 73 43 74 69 75 70 76 78 77 71 78
REMARK SMILES IDX 72 79 76 80 79 81 73 82 74 83 77 84 75 85 54 86 55 87 63 88
REMARK SMILES IDX 56 89 57 90 61 91 64 92 58 93 59 94 62 95 60 96
REMARK H PARENT 18 7 6 17 25 30 84 49 52 60
REMARK Flexibility Score: inf
ROOT
ATOM      1  C   UNL A   1      35.744  21.086  25.612  1.00  0.00     0.002 C 
ENDROOT
BRANCH   1   2
ATOM      2  C   UNL A   1      35.311  22.085  26.697  1.00  0.00     0.021 C 
BRANCH   2   3
ATOM      3  C   UNL A   1      34.166  21.601  27.595  1.00  0.00     0.116 C 
BRANCH   3   4
ATOM      4  N   UNL A   1      33.078  22.555  27.622  1.00  0.00    -0.352 N 
ATOM      5  C   UNL A   1      32.405  23.285  26.677  1.00  0.00     0.253 C 
ATOM      6  O   UNL A   1      31.487  23.985  27.119  1.00  0.00    -0.269 OA
ATOM      7  H   UNL A   1      32.742  22.719  28.533  1.00  0.00     0.163 HD
BRANCH   5   8
ATOM      8  C   UNL A   1      32.674  23.292  25.194  1.00  0.00     0.063 A 
ATOM      9  C   UNL A   1      31.962  21.197  22.066  1.00  0.00     0.044 C 
ATOM     10  C   UNL A   1      32.512  22.259  22.971  1.00  0.00    -0.050 A 
ATOM     11  C   UNL A   1      33.255  23.302  22.432  1.00  0.00     0.005 A 
ATOM     12  C   UNL A   1      32.292  22.229  24.356  1.00  0.00     0.019 A 
ATOM     13  C   UNL A   1      33.718  24.326  23.255  1.00  0.00     0.027 A 
ATOM     14  C   UNL A   1      33.374  24.392  24.612  1.00  0.00     0.054 A 
BRANCH  14  15
ATOM     15  N   UNL A   1      33.744  25.500  25.419  1.00  0.00    -0.321 N 
ATOM     16  C   UNL A   1      33.391  26.829  25.466  1.00  0.00     0.256 C 
ATOM     17  H   UNL A   1      34.408  25.261  26.104  1.00  0.00     0.170 HD
ATOM     18  O   UNL A   1      34.066  27.601  26.148  1.00  0.00    -0.269 OA
BRANCH  16  19
ATOM     19  C   UNL A   1      32.227  27.320  24.743  1.00  0.00     0.052 A 
ATOM     20  C   UNL A   1      32.315  28.374  23.848  1.00  0.00     0.080 A 
ATOM     21  C   UNL A   1      30.866  26.865  24.862  1.00  0.00     0.041 A 
ATOM     22  S   UNL A   1      30.828  28.699  23.065  1.00  0.00    -0.136 S 
ATOM     23  C   UNL A   1      30.043  27.499  23.965  1.00  0.00     0.071 A 
ATOM     24  Br  UNL A   1      28.236  27.064  23.734  1.00  0.00    -0.039 Br
ENDBRANCH  16  19
ENDBRANCH  14  15
ENDBRANCH   5   8
ENDBRANCH   3   4
ENDBRANCH   2   3
ENDBRANCH   1   2
BRANCH   1  25
ATOM     25  C   UNL A   1      37.039  21.419  24.847  1.00  0.00     0.002 C 
BRANCH  25  26
ATOM     26  C   UNL A   1      38.310  21.536  25.693  1.00  0.00     0.021 C 
BRANCH  26  27
ATOM     27  C   UNL A   1      38.864  22.954  25.775  1.00  0.00     0.116 C 
BRANCH  27  28
ATOM     28  N   UNL A   1      40.262  23.011  26.194  1.00  0.00    -0.352 N 
ATOM     29  C   UNL A   1      40.962  24.068  26.750  1.00  0.00     0.251 C 
ATOM     30  H   UNL A   1      40.778  22.182  26.064  1.00  0.00     0.163 HD
ATOM     31  O   UNL A   1      42.141  23.955  27.047  1.00  0.00    -0.269 OA
BRANCH  29  32
ATOM     32  C   UNL A   1      40.220  25.301  27.094  1.00  0.00     0.039 A 
ATOM     33  C   UNL A   1      40.612  26.495  26.479  1.00  0.00     0.014 A 
ATOM     34  C   UNL A   1      39.323  25.311  28.159  1.00  0.00     0.014 A 
ATOM     35  C   UNL A   1      40.302  27.705  27.093  1.00  0.00     0.010 A 
ATOM     36  C   UNL A   1      39.083  26.504  28.814  1.00  0.00     0.010 A 
ATOM     37  C   UNL A   1      39.638  27.690  28.323  1.00  0.00    -0.014 A 
BRANCH  37  38
ATOM     38  C   UNL A   1      39.635  28.837  29.225  1.00  0.00     0.031 A 
ATOM     39  C   UNL A   1      38.617  29.899  29.122  1.00  0.00     0.074 A 
ATOM     40  C   UNL A   1      40.562  28.915  30.207  1.00  0.00     0.049 A 
ATOM     41  N   UNL A   1      38.821  31.117  29.503  1.00  0.00    -0.248 NA
ATOM     42  C   UNL A   1      37.288  29.683  28.560  1.00  0.00     0.031 C 
ATOM     43  C   UNL A   1      40.594  29.860  31.321  1.00  0.00     0.029 A 
ATOM     44  N   UNL A   1      41.808  28.267  30.267  1.00  0.00    -0.354 N 
ATOM     45  C   UNL A   1      37.616  31.768  29.479  1.00  0.00     0.074 A 
ATOM     46  C   UNL A   1      36.700  30.853  28.833  1.00  0.00     0.031 C 
ATOM     47  C   UNL A   1      41.859  29.979  31.748  1.00  0.00     0.029 A 
ATOM     48  C   UNL A   1      42.694  29.205  30.849  1.00  0.00     0.049 A 
ATOM     49  H   UNL A   1      42.020  27.352  29.968  1.00  0.00     0.167 HD
ATOM     50  C   UNL A   1      37.481  32.971  30.106  1.00  0.00     0.037 A 
ATOM     51  C   UNL A   1      43.770  29.679  30.158  1.00  0.00     0.037 A 
ATOM     52  C   UNL A   1      38.719  33.429  30.722  1.00  0.00     0.049 A 
ATOM     53  C   UNL A   1      43.770  31.175  29.924  1.00  0.00     0.074 A 
ATOM     54  C   UNL A   1      39.224  33.423  32.011  1.00  0.00     0.029 A 
ATOM     55  N   UNL A   1      39.788  33.740  29.901  1.00  0.00    -0.354 N 
ATOM     56  N   UNL A   1      42.816  31.982  30.297  1.00  0.00    -0.248 NA
ATOM     57  C   UNL A   1      44.804  31.861  29.146  1.00  0.00     0.031 C 
ATOM     58  C   UNL A   1      40.607  33.756  31.954  1.00  0.00     0.029 A 
ATOM     59  C   UNL A   1      40.939  33.961  30.629  1.00  0.00     0.049 A 
ATOM     60  H   UNL A   1      39.734  33.798  28.920  1.00  0.00     0.167 HD
ATOM     61  C   UNL A   1      43.048  33.228  29.776  1.00  0.00     0.074 A 
ATOM     62  C   UNL A   1      44.307  33.106  29.067  1.00  0.00     0.031 C 
ATOM     63  C   UNL A   1      42.168  34.260  29.918  1.00  0.00     0.037 A 
BRANCH  50  64
ATOM     64  C   UNL A   1      36.142  33.615  30.320  1.00  0.00     0.064 A 
ATOM     65  C   UNL A   1      35.399  34.133  29.241  1.00  0.00     0.173 A 
ATOM     66  C   UNL A   1      35.562  33.779  31.591  1.00  0.00     0.173 A 
ATOM     67  F   UNL A   1      35.807  33.985  27.976  1.00  0.00    -0.203 F 
ATOM     68  C   UNL A   1      34.215  34.847  29.432  1.00  0.00     0.198 A 
ATOM     69  C   UNL A   1      34.407  34.540  31.786  1.00  0.00     0.198 A 
ATOM     70  F   UNL A   1      36.100  33.194  32.673  1.00  0.00    -0.203 F 
ATOM     71  F   UNL A   1      33.551  35.328  28.370  1.00  0.00    -0.200 F 
ATOM     72  C   UNL A   1      33.739  35.083  30.706  1.00  0.00     0.200 A 
ATOM     73  F   UNL A   1      33.955  34.759  33.029  1.00  0.00    -0.200 F 
ATOM     74  F   UNL A   1      32.637  35.823  30.890  1.00  0.00    -0.200 F 
ENDBRANCH  50  64
BRANCH  51  75
ATOM     75  C   UNL A   1      44.350  28.670  29.235  1.00  0.00     0.064 A 
ATOM     76  C   UNL A   1      45.131  27.631  29.780  1.00  0.00     0.173 A 
ATOM     77  C   UNL A   1      43.875  28.506  27.930  1.00  0.00     0.173 A 
ATOM     78  F   UNL A   1      45.608  27.737  31.031  1.00  0.00    -0.203 F 
ATOM     79  C   UNL A   1      45.325  26.436  29.095  1.00  0.00     0.198 A 
ATOM     80  C   UNL A   1      44.089  27.313  27.238  1.00  0.00     0.198 A 
ATOM     81  F   UNL A   1      43.107  29.448  27.363  1.00  0.00    -0.203 F 
ATOM     82  F   UNL A   1      45.974  25.422  29.687  1.00  0.00    -0.200 F 
ATOM     83  C   UNL A   1      44.783  26.269  27.832  1.00  0.00     0.200 A 
ATOM     84  F   UNL A   1      43.545  27.145  26.024  1.00  0.00    -0.200 F 
ATOM     85  F   UNL A   1      44.894  25.091  27.205  1.00  0.00    -0.200 F 
ENDBRANCH  51  75
BRANCH  63  86
ATOM     86  C   UNL A   1      42.398  35.642  29.381  1.00  0.00     0.064 A 
ATOM     87  C   UNL A   1      41.844  36.080  28.168  1.00  0.00     0.173 A 
ATOM     88  C   UNL A   1      43.290  36.536  30.013  1.00  0.00     0.173 A 
ATOM     89  F   UNL A   1      41.039  35.280  27.453  1.00  0.00    -0.203 F 
ATOM     90  C   UNL A   1      42.127  37.345  27.647  1.00  0.00     0.198 A 
ATOM     91  C   UNL A   1      43.610  37.776  29.465  1.00  0.00     0.198 A 
ATOM     92  F   UNL A   1      43.858  36.240  31.192  1.00  0.00    -0.203 F 
ATOM     93  F   UNL A   1      41.538  37.742  26.511  1.00  0.00    -0.200 F 
ATOM     94  C   UNL A   1      43.019  38.187  28.288  1.00  0.00     0.200 A 
ATOM     95  F   UNL A   1      44.494  38.570  30.089  1.00  0.00    -0.200 F 
ATOM     96  F   UNL A   1      43.305  39.391  27.776  1.00  0.00    -0.200 F 
ENDBRANCH  63  86
ENDBRANCH  37  38
ENDBRANCH  29  32
ENDBRANCH  27  28
ENDBRANCH  26  27
ENDBRANCH  25  26
ENDBRANCH   1  25
TORSDOF 15
ENDMDL
