MODEL 1
REMARK VINA RESULT:     -11.9      0.000      0.000
REMARK SMILES O=C(CC[NH+]1CCN(C(=O)c2n[nH]c3ccccc23)CC1)NCCCCCCNC(=O)c1ccc(-c2c3nc(c(-c4c(F)c(F)c(F)c(F)c4F)c4ccc([nH]4)c(-c4c(F)c(F)c(F)c(F)c4F)c4nc(c(-c5c(F)c(F)c(F)c(F)c5F)c5ccc2[nH]5)C=C4)C=C3)cc1
REMARK SMILES IDX 25 1 24 2 23 3 22 4 1 5 2 6 3 8 4 9 5 10 6 11 21 12 7 14
REMARK SMILES IDX 20 15 8 16 9 17 10 18 11 19 12 20 19 21 13 22 14 23 18 24
REMARK SMILES IDX 15 26 17 27 16 28 26 29 27 30 28 31 29 32 30 33 31 35 32 36
REMARK SMILES IDX 33 37 94 38 34 39 93 40 35 41 36 42 37 43 87 44 38 45 92 46
REMARK SMILES IDX 86 47 88 48 39 49 91 50 85 51 84 52 40 54 72 55 52 56 71 57
REMARK SMILES IDX 53 58 56 59 70 60 89 61 54 62 55 63 69 65 90 66 57 67 41 68
REMARK SMILES IDX 42 69 50 70 43 71 44 72 48 73 51 74 45 75 46 76 49 77 47 78
REMARK SMILES IDX 73 79 74 80 82 81 75 82 76 83 80 84 83 85 77 86 78 87 81 88
REMARK SMILES IDX 79 89 58 90 59 91 67 92 60 93 61 94 65 95 68 96 62 97 63 98
REMARK SMILES IDX 66 99 64 100
REMARK H PARENT 22 7 5 13 13 25 29 34 88 53 56 64
REMARK Flexibility Score: inf
ROOT
ATOM      1  C   UNL A   1      35.057  33.121  29.252  1.00  0.00     0.002 C 
ENDROOT
BRANCH   1   2
ATOM      2  C   UNL A   1      35.044  31.869  28.364  1.00  0.00     0.021 C 
BRANCH   2   3
ATOM      3  C   UNL A   1      33.769  31.691  27.543  1.00  0.00     0.116 C 
BRANCH   3   4
ATOM      4  N   UNL A   1      33.224  30.364  27.706  1.00  0.00    -0.356 N 
ATOM      5  O   UNL A   1      33.130  29.801  25.483  1.00  0.00    -0.275 OA
ATOM      6  C   UNL A   1      32.933  29.524  26.661  1.00  0.00     0.225 C 
ATOM      7  H   UNL A   1      33.051  30.043  28.621  1.00  0.00     0.163 HD
BRANCH   6   8
ATOM      8  C   UNL A   1      32.289  28.220  27.089  1.00  0.00     0.161 C 
BRANCH   8   9
ATOM      9  C   UNL A   1      31.483  27.584  25.954  1.00  0.00     0.272 C 
BRANCH   9  10
ATOM     10  N   UNL A   1      30.840  26.325  26.395  1.00  0.00    -0.332 N 
ATOM     11  C   UNL A   1      30.017  25.720  25.312  1.00  0.00     0.284 C 
ATOM     12  C   UNL A   1      31.847  25.332  26.840  1.00  0.00     0.284 C 
ATOM     13  H   UNL A   1      30.233  26.567  27.178  1.00  0.00     0.348 HD
ATOM     14  C   UNL A   1      30.810  25.052  24.161  1.00  0.00     0.181 C 
ATOM     15  C   UNL A   1      32.710  24.760  25.705  1.00  0.00     0.181 C 
ATOM     16  N   UNL A   1      31.865  24.172  24.662  1.00  0.00    -0.326 N 
ATOM     17  C   UNL A   1      32.117  22.964  24.004  1.00  0.00     0.275 C 
ATOM     18  O   UNL A   1      31.502  22.644  22.988  1.00  0.00    -0.267 OA
BRANCH  17  19
ATOM     19  C   UNL A   1      33.130  22.072  24.591  1.00  0.00     0.157 A 
ATOM     20  N   UNL A   1      32.792  21.070  25.424  1.00  0.00    -0.169 NA
ATOM     21  C   UNL A   1      34.542  22.114  24.378  1.00  0.00     0.033 A 
ATOM     22  N   UNL A   1      33.965  20.497  25.738  1.00  0.00    -0.277 N 
ATOM     23  C   UNL A   1      35.049  21.047  25.113  1.00  0.00     0.066 A 
ATOM     24  C   UNL A   1      35.434  22.912  23.635  1.00  0.00     0.013 A 
ATOM     25  H   UNL A   1      34.038  19.743  26.367  1.00  0.00     0.190 HD
ATOM     26  C   UNL A   1      36.405  20.711  25.135  1.00  0.00     0.028 A 
ATOM     27  C   UNL A   1      36.795  22.586  23.632  1.00  0.00     0.001 A 
ATOM     28  C   UNL A   1      37.269  21.500  24.368  1.00  0.00     0.002 A 
ENDBRANCH  17  19
ENDBRANCH   9  10
ENDBRANCH   8   9
ENDBRANCH   6   8
ENDBRANCH   3   4
ENDBRANCH   2   3
ENDBRANCH   1   2
BRANCH   1  29
ATOM     29  C   UNL A   1      35.109  34.459  28.504  1.00  0.00     0.002 C 
BRANCH  29  30
ATOM     30  C   UNL A   1      34.063  35.486  28.937  1.00  0.00     0.021 C 
BRANCH  30  31
ATOM     31  C   UNL A   1      32.899  34.916  29.739  1.00  0.00     0.116 C 
BRANCH  31  32
ATOM     32  N   UNL A   1      32.429  35.830  30.768  1.00  0.00    -0.352 N 
ATOM     33  C   UNL A   1      32.831  35.940  32.077  1.00  0.00     0.251 C 
ATOM     34  H   UNL A   1      31.724  36.458  30.489  1.00  0.00     0.163 HD
ATOM     35  O   UNL A   1      32.212  36.654  32.862  1.00  0.00    -0.269 OA
BRANCH  33  36
ATOM     36  C   UNL A   1      34.000  35.169  32.551  1.00  0.00     0.039 A 
ATOM     37  C   UNL A   1      33.802  33.896  33.091  1.00  0.00     0.014 A 
ATOM     38  C   UNL A   1      35.290  35.698  32.451  1.00  0.00     0.014 A 
ATOM     39  C   UNL A   1      34.905  33.124  33.468  1.00  0.00     0.010 A 
ATOM     40  C   UNL A   1      36.389  34.899  32.756  1.00  0.00     0.010 A 
ATOM     41  C   UNL A   1      36.209  33.604  33.269  1.00  0.00    -0.014 A 
BRANCH  41  42
ATOM     42  C   UNL A   1      37.403  32.782  33.599  1.00  0.00     0.031 A 
ATOM     43  C   UNL A   1      38.170  33.052  34.865  1.00  0.00     0.074 A 
ATOM     44  C   UNL A   1      37.843  31.854  32.726  1.00  0.00     0.049 A 
ATOM     45  N   UNL A   1      39.302  32.538  35.274  1.00  0.00    -0.248 NA
ATOM     46  C   UNL A   1      37.603  34.056  35.781  1.00  0.00     0.031 C 
ATOM     47  C   UNL A   1      37.209  31.522  31.449  1.00  0.00     0.029 A 
ATOM     48  N   UNL A   1      38.943  31.031  32.771  1.00  0.00    -0.354 N 
ATOM     49  C   UNL A   1      39.592  33.171  36.476  1.00  0.00     0.074 A 
ATOM     50  C   UNL A   1      38.542  34.136  36.711  1.00  0.00     0.031 C 
ATOM     51  C   UNL A   1      37.922  30.561  30.840  1.00  0.00     0.029 A 
ATOM     52  C   UNL A   1      39.089  30.240  31.656  1.00  0.00     0.049 A 
ATOM     53  H   UNL A   1      39.568  31.011  33.532  1.00  0.00     0.167 HD
ATOM     54  C   UNL A   1      40.631  32.950  37.315  1.00  0.00     0.037 A 
ATOM     55  C   UNL A   1      40.063  29.372  31.324  1.00  0.00     0.037 A 
ATOM     56  C   UNL A   1      41.652  31.961  37.096  1.00  0.00     0.049 A 
ATOM     57  C   UNL A   1      41.214  29.159  32.274  1.00  0.00     0.074 A 
ATOM     58  C   UNL A   1      42.707  31.615  37.923  1.00  0.00     0.029 A 
ATOM     59  N   UNL A   1      41.747  31.159  35.969  1.00  0.00    -0.354 N 
ATOM     60  N   UNL A   1      41.438  29.711  33.442  1.00  0.00    -0.248 NA
ATOM     61  C   UNL A   1      42.247  28.197  31.861  1.00  0.00     0.031 C 
ATOM     62  C   UNL A   1      43.473  30.644  37.273  1.00  0.00     0.029 A 
ATOM     63  C   UNL A   1      42.858  30.337  36.070  1.00  0.00     0.049 A 
ATOM     64  H   UNL A   1      41.120  31.171  35.212  1.00  0.00     0.167 HD
ATOM     65  C   UNL A   1      42.606  29.133  33.920  1.00  0.00     0.074 A 
ATOM     66  C   UNL A   1      43.042  28.181  32.922  1.00  0.00     0.031 C 
ATOM     67  C   UNL A   1      43.259  29.369  35.083  1.00  0.00     0.037 A 
BRANCH  54  68
ATOM     68  C   UNL A   1      40.725  33.788  38.557  1.00  0.00     0.064 A 
ATOM     69  C   UNL A   1      40.076  33.421  39.744  1.00  0.00     0.173 A 
ATOM     70  C   UNL A   1      41.543  34.929  38.581  1.00  0.00     0.173 A 
ATOM     71  F   UNL A   1      39.275  32.345  39.773  1.00  0.00    -0.203 F 
ATOM     72  C   UNL A   1      40.229  34.174  40.907  1.00  0.00     0.198 A 
ATOM     73  C   UNL A   1      41.718  35.660  39.752  1.00  0.00     0.198 A 
ATOM     74  F   UNL A   1      42.193  35.319  37.474  1.00  0.00    -0.203 F 
ATOM     75  F   UNL A   1      39.572  33.825  42.021  1.00  0.00    -0.200 F 
ATOM     76  C   UNL A   1      41.058  35.285  40.912  1.00  0.00     0.200 A 
ATOM     77  F   UNL A   1      42.533  36.725  39.759  1.00  0.00    -0.200 F 
ATOM     78  F   UNL A   1      41.221  35.996  42.036  1.00  0.00    -0.200 F 
ENDBRANCH  54  68
BRANCH  55  79
ATOM     79  C   UNL A   1      40.007  28.630  30.034  1.00  0.00     0.064 A 
ATOM     80  C   UNL A   1      39.411  27.362  29.957  1.00  0.00     0.173 A 
ATOM     81  C   UNL A   1      40.591  29.145  28.867  1.00  0.00     0.173 A 
ATOM     82  F   UNL A   1      38.856  26.816  31.049  1.00  0.00    -0.203 F 
ATOM     83  C   UNL A   1      39.437  26.623  28.776  1.00  0.00     0.198 A 
ATOM     84  C   UNL A   1      40.585  28.420  27.677  1.00  0.00     0.198 A 
ATOM     85  F   UNL A   1      41.169  30.355  28.881  1.00  0.00    -0.203 F 
ATOM     86  F   UNL A   1      38.923  25.385  28.752  1.00  0.00    -0.200 F 
ATOM     87  C   UNL A   1      40.022  27.153  27.636  1.00  0.00     0.200 A 
ATOM     88  F   UNL A   1      41.137  28.942  26.574  1.00  0.00    -0.200 F 
ATOM     89  F   UNL A   1      40.055  26.439  26.503  1.00  0.00    -0.200 F 
ENDBRANCH  55  79
BRANCH  67  90
ATOM     90  C   UNL A   1      44.475  28.539  35.381  1.00  0.00     0.064 A 
ATOM     91  C   UNL A   1      44.388  27.307  36.046  1.00  0.00     0.173 A 
ATOM     92  C   UNL A   1      45.739  28.959  34.937  1.00  0.00     0.173 A 
ATOM     93  F   UNL A   1      43.206  26.867  36.502  1.00  0.00    -0.203 F 
ATOM     94  C   UNL A   1      45.526  26.538  36.275  1.00  0.00     0.198 A 
ATOM     95  C   UNL A   1      46.869  28.171  35.138  1.00  0.00     0.198 A 
ATOM     96  F   UNL A   1      45.875  30.126  34.289  1.00  0.00    -0.203 F 
ATOM     97  F   UNL A   1      45.426  25.386  36.952  1.00  0.00    -0.200 F 
ATOM     98  C   UNL A   1      46.762  26.965  35.812  1.00  0.00     0.200 A 
ATOM     99  F   UNL A   1      48.057  28.578  34.674  1.00  0.00    -0.200 F 
ATOM    100  F   UNL A   1      47.853  26.214  36.021  1.00  0.00    -0.200 F 
ENDBRANCH  67  90
ENDBRANCH  41  42
ENDBRANCH  33  36
ENDBRANCH  31  32
ENDBRANCH  30  31
ENDBRANCH  29  30
ENDBRANCH   1  29
TORSDOF 16
ENDMDL
MODEL 2
REMARK VINA RESULT:     -11.9      6.522     12.372
REMARK SMILES O=C(CC[NH+]1CCN(C(=O)c2n[nH]c3ccccc23)CC1)NCCCCCCNC(=O)c1ccc(-c2c3nc(c(-c4c(F)c(F)c(F)c(F)c4F)c4ccc([nH]4)c(-c4c(F)c(F)c(F)c(F)c4F)c4nc(c(-c5c(F)c(F)c(F)c(F)c5F)c5ccc2[nH]5)C=C4)C=C3)cc1
REMARK SMILES IDX 25 1 24 2 23 3 22 4 1 5 2 6 3 8 4 9 5 10 6 11 21 12 7 14
REMARK SMILES IDX 20 15 8 16 9 17 10 18 11 19 12 20 19 21 13 22 14 23 18 24
REMARK SMILES IDX 15 26 17 27 16 28 26 29 27 30 28 31 29 32 30 33 31 35 32 36
REMARK SMILES IDX 33 37 94 38 34 39 93 40 35 41 36 42 37 43 87 44 38 45 92 46
REMARK SMILES IDX 86 47 88 48 39 49 91 50 85 51 84 52 40 54 72 55 52 56 71 57
REMARK SMILES IDX 53 58 56 59 70 60 89 61 54 62 55 63 69 65 90 66 57 67 41 68
REMARK SMILES IDX 42 69 50 70 43 71 44 72 48 73 51 74 45 75 46 76 49 77 47 78
REMARK SMILES IDX 73 79 74 80 82 81 75 82 76 83 80 84 83 85 77 86 78 87 81 88
REMARK SMILES IDX 79 89 58 90 59 91 67 92 60 93 61 94 65 95 68 96 62 97 63 98
REMARK SMILES IDX 66 99 64 100
REMARK H PARENT 22 7 5 13 13 25 29 34 88 53 56 64
REMARK Flexibility Score: inf
ROOT
ATOM      1  C   UNL A   1      41.567  21.583  26.632  1.00  0.00     0.002 C 
ENDROOT
BRANCH   1   2
ATOM      2  C   UNL A   1      40.686  22.415  27.573  1.00  0.00     0.021 C 
BRANCH   2   3
ATOM      3  C   UNL A   1      39.548  23.161  26.879  1.00  0.00     0.116 C 
BRANCH   3   4
ATOM      4  N   UNL A   1      38.507  22.252  26.460  1.00  0.00    -0.356 N 
ATOM      5  O   UNL A   1      37.378  23.702  25.084  1.00  0.00    -0.275 OA
ATOM      6  C   UNL A   1      37.492  22.597  25.603  1.00  0.00     0.225 C 
ATOM      7  H   UNL A   1      38.527  21.332  26.809  1.00  0.00     0.163 HD
BRANCH   6   8
ATOM      8  C   UNL A   1      36.476  21.493  25.388  1.00  0.00     0.161 C 
BRANCH   8   9
ATOM      9  C   UNL A   1      35.144  21.803  26.074  1.00  0.00     0.272 C 
BRANCH   9  10
ATOM     10  N   UNL A   1      34.030  21.817  25.098  1.00  0.00    -0.332 N 
ATOM     11  C   UNL A   1      32.731  21.476  25.742  1.00  0.00     0.284 C 
ATOM     12  C   UNL A   1      33.904  23.140  24.441  1.00  0.00     0.284 C 
ATOM     13  H   UNL A   1      34.249  21.109  24.397  1.00  0.00     0.348 HD
ATOM     14  C   UNL A   1      32.118  22.581  26.638  1.00  0.00     0.181 C 
ATOM     15  C   UNL A   1      33.404  24.257  25.370  1.00  0.00     0.181 C 
ATOM     16  N   UNL A   1      32.126  23.887  25.980  1.00  0.00    -0.326 N 
ATOM     17  C   UNL A   1      31.031  24.741  26.146  1.00  0.00     0.275 C 
ATOM     18  O   UNL A   1      30.081  24.438  26.867  1.00  0.00    -0.267 OA
BRANCH  17  19
ATOM     19  C   UNL A   1      31.044  26.009  25.400  1.00  0.00     0.157 A 
ATOM     20  N   UNL A   1      30.693  26.070  24.102  1.00  0.00    -0.169 NA
ATOM     21  C   UNL A   1      31.397  27.301  25.901  1.00  0.00     0.033 A 
ATOM     22  N   UNL A   1      30.829  27.367  23.786  1.00  0.00    -0.277 N 
ATOM     23  C   UNL A   1      31.208  28.167  24.829  1.00  0.00     0.066 A 
ATOM     24  C   UNL A   1      31.827  27.828  27.134  1.00  0.00     0.013 A 
ATOM     25  H   UNL A   1      30.671  27.714  22.878  1.00  0.00     0.190 HD
ATOM     26  C   UNL A   1      31.404  29.547  24.919  1.00  0.00     0.028 A 
ATOM     27  C   UNL A   1      32.017  29.210  27.251  1.00  0.00     0.001 A 
ATOM     28  C   UNL A   1      31.804  30.053  26.161  1.00  0.00     0.002 A 
ENDBRANCH  17  19
ENDBRANCH   9  10
ENDBRANCH   8   9
ENDBRANCH   6   8
ENDBRANCH   3   4
ENDBRANCH   2   3
ENDBRANCH   1   2
BRANCH   1  29
ATOM     29  C   UNL A   1      41.666  20.091  26.969  1.00  0.00     0.002 C 
BRANCH  29  30
ATOM     30  C   UNL A   1      42.173  19.200  25.834  1.00  0.00     0.021 C 
BRANCH  30  31
ATOM     31  C   UNL A   1      43.544  18.578  26.073  1.00  0.00     0.116 C 
BRANCH  31  32
ATOM     32  N   UNL A   1      44.320  18.449  24.849  1.00  0.00    -0.352 N 
ATOM     33  C   UNL A   1      44.899  19.433  24.085  1.00  0.00     0.251 C 
ATOM     34  H   UNL A   1      44.448  17.530  24.523  1.00  0.00     0.163 HD
ATOM     35  O   UNL A   1      45.380  19.167  22.987  1.00  0.00    -0.269 OA
BRANCH  33  36
ATOM     36  C   UNL A   1      44.916  20.827  24.577  1.00  0.00     0.039 A 
ATOM     37  C   UNL A   1      45.556  21.114  25.786  1.00  0.00     0.014 A 
ATOM     38  C   UNL A   1      44.313  21.851  23.841  1.00  0.00     0.014 A 
ATOM     39  C   UNL A   1      45.650  22.438  26.223  1.00  0.00     0.010 A 
ATOM     40  C   UNL A   1      44.473  23.174  24.240  1.00  0.00     0.010 A 
ATOM     41  C   UNL A   1      45.142  23.484  25.435  1.00  0.00    -0.014 A 
BRANCH  41  42
ATOM     42  C   UNL A   1      45.284  24.907  25.840  1.00  0.00     0.031 A 
ATOM     43  C   UNL A   1      46.633  25.571  25.776  1.00  0.00     0.074 A 
ATOM     44  C   UNL A   1      44.224  25.574  26.340  1.00  0.00     0.049 A 
ATOM     45  N   UNL A   1      46.994  26.756  26.198  1.00  0.00    -0.248 NA
ATOM     46  C   UNL A   1      47.730  24.787  25.184  1.00  0.00     0.031 C 
ATOM     47  C   UNL A   1      42.873  25.031  26.486  1.00  0.00     0.029 A 
ATOM     48  N   UNL A   1      44.123  26.850  26.838  1.00  0.00    -0.354 N 
ATOM     49  C   UNL A   1      48.357  26.848  25.946  1.00  0.00     0.074 A 
ATOM     50  C   UNL A   1      48.769  25.586  25.374  1.00  0.00     0.031 C 
ATOM     51  C   UNL A   1      42.077  25.969  27.025  1.00  0.00     0.029 A 
ATOM     52  C   UNL A   1      42.869  27.163  27.307  1.00  0.00     0.049 A 
ATOM     53  H   UNL A   1      44.878  27.482  26.857  1.00  0.00     0.167 HD
ATOM     54  C   UNL A   1      49.184  27.899  26.156  1.00  0.00     0.037 A 
ATOM     55  C   UNL A   1      42.417  28.278  27.913  1.00  0.00     0.037 A 
ATOM     56  C   UNL A   1      48.762  29.167  26.688  1.00  0.00     0.049 A 
ATOM     57  C   UNL A   1      43.366  29.425  28.144  1.00  0.00     0.074 A 
ATOM     58  C   UNL A   1      49.512  30.316  26.873  1.00  0.00     0.029 A 
ATOM     59  N   UNL A   1      47.477  29.454  27.123  1.00  0.00    -0.354 N 
ATOM     60  N   UNL A   1      44.637  29.526  27.835  1.00  0.00    -0.248 NA
ATOM     61  C   UNL A   1      42.818  30.619  28.807  1.00  0.00     0.031 C 
ATOM     62  C   UNL A   1      48.697  31.279  27.471  1.00  0.00     0.029 A 
ATOM     63  C   UNL A   1      47.421  30.754  27.598  1.00  0.00     0.049 A 
ATOM     64  H   UNL A   1      46.719  28.828  27.098  1.00  0.00     0.167 HD
ATOM     65  C   UNL A   1      45.024  30.802  28.221  1.00  0.00     0.074 A 
ATOM     66  C   UNL A   1      43.855  31.444  28.781  1.00  0.00     0.031 C 
ATOM     67  C   UNL A   1      46.240  31.391  28.120  1.00  0.00     0.037 A 
BRANCH  54  68
ATOM     68  C   UNL A   1      50.635  27.736  25.808  1.00  0.00     0.064 A 
ATOM     69  C   UNL A   1      51.107  27.940  24.504  1.00  0.00     0.173 A 
ATOM     70  C   UNL A   1      51.576  27.453  26.811  1.00  0.00     0.173 A 
ATOM     71  F   UNL A   1      50.249  28.204  23.507  1.00  0.00    -0.203 F 
ATOM     72  C   UNL A   1      52.467  27.850  24.212  1.00  0.00     0.198 A 
ATOM     73  C   UNL A   1      52.936  27.394  26.521  1.00  0.00     0.198 A 
ATOM     74  F   UNL A   1      51.177  27.256  28.076  1.00  0.00    -0.203 F 
ATOM     75  F   UNL A   1      52.893  28.015  22.952  1.00  0.00    -0.200 F 
ATOM     76  C   UNL A   1      53.380  27.589  25.222  1.00  0.00     0.200 A 
ATOM     77  F   UNL A   1      53.819  27.159  27.503  1.00  0.00    -0.200 F 
ATOM     78  F   UNL A   1      54.689  27.525  24.944  1.00  0.00    -0.200 F 
ENDBRANCH  54  68
BRANCH  55  79
ATOM     79  C   UNL A   1      40.997  28.378  28.351  1.00  0.00     0.064 A 
ATOM     80  C   UNL A   1      40.018  28.920  27.503  1.00  0.00     0.173 A 
ATOM     81  C   UNL A   1      40.597  27.986  29.637  1.00  0.00     0.173 A 
ATOM     82  F   UNL A   1      40.353  29.329  26.270  1.00  0.00    -0.203 F 
ATOM     83  C   UNL A   1      38.707  29.102  27.939  1.00  0.00     0.198 A 
ATOM     84  C   UNL A   1      39.278  28.136  30.059  1.00  0.00     0.198 A 
ATOM     85  F   UNL A   1      41.490  27.456  30.486  1.00  0.00    -0.203 F 
ATOM     86  F   UNL A   1      37.812  29.688  27.133  1.00  0.00    -0.200 F 
ATOM     87  C   UNL A   1      38.338  28.708  29.216  1.00  0.00     0.200 A 
ATOM     88  F   UNL A   1      38.921  27.739  31.288  1.00  0.00    -0.200 F 
ATOM     89  F   UNL A   1      37.079  28.891  29.638  1.00  0.00    -0.200 F 
ENDBRANCH  55  79
BRANCH  67  90
ATOM     90  C   UNL A   1      46.361  32.822  28.557  1.00  0.00     0.064 A 
ATOM     91  C   UNL A   1      46.731  33.171  29.864  1.00  0.00     0.173 A 
ATOM     92  C   UNL A   1      46.162  33.859  27.631  1.00  0.00     0.173 A 
ATOM     93  F   UNL A   1      46.920  32.219  30.790  1.00  0.00    -0.203 F 
ATOM     94  C   UNL A   1      46.875  34.506  30.233  1.00  0.00     0.198 A 
ATOM     95  C   UNL A   1      46.340  35.190  27.994  1.00  0.00     0.198 A 
ATOM     96  F   UNL A   1      45.814  33.578  26.366  1.00  0.00    -0.203 F 
ATOM     97  F   UNL A   1      47.186  34.819  31.498  1.00  0.00    -0.200 F 
ATOM     98  C   UNL A   1      46.690  35.513  29.297  1.00  0.00     0.200 A 
ATOM     99  F   UNL A   1      46.178  36.159  27.084  1.00  0.00    -0.200 F 
ATOM    100  F   UNL A   1      46.845  36.796  29.651  1.00  0.00    -0.200 F 
ENDBRANCH  67  90
ENDBRANCH  41  42
ENDBRANCH  33  36
ENDBRANCH  31  32
ENDBRANCH  30  31
ENDBRANCH  29  30
ENDBRANCH   1  29
TORSDOF 16
ENDMDL
MODEL 3
REMARK VINA RESULT:     -11.9      0.971      1.954
REMARK SMILES O=C(CC[NH+]1CCN(C(=O)c2n[nH]c3ccccc23)CC1)NCCCCCCNC(=O)c1ccc(-c2c3nc(c(-c4c(F)c(F)c(F)c(F)c4F)c4ccc([nH]4)c(-c4c(F)c(F)c(F)c(F)c4F)c4nc(c(-c5c(F)c(F)c(F)c(F)c5F)c5ccc2[nH]5)C=C4)C=C3)cc1
REMARK SMILES IDX 25 1 24 2 23 3 22 4 1 5 2 6 3 8 4 9 5 10 6 11 21 12 7 14
REMARK SMILES IDX 20 15 8 16 9 17 10 18 11 19 12 20 19 21 13 22 14 23 18 24
REMARK SMILES IDX 15 26 17 27 16 28 26 29 27 30 28 31 29 32 30 33 31 35 32 36
REMARK SMILES IDX 33 37 94 38 34 39 93 40 35 41 36 42 37 43 87 44 38 45 92 46
REMARK SMILES IDX 86 47 88 48 39 49 91 50 85 51 84 52 40 54 72 55 52 56 71 57
REMARK SMILES IDX 53 58 56 59 70 60 89 61 54 62 55 63 69 65 90 66 57 67 41 68
REMARK SMILES IDX 42 69 50 70 43 71 44 72 48 73 51 74 45 75 46 76 49 77 47 78
REMARK SMILES IDX 73 79 74 80 82 81 75 82 76 83 80 84 83 85 77 86 78 87 81 88
REMARK SMILES IDX 79 89 58 90 59 91 67 92 60 93 61 94 65 95 68 96 62 97 63 98
REMARK SMILES IDX 66 99 64 100
REMARK H PARENT 22 7 5 13 13 25 29 34 88 53 56 64
REMARK Flexibility Score: inf
ROOT
ATOM      1  C   UNL A   1      34.802  33.999  29.010  1.00  0.00     0.002 C 
ENDROOT
BRANCH   1   2
ATOM      2  C   UNL A   1      35.324  32.887  28.089  1.00  0.00     0.021 C 
BRANCH   2   3
ATOM      3  C   UNL A   1      34.764  31.499  28.395  1.00  0.00     0.116 C 
BRANCH   3   4
ATOM      4  N   UNL A   1      33.689  31.160  27.492  1.00  0.00    -0.356 N 
ATOM      5  O   UNL A   1      34.287  28.974  27.122  1.00  0.00    -0.275 OA
ATOM      6  C   UNL A   1      33.541  29.924  26.913  1.00  0.00     0.225 C 
ATOM      7  H   UNL A   1      33.025  31.855  27.279  1.00  0.00     0.163 HD
BRANCH   6   8
ATOM      8  C   UNL A   1      32.385  29.845  25.935  1.00  0.00     0.161 C 
BRANCH   8   9
ATOM      9  C   UNL A   1      32.734  29.002  24.708  1.00  0.00     0.272 C 
BRANCH   9  10
ATOM     10  N   UNL A   1      31.663  28.024  24.408  1.00  0.00    -0.332 N 
ATOM     11  C   UNL A   1      31.536  27.778  22.945  1.00  0.00     0.284 C 
ATOM     12  C   UNL A   1      31.907  26.730  25.089  1.00  0.00     0.284 C 
ATOM     13  H   UNL A   1      30.794  28.430  24.753  1.00  0.00     0.348 HD
ATOM     14  C   UNL A   1      32.660  26.922  22.310  1.00  0.00     0.181 C 
ATOM     15  C   UNL A   1      33.098  25.939  24.527  1.00  0.00     0.181 C 
ATOM     16  N   UNL A   1      32.935  25.716  23.088  1.00  0.00    -0.326 N 
ATOM     17  C   UNL A   1      33.215  24.520  22.419  1.00  0.00     0.275 C 
ATOM     18  O   UNL A   1      33.278  24.469  21.191  1.00  0.00    -0.267 OA
BRANCH  17  19
ATOM     19  C   UNL A   1      33.404  23.314  23.240  1.00  0.00     0.157 A 
ATOM     20  N   UNL A   1      32.366  22.545  23.617  1.00  0.00    -0.169 NA
ATOM     21  C   UNL A   1      34.641  22.789  23.729  1.00  0.00     0.033 A 
ATOM     22  N   UNL A   1      32.931  21.562  24.336  1.00  0.00    -0.277 N 
ATOM     23  C   UNL A   1      34.295  21.625  24.408  1.00  0.00     0.066 A 
ATOM     24  C   UNL A   1      35.999  23.154  23.654  1.00  0.00     0.013 A 
ATOM     25  H   UNL A   1      32.406  20.854  24.776  1.00  0.00     0.190 HD
ATOM     26  C   UNL A   1      35.235  20.781  25.004  1.00  0.00     0.028 A 
ATOM     27  C   UNL A   1      36.959  22.316  24.233  1.00  0.00     0.001 A 
ATOM     28  C   UNL A   1      36.581  21.148  24.893  1.00  0.00     0.002 A 
ENDBRANCH  17  19
ENDBRANCH   9  10
ENDBRANCH   8   9
ENDBRANCH   6   8
ENDBRANCH   3   4
ENDBRANCH   2   3
ENDBRANCH   1   2
BRANCH   1  29
ATOM     29  C   UNL A   1      34.734  35.396  28.382  1.00  0.00     0.002 C 
BRANCH  29  30
ATOM     30  C   UNL A   1      33.559  36.259  28.843  1.00  0.00     0.021 C 
BRANCH  30  31
ATOM     31  C   UNL A   1      32.532  35.535  29.705  1.00  0.00     0.116 C 
BRANCH  31  32
ATOM     32  N   UNL A   1      32.192  36.274  30.910  1.00  0.00    -0.352 N 
ATOM     33  C   UNL A   1      32.701  36.142  32.179  1.00  0.00     0.251 C 
ATOM     34  H   UNL A   1      31.500  36.966  30.803  1.00  0.00     0.163 HD
ATOM     35  O   UNL A   1      32.184  36.733  33.123  1.00  0.00    -0.269 OA
BRANCH  33  36
ATOM     36  C   UNL A   1      33.863  35.259  32.413  1.00  0.00     0.039 A 
ATOM     37  C   UNL A   1      35.150  35.747  32.169  1.00  0.00     0.014 A 
ATOM     38  C   UNL A   1      33.684  33.954  32.883  1.00  0.00     0.014 A 
ATOM     39  C   UNL A   1      36.260  34.951  32.462  1.00  0.00     0.010 A 
ATOM     40  C   UNL A   1      34.792  33.193  33.244  1.00  0.00     0.010 A 
ATOM     41  C   UNL A   1      36.092  33.681  33.037  1.00  0.00    -0.014 A 
BRANCH  41  42
ATOM     42  C   UNL A   1      37.253  32.837  33.420  1.00  0.00     0.031 A 
ATOM     43  C   UNL A   1      37.979  33.105  34.710  1.00  0.00     0.074 A 
ATOM     44  C   UNL A   1      37.705  31.888  32.575  1.00  0.00     0.049 A 
ATOM     45  N   UNL A   1      39.083  32.571  35.167  1.00  0.00    -0.248 NA
ATOM     46  C   UNL A   1      37.401  34.132  35.593  1.00  0.00     0.031 C 
ATOM     47  C   UNL A   1      37.111  31.554  31.279  1.00  0.00     0.029 A 
ATOM     48  N   UNL A   1      38.783  31.042  32.671  1.00  0.00    -0.354 N 
ATOM     49  C   UNL A   1      39.343  33.212  36.372  1.00  0.00     0.074 A 
ATOM     50  C   UNL A   1      38.307  34.203  36.557  1.00  0.00     0.031 C 
ATOM     51  C   UNL A   1      37.824  30.570  30.708  1.00  0.00     0.029 A 
ATOM     52  C   UNL A   1      38.952  30.234  31.571  1.00  0.00     0.049 A 
ATOM     53  H   UNL A   1      39.379  31.017  33.454  1.00  0.00     0.167 HD
ATOM     54  C   UNL A   1      40.346  32.979  37.251  1.00  0.00     0.037 A 
ATOM     55  C   UNL A   1      39.918  29.340  31.285  1.00  0.00     0.037 A 
ATOM     56  C   UNL A   1      41.351  31.965  37.083  1.00  0.00     0.049 A 
ATOM     57  C   UNL A   1      41.028  29.114  32.280  1.00  0.00     0.074 A 
ATOM     58  C   UNL A   1      42.366  31.606  37.952  1.00  0.00     0.029 A 
ATOM     59  N   UNL A   1      41.470  31.147  35.969  1.00  0.00    -0.354 N 
ATOM     60  N   UNL A   1      41.221  29.675  33.449  1.00  0.00    -0.248 NA
ATOM     61  C   UNL A   1      42.054  28.124  31.917  1.00  0.00     0.031 C 
ATOM     62  C   UNL A   1      43.134  30.611  37.342  1.00  0.00     0.029 A 
ATOM     63  C   UNL A   1      42.557  30.302  36.121  1.00  0.00     0.049 A 
ATOM     64  H   UNL A   1      40.871  31.164  35.189  1.00  0.00     0.167 HD
ATOM     65  C   UNL A   1      42.358  29.078  33.977  1.00  0.00     0.074 A 
ATOM     66  C   UNL A   1      42.808  28.104  33.007  1.00  0.00     0.031 C 
ATOM     67  C   UNL A   1      42.973  29.313  35.161  1.00  0.00     0.037 A 
BRANCH  54  68
ATOM     68  C   UNL A   1      40.412  33.830  38.486  1.00  0.00     0.064 A 
ATOM     69  C   UNL A   1      41.181  35.003  38.533  1.00  0.00     0.173 A 
ATOM     70  C   UNL A   1      39.631  33.512  39.608  1.00  0.00     0.173 A 
ATOM     71  F   UNL A   1      41.952  35.348  37.491  1.00  0.00    -0.203 F 
ATOM     72  C   UNL A   1      41.178  35.817  39.663  1.00  0.00     0.198 A 
ATOM     73  C   UNL A   1      39.607  34.344  40.724  1.00  0.00     0.198 A 
ATOM     74  F   UNL A   1      38.872  32.406  39.612  1.00  0.00    -0.203 F 
ATOM     75  F   UNL A   1      41.947  36.913  39.700  1.00  0.00    -0.200 F 
ATOM     76  C   UNL A   1      40.383  35.493  40.752  1.00  0.00     0.200 A 
ATOM     77  F   UNL A   1      38.825  34.037  41.769  1.00  0.00    -0.200 F 
ATOM     78  F   UNL A   1      40.365  36.288  41.831  1.00  0.00    -0.200 F 
ENDBRANCH  54  68
BRANCH  55  79
ATOM     79  C   UNL A   1      39.893  28.583  30.003  1.00  0.00     0.064 A 
ATOM     80  C   UNL A   1      39.282  27.323  29.922  1.00  0.00     0.173 A 
ATOM     81  C   UNL A   1      40.521  29.076  28.849  1.00  0.00     0.173 A 
ATOM     82  F   UNL A   1      38.685  26.798  31.002  1.00  0.00    -0.203 F 
ATOM     83  C   UNL A   1      39.335  26.569  28.750  1.00  0.00     0.198 A 
ATOM     84  C   UNL A   1      40.544  28.337  27.669  1.00  0.00     0.198 A 
ATOM     85  F   UNL A   1      41.116  30.278  28.869  1.00  0.00    -0.203 F 
ATOM     86  F   UNL A   1      38.806  25.339  28.724  1.00  0.00    -0.200 F 
ATOM     87  C   UNL A   1      39.965  27.077  27.625  1.00  0.00     0.200 A 
ATOM     88  F   UNL A   1      41.138  28.838  26.578  1.00  0.00    -0.200 F 
ATOM     89  F   UNL A   1      40.024  26.350  26.501  1.00  0.00    -0.200 F 
ENDBRANCH  55  79
BRANCH  67  90
ATOM     90  C   UNL A   1      44.157  28.460  35.513  1.00  0.00     0.064 A 
ATOM     91  C   UNL A   1      45.466  28.827  35.166  1.00  0.00     0.173 A 
ATOM     92  C   UNL A   1      43.981  27.288  36.266  1.00  0.00     0.173 A 
ATOM     93  F   UNL A   1      45.687  29.931  34.436  1.00  0.00    -0.203 F 
ATOM     94  C   UNL A   1      46.551  28.039  35.540  1.00  0.00     0.198 A 
ATOM     95  C   UNL A   1      45.071  26.522  36.667  1.00  0.00     0.198 A 
ATOM     96  F   UNL A   1      42.751  26.898  36.631  1.00  0.00    -0.203 F 
ATOM     97  F   UNL A   1      47.789  28.384  35.158  1.00  0.00    -0.200 F 
ATOM     98  C   UNL A   1      46.355  26.894  36.298  1.00  0.00     0.200 A 
ATOM     99  F   UNL A   1      44.879  25.427  37.414  1.00  0.00    -0.200 F 
ATOM    100  F   UNL A   1      47.403  26.147  36.670  1.00  0.00    -0.200 F 
ENDBRANCH  67  90
ENDBRANCH  41  42
ENDBRANCH  33  36
ENDBRANCH  31  32
ENDBRANCH  30  31
ENDBRANCH  29  30
ENDBRANCH   1  29
TORSDOF 16
ENDMDL
