MODEL 1
REMARK VINA RESULT:     -11.7      0.000      0.000
REMARK SMILES Cc1c([C@H](C)NC(=O)c2cnn(CC(=O)NCCCCCCNC(=O)c3ccc(-c4c5nc(c(-c6c(F)c(F)c(F)c(F)c6F)c6ccc([nH]6)c(-c6c(F)c(F)c(F)c(F)c6F)c6nc(c(-c7c(F)c(F)c(F)c(F)c7F)c7ccc4[nH]7)C=C6)C=C5)cc3)c2)cnn1C
REMARK SMILES IDX 18 1 17 2 16 3 14 4 15 5 13 7 12 8 9 9 10 10 89 11 11 12
REMARK SMILES IDX 7 13 6 14 8 16 4 17 5 18 3 19 1 20 2 21 92 22 90 23 91 24
REMARK SMILES IDX 93 25 19 26 20 27 21 28 22 29 23 30 24 31 25 33 26 34 27 35
REMARK SMILES IDX 88 36 28 37 87 38 29 39 30 40 31 41 81 42 32 43 86 44 80 45
REMARK SMILES IDX 82 46 33 47 85 48 79 49 78 50 34 52 66 53 46 54 65 55 47 56
REMARK SMILES IDX 50 57 64 58 83 59 48 60 49 61 63 63 84 64 51 65 35 66 36 67
REMARK SMILES IDX 44 68 37 69 38 70 42 71 45 72 39 73 40 74 43 75 41 76 67 77
REMARK SMILES IDX 68 78 76 79 69 80 70 81 74 82 77 83 71 84 72 85 75 86 73 87
REMARK SMILES IDX 52 88 53 89 61 90 54 91 55 92 59 93 62 94 56 95 57 96 60 97
REMARK SMILES IDX 58 98
REMARK H PARENT 16 6 6 15 23 32 82 51 50 62
REMARK Flexibility Score: inf
ROOT
ATOM      1  C   UNL A   1      39.353  22.642  26.476  1.00  0.00     0.021 C 
ENDROOT
BRANCH   1   2
ATOM      2  C   UNL A   1      38.149  21.896  25.896  1.00  0.00     0.116 C 
BRANCH   2   3
ATOM      3  N   UNL A   1      37.674  22.500  24.666  1.00  0.00    -0.354 N 
ATOM      4  C   UNL A   1      36.500  22.317  23.988  1.00  0.00     0.241 C 
ATOM      5  O   UNL A   1      36.323  22.990  22.968  1.00  0.00    -0.273 OA
ATOM      6  H   UNL A   1      38.296  23.144  24.253  1.00  0.00     0.163 HD
BRANCH   4   7
ATOM      7  C   UNL A   1      35.406  21.421  24.530  1.00  0.00     0.243 C 
BRANCH   7   8
ATOM      8  N   UNL A   1      34.130  22.095  24.642  1.00  0.00    -0.262 N 
ATOM      9  C   UNL A   1      32.375  23.054  25.572  1.00  0.00     0.077 A 
ATOM     10  C   UNL A   1      32.065  22.355  24.383  1.00  0.00     0.149 A 
ATOM     11  C   UNL A   1      33.756  22.964  25.627  1.00  0.00     0.123 A 
ATOM     12  N   UNL A   1      33.128  21.794  23.806  1.00  0.00    -0.180 NA
BRANCH   9  13
ATOM     13  C   UNL A   1      31.580  23.775  26.552  1.00  0.00     0.254 C 
ATOM     14  N   UNL A   1      31.075  25.018  26.291  1.00  0.00    -0.345 N 
ATOM     15  H   UNL A   1      30.596  25.426  27.048  1.00  0.00     0.164 HD
ATOM     16  O   UNL A   1      31.306  23.274  27.642  1.00  0.00    -0.269 OA
BRANCH  14  17
ATOM     17  C   UNL A   1      31.119  25.841  25.102  1.00  0.00     0.113 C 
ATOM     18  C   UNL A   1      29.712  26.356  24.788  1.00  0.00     0.036 C 
BRANCH  17  19
ATOM     19  C   UNL A   1      32.147  26.914  25.330  1.00  0.00     0.015 A 
ATOM     20  C   UNL A   1      31.460  28.127  27.579  1.00  0.00     0.067 C 
ATOM     21  C   UNL A   1      32.285  27.822  26.380  1.00  0.00     0.040 A 
ATOM     22  N   UNL A   1      33.461  28.491  26.145  1.00  0.00    -0.273 N 
ATOM     23  C   UNL A   1      33.227  27.238  24.475  1.00  0.00     0.141 A 
ATOM     24  N   UNL A   1      33.999  28.218  24.944  1.00  0.00    -0.181 NA
ATOM     25  C   UNL A   1      34.135  29.413  27.031  1.00  0.00     0.174 C 
ENDBRANCH  17  19
ENDBRANCH  14  17
ENDBRANCH   9  13
ENDBRANCH   7   8
ENDBRANCH   4   7
ENDBRANCH   2   3
ENDBRANCH   1   2
BRANCH   1  26
ATOM     26  C   UNL A   1      40.703  21.961  26.216  1.00  0.00     0.002 C 
BRANCH  26  27
ATOM     27  C   UNL A   1      41.314  21.202  27.404  1.00  0.00     0.002 C 
BRANCH  27  28
ATOM     28  C   UNL A   1      42.245  20.027  27.063  1.00  0.00     0.021 C 
BRANCH  28  29
ATOM     29  C   UNL A   1      42.243  19.651  25.591  1.00  0.00     0.116 C 
BRANCH  29  30
ATOM     30  N   UNL A   1      43.578  19.319  25.083  1.00  0.00    -0.352 N 
ATOM     31  C   UNL A   1      44.579  20.182  24.656  1.00  0.00     0.251 C 
ATOM     32  H   UNL A   1      43.794  18.360  25.040  1.00  0.00     0.163 HD
ATOM     33  O   UNL A   1      45.486  19.806  23.937  1.00  0.00    -0.269 OA
BRANCH  31  34
ATOM     34  C   UNL A   1      44.522  21.578  25.122  1.00  0.00     0.039 A 
ATOM     35  C   UNL A   1      43.767  22.567  24.483  1.00  0.00     0.014 A 
ATOM     36  C   UNL A   1      45.232  21.862  26.278  1.00  0.00     0.014 A 
ATOM     37  C   UNL A   1      43.681  23.828  25.076  1.00  0.00     0.010 A 
ATOM     38  C   UNL A   1      44.945  22.997  26.972  1.00  0.00     0.010 A 
ATOM     39  C   UNL A   1      44.268  24.025  26.334  1.00  0.00    -0.014 A 
BRANCH  39  40
ATOM     40  C   UNL A   1      44.184  25.274  27.076  1.00  0.00     0.031 A 
ATOM     41  C   UNL A   1      45.288  26.232  26.822  1.00  0.00     0.074 A 
ATOM     42  C   UNL A   1      43.055  25.607  27.744  1.00  0.00     0.049 A 
ATOM     43  N   UNL A   1      46.167  26.655  27.667  1.00  0.00    -0.248 NA
ATOM     44  C   UNL A   1      45.524  26.681  25.442  1.00  0.00     0.031 C 
ATOM     45  C   UNL A   1      41.811  24.837  27.870  1.00  0.00     0.029 A 
ATOM     46  N   UNL A   1      42.752  26.756  28.405  1.00  0.00    -0.354 N 
ATOM     47  C   UNL A   1      46.964  27.563  26.977  1.00  0.00     0.074 A 
ATOM     48  C   UNL A   1      46.632  27.411  25.584  1.00  0.00     0.031 C 
ATOM     49  C   UNL A   1      40.847  25.602  28.422  1.00  0.00     0.029 A 
ATOM     50  C   UNL A   1      41.419  26.874  28.817  1.00  0.00     0.049 A 
ATOM     51  H   UNL A   1      43.422  27.456  28.582  1.00  0.00     0.167 HD
ATOM     52  C   UNL A   1      47.665  28.525  27.640  1.00  0.00     0.037 A 
ATOM     53  C   UNL A   1      40.854  27.944  29.444  1.00  0.00     0.037 A 
ATOM     54  C   UNL A   1      47.757  28.217  29.045  1.00  0.00     0.049 A 
ATOM     55  C   UNL A   1      42.002  28.701  30.016  1.00  0.00     0.074 A 
ATOM     56  C   UNL A   1      48.330  27.196  29.779  1.00  0.00     0.029 A 
ATOM     57  N   UNL A   1      46.863  28.828  29.890  1.00  0.00    -0.354 N 
ATOM     58  N   UNL A   1      42.683  28.278  31.044  1.00  0.00    -0.248 NA
ATOM     59  C   UNL A   1      42.671  29.698  29.191  1.00  0.00     0.031 C 
ATOM     60  C   UNL A   1      47.414  26.948  30.843  1.00  0.00     0.029 A 
ATOM     61  C   UNL A   1      46.372  27.870  30.738  1.00  0.00     0.049 A 
ATOM     62  H   UNL A   1      46.619  29.782  29.887  1.00  0.00     0.167 HD
ATOM     63  C   UNL A   1      43.996  28.625  30.767  1.00  0.00     0.074 A 
ATOM     64  C   UNL A   1      43.916  29.585  29.667  1.00  0.00     0.031 C 
ATOM     65  C   UNL A   1      45.028  27.880  31.259  1.00  0.00     0.037 A 
BRANCH  52  66
ATOM     66  C   UNL A   1      47.941  29.912  27.112  1.00  0.00     0.064 A 
ATOM     67  C   UNL A   1      49.251  30.427  27.200  1.00  0.00     0.173 A 
ATOM     68  C   UNL A   1      46.937  30.858  26.818  1.00  0.00     0.173 A 
ATOM     69  F   UNL A   1      50.286  29.620  27.479  1.00  0.00    -0.203 F 
ATOM     70  C   UNL A   1      49.516  31.795  27.100  1.00  0.00     0.198 A 
ATOM     71  C   UNL A   1      47.213  32.216  26.664  1.00  0.00     0.198 A 
ATOM     72  F   UNL A   1      45.639  30.536  26.780  1.00  0.00    -0.203 F 
ATOM     73  F   UNL A   1      50.756  32.250  27.325  1.00  0.00    -0.200 F 
ATOM     74  C   UNL A   1      48.495  32.689  26.842  1.00  0.00     0.200 A 
ATOM     75  F   UNL A   1      46.206  33.068  26.427  1.00  0.00    -0.200 F 
ATOM     76  F   UNL A   1      48.734  34.007  26.812  1.00  0.00    -0.200 F 
ENDBRANCH  52  66
BRANCH  53  77
ATOM     77  C   UNL A   1      39.449  28.427  29.589  1.00  0.00     0.064 A 
ATOM     78  C   UNL A   1      38.800  28.324  30.840  1.00  0.00     0.173 A 
ATOM     79  C   UNL A   1      38.770  29.201  28.627  1.00  0.00     0.173 A 
ATOM     80  F   UNL A   1      39.348  27.616  31.840  1.00  0.00    -0.203 F 
ATOM     81  C   UNL A   1      37.607  28.996  31.127  1.00  0.00     0.198 A 
ATOM     82  C   UNL A   1      37.567  29.860  28.910  1.00  0.00     0.198 A 
ATOM     83  F   UNL A   1      39.296  29.436  27.419  1.00  0.00    -0.203 F 
ATOM     84  F   UNL A   1      37.079  28.923  32.358  1.00  0.00    -0.200 F 
ATOM     85  C   UNL A   1      36.998  29.773  30.165  1.00  0.00     0.200 A 
ATOM     86  F   UNL A   1      37.006  30.651  27.982  1.00  0.00    -0.200 F 
ATOM     87  F   UNL A   1      35.897  30.480  30.460  1.00  0.00    -0.200 F 
ENDBRANCH  53  77
BRANCH  65  88
ATOM     88  C   UNL A   1      44.678  26.816  32.264  1.00  0.00     0.064 A 
ATOM     89  C   UNL A   1      44.412  27.084  33.620  1.00  0.00     0.173 A 
ATOM     90  C   UNL A   1      44.483  25.505  31.818  1.00  0.00     0.173 A 
ATOM     91  F   UNL A   1      44.474  28.329  34.100  1.00  0.00    -0.203 F 
ATOM     92  C   UNL A   1      44.022  26.074  34.496  1.00  0.00     0.198 A 
ATOM     93  C   UNL A   1      44.056  24.504  32.688  1.00  0.00     0.198 A 
ATOM     94  F   UNL A   1      44.664  25.204  30.523  1.00  0.00    -0.203 F 
ATOM     95  F   UNL A   1      43.793  26.355  35.788  1.00  0.00    -0.200 F 
ATOM     96  C   UNL A   1      43.838  24.785  34.028  1.00  0.00     0.200 A 
ATOM     97  F   UNL A   1      43.830  23.270  32.219  1.00  0.00    -0.200 F 
ATOM     98  F   UNL A   1      43.424  23.820  34.859  1.00  0.00    -0.200 F 
ENDBRANCH  65  88
ENDBRANCH  39  40
ENDBRANCH  31  34
ENDBRANCH  29  30
ENDBRANCH  28  29
ENDBRANCH  27  28
ENDBRANCH  26  27
ENDBRANCH   1  26
TORSDOF 17
ENDMDL
MODEL 2
REMARK VINA RESULT:     -11.5      1.483      2.309
REMARK SMILES Cc1c([C@H](C)NC(=O)c2cnn(CC(=O)NCCCCCCNC(=O)c3ccc(-c4c5nc(c(-c6c(F)c(F)c(F)c(F)c6F)c6ccc([nH]6)c(-c6c(F)c(F)c(F)c(F)c6F)c6nc(c(-c7c(F)c(F)c(F)c(F)c7F)c7ccc4[nH]7)C=C6)C=C5)cc3)c2)cnn1C
REMARK SMILES IDX 18 1 17 2 16 3 14 4 15 5 13 7 12 8 9 9 10 10 89 11 11 12
REMARK SMILES IDX 7 13 6 14 8 16 4 17 5 18 3 19 1 20 2 21 92 22 90 23 91 24
REMARK SMILES IDX 93 25 19 26 20 27 21 28 22 29 23 30 24 31 25 33 26 34 27 35
REMARK SMILES IDX 88 36 28 37 87 38 29 39 30 40 31 41 81 42 32 43 86 44 80 45
REMARK SMILES IDX 82 46 33 47 85 48 79 49 78 50 34 52 66 53 46 54 65 55 47 56
REMARK SMILES IDX 50 57 64 58 83 59 48 60 49 61 63 63 84 64 51 65 35 66 36 67
REMARK SMILES IDX 44 68 37 69 38 70 42 71 45 72 39 73 40 74 43 75 41 76 67 77
REMARK SMILES IDX 68 78 76 79 69 80 70 81 74 82 77 83 71 84 72 85 75 86 73 87
REMARK SMILES IDX 52 88 53 89 61 90 54 91 55 92 59 93 62 94 56 95 57 96 60 97
REMARK SMILES IDX 58 98
REMARK H PARENT 16 6 6 15 23 32 82 51 50 62
REMARK Flexibility Score: inf
ROOT
ATOM      1  C   UNL A   1      40.311  21.968  26.145  1.00  0.00     0.021 C 
ENDROOT
BRANCH   1   2
ATOM      2  C   UNL A   1      38.982  22.627  26.523  1.00  0.00     0.116 C 
BRANCH   2   3
ATOM      3  N   UNL A   1      37.842  21.855  26.069  1.00  0.00    -0.354 N 
ATOM      4  C   UNL A   1      36.592  22.263  25.693  1.00  0.00     0.241 C 
ATOM      5  O   UNL A   1      35.803  21.395  25.307  1.00  0.00    -0.273 OA
ATOM      6  H   UNL A   1      37.991  20.882  26.023  1.00  0.00     0.163 HD
BRANCH   4   7
ATOM      7  C   UNL A   1      36.226  23.732  25.632  1.00  0.00     0.243 C 
BRANCH   7   8
ATOM      8  N   UNL A   1      34.981  23.973  24.933  1.00  0.00    -0.262 N 
ATOM      9  C   UNL A   1      33.580  24.758  23.421  1.00  0.00     0.077 A 
ATOM     10  C   UNL A   1      33.001  24.625  24.704  1.00  0.00     0.149 A 
ATOM     11  C   UNL A   1      34.834  24.197  23.594  1.00  0.00     0.123 A 
ATOM     12  N   UNL A   1      33.839  24.129  25.614  1.00  0.00    -0.180 NA
BRANCH   9  13
ATOM     13  C   UNL A   1      33.100  25.271  22.149  1.00  0.00     0.254 C 
ATOM     14  N   UNL A   1      32.517  26.504  22.048  1.00  0.00    -0.345 N 
ATOM     15  H   UNL A   1      32.188  26.722  21.145  1.00  0.00     0.164 HD
ATOM     16  O   UNL A   1      33.233  24.625  21.110  1.00  0.00    -0.269 OA
BRANCH  14  17
ATOM     17  C   UNL A   1      32.298  27.545  23.028  1.00  0.00     0.113 C 
ATOM     18  C   UNL A   1      33.445  28.556  22.961  1.00  0.00     0.036 C 
BRANCH  17  19
ATOM     19  C   UNL A   1      30.932  28.122  22.781  1.00  0.00     0.015 A 
ATOM     20  C   UNL A   1      29.213  26.457  23.910  1.00  0.00     0.067 C 
ATOM     21  C   UNL A   1      29.676  27.672  23.187  1.00  0.00     0.040 A 
ATOM     22  N   UNL A   1      28.785  28.639  22.793  1.00  0.00    -0.273 N 
ATOM     23  C   UNL A   1      30.636  29.292  22.042  1.00  0.00     0.141 A 
ATOM     24  N   UNL A   1      29.336  29.584  22.012  1.00  0.00    -0.181 NA
ATOM     25  C   UNL A   1      27.382  28.724  23.127  1.00  0.00     0.174 C 
ENDBRANCH  17  19
ENDBRANCH  14  17
ENDBRANCH   9  13
ENDBRANCH   7   8
ENDBRANCH   4   7
ENDBRANCH   2   3
ENDBRANCH   1   2
BRANCH   1  26
ATOM     26  C   UNL A   1      41.160  21.526  27.343  1.00  0.00     0.002 C 
BRANCH  26  27
ATOM     27  C   UNL A   1      41.208  20.013  27.613  1.00  0.00     0.002 C 
BRANCH  27  28
ATOM     28  C   UNL A   1      42.346  19.232  26.938  1.00  0.00     0.021 C 
BRANCH  28  29
ATOM     29  C   UNL A   1      42.512  19.543  25.461  1.00  0.00     0.116 C 
BRANCH  29  30
ATOM     30  N   UNL A   1      43.863  19.260  24.964  1.00  0.00    -0.352 N 
ATOM     31  C   UNL A   1      44.833  20.159  24.541  1.00  0.00     0.251 C 
ATOM     32  H   UNL A   1      44.115  18.309  24.926  1.00  0.00     0.163 HD
ATOM     33  O   UNL A   1      45.759  19.815  23.830  1.00  0.00    -0.269 OA
BRANCH  31  34
ATOM     34  C   UNL A   1      44.720  21.553  25.001  1.00  0.00     0.039 A 
ATOM     35  C   UNL A   1      43.886  22.495  24.389  1.00  0.00     0.014 A 
ATOM     36  C   UNL A   1      45.461  21.885  26.125  1.00  0.00     0.014 A 
ATOM     37  C   UNL A   1      43.756  23.753  24.978  1.00  0.00     0.010 A 
ATOM     38  C   UNL A   1      45.141  23.008  26.823  1.00  0.00     0.010 A 
ATOM     39  C   UNL A   1      44.383  23.992  26.209  1.00  0.00    -0.014 A 
BRANCH  39  40
ATOM     40  C   UNL A   1      44.262  25.241  26.947  1.00  0.00     0.031 A 
ATOM     41  C   UNL A   1      45.366  26.209  26.731  1.00  0.00     0.074 A 
ATOM     42  C   UNL A   1      43.108  25.564  27.575  1.00  0.00     0.049 A 
ATOM     43  N   UNL A   1      46.212  26.639  27.606  1.00  0.00    -0.248 NA
ATOM     44  C   UNL A   1      45.646  26.659  25.360  1.00  0.00     0.031 C 
ATOM     45  C   UNL A   1      41.868  24.783  27.658  1.00  0.00     0.029 A 
ATOM     46  N   UNL A   1      42.772  26.710  28.225  1.00  0.00    -0.354 N 
ATOM     47  C   UNL A   1      47.024  27.554  26.943  1.00  0.00     0.074 A 
ATOM     48  C   UNL A   1      46.742  27.399  25.540  1.00  0.00     0.031 C 
ATOM     49  C   UNL A   1      40.878  25.539  28.176  1.00  0.00     0.029 A 
ATOM     50  C   UNL A   1      41.424  26.816  28.589  1.00  0.00     0.049 A 
ATOM     51  H   UNL A   1      43.429  27.416  28.425  1.00  0.00     0.167 HD
ATOM     52  C   UNL A   1      47.692  28.522  27.630  1.00  0.00     0.037 A 
ATOM     53  C   UNL A   1      40.828  27.881  29.195  1.00  0.00     0.037 A 
ATOM     54  C   UNL A   1      47.738  28.216  29.038  1.00  0.00     0.049 A 
ATOM     55  C   UNL A   1      41.948  28.648  29.807  1.00  0.00     0.074 A 
ATOM     56  C   UNL A   1      48.294  27.200  29.791  1.00  0.00     0.029 A 
ATOM     57  N   UNL A   1      46.810  28.819  29.851  1.00  0.00    -0.354 N 
ATOM     58  N   UNL A   1      42.597  28.232  30.859  1.00  0.00    -0.248 NA
ATOM     59  C   UNL A   1      42.637  29.651  29.005  1.00  0.00     0.031 C 
ATOM     60  C   UNL A   1      47.344  26.944  30.824  1.00  0.00     0.029 A 
ATOM     61  C   UNL A   1      46.298  27.857  30.682  1.00  0.00     0.049 A 
ATOM     62  H   UNL A   1      46.558  29.771  29.838  1.00  0.00     0.167 HD
ATOM     63  C   UNL A   1      43.916  28.591  30.627  1.00  0.00     0.074 A 
ATOM     64  C   UNL A   1      43.866  29.550  29.524  1.00  0.00     0.031 C 
ATOM     65  C   UNL A   1      44.936  27.855  31.155  1.00  0.00     0.037 A 
BRANCH  52  66
ATOM     66  C   UNL A   1      47.974  29.912  27.111  1.00  0.00     0.064 A 
ATOM     67  C   UNL A   1      49.291  30.413  27.184  1.00  0.00     0.173 A 
ATOM     68  C   UNL A   1      46.975  30.870  26.842  1.00  0.00     0.173 A 
ATOM     69  F   UNL A   1      50.322  29.593  27.439  1.00  0.00    -0.203 F 
ATOM     70  C   UNL A   1      49.568  31.779  27.093  1.00  0.00     0.198 A 
ATOM     71  C   UNL A   1      47.263  32.227  26.697  1.00  0.00     0.198 A 
ATOM     72  F   UNL A   1      45.674  30.562  26.821  1.00  0.00    -0.203 F 
ATOM     73  F   UNL A   1      50.816  32.219  27.303  1.00  0.00    -0.200 F 
ATOM     74  C   UNL A   1      48.552  32.686  26.859  1.00  0.00     0.200 A 
ATOM     75  F   UNL A   1      46.261  33.092  26.484  1.00  0.00    -0.200 F 
ATOM     76  F   UNL A   1      48.804  34.001  26.838  1.00  0.00    -0.200 F 
ENDBRANCH  52  66
BRANCH  53  77
ATOM     77  C   UNL A   1      39.415  28.352  29.291  1.00  0.00     0.064 A 
ATOM     78  C   UNL A   1      38.752  28.325  30.539  1.00  0.00     0.173 A 
ATOM     79  C   UNL A   1      38.737  29.048  28.271  1.00  0.00     0.173 A 
ATOM     80  F   UNL A   1      39.298  27.695  31.591  1.00  0.00    -0.203 F 
ATOM     81  C   UNL A   1      37.546  28.996  30.766  1.00  0.00     0.198 A 
ATOM     82  C   UNL A   1      37.521  29.706  28.495  1.00  0.00     0.198 A 
ATOM     83  F   UNL A   1      39.274  29.208  27.056  1.00  0.00    -0.203 F 
ATOM     84  F   UNL A   1      37.004  28.999  31.993  1.00  0.00    -0.200 F 
ATOM     85  C   UNL A   1      36.938  29.697  29.746  1.00  0.00     0.200 A 
ATOM     86  F   UNL A   1      36.961  30.423  27.508  1.00  0.00    -0.200 F 
ATOM     87  F   UNL A   1      35.823  30.405  29.979  1.00  0.00    -0.200 F 
ENDBRANCH  53  77
BRANCH  65  88
ATOM     88  C   UNL A   1      44.561  26.789  32.149  1.00  0.00     0.064 A 
ATOM     89  C   UNL A   1      44.398  25.433  31.811  1.00  0.00     0.173 A 
ATOM     90  C   UNL A   1      44.486  27.127  33.503  1.00  0.00     0.173 A 
ATOM     91  F   UNL A   1      44.558  25.014  30.553  1.00  0.00    -0.203 F 
ATOM     92  C   UNL A   1      44.120  24.471  32.780  1.00  0.00     0.198 A 
ATOM     93  C   UNL A   1      44.246  26.158  34.475  1.00  0.00     0.198 A 
ATOM     94  F   UNL A   1      44.693  28.395  33.891  1.00  0.00    -0.203 F 
ATOM     95  F   UNL A   1      43.951  23.188  32.426  1.00  0.00    -0.200 F 
ATOM     96  C   UNL A   1      44.051  24.834  34.113  1.00  0.00     0.200 A 
ATOM     97  F   UNL A   1      44.230  26.505  35.769  1.00  0.00    -0.200 F 
ATOM     98  F   UNL A   1      43.823  23.906  35.052  1.00  0.00    -0.200 F 
ENDBRANCH  65  88
ENDBRANCH  39  40
ENDBRANCH  31  34
ENDBRANCH  29  30
ENDBRANCH  28  29
ENDBRANCH  27  28
ENDBRANCH  26  27
ENDBRANCH   1  26
TORSDOF 17
ENDMDL
MODEL 3
REMARK VINA RESULT:     -11.5      4.660     10.364
REMARK SMILES Cc1c([C@H](C)NC(=O)c2cnn(CC(=O)NCCCCCCNC(=O)c3ccc(-c4c5nc(c(-c6c(F)c(F)c(F)c(F)c6F)c6ccc([nH]6)c(-c6c(F)c(F)c(F)c(F)c6F)c6nc(c(-c7c(F)c(F)c(F)c(F)c7F)c7ccc4[nH]7)C=C6)C=C5)cc3)c2)cnn1C
REMARK SMILES IDX 18 1 17 2 16 3 14 4 15 5 13 7 12 8 9 9 10 10 89 11 11 12
REMARK SMILES IDX 7 13 6 14 8 16 4 17 5 18 3 19 1 20 2 21 92 22 90 23 91 24
REMARK SMILES IDX 93 25 19 26 20 27 21 28 22 29 23 30 24 31 25 33 26 34 27 35
REMARK SMILES IDX 88 36 28 37 87 38 29 39 30 40 31 41 81 42 32 43 86 44 80 45
REMARK SMILES IDX 82 46 33 47 85 48 79 49 78 50 34 52 66 53 46 54 65 55 47 56
REMARK SMILES IDX 50 57 64 58 83 59 48 60 49 61 63 63 84 64 51 65 35 66 36 67
REMARK SMILES IDX 44 68 37 69 38 70 42 71 45 72 39 73 40 74 43 75 41 76 67 77
REMARK SMILES IDX 68 78 76 79 69 80 70 81 74 82 77 83 71 84 72 85 75 86 73 87
REMARK SMILES IDX 52 88 53 89 61 90 54 91 55 92 59 93 62 94 56 95 57 96 60 97
REMARK SMILES IDX 58 98
REMARK H PARENT 16 6 6 15 23 32 82 51 50 62
REMARK Flexibility Score: inf
ROOT
ATOM      1  C   UNL A   1      34.470  32.012  28.394  1.00  0.00     0.021 C 
ENDROOT
BRANCH   1   2
ATOM      2  C   UNL A   1      34.283  30.867  27.395  1.00  0.00     0.116 C 
BRANCH   2   3
ATOM      3  N   UNL A   1      33.169  30.009  27.752  1.00  0.00    -0.354 N 
ATOM      4  C   UNL A   1      32.238  29.396  26.960  1.00  0.00     0.241 C 
ATOM      5  O   UNL A   1      31.402  28.678  27.518  1.00  0.00    -0.273 OA
ATOM      6  H   UNL A   1      33.068  29.841  28.717  1.00  0.00     0.163 HD
BRANCH   4   7
ATOM      7  C   UNL A   1      32.301  29.489  25.449  1.00  0.00     0.243 C 
BRANCH   7   8
ATOM      8  N   UNL A   1      32.999  28.375  24.846  1.00  0.00    -0.262 N 
ATOM      9  C   UNL A   1      33.366  26.615  23.567  1.00  0.00     0.077 A 
ATOM     10  C   UNL A   1      34.047  26.558  24.806  1.00  0.00     0.149 A 
ATOM     11  C   UNL A   1      32.802  27.879  23.589  1.00  0.00     0.123 A 
ATOM     12  N   UNL A   1      33.846  27.631  25.570  1.00  0.00    -0.180 NA
BRANCH   9  13
ATOM     13  C   UNL A   1      33.241  25.700  22.445  1.00  0.00     0.254 C 
ATOM     14  N   UNL A   1      32.560  24.520  22.555  1.00  0.00    -0.345 N 
ATOM     15  H   UNL A   1      32.585  23.962  21.743  1.00  0.00     0.164 HD
ATOM     16  O   UNL A   1      33.718  25.973  21.344  1.00  0.00    -0.269 OA
BRANCH  14  17
ATOM     17  C   UNL A   1      31.808  23.944  23.649  1.00  0.00     0.113 C 
ATOM     18  C   UNL A   1      30.331  24.318  23.502  1.00  0.00     0.036 C 
BRANCH  17  19
ATOM     19  C   UNL A   1      32.087  22.468  23.665  1.00  0.00     0.015 A 
ATOM     20  C   UNL A   1      32.933  21.902  26.108  1.00  0.00     0.067 C 
ATOM     21  C   UNL A   1      32.516  21.642  24.703  1.00  0.00     0.040 A 
ATOM     22  N   UNL A   1      32.490  20.364  24.202  1.00  0.00    -0.273 N 
ATOM     23  C   UNL A   1      31.970  21.579  22.569  1.00  0.00     0.141 A 
ATOM     24  N   UNL A   1      32.254  20.315  22.881  1.00  0.00    -0.181 NA
ATOM     25  C   UNL A   1      32.684  19.133  24.935  1.00  0.00     0.174 C 
ENDBRANCH  17  19
ENDBRANCH  14  17
ENDBRANCH   9  13
ENDBRANCH   7   8
ENDBRANCH   4   7
ENDBRANCH   2   3
ENDBRANCH   1   2
BRANCH   1  26
ATOM     26  C   UNL A   1      35.146  33.257  27.807  1.00  0.00     0.002 C 
BRANCH  26  27
ATOM     27  C   UNL A   1      35.343  34.436  28.775  1.00  0.00     0.002 C 
BRANCH  27  28
ATOM     28  C   UNL A   1      34.198  35.459  28.851  1.00  0.00     0.021 C 
BRANCH  28  29
ATOM     29  C   UNL A   1      32.963  34.944  29.569  1.00  0.00     0.116 C 
BRANCH  29  30
ATOM     30  N   UNL A   1      32.665  35.685  30.800  1.00  0.00    -0.352 N 
ATOM     31  C   UNL A   1      33.117  35.436  32.089  1.00  0.00     0.251 C 
ATOM     32  H   UNL A   1      32.067  36.461  30.698  1.00  0.00     0.163 HD
ATOM     33  O   UNL A   1      32.542  35.878  33.066  1.00  0.00    -0.269 OA
BRANCH  31  34
ATOM     34  C   UNL A   1      34.341  34.630  32.239  1.00  0.00     0.039 A 
ATOM     35  C   UNL A   1      34.355  33.235  32.132  1.00  0.00     0.014 A 
ATOM     36  C   UNL A   1      35.513  35.339  32.452  1.00  0.00     0.014 A 
ATOM     37  C   UNL A   1      35.585  32.577  32.166  1.00  0.00     0.010 A 
ATOM     38  C   UNL A   1      36.708  34.725  32.235  1.00  0.00     0.010 A 
ATOM     39  C   UNL A   1      36.760  33.340  32.206  1.00  0.00    -0.014 A 
BRANCH  39  40
ATOM     40  C   UNL A   1      38.097  32.765  32.177  1.00  0.00     0.031 A 
ATOM     41  C   UNL A   1      38.836  32.827  33.462  1.00  0.00     0.074 A 
ATOM     42  C   UNL A   1      38.508  32.023  31.122  1.00  0.00     0.049 A 
ATOM     43  N   UNL A   1      39.928  33.472  33.706  1.00  0.00    -0.248 NA
ATOM     44  C   UNL A   1      38.233  32.205  34.649  1.00  0.00     0.031 C 
ATOM     45  C   UNL A   1      37.771  31.701  29.894  1.00  0.00     0.029 A 
ATOM     46  N   UNL A   1      39.667  31.332  30.954  1.00  0.00    -0.354 N 
ATOM     47  C   UNL A   1      40.253  33.196  35.031  1.00  0.00     0.074 A 
ATOM     48  C   UNL A   1      39.097  32.558  35.604  1.00  0.00     0.031 C 
ATOM     49  C   UNL A   1      38.432  30.758  29.192  1.00  0.00     0.029 A 
ATOM     50  C   UNL A   1      39.703  30.492  29.834  1.00  0.00     0.049 A 
ATOM     51  H   UNL A   1      40.426  31.415  31.576  1.00  0.00     0.167 HD
ATOM     52  C   UNL A   1      41.535  33.311  35.475  1.00  0.00     0.037 A 
ATOM     53  C   UNL A   1      40.720  29.658  29.478  1.00  0.00     0.037 A 
ATOM     54  C   UNL A   1      42.333  34.079  34.551  1.00  0.00     0.049 A 
ATOM     55  C   UNL A   1      41.912  30.177  30.204  1.00  0.00     0.074 A 
ATOM     56  C   UNL A   1      42.300  35.382  34.093  1.00  0.00     0.029 A 
ATOM     57  N   UNL A   1      43.112  33.388  33.656  1.00  0.00    -0.354 N 
ATOM     58  N   UNL A   1      42.514  31.284  29.871  1.00  0.00    -0.248 NA
ATOM     59  C   UNL A   1      42.172  29.708  31.560  1.00  0.00     0.031 C 
ATOM     60  C   UNL A   1      42.650  35.296  32.713  1.00  0.00     0.029 A 
ATOM     61  C   UNL A   1      42.939  33.962  32.424  1.00  0.00     0.049 A 
ATOM     62  H   UNL A   1      43.691  32.618  33.863  1.00  0.00     0.167 HD
ATOM     63  C   UNL A   1      42.879  31.866  31.076  1.00  0.00     0.074 A 
ATOM     64  C   UNL A   1      42.736  30.807  32.074  1.00  0.00     0.031 C 
ATOM     65  C   UNL A   1      42.977  33.223  31.187  1.00  0.00     0.037 A 
BRANCH  52  66
ATOM     66  C   UNL A   1      42.167  32.435  36.529  1.00  0.00     0.064 A 
ATOM     67  C   UNL A   1      42.626  33.029  37.725  1.00  0.00     0.173 A 
ATOM     68  C   UNL A   1      42.618  31.120  36.295  1.00  0.00     0.173 A 
ATOM     69  F   UNL A   1      42.264  34.279  38.050  1.00  0.00    -0.203 F 
ATOM     70  C   UNL A   1      43.542  32.389  38.563  1.00  0.00     0.198 A 
ATOM     71  C   UNL A   1      43.490  30.464  37.163  1.00  0.00     0.198 A 
ATOM     72  F   UNL A   1      42.334  30.455  35.169  1.00  0.00    -0.203 F 
ATOM     73  F   UNL A   1      44.051  33.046  39.614  1.00  0.00    -0.200 F 
ATOM     74  C   UNL A   1      43.981  31.111  38.276  1.00  0.00     0.200 A 
ATOM     75  F   UNL A   1      43.914  29.229  36.859  1.00  0.00    -0.200 F 
ATOM     76  F   UNL A   1      44.909  30.521  39.041  1.00  0.00    -0.200 F 
ENDBRANCH  52  66
BRANCH  53  77
ATOM     77  C   UNL A   1      40.799  28.442  28.616  1.00  0.00     0.064 A 
ATOM     78  C   UNL A   1      40.057  27.290  28.962  1.00  0.00     0.173 A 
ATOM     79  C   UNL A   1      41.384  28.412  27.335  1.00  0.00     0.173 A 
ATOM     80  F   UNL A   1      39.449  27.199  30.155  1.00  0.00    -0.203 F 
ATOM     81  C   UNL A   1      39.860  26.227  28.074  1.00  0.00     0.198 A 
ATOM     82  C   UNL A   1      41.200  27.339  26.452  1.00  0.00     0.198 A 
ATOM     83  F   UNL A   1      42.063  29.459  26.849  1.00  0.00    -0.203 F 
ATOM     84  F   UNL A   1      39.081  25.195  28.431  1.00  0.00    -0.200 F 
ATOM     85  C   UNL A   1      40.421  26.258  26.815  1.00  0.00     0.200 A 
ATOM     86  F   UNL A   1      41.712  27.401  25.213  1.00  0.00    -0.200 F 
ATOM     87  F   UNL A   1      40.171  25.278  25.935  1.00  0.00    -0.200 F 
ENDBRANCH  53  77
BRANCH  65  88
ATOM     88  C   UNL A   1      42.878  34.017  29.914  1.00  0.00     0.064 A 
ATOM     89  C   UNL A   1      41.673  34.552  29.421  1.00  0.00     0.173 A 
ATOM     90  C   UNL A   1      44.054  34.354  29.236  1.00  0.00     0.173 A 
ATOM     91  F   UNL A   1      40.521  34.363  30.071  1.00  0.00    -0.203 F 
ATOM     92  C   UNL A   1      41.644  35.342  28.274  1.00  0.00     0.198 A 
ATOM     93  C   UNL A   1      44.028  35.175  28.112  1.00  0.00     0.198 A 
ATOM     94  F   UNL A   1      45.239  33.922  29.695  1.00  0.00    -0.203 F 
ATOM     95  F   UNL A   1      40.478  35.823  27.818  1.00  0.00    -0.200 F 
ATOM     96  C   UNL A   1      42.824  35.659  27.624  1.00  0.00     0.200 A 
ATOM     97  F   UNL A   1      45.177  35.521  27.515  1.00  0.00    -0.200 F 
ATOM     98  F   UNL A   1      42.804  36.451  26.544  1.00  0.00    -0.200 F 
ENDBRANCH  65  88
ENDBRANCH  39  40
ENDBRANCH  31  34
ENDBRANCH  29  30
ENDBRANCH  28  29
ENDBRANCH  27  28
ENDBRANCH  26  27
ENDBRANCH   1  26
TORSDOF 17
ENDMDL
