MODEL 1
REMARK VINA RESULT:     -12.1      0.000      0.000
REMARK SMILES C[C@H](C(=O)NCCCCCCNC(=O)c1ccc(-c2c3nc(c(-c4c(F)c(F)c(F)c(F)c4F)c4ccc([nH]4)c(-c4c(F)c(F)c(F)c(F)c4F)c4nc(c(-c5c(F)c(F)c(F)c(F)c5F)c5ccc2[nH]5)C=C4)C=C3)cc1)c1ccc(C[C@@H]2CCC[C@H]2O)cc1
REMARK SMILES IDX 7 1 6 2 5 3 3 4 4 5 2 7 1 8 78 9 79 10 90 11 80 12 89 13
REMARK SMILES IDX 81 14 82 15 83 16 84 17 87 18 85 19 86 20 88 21 8 23 9 24
REMARK SMILES IDX 10 25 11 26 12 27 13 28 14 30 15 31 16 32 77 33 17 34 76 35
REMARK SMILES IDX 18 36 19 37 20 38 70 39 21 40 75 41 69 42 71 43 22 44 74 45
REMARK SMILES IDX 68 46 67 47 23 49 55 50 35 51 54 52 36 53 39 54 53 55 72 56
REMARK SMILES IDX 37 57 38 58 52 60 73 61 40 62 24 63 25 64 33 65 26 66 27 67
REMARK SMILES IDX 31 68 34 69 28 70 29 71 32 72 30 73 56 74 57 75 65 76 58 77
REMARK SMILES IDX 59 78 63 79 66 80 60 81 61 82 64 83 62 84 41 85 42 86 50 87
REMARK SMILES IDX 43 88 44 89 48 90 51 91 45 92 46 93 49 94 47 95
REMARK H PARENT 5 6 88 22 12 29 71 48 39 59
REMARK Flexibility Score: inf
ROOT
ATOM      1  C   UNL A   1      33.456  28.893  26.349  1.00  0.00     0.021 C 
ENDROOT
BRANCH   1   2
ATOM      2  C   UNL A   1      33.268  27.408  26.026  1.00  0.00     0.116 C 
BRANCH   2   3
ATOM      3  N   UNL A   1      33.561  27.162  24.628  1.00  0.00    -0.356 N 
ATOM      4  C   UNL A   1      33.094  26.192  23.788  1.00  0.00     0.227 C 
ATOM      5  O   UNL A   1      33.679  26.079  22.706  1.00  0.00    -0.274 OA
ATOM      6  H   UNL A   1      34.196  27.793  24.221  1.00  0.00     0.163 HD
BRANCH   4   7
ATOM      7  C   UNL A   1      31.859  25.339  24.146  1.00  0.00     0.105 C 
ATOM      8  C   UNL A   1      30.765  25.599  23.092  1.00  0.00     0.023 C 
BRANCH   7   9
ATOM      9  C   UNL A   1      32.154  23.848  24.287  1.00  0.00    -0.036 A 
ATOM     10  C   UNL A   1      32.547  23.322  25.527  1.00  0.00     0.005 A 
ATOM     11  C   UNL A   1      32.044  22.957  23.212  1.00  0.00     0.005 A 
ATOM     12  C   UNL A   1      32.974  21.996  25.652  1.00  0.00     0.004 A 
ATOM     13  C   UNL A   1      32.393  21.610  23.357  1.00  0.00     0.004 A 
ATOM     14  C   UNL A   1      32.942  21.137  24.553  1.00  0.00    -0.048 A 
BRANCH  14  15
ATOM     15  C   UNL A   1      33.512  19.743  24.648  1.00  0.00     0.041 C 
BRANCH  15  16
ATOM     16  C   UNL A   1      32.604  18.579  24.184  1.00  0.00     0.022 C 
ATOM     17  C   UNL A   1      32.510  17.414  25.187  1.00  0.00     0.007 C 
ATOM     18  C   UNL A   1      33.017  17.919  22.861  1.00  0.00     0.117 C 
ATOM     19  C   UNL A   1      33.159  16.196  24.534  1.00  0.00     0.003 C 
ATOM     20  C   UNL A   1      33.818  16.684  23.253  1.00  0.00     0.032 C 
BRANCH  18  21
ATOM     21  O   UNL A   1      31.849  17.519  22.143  1.00  0.00    -0.393 OA
ATOM     22  H   UNL A   1      32.037  16.707  21.647  1.00  0.00     0.210 HD
ENDBRANCH  18  21
ENDBRANCH  15  16
ENDBRANCH  14  15
ENDBRANCH   7   9
ENDBRANCH   4   7
ENDBRANCH   2   3
ENDBRANCH   1   2
BRANCH   1  23
ATOM     23  C   UNL A   1      32.212  29.543  26.965  1.00  0.00     0.002 C 
BRANCH  23  24
ATOM     24  C   UNL A   1      31.476  30.512  26.031  1.00  0.00     0.002 C 
BRANCH  24  25
ATOM     25  C   UNL A   1      31.370  31.958  26.531  1.00  0.00     0.021 C 
BRANCH  25  26
ATOM     26  C   UNL A   1      32.674  32.560  27.048  1.00  0.00     0.116 C 
BRANCH  26  27
ATOM     27  N   UNL A   1      32.495  33.926  27.512  1.00  0.00    -0.352 N 
ATOM     28  C   UNL A   1      33.104  34.583  28.552  1.00  0.00     0.251 C 
ATOM     29  H   UNL A   1      31.840  34.459  27.005  1.00  0.00     0.163 HD
ATOM     30  O   UNL A   1      32.661  35.655  28.951  1.00  0.00    -0.269 OA
BRANCH  28  31
ATOM     31  C   UNL A   1      34.299  34.001  29.201  1.00  0.00     0.039 A 
ATOM     32  C   UNL A   1      35.567  34.453  28.823  1.00  0.00     0.014 A 
ATOM     33  C   UNL A   1      34.171  32.982  30.149  1.00  0.00     0.014 A 
ATOM     34  C   UNL A   1      36.705  33.919  29.432  1.00  0.00     0.010 A 
ATOM     35  C   UNL A   1      35.300  32.497  30.802  1.00  0.00     0.010 A 
ATOM     36  C   UNL A   1      36.579  32.953  30.443  1.00  0.00    -0.014 A 
BRANCH  36  37
ATOM     37  C   UNL A   1      37.767  32.380  31.124  1.00  0.00     0.031 A 
ATOM     38  C   UNL A   1      38.558  31.291  30.456  1.00  0.00     0.074 A 
ATOM     39  C   UNL A   1      38.087  32.778  32.370  1.00  0.00     0.049 A 
ATOM     40  N   UNL A   1      39.546  30.572  30.927  1.00  0.00    -0.248 NA
ATOM     41  C   UNL A   1      38.165  30.943  29.082  1.00  0.00     0.031 C 
ATOM     42  C   UNL A   1      37.379  33.802  33.137  1.00  0.00     0.029 A 
ATOM     43  N   UNL A   1      39.078  32.352  33.218  1.00  0.00    -0.354 N 
ATOM     44  C   UNL A   1      39.872  29.673  29.920  1.00  0.00     0.074 A 
ATOM     45  C   UNL A   1      38.947  29.905  28.831  1.00  0.00     0.031 C 
ATOM     46  C   UNL A   1      37.962  33.932  34.340  1.00  0.00     0.029 A 
ATOM     47  C   UNL A   1      39.059  32.973  34.442  1.00  0.00     0.049 A 
ATOM     48  H   UNL A   1      39.739  31.666  32.973  1.00  0.00     0.167 HD
ATOM     49  C   UNL A   1      40.864  28.751  29.898  1.00  0.00     0.037 A 
ATOM     50  C   UNL A   1      39.831  32.782  35.530  1.00  0.00     0.037 A 
ATOM     51  C   UNL A   1      41.799  28.544  30.973  1.00  0.00     0.049 A 
ATOM     52  C   UNL A   1      40.926  31.751  35.483  1.00  0.00     0.074 A 
ATOM     53  C   UNL A   1      42.876  27.677  31.025  1.00  0.00     0.029 A 
ATOM     54  N   UNL A   1      41.768  29.216  32.186  1.00  0.00    -0.354 N 
ATOM     55  N   UNL A   1      41.261  30.942  34.507  1.00  0.00    -0.248 NA
ATOM     56  C   UNL A   1      41.756  31.610  36.688  1.00  0.00     0.031 C 
ATOM     57  C   UNL A   1      43.470  27.792  32.287  1.00  0.00     0.029 A 
ATOM     58  C   UNL A   1      42.795  28.769  33.002  1.00  0.00     0.049 A 
ATOM     59  H   UNL A   1      41.112  29.909  32.432  1.00  0.00     0.167 HD
ATOM     60  C   UNL A   1      42.355  30.221  34.964  1.00  0.00     0.074 A 
ATOM     61  C   UNL A   1      42.633  30.693  36.306  1.00  0.00     0.031 C 
ATOM     62  C   UNL A   1      43.066  29.258  34.330  1.00  0.00     0.037 A 
BRANCH  49  63
ATOM     63  C   UNL A   1      40.982  27.890  28.673  1.00  0.00     0.064 A 
ATOM     64  C   UNL A   1      40.253  26.698  28.536  1.00  0.00     0.173 A 
ATOM     65  C   UNL A   1      41.819  28.270  27.614  1.00  0.00     0.173 A 
ATOM     66  F   UNL A   1      39.446  26.283  29.525  1.00  0.00    -0.203 F 
ATOM     67  C   UNL A   1      40.387  25.901  27.402  1.00  0.00     0.198 A 
ATOM     68  C   UNL A   1      41.926  27.488  26.467  1.00  0.00     0.198 A 
ATOM     69  F   UNL A   1      42.533  29.404  27.688  1.00  0.00    -0.203 F 
ATOM     70  F   UNL A   1      39.727  24.738  27.321  1.00  0.00    -0.200 F 
ATOM     71  C   UNL A   1      41.219  26.299  26.367  1.00  0.00     0.200 A 
ATOM     72  F   UNL A   1      42.719  27.880  25.461  1.00  0.00    -0.200 F 
ATOM     73  F   UNL A   1      41.347  25.532  25.275  1.00  0.00    -0.200 F 
ENDBRANCH  49  63
BRANCH  50  74
ATOM     74  C   UNL A   1      39.606  33.604  36.747  1.00  0.00     0.064 A 
ATOM     75  C   UNL A   1      38.769  33.148  37.776  1.00  0.00     0.173 A 
ATOM     76  C   UNL A   1      40.228  34.849  36.914  1.00  0.00     0.173 A 
ATOM     77  F   UNL A   1      38.137  31.972  37.652  1.00  0.00    -0.203 F 
ATOM     78  C   UNL A   1      38.554  33.913  38.920  1.00  0.00     0.198 A 
ATOM     79  C   UNL A   1      40.032  35.602  38.069  1.00  0.00     0.198 A 
ATOM     80  F   UNL A   1      41.043  35.326  35.961  1.00  0.00    -0.203 F 
ATOM     81  F   UNL A   1      37.721  33.471  39.871  1.00  0.00    -0.200 F 
ATOM     82  C   UNL A   1      39.191  35.136  39.068  1.00  0.00     0.200 A 
ATOM     83  F   UNL A   1      40.661  36.775  38.217  1.00  0.00    -0.200 F 
ATOM     84  F   UNL A   1      38.989  35.868  40.173  1.00  0.00    -0.200 F 
ENDBRANCH  50  74
BRANCH  62  85
ATOM     85  C   UNL A   1      44.245  28.677  35.056  1.00  0.00     0.064 A 
ATOM     86  C   UNL A   1      45.518  29.260  34.982  1.00  0.00     0.173 A 
ATOM     87  C   UNL A   1      44.083  27.551  35.877  1.00  0.00     0.173 A 
ATOM     88  F   UNL A   1      45.727  30.329  34.199  1.00  0.00    -0.203 F 
ATOM     89  C   UNL A   1      46.591  28.725  35.690  1.00  0.00     0.198 A 
ATOM     90  C   UNL A   1      45.152  27.035  36.606  1.00  0.00     0.198 A 
ATOM     91  F   UNL A   1      42.884  26.960  35.986  1.00  0.00    -0.203 F 
ATOM     92  F   UNL A   1      47.808  29.273  35.574  1.00  0.00    -0.200 F 
ATOM     93  C   UNL A   1      46.405  27.619  36.508  1.00  0.00     0.200 A 
ATOM     94  F   UNL A   1      44.966  25.976  37.405  1.00  0.00    -0.200 F 
ATOM     95  F   UNL A   1      47.437  27.112  37.196  1.00  0.00    -0.200 F 
ENDBRANCH  62  85
ENDBRANCH  36  37
ENDBRANCH  28  31
ENDBRANCH  26  27
ENDBRANCH  25  26
ENDBRANCH  24  25
ENDBRANCH  23  24
ENDBRANCH   1  23
TORSDOF 17
ENDMDL
MODEL 2
REMARK VINA RESULT:     -12.0      5.108     11.872
REMARK SMILES C[C@H](C(=O)NCCCCCCNC(=O)c1ccc(-c2c3nc(c(-c4c(F)c(F)c(F)c(F)c4F)c4ccc([nH]4)c(-c4c(F)c(F)c(F)c(F)c4F)c4nc(c(-c5c(F)c(F)c(F)c(F)c5F)c5ccc2[nH]5)C=C4)C=C3)cc1)c1ccc(C[C@@H]2CCC[C@H]2O)cc1
REMARK SMILES IDX 7 1 6 2 5 3 3 4 4 5 2 7 1 8 78 9 79 10 90 11 80 12 89 13
REMARK SMILES IDX 81 14 82 15 83 16 84 17 87 18 85 19 86 20 88 21 8 23 9 24
REMARK SMILES IDX 10 25 11 26 12 27 13 28 14 30 15 31 16 32 77 33 17 34 76 35
REMARK SMILES IDX 18 36 19 37 20 38 70 39 21 40 75 41 69 42 71 43 22 44 74 45
REMARK SMILES IDX 68 46 67 47 23 49 55 50 35 51 54 52 36 53 39 54 53 55 72 56
REMARK SMILES IDX 37 57 38 58 52 60 73 61 40 62 24 63 25 64 33 65 26 66 27 67
REMARK SMILES IDX 31 68 34 69 28 70 29 71 32 72 30 73 56 74 57 75 65 76 58 77
REMARK SMILES IDX 59 78 63 79 66 80 60 81 61 82 64 83 62 84 41 85 42 86 50 87
REMARK SMILES IDX 43 88 44 89 48 90 51 91 45 92 46 93 49 94 47 95
REMARK H PARENT 5 6 88 22 12 29 71 48 39 59
REMARK Flexibility Score: inf
ROOT
ATOM      1  C   UNL A   1      37.793  30.078  32.911  1.00  0.00     0.021 C 
ENDROOT
BRANCH   1   2
ATOM      2  C   UNL A   1      38.757  30.374  34.064  1.00  0.00     0.116 C 
BRANCH   2   3
ATOM      3  N   UNL A   1      38.104  30.129  35.334  1.00  0.00    -0.356 N 
ATOM      4  C   UNL A   1      38.120  30.859  36.488  1.00  0.00     0.227 C 
ATOM      5  O   UNL A   1      37.657  30.305  37.490  1.00  0.00    -0.274 OA
ATOM      6  H   UNL A   1      37.565  29.306  35.370  1.00  0.00     0.163 HD
BRANCH   4   7
ATOM      7  C   UNL A   1      38.619  32.318  36.513  1.00  0.00     0.105 C 
ATOM      8  C   UNL A   1      40.145  32.316  36.301  1.00  0.00     0.023 C 
BRANCH   7   9
ATOM      9  C   UNL A   1      37.919  33.232  35.511  1.00  0.00    -0.036 A 
ATOM     10  C   UNL A   1      36.549  33.505  35.644  1.00  0.00     0.005 A 
ATOM     11  C   UNL A   1      38.596  33.829  34.440  1.00  0.00     0.005 A 
ATOM     12  C   UNL A   1      35.848  34.208  34.659  1.00  0.00     0.004 A 
ATOM     13  C   UNL A   1      37.910  34.602  33.497  1.00  0.00     0.004 A 
ATOM     14  C   UNL A   1      36.517  34.726  33.549  1.00  0.00    -0.048 A 
BRANCH  14  15
ATOM     15  C   UNL A   1      35.753  35.379  32.424  1.00  0.00     0.041 C 
BRANCH  15  16
ATOM     16  C   UNL A   1      34.233  35.584  32.633  1.00  0.00     0.022 C 
ATOM     17  C   UNL A   1      33.378  35.264  31.393  1.00  0.00     0.007 C 
ATOM     18  C   UNL A   1      33.818  37.006  33.035  1.00  0.00     0.117 C 
ATOM     19  C   UNL A   1      32.745  36.573  30.924  1.00  0.00     0.003 C 
ATOM     20  C   UNL A   1      33.384  37.686  31.743  1.00  0.00     0.032 C 
BRANCH  18  21
ATOM     21  O   UNL A   1      32.708  36.942  33.933  1.00  0.00    -0.393 OA
ATOM     22  H   UNL A   1      32.074  36.281  33.615  1.00  0.00     0.210 HD
ENDBRANCH  18  21
ENDBRANCH  15  16
ENDBRANCH  14  15
ENDBRANCH   7   9
ENDBRANCH   4   7
ENDBRANCH   2   3
ENDBRANCH   1   2
BRANCH   1  23
ATOM     23  C   UNL A   1      36.624  31.065  32.826  1.00  0.00     0.002 C 
BRANCH  23  24
ATOM     24  C   UNL A   1      36.538  31.832  31.500  1.00  0.00     0.002 C 
BRANCH  24  25
ATOM     25  C   UNL A   1      35.119  32.096  30.982  1.00  0.00     0.021 C 
BRANCH  25  26
ATOM     26  C   UNL A   1      35.027  32.441  29.498  1.00  0.00     0.116 C 
BRANCH  26  27
ATOM     27  N   UNL A   1      34.355  31.399  28.739  1.00  0.00    -0.352 N 
ATOM     28  C   UNL A   1      34.879  30.287  28.128  1.00  0.00     0.251 C 
ATOM     29  H   UNL A   1      33.381  31.506  28.651  1.00  0.00     0.163 HD
ATOM     30  O   UNL A   1      34.204  29.643  27.331  1.00  0.00    -0.269 OA
BRANCH  28  31
ATOM     31  C   UNL A   1      36.263  29.859  28.424  1.00  0.00     0.039 A 
ATOM     32  C   UNL A   1      37.284  30.189  27.528  1.00  0.00     0.014 A 
ATOM     33  C   UNL A   1      36.547  29.097  29.561  1.00  0.00     0.014 A 
ATOM     34  C   UNL A   1      38.599  29.799  27.798  1.00  0.00     0.010 A 
ATOM     35  C   UNL A   1      37.865  28.765  29.862  1.00  0.00     0.010 A 
ATOM     36  C   UNL A   1      38.902  29.104  28.979  1.00  0.00    -0.014 A 
BRANCH  36  37
ATOM     37  C   UNL A   1      40.291  28.692  29.305  1.00  0.00     0.031 A 
ATOM     38  C   UNL A   1      41.180  29.618  30.088  1.00  0.00     0.074 A 
ATOM     39  C   UNL A   1      40.778  27.530  28.830  1.00  0.00     0.049 A 
ATOM     40  N   UNL A   1      42.454  29.507  30.367  1.00  0.00    -0.248 NA
ATOM     41  C   UNL A   1      40.558  30.848  30.599  1.00  0.00     0.031 C 
ATOM     42  C   UNL A   1      40.027  26.562  28.032  1.00  0.00     0.029 A 
ATOM     43  N   UNL A   1      42.030  26.977  28.934  1.00  0.00    -0.354 N 
ATOM     44  C   UNL A   1      42.790  30.662  31.061  1.00  0.00     0.074 A 
ATOM     45  C   UNL A   1      41.597  31.481  31.120  1.00  0.00     0.031 C 
ATOM     46  C   UNL A   1      40.828  25.530  27.725  1.00  0.00     0.029 A 
ATOM     47  C   UNL A   1      42.160  25.783  28.270  1.00  0.00     0.049 A 
ATOM     48  H   UNL A   1      42.765  27.397  29.436  1.00  0.00     0.167 HD
ATOM     49  C   UNL A   1      43.978  31.001  31.616  1.00  0.00     0.037 A 
ATOM     50  C   UNL A   1      43.235  24.987  28.107  1.00  0.00     0.037 A 
ATOM     51  C   UNL A   1      45.153  30.170  31.580  1.00  0.00     0.049 A 
ATOM     52  C   UNL A   1      44.545  25.384  28.731  1.00  0.00     0.074 A 
ATOM     53  C   UNL A   1      46.388  30.395  32.161  1.00  0.00     0.029 A 
ATOM     54  N   UNL A   1      45.236  28.950  30.924  1.00  0.00    -0.354 N 
ATOM     55  N   UNL A   1      44.839  26.452  29.432  1.00  0.00    -0.248 NA
ATOM     56  C   UNL A   1      45.674  24.461  28.548  1.00  0.00     0.031 C 
ATOM     57  C   UNL A   1      47.233  29.333  31.820  1.00  0.00     0.029 A 
ATOM     58  C   UNL A   1      46.508  28.420  31.070  1.00  0.00     0.049 A 
ATOM     59  H   UNL A   1      44.500  28.524  30.427  1.00  0.00     0.167 HD
ATOM     60  C   UNL A   1      46.170  26.317  29.798  1.00  0.00     0.074 A 
ATOM     61  C   UNL A   1      46.627  25.057  29.248  1.00  0.00     0.031 C 
ATOM     62  C   UNL A   1      46.943  27.158  30.527  1.00  0.00     0.037 A 
BRANCH  49  63
ATOM     63  C   UNL A   1      44.066  32.333  32.303  1.00  0.00     0.064 A 
ATOM     64  C   UNL A   1      44.484  33.489  31.624  1.00  0.00     0.173 A 
ATOM     65  C   UNL A   1      43.711  32.463  33.654  1.00  0.00     0.173 A 
ATOM     66  F   UNL A   1      44.846  33.417  30.333  1.00  0.00    -0.203 F 
ATOM     67  C   UNL A   1      44.579  34.713  32.279  1.00  0.00     0.198 A 
ATOM     68  C   UNL A   1      43.776  33.695  34.299  1.00  0.00     0.198 A 
ATOM     69  F   UNL A   1      43.298  31.393  34.351  1.00  0.00    -0.203 F 
ATOM     70  F   UNL A   1      45.038  35.788  31.624  1.00  0.00    -0.200 F 
ATOM     71  C   UNL A   1      44.220  34.816  33.614  1.00  0.00     0.200 A 
ATOM     72  F   UNL A   1      43.415  33.797  35.585  1.00  0.00    -0.200 F 
ATOM     73  F   UNL A   1      44.310  35.996  34.245  1.00  0.00    -0.200 F 
ENDBRANCH  49  63
BRANCH  50  74
ATOM     74  C   UNL A   1      43.106  23.723  27.337  1.00  0.00     0.064 A 
ATOM     75  C   UNL A   1      43.513  23.654  25.997  1.00  0.00     0.173 A 
ATOM     76  C   UNL A   1      42.589  22.559  27.924  1.00  0.00     0.173 A 
ATOM     77  F   UNL A   1      43.995  24.747  25.388  1.00  0.00    -0.203 F 
ATOM     78  C   UNL A   1      43.396  22.473  25.269  1.00  0.00     0.198 A 
ATOM     79  C   UNL A   1      42.496  21.371  27.203  1.00  0.00     0.198 A 
ATOM     80  F   UNL A   1      42.192  22.571  29.205  1.00  0.00    -0.203 F 
ATOM     81  F   UNL A   1      43.757  22.444  23.980  1.00  0.00    -0.200 F 
ATOM     82  C   UNL A   1      42.893  21.330  25.875  1.00  0.00     0.200 A 
ATOM     83  F   UNL A   1      42.026  20.265  27.795  1.00  0.00    -0.200 F 
ATOM     84  F   UNL A   1      42.788  20.191  25.176  1.00  0.00    -0.200 F 
ENDBRANCH  50  74
BRANCH  62  85
ATOM     85  C   UNL A   1      48.353  26.728  30.815  1.00  0.00     0.064 A 
ATOM     86  C   UNL A   1      48.663  25.892  31.896  1.00  0.00     0.173 A 
ATOM     87  C   UNL A   1      49.398  27.119  29.963  1.00  0.00     0.173 A 
ATOM     88  F   UNL A   1      47.703  25.504  32.747  1.00  0.00    -0.203 F 
ATOM     89  C   UNL A   1      49.972  25.477  32.126  1.00  0.00     0.198 A 
ATOM     90  C   UNL A   1      50.701  26.679  30.179  1.00  0.00     0.198 A 
ATOM     91  F   UNL A   1      49.151  27.913  28.911  1.00  0.00    -0.203 F 
ATOM     92  F   UNL A   1      50.254  24.712  33.189  1.00  0.00    -0.200 F 
ATOM     93  C   UNL A   1      50.988  25.864  31.263  1.00  0.00     0.200 A 
ATOM     94  F   UNL A   1      51.677  27.043  29.337  1.00  0.00    -0.200 F 
ATOM     95  F   UNL A   1      52.246  25.456  31.480  1.00  0.00    -0.200 F 
ENDBRANCH  62  85
ENDBRANCH  36  37
ENDBRANCH  28  31
ENDBRANCH  26  27
ENDBRANCH  25  26
ENDBRANCH  24  25
ENDBRANCH  23  24
ENDBRANCH   1  23
TORSDOF 17
ENDMDL
MODEL 3
REMARK VINA RESULT:     -11.8      4.861     10.448
REMARK SMILES C[C@H](C(=O)NCCCCCCNC(=O)c1ccc(-c2c3nc(c(-c4c(F)c(F)c(F)c(F)c4F)c4ccc([nH]4)c(-c4c(F)c(F)c(F)c(F)c4F)c4nc(c(-c5c(F)c(F)c(F)c(F)c5F)c5ccc2[nH]5)C=C4)C=C3)cc1)c1ccc(C[C@@H]2CCC[C@H]2O)cc1
REMARK SMILES IDX 7 1 6 2 5 3 3 4 4 5 2 7 1 8 78 9 79 10 90 11 80 12 89 13
REMARK SMILES IDX 81 14 82 15 83 16 84 17 87 18 85 19 86 20 88 21 8 23 9 24
REMARK SMILES IDX 10 25 11 26 12 27 13 28 14 30 15 31 16 32 77 33 17 34 76 35
REMARK SMILES IDX 18 36 19 37 20 38 70 39 21 40 75 41 69 42 71 43 22 44 74 45
REMARK SMILES IDX 68 46 67 47 23 49 55 50 35 51 54 52 36 53 39 54 53 55 72 56
REMARK SMILES IDX 37 57 38 58 52 60 73 61 40 62 24 63 25 64 33 65 26 66 27 67
REMARK SMILES IDX 31 68 34 69 28 70 29 71 32 72 30 73 56 74 57 75 65 76 58 77
REMARK SMILES IDX 59 78 63 79 66 80 60 81 61 82 64 83 62 84 41 85 42 86 50 87
REMARK SMILES IDX 43 88 44 89 48 90 51 91 45 92 46 93 49 94 47 95
REMARK H PARENT 5 6 88 22 12 29 71 48 39 59
REMARK Flexibility Score: inf
ROOT
ATOM      1  C   UNL A   1      44.221  23.323  28.712  1.00  0.00     0.021 C 
ENDROOT
BRANCH   1   2
ATOM      2  C   UNL A   1      45.167  24.368  28.114  1.00  0.00     0.116 C 
BRANCH   2   3
ATOM      3  N   UNL A   1      46.059  23.744  27.158  1.00  0.00    -0.356 N 
ATOM      4  C   UNL A   1      46.017  23.731  25.793  1.00  0.00     0.227 C 
ATOM      5  O   UNL A   1      46.776  22.934  25.231  1.00  0.00    -0.274 OA
ATOM      6  H   UNL A   1      46.812  23.252  27.555  1.00  0.00     0.163 HD
BRANCH   4   7
ATOM      7  C   UNL A   1      45.125  24.710  25.002  1.00  0.00     0.105 C 
ATOM      8  C   UNL A   1      43.685  24.162  24.995  1.00  0.00     0.023 C 
BRANCH   7   9
ATOM      9  C   UNL A   1      45.172  26.147  25.517  1.00  0.00    -0.036 A 
ATOM     10  C   UNL A   1      46.404  26.799  25.673  1.00  0.00     0.005 A 
ATOM     11  C   UNL A   1      44.014  26.864  25.845  1.00  0.00     0.005 A 
ATOM     12  C   UNL A   1      46.490  28.053  26.287  1.00  0.00     0.004 A 
ATOM     13  C   UNL A   1      44.096  28.152  26.384  1.00  0.00     0.004 A 
ATOM     14  C   UNL A   1      45.335  28.724  26.690  1.00  0.00    -0.048 A 
BRANCH  14  15
ATOM     15  C   UNL A   1      45.425  30.018  27.461  1.00  0.00     0.041 C 
BRANCH  15  16
ATOM     16  C   UNL A   1      44.146  30.886  27.527  1.00  0.00     0.022 C 
ATOM     17  C   UNL A   1      44.097  32.019  26.484  1.00  0.00     0.007 C 
ATOM     18  C   UNL A   1      43.904  31.586  28.871  1.00  0.00     0.117 C 
ATOM     19  C   UNL A   1      44.151  33.342  27.245  1.00  0.00     0.003 C 
ATOM     20  C   UNL A   1      44.442  33.001  28.699  1.00  0.00     0.032 C 
BRANCH  18  21
ATOM     21  O   UNL A   1      42.500  31.642  29.134  1.00  0.00    -0.393 OA
ATOM     22  H   UNL A   1      42.344  31.514  30.083  1.00  0.00     0.210 HD
ENDBRANCH  18  21
ENDBRANCH  15  16
ENDBRANCH  14  15
ENDBRANCH   7   9
ENDBRANCH   4   7
ENDBRANCH   2   3
ENDBRANCH   1   2
BRANCH   1  23
ATOM     23  C   UNL A   1      42.790  23.417  28.172  1.00  0.00     0.002 C 
BRANCH  23  24
ATOM     24  C   UNL A   1      41.828  22.365  28.738  1.00  0.00     0.002 C 
BRANCH  24  25
ATOM     25  C   UNL A   1      41.144  21.469  27.698  1.00  0.00     0.021 C 
BRANCH  25  26
ATOM     26  C   UNL A   1      41.148  22.014  26.273  1.00  0.00     0.116 C 
BRANCH  26  27
ATOM     27  N   UNL A   1      39.800  22.218  25.766  1.00  0.00    -0.352 N 
ATOM     28  C   UNL A   1      38.887  23.195  26.078  1.00  0.00     0.251 C 
ATOM     29  H   UNL A   1      39.497  21.557  25.102  1.00  0.00     0.163 HD
ATOM     30  O   UNL A   1      37.715  23.078  25.735  1.00  0.00    -0.269 OA
BRANCH  28  31
ATOM     31  C   UNL A   1      39.311  24.395  26.830  1.00  0.00     0.039 A 
ATOM     32  C   UNL A   1      40.121  25.344  26.198  1.00  0.00     0.014 A 
ATOM     33  C   UNL A   1      38.946  24.564  28.169  1.00  0.00     0.014 A 
ATOM     34  C   UNL A   1      40.524  26.487  26.893  1.00  0.00     0.010 A 
ATOM     35  C   UNL A   1      39.293  25.734  28.839  1.00  0.00     0.010 A 
ATOM     36  C   UNL A   1      40.093  26.702  28.212  1.00  0.00    -0.014 A 
BRANCH  36  37
ATOM     37  C   UNL A   1      40.487  27.916  28.971  1.00  0.00     0.031 A 
ATOM     38  C   UNL A   1      41.840  27.984  29.621  1.00  0.00     0.074 A 
ATOM     39  C   UNL A   1      39.604  28.918  29.143  1.00  0.00     0.049 A 
ATOM     40  N   UNL A   1      42.329  28.892  30.429  1.00  0.00    -0.248 NA
ATOM     41  C   UNL A   1      42.754  26.865  29.351  1.00  0.00     0.031 C 
ATOM     42  C   UNL A   1      38.250  28.956  28.591  1.00  0.00     0.029 A 
ATOM     43  N   UNL A   1      39.708  30.089  29.853  1.00  0.00    -0.354 N 
ATOM     44  C   UNL A   1      43.594  28.440  30.782  1.00  0.00     0.074 A 
ATOM     45  C   UNL A   1      43.778  27.156  30.139  1.00  0.00     0.031 C 
ATOM     46  C   UNL A   1      37.651  30.095  28.974  1.00  0.00     0.029 A 
ATOM     47  C   UNL A   1      38.564  30.848  29.831  1.00  0.00     0.049 A 
ATOM     48  H   UNL A   1      40.524  30.358  30.332  1.00  0.00     0.167 HD
ATOM     49  C   UNL A   1      44.524  29.049  31.556  1.00  0.00     0.037 A 
ATOM     50  C   UNL A   1      38.279  32.013  30.443  1.00  0.00     0.037 A 
ATOM     51  C   UNL A   1      44.347  30.339  32.169  1.00  0.00     0.049 A 
ATOM     52  C   UNL A   1      39.327  32.671  31.299  1.00  0.00     0.074 A 
ATOM     53  C   UNL A   1      45.249  31.068  32.923  1.00  0.00     0.029 A 
ATOM     54  N   UNL A   1      43.184  31.093  32.097  1.00  0.00    -0.354 N 
ATOM     55  N   UNL A   1      40.540  32.262  31.584  1.00  0.00    -0.248 NA
ATOM     56  C   UNL A   1      38.970  33.956  31.916  1.00  0.00     0.031 C 
ATOM     57  C   UNL A   1      44.618  32.244  33.344  1.00  0.00     0.029 A 
ATOM     58  C   UNL A   1      43.339  32.272  32.809  1.00  0.00     0.049 A 
ATOM     59  H   UNL A   1      42.369  30.829  31.612  1.00  0.00     0.167 HD
ATOM     60  C   UNL A   1      41.100  33.249  32.382  1.00  0.00     0.074 A 
ATOM     61  C   UNL A   1      40.096  34.283  32.532  1.00  0.00     0.031 C 
ATOM     62  C   UNL A   1      42.335  33.296  32.938  1.00  0.00     0.037 A 
BRANCH  49  63
ATOM     63  C   UNL A   1      45.816  28.319  31.788  1.00  0.00     0.064 A 
ATOM     64  C   UNL A   1      46.969  28.603  31.040  1.00  0.00     0.173 A 
ATOM     65  C   UNL A   1      45.908  27.335  32.783  1.00  0.00     0.173 A 
ATOM     66  F   UNL A   1      46.931  29.528  30.068  1.00  0.00    -0.203 F 
ATOM     67  C   UNL A   1      48.154  27.904  31.253  1.00  0.00     0.198 A 
ATOM     68  C   UNL A   1      47.104  26.660  33.017  1.00  0.00     0.198 A 
ATOM     69  F   UNL A   1      44.839  27.027  33.532  1.00  0.00    -0.203 F 
ATOM     70  F   UNL A   1      49.224  28.152  30.486  1.00  0.00    -0.200 F 
ATOM     71  C   UNL A   1      48.222  26.937  32.244  1.00  0.00     0.200 A 
ATOM     72  F   UNL A   1      47.172  25.735  33.984  1.00  0.00    -0.200 F 
ATOM     73  F   UNL A   1      49.363  26.266  32.451  1.00  0.00    -0.200 F 
ENDBRANCH  49  63
BRANCH  50  74
ATOM     74  C   UNL A   1      36.947  32.642  30.247  1.00  0.00     0.064 A 
ATOM     75  C   UNL A   1      36.649  33.337  29.067  1.00  0.00     0.173 A 
ATOM     76  C   UNL A   1      35.945  32.553  31.224  1.00  0.00     0.173 A 
ATOM     77  F   UNL A   1      37.582  33.466  28.112  1.00  0.00    -0.203 F 
ATOM     78  C   UNL A   1      35.403  33.930  28.875  1.00  0.00     0.198 A 
ATOM     79  C   UNL A   1      34.691  33.124  31.021  1.00  0.00     0.198 A 
ATOM     80  F   UNL A   1      36.179  31.894  32.368  1.00  0.00    -0.203 F 
ATOM     81  F   UNL A   1      35.156  34.620  27.754  1.00  0.00    -0.200 F 
ATOM     82  C   UNL A   1      34.423  33.817  29.850  1.00  0.00     0.200 A 
ATOM     83  F   UNL A   1      33.741  32.999  31.957  1.00  0.00    -0.200 F 
ATOM     84  F   UNL A   1      33.221  34.380  29.663  1.00  0.00    -0.200 F 
ENDBRANCH  50  74
BRANCH  62  85
ATOM     85  C   UNL A   1      42.693  34.524  33.725  1.00  0.00     0.064 A 
ATOM     86  C   UNL A   1      43.148  35.694  33.100  1.00  0.00     0.173 A 
ATOM     87  C   UNL A   1      42.528  34.543  35.118  1.00  0.00     0.173 A 
ATOM     88  F   UNL A   1      43.336  35.721  31.772  1.00  0.00    -0.203 F 
ATOM     89  C   UNL A   1      43.443  36.833  33.844  1.00  0.00     0.198 A 
ATOM     90  C   UNL A   1      42.797  35.693  35.856  1.00  0.00     0.198 A 
ATOM     91  F   UNL A   1      42.090  33.451  35.762  1.00  0.00    -0.203 F 
ATOM     92  F   UNL A   1      43.915  37.928  33.232  1.00  0.00    -0.200 F 
ATOM     93  C   UNL A   1      43.259  36.834  35.220  1.00  0.00     0.200 A 
ATOM     94  F   UNL A   1      42.605  35.695  37.182  1.00  0.00    -0.200 F 
ATOM     95  F   UNL A   1      43.534  37.934  35.933  1.00  0.00    -0.200 F 
ENDBRANCH  62  85
ENDBRANCH  36  37
ENDBRANCH  28  31
ENDBRANCH  26  27
ENDBRANCH  25  26
ENDBRANCH  24  25
ENDBRANCH  23  24
ENDBRANCH   1  23
TORSDOF 17
ENDMDL
