MODEL 1
REMARK VINA RESULT:     -11.0      0.000      0.000
REMARK SMILES CCCc1nnc(SCC(=O)NCCCCCCNC(=O)c2ccc(-c3c4nc(c(-c5c(F)c(F)c(F)c(F)c5F)c5ccc([nH]5)c(-c5c(F)c(F)c(F)c(F)c5F)c5nc(c(-c6c(F)c(F)c(F)c(F)c6F)c6ccc3[nH]6)C=C5)C=C4)cc2)n1C[C@H]1CCCO1
REMARK SMILES IDX 14 1 13 2 12 3 10 4 11 5 9 7 8 8 7 9 4 10 5 11 85 12 6 13
REMARK SMILES IDX 3 14 2 15 1 16 86 17 87 18 88 19 91 20 89 21 90 22 15 23
REMARK SMILES IDX 16 24 17 25 18 26 19 27 20 28 21 30 22 31 23 32 84 33 24 34
REMARK SMILES IDX 83 35 25 36 26 37 27 38 77 39 28 40 82 41 76 42 78 43 29 44
REMARK SMILES IDX 81 45 75 46 74 47 30 49 62 50 42 51 61 52 43 53 46 54 60 55
REMARK SMILES IDX 79 56 44 57 45 58 59 60 80 61 47 62 31 63 32 64 40 65 33 66
REMARK SMILES IDX 34 67 38 68 41 69 35 70 36 71 39 72 37 73 63 74 64 75 72 76
REMARK SMILES IDX 65 77 66 78 70 79 73 80 67 81 68 82 71 83 69 84 48 85 49 86
REMARK SMILES IDX 57 87 50 88 51 89 55 90 58 91 52 92 53 93 56 94 54 95
REMARK H PARENT 12 6 19 29 78 48 46 59
REMARK Flexibility Score: inf
ROOT
ATOM      1  C   UNL A   1      36.434  21.434  24.872  1.00  0.00     0.021 C 
ENDROOT
BRANCH   1   2
ATOM      2  C   UNL A   1      35.244  21.257  25.812  1.00  0.00     0.116 C 
BRANCH   2   3
ATOM      3  N   UNL A   1      34.209  20.517  25.138  1.00  0.00    -0.355 N 
ATOM      4  C   UNL A   1      32.894  20.549  25.458  1.00  0.00     0.230 C 
ATOM      5  O   UNL A   1      32.170  19.628  25.087  1.00  0.00    -0.274 OA
ATOM      6  H   UNL A   1      34.478  19.942  24.386  1.00  0.00     0.163 HD
BRANCH   4   7
ATOM      7  C   UNL A   1      32.371  21.789  26.123  1.00  0.00     0.178 C 
BRANCH   7   8
ATOM      8  S   UNL A   1      31.346  22.866  25.163  1.00  0.00    -0.076 SA
BRANCH   8   9
ATOM      9  C   UNL A   1      31.357  24.436  25.866  1.00  0.00     0.191 A 
ATOM     10  C   UNL A   1      31.650  26.544  26.319  1.00  0.00     0.133 A 
ATOM     11  N   UNL A   1      30.413  26.225  26.637  1.00  0.00    -0.134 NA
ATOM     12  N   UNL A   1      32.352  25.381  26.003  1.00  0.00    -0.303 N 
ATOM     13  N   UNL A   1      30.238  24.908  26.369  1.00  0.00    -0.123 NA
BRANCH  10  14
ATOM     14  C   UNL A   1      32.143  27.950  26.201  1.00  0.00     0.077 C 
BRANCH  14  15
ATOM     15  C   UNL A   1      32.903  28.426  27.442  1.00  0.00     0.005 C 
ATOM     16  C   UNL A   1      34.302  28.923  27.107  1.00  0.00     0.004 C 
ENDBRANCH  14  15
ENDBRANCH  10  14
BRANCH  12  17
ATOM     17  C   UNL A   1      33.757  25.334  25.666  1.00  0.00     0.158 C 
BRANCH  17  18
ATOM     18  C   UNL A   1      34.250  25.276  24.194  1.00  0.00     0.138 C 
ATOM     19  C   UNL A   1      33.789  24.217  23.195  1.00  0.00     0.036 C 
ATOM     20  O   UNL A   1      33.881  26.539  23.590  1.00  0.00    -0.376 OA
ATOM     21  C   UNL A   1      32.737  24.870  22.318  1.00  0.00     0.031 C 
ATOM     22  C   UNL A   1      32.920  26.350  22.546  1.00  0.00     0.160 C 
ENDBRANCH  17  18
ENDBRANCH  12  17
ENDBRANCH   8   9
ENDBRANCH   7   8
ENDBRANCH   4   7
ENDBRANCH   2   3
ENDBRANCH   1   2
BRANCH   1  23
ATOM     23  C   UNL A   1      37.115  22.800  25.003  1.00  0.00     0.002 C 
BRANCH  23  24
ATOM     24  C   UNL A   1      38.279  22.855  26.001  1.00  0.00     0.002 C 
BRANCH  24  25
ATOM     25  C   UNL A   1      39.175  21.610  26.059  1.00  0.00     0.021 C 
BRANCH  25  26
ATOM     26  C   UNL A   1      40.387  21.790  26.943  1.00  0.00     0.116 C 
BRANCH  26  27
ATOM     27  N   UNL A   1      41.605  21.904  26.157  1.00  0.00    -0.352 N 
ATOM     28  C   UNL A   1      42.268  23.054  25.821  1.00  0.00     0.251 C 
ATOM     29  H   UNL A   1      41.997  21.062  25.830  1.00  0.00     0.163 HD
ATOM     30  O   UNL A   1      43.047  23.086  24.864  1.00  0.00    -0.269 OA
BRANCH  28  31
ATOM     31  C   UNL A   1      42.030  24.257  26.626  1.00  0.00     0.039 A 
ATOM     32  C   UNL A   1      42.681  24.436  27.847  1.00  0.00     0.014 A 
ATOM     33  C   UNL A   1      41.163  25.225  26.119  1.00  0.00     0.014 A 
ATOM     34  C   UNL A   1      42.484  25.624  28.536  1.00  0.00     0.010 A 
ATOM     35  C   UNL A   1      41.091  26.454  26.721  1.00  0.00     0.010 A 
ATOM     36  C   UNL A   1      41.693  26.632  27.960  1.00  0.00    -0.014 A 
BRANCH  36  37
ATOM     37  C   UNL A   1      41.555  27.920  28.621  1.00  0.00     0.031 A 
ATOM     38  C   UNL A   1      42.611  28.912  28.286  1.00  0.00     0.074 A 
ATOM     39  C   UNL A   1      40.457  28.254  29.330  1.00  0.00     0.049 A 
ATOM     40  N   UNL A   1      43.486  29.430  29.083  1.00  0.00    -0.248 NA
ATOM     41  C   UNL A   1      42.800  29.283  26.874  1.00  0.00     0.031 C 
ATOM     42  C   UNL A   1      39.202  27.512  29.493  1.00  0.00     0.029 A 
ATOM     43  N   UNL A   1      40.199  29.415  29.985  1.00  0.00    -0.354 N 
ATOM     44  C   UNL A   1      44.228  30.326  28.319  1.00  0.00     0.074 A 
ATOM     45  C   UNL A   1      43.869  30.081  26.946  1.00  0.00     0.031 C 
ATOM     46  C   UNL A   1      38.248  28.338  29.977  1.00  0.00     0.029 A 
ATOM     47  C   UNL A   1      38.865  29.606  30.316  1.00  0.00     0.049 A 
ATOM     48  H   UNL A   1      40.902  30.068  30.207  1.00  0.00     0.167 HD
ATOM     49  C   UNL A   1      44.914  31.346  28.904  1.00  0.00     0.037 A 
ATOM     50  C   UNL A   1      38.315  30.754  30.783  1.00  0.00     0.037 A 
ATOM     51  C   UNL A   1      45.100  31.107  30.314  1.00  0.00     0.049 A 
ATOM     52  C   UNL A   1      39.425  31.577  31.335  1.00  0.00     0.074 A 
ATOM     53  C   UNL A   1      45.700  30.096  31.042  1.00  0.00     0.029 A 
ATOM     54  N   UNL A   1      44.281  31.761  31.203  1.00  0.00    -0.354 N 
ATOM     55  N   UNL A   1      40.107  31.245  32.399  1.00  0.00    -0.248 NA
ATOM     56  C   UNL A   1      40.098  32.493  30.423  1.00  0.00     0.031 C 
ATOM     57  C   UNL A   1      44.818  29.867  32.140  1.00  0.00     0.029 A 
ATOM     58  C   UNL A   1      43.792  30.809  32.064  1.00  0.00     0.049 A 
ATOM     59  H   UNL A   1      44.084  32.726  31.220  1.00  0.00     0.167 HD
ATOM     60  C   UNL A   1      41.424  31.547  32.082  1.00  0.00     0.074 A 
ATOM     61  C   UNL A   1      41.349  32.375  30.878  1.00  0.00     0.031 C 
ATOM     62  C   UNL A   1      42.467  30.860  32.636  1.00  0.00     0.037 A 
BRANCH  49  63
ATOM     63  C   UNL A   1      45.107  32.709  28.288  1.00  0.00     0.064 A 
ATOM     64  C   UNL A   1      46.413  33.192  28.074  1.00  0.00     0.173 A 
ATOM     65  C   UNL A   1      44.079  33.671  28.180  1.00  0.00     0.173 A 
ATOM     66  F   UNL A   1      47.470  32.370  28.171  1.00  0.00    -0.203 F 
ATOM     67  C   UNL A   1      46.674  34.546  27.850  1.00  0.00     0.198 A 
ATOM     68  C   UNL A   1      44.338  35.011  27.902  1.00  0.00     0.198 A 
ATOM     69  F   UNL A   1      42.800  33.381  28.450  1.00  0.00    -0.203 F 
ATOM     70  F   UNL A   1      47.940  34.978  27.780  1.00  0.00    -0.200 F 
ATOM     71  C   UNL A   1      45.636  35.456  27.771  1.00  0.00     0.200 A 
ATOM     72  F   UNL A   1      43.317  35.880  27.847  1.00  0.00    -0.200 F 
ATOM     73  F   UNL A   1      45.884  36.763  27.618  1.00  0.00    -0.200 F 
ENDBRANCH  49  63
BRANCH  50  74
ATOM     74  C   UNL A   1      36.976  31.306  30.463  1.00  0.00     0.064 A 
ATOM     75  C   UNL A   1      36.088  31.693  31.478  1.00  0.00     0.173 A 
ATOM     76  C   UNL A   1      36.643  31.714  29.155  1.00  0.00     0.173 A 
ATOM     77  F   UNL A   1      36.356  31.391  32.758  1.00  0.00    -0.203 F 
ATOM     78  C   UNL A   1      34.946  32.455  31.205  1.00  0.00     0.198 A 
ATOM     79  C   UNL A   1      35.502  32.469  28.881  1.00  0.00     0.198 A 
ATOM     80  F   UNL A   1      37.470  31.474  28.126  1.00  0.00    -0.203 F 
ATOM     81  F   UNL A   1      34.155  32.858  32.209  1.00  0.00    -0.200 F 
ATOM     82  C   UNL A   1      34.659  32.851  29.908  1.00  0.00     0.200 A 
ATOM     83  F   UNL A   1      35.260  32.880  27.629  1.00  0.00    -0.200 F 
ATOM     84  F   UNL A   1      33.601  33.633  29.656  1.00  0.00    -0.200 F 
ENDBRANCH  50  74
BRANCH  62  85
ATOM     85  C   UNL A   1      42.183  29.906  33.765  1.00  0.00     0.064 A 
ATOM     86  C   UNL A   1      41.809  28.561  33.588  1.00  0.00     0.173 A 
ATOM     87  C   UNL A   1      42.468  30.322  35.072  1.00  0.00     0.173 A 
ATOM     88  F   UNL A   1      41.624  28.050  32.366  1.00  0.00    -0.203 F 
ATOM     89  C   UNL A   1      41.686  27.693  34.672  1.00  0.00     0.198 A 
ATOM     90  C   UNL A   1      42.381  29.443  36.149  1.00  0.00     0.198 A 
ATOM     91  F   UNL A   1      42.887  31.577  35.302  1.00  0.00    -0.203 F 
ATOM     92  F   UNL A   1      41.320  26.417  34.473  1.00  0.00    -0.200 F 
ATOM     93  C   UNL A   1      41.980  28.132  35.951  1.00  0.00     0.200 A 
ATOM     94  F   UNL A   1      42.719  29.860  37.377  1.00  0.00    -0.200 F 
ATOM     95  F   UNL A   1      41.906  27.286  36.988  1.00  0.00    -0.200 F 
ENDBRANCH  62  85
ENDBRANCH  36  37
ENDBRANCH  28  31
ENDBRANCH  26  27
ENDBRANCH  25  26
ENDBRANCH  24  25
ENDBRANCH  23  24
ENDBRANCH   1  23
TORSDOF 19
ENDMDL
MODEL 2
REMARK VINA RESULT:     -11.0      2.413      3.331
REMARK SMILES CCCc1nnc(SCC(=O)NCCCCCCNC(=O)c2ccc(-c3c4nc(c(-c5c(F)c(F)c(F)c(F)c5F)c5ccc([nH]5)c(-c5c(F)c(F)c(F)c(F)c5F)c5nc(c(-c6c(F)c(F)c(F)c(F)c6F)c6ccc3[nH]6)C=C5)C=C4)cc2)n1C[C@H]1CCCO1
REMARK SMILES IDX 14 1 13 2 12 3 10 4 11 5 9 7 8 8 7 9 4 10 5 11 85 12 6 13
REMARK SMILES IDX 3 14 2 15 1 16 86 17 87 18 88 19 91 20 89 21 90 22 15 23
REMARK SMILES IDX 16 24 17 25 18 26 19 27 20 28 21 30 22 31 23 32 84 33 24 34
REMARK SMILES IDX 83 35 25 36 26 37 27 38 77 39 28 40 82 41 76 42 78 43 29 44
REMARK SMILES IDX 81 45 75 46 74 47 30 49 62 50 42 51 61 52 43 53 46 54 60 55
REMARK SMILES IDX 79 56 44 57 45 58 59 60 80 61 47 62 31 63 32 64 40 65 33 66
REMARK SMILES IDX 34 67 38 68 41 69 35 70 36 71 39 72 37 73 63 74 64 75 72 76
REMARK SMILES IDX 65 77 66 78 70 79 73 80 67 81 68 82 71 83 69 84 48 85 49 86
REMARK SMILES IDX 57 87 50 88 51 89 55 90 58 91 52 92 53 93 56 94 54 95
REMARK H PARENT 12 6 19 29 78 48 46 59
REMARK Flexibility Score: inf
ROOT
ATOM      1  C   UNL A   1      39.152  22.804  26.264  1.00  0.00     0.021 C 
ENDROOT
BRANCH   1   2
ATOM      2  C   UNL A   1      38.052  21.954  25.633  1.00  0.00     0.116 C 
BRANCH   2   3
ATOM      3  N   UNL A   1      37.713  22.492  24.341  1.00  0.00    -0.355 N 
ATOM      4  C   UNL A   1      36.482  22.920  23.974  1.00  0.00     0.230 C 
ATOM      5  O   UNL A   1      36.215  23.004  22.778  1.00  0.00    -0.274 OA
ATOM      6  H   UNL A   1      38.432  22.554  23.672  1.00  0.00     0.163 HD
BRANCH   4   7
ATOM      7  C   UNL A   1      35.565  23.409  25.057  1.00  0.00     0.178 C 
BRANCH   7   8
ATOM      8  S   UNL A   1      33.903  22.800  25.064  1.00  0.00    -0.076 SA
BRANCH   8   9
ATOM      9  C   UNL A   1      32.859  24.004  25.712  1.00  0.00     0.191 A 
ATOM     10  C   UNL A   1      31.439  25.624  26.016  1.00  0.00     0.133 A 
ATOM     11  N   UNL A   1      31.191  24.688  26.909  1.00  0.00    -0.134 NA
ATOM     12  N   UNL A   1      32.626  25.314  25.352  1.00  0.00    -0.303 N 
ATOM     13  N   UNL A   1      32.087  23.688  26.727  1.00  0.00    -0.123 NA
BRANCH  10  14
ATOM     14  C   UNL A   1      30.503  26.748  25.707  1.00  0.00     0.077 C 
BRANCH  14  15
ATOM     15  C   UNL A   1      30.067  26.780  24.240  1.00  0.00     0.005 C 
ATOM     16  C   UNL A   1      28.640  26.284  24.051  1.00  0.00     0.004 C 
ENDBRANCH  14  15
ENDBRANCH  10  14
BRANCH  12  17
ATOM     17  C   UNL A   1      33.246  26.148  24.348  1.00  0.00     0.158 C 
BRANCH  17  18
ATOM     18  C   UNL A   1      33.994  27.460  24.713  1.00  0.00     0.138 C 
ATOM     19  C   UNL A   1      33.382  28.850  24.547  1.00  0.00     0.036 C 
ATOM     20  O   UNL A   1      34.319  27.365  26.121  1.00  0.00    -0.376 OA
ATOM     21  C   UNL A   1      32.918  29.291  25.922  1.00  0.00     0.031 C 
ATOM     22  C   UNL A   1      33.630  28.366  26.878  1.00  0.00     0.160 C 
ENDBRANCH  17  18
ENDBRANCH  12  17
ENDBRANCH   8   9
ENDBRANCH   7   8
ENDBRANCH   4   7
ENDBRANCH   2   3
ENDBRANCH   1   2
BRANCH   1  23
ATOM     23  C   UNL A   1      40.239  21.977  26.958  1.00  0.00     0.002 C 
BRANCH  23  24
ATOM     24  C   UNL A   1      40.165  20.464  26.710  1.00  0.00     0.002 C 
BRANCH  24  25
ATOM     25  C   UNL A   1      41.268  19.874  25.821  1.00  0.00     0.021 C 
BRANCH  25  26
ATOM     26  C   UNL A   1      42.595  19.740  26.531  1.00  0.00     0.116 C 
BRANCH  26  27
ATOM     27  N   UNL A   1      43.696  19.659  25.585  1.00  0.00    -0.352 N 
ATOM     28  C   UNL A   1      44.286  20.696  24.912  1.00  0.00     0.251 C 
ATOM     29  H   UNL A   1      44.059  18.761  25.408  1.00  0.00     0.163 HD
ATOM     30  O   UNL A   1      44.931  20.501  23.877  1.00  0.00    -0.269 OA
BRANCH  28  31
ATOM     31  C   UNL A   1      44.132  22.052  25.447  1.00  0.00     0.039 A 
ATOM     32  C   UNL A   1      43.181  22.924  24.914  1.00  0.00     0.014 A 
ATOM     33  C   UNL A   1      44.940  22.431  26.519  1.00  0.00     0.014 A 
ATOM     34  C   UNL A   1      43.019  24.170  25.503  1.00  0.00     0.010 A 
ATOM     35  C   UNL A   1      44.674  23.594  27.192  1.00  0.00     0.010 A 
ATOM     36  C   UNL A   1      43.765  24.493  26.649  1.00  0.00    -0.014 A 
BRANCH  36  37
ATOM     37  C   UNL A   1      43.539  25.754  27.336  1.00  0.00     0.031 A 
ATOM     38  C   UNL A   1      44.477  26.847  26.963  1.00  0.00     0.074 A 
ATOM     39  C   UNL A   1      42.452  25.973  28.104  1.00  0.00     0.049 A 
ATOM     40  N   UNL A   1      45.338  27.438  27.723  1.00  0.00    -0.248 NA
ATOM     41  C   UNL A   1      44.556  27.250  25.549  1.00  0.00     0.031 C 
ATOM     42  C   UNL A   1      41.284  25.112  28.319  1.00  0.00     0.029 A 
ATOM     43  N   UNL A   1      42.119  27.097  28.790  1.00  0.00    -0.354 N 
ATOM     44  C   UNL A   1      45.950  28.409  26.936  1.00  0.00     0.074 A 
ATOM     45  C   UNL A   1      45.545  28.146  25.580  1.00  0.00     0.031 C 
ATOM     46  C   UNL A   1      40.282  25.837  28.864  1.00  0.00     0.029 A 
ATOM     47  C   UNL A   1      40.791  27.155  29.191  1.00  0.00     0.049 A 
ATOM     48  H   UNL A   1      42.766  27.812  28.986  1.00  0.00     0.167 HD
ATOM     49  C   UNL A   1      46.565  29.485  27.502  1.00  0.00     0.037 A 
ATOM     50  C   UNL A   1      40.160  28.240  29.703  1.00  0.00     0.037 A 
ATOM     51  C   UNL A   1      46.846  29.249  28.897  1.00  0.00     0.049 A 
ATOM     52  C   UNL A   1      41.213  29.159  30.211  1.00  0.00     0.074 A 
ATOM     53  C   UNL A   1      47.577  28.293  29.578  1.00  0.00     0.029 A 
ATOM     54  N   UNL A   1      46.016  29.811  29.836  1.00  0.00    -0.354 N 
ATOM     55  N   UNL A   1      41.978  28.884  31.234  1.00  0.00    -0.248 NA
ATOM     56  C   UNL A   1      41.747  30.146  29.280  1.00  0.00     0.031 C 
ATOM     57  C   UNL A   1      46.780  27.968  30.715  1.00  0.00     0.029 A 
ATOM     58  C   UNL A   1      45.665  28.808  30.706  1.00  0.00     0.049 A 
ATOM     59  H   UNL A   1      45.728  30.753  29.879  1.00  0.00     0.167 HD
ATOM     60  C   UNL A   1      43.242  29.314  30.856  1.00  0.00     0.074 A 
ATOM     61  C   UNL A   1      43.025  30.144  29.671  1.00  0.00     0.031 C 
ATOM     62  C   UNL A   1      44.373  28.725  31.345  1.00  0.00     0.037 A 
BRANCH  49  63
ATOM     63  C   UNL A   1      46.594  30.866  26.898  1.00  0.00     0.064 A 
ATOM     64  C   UNL A   1      47.806  31.585  26.876  1.00  0.00     0.173 A 
ATOM     65  C   UNL A   1      45.435  31.623  26.620  1.00  0.00     0.173 A 
ATOM     66  F   UNL A   1      48.970  30.972  27.146  1.00  0.00    -0.203 F 
ATOM     67  C   UNL A   1      47.843  32.966  26.670  1.00  0.00     0.198 A 
ATOM     68  C   UNL A   1      45.481  32.990  26.361  1.00  0.00     0.198 A 
ATOM     69  F   UNL A   1      44.206  31.099  26.698  1.00  0.00    -0.203 F 
ATOM     70  F   UNL A   1      49.004  33.626  26.785  1.00  0.00    -0.200 F 
ATOM     71  C   UNL A   1      46.680  33.669  26.419  1.00  0.00     0.200 A 
ATOM     72  F   UNL A   1      44.338  33.656  26.137  1.00  0.00    -0.200 F 
ATOM     73  F   UNL A   1      46.702  35.001  26.283  1.00  0.00    -0.200 F 
ENDBRANCH  49  63
BRANCH  50  74
ATOM     74  C   UNL A   1      38.759  28.664  29.460  1.00  0.00     0.064 A 
ATOM     75  C   UNL A   1      37.889  28.944  30.525  1.00  0.00     0.173 A 
ATOM     76  C   UNL A   1      38.323  29.059  28.179  1.00  0.00     0.173 A 
ATOM     77  F   UNL A   1      38.249  28.649  31.783  1.00  0.00    -0.203 F 
ATOM     78  C   UNL A   1      36.667  29.597  30.324  1.00  0.00     0.198 A 
ATOM     79  C   UNL A   1      37.102  29.703  27.977  1.00  0.00     0.198 A 
ATOM     80  F   UNL A   1      39.116  28.918  27.106  1.00  0.00    -0.203 F 
ATOM     81  F   UNL A   1      35.892  29.903  31.373  1.00  0.00    -0.200 F 
ATOM     82  C   UNL A   1      36.279  29.984  29.051  1.00  0.00     0.200 A 
ATOM     83  F   UNL A   1      36.759  30.110  26.747  1.00  0.00    -0.200 F 
ATOM     84  F   UNL A   1      35.139  30.663  28.867  1.00  0.00    -0.200 F 
ENDBRANCH  50  74
BRANCH  62  85
ATOM     85  C   UNL A   1      44.241  27.736  32.472  1.00  0.00     0.064 A 
ATOM     86  C   UNL A   1      44.091  26.348  32.292  1.00  0.00     0.173 A 
ATOM     87  C   UNL A   1      44.445  28.191  33.781  1.00  0.00     0.173 A 
ATOM     88  F   UNL A   1      44.000  25.815  31.068  1.00  0.00    -0.203 F 
ATOM     89  C   UNL A   1      44.104  25.470  33.374  1.00  0.00     0.198 A 
ATOM     90  C   UNL A   1      44.496  27.308  34.857  1.00  0.00     0.198 A 
ATOM     91  F   UNL A   1      44.652  29.497  34.014  1.00  0.00    -0.203 F 
ATOM     92  F   UNL A   1      43.952  24.151  33.173  1.00  0.00    -0.200 F 
ATOM     93  C   UNL A   1      44.314  25.949  34.656  1.00  0.00     0.200 A 
ATOM     94  F   UNL A   1      44.753  27.772  36.087  1.00  0.00    -0.200 F 
ATOM     95  F   UNL A   1      44.372  25.101  35.692  1.00  0.00    -0.200 F 
ENDBRANCH  62  85
ENDBRANCH  36  37
ENDBRANCH  28  31
ENDBRANCH  26  27
ENDBRANCH  25  26
ENDBRANCH  24  25
ENDBRANCH  23  24
ENDBRANCH   1  23
TORSDOF 19
ENDMDL
MODEL 3
REMARK VINA RESULT:     -10.8      3.013      8.688
REMARK SMILES CCCc1nnc(SCC(=O)NCCCCCCNC(=O)c2ccc(-c3c4nc(c(-c5c(F)c(F)c(F)c(F)c5F)c5ccc([nH]5)c(-c5c(F)c(F)c(F)c(F)c5F)c5nc(c(-c6c(F)c(F)c(F)c(F)c6F)c6ccc3[nH]6)C=C5)C=C4)cc2)n1C[C@H]1CCCO1
REMARK SMILES IDX 14 1 13 2 12 3 10 4 11 5 9 7 8 8 7 9 4 10 5 11 85 12 6 13
REMARK SMILES IDX 3 14 2 15 1 16 86 17 87 18 88 19 91 20 89 21 90 22 15 23
REMARK SMILES IDX 16 24 17 25 18 26 19 27 20 28 21 30 22 31 23 32 84 33 24 34
REMARK SMILES IDX 83 35 25 36 26 37 27 38 77 39 28 40 82 41 76 42 78 43 29 44
REMARK SMILES IDX 81 45 75 46 74 47 30 49 62 50 42 51 61 52 43 53 46 54 60 55
REMARK SMILES IDX 79 56 44 57 45 58 59 60 80 61 47 62 31 63 32 64 40 65 33 66
REMARK SMILES IDX 34 67 38 68 41 69 35 70 36 71 39 72 37 73 63 74 64 75 72 76
REMARK SMILES IDX 65 77 66 78 70 79 73 80 67 81 68 82 71 83 69 84 48 85 49 86
REMARK SMILES IDX 57 87 50 88 51 89 55 90 58 91 52 92 53 93 56 94 54 95
REMARK H PARENT 12 6 19 29 78 48 46 59
REMARK Flexibility Score: inf
ROOT
ATOM      1  C   UNL A   1      32.337  28.529  25.512  1.00  0.00     0.021 C 
ENDROOT
BRANCH   1   2
ATOM      2  C   UNL A   1      31.628  27.723  24.427  1.00  0.00     0.116 C 
BRANCH   2   3
ATOM      3  N   UNL A   1      32.418  27.743  23.223  1.00  0.00    -0.355 N 
ATOM      4  C   UNL A   1      32.929  26.650  22.609  1.00  0.00     0.230 C 
ATOM      5  O   UNL A   1      33.871  26.792  21.833  1.00  0.00    -0.274 OA
ATOM      6  H   UNL A   1      32.601  28.619  22.815  1.00  0.00     0.163 HD
BRANCH   4   7
ATOM      7  C   UNL A   1      32.213  25.345  22.803  1.00  0.00     0.178 C 
BRANCH   7   8
ATOM      8  S   UNL A   1      32.589  24.410  24.257  1.00  0.00    -0.076 SA
BRANCH   8   9
ATOM      9  C   UNL A   1      32.694  22.742  23.848  1.00  0.00     0.191 A 
ATOM     10  C   UNL A   1      32.669  20.566  23.836  1.00  0.00     0.133 A 
ATOM     11  N   UNL A   1      32.171  20.988  22.693  1.00  0.00    -0.134 NA
ATOM     12  N   UNL A   1      33.198  21.654  24.529  1.00  0.00    -0.303 N 
ATOM     13  N   UNL A   1      32.203  22.343  22.697  1.00  0.00    -0.123 NA
BRANCH  10  14
ATOM     14  C   UNL A   1      32.545  19.160  24.329  1.00  0.00     0.077 C 
BRANCH  14  15
ATOM     15  C   UNL A   1      33.834  18.352  24.165  1.00  0.00     0.005 C 
ATOM     16  C   UNL A   1      33.592  17.009  23.489  1.00  0.00     0.004 C 
ENDBRANCH  14  15
ENDBRANCH  10  14
BRANCH  12  17
ATOM     17  C   UNL A   1      33.887  21.564  25.797  1.00  0.00     0.158 C 
BRANCH  17  18
ATOM     18  C   UNL A   1      35.422  21.765  25.917  1.00  0.00     0.138 C 
ATOM     19  C   UNL A   1      36.437  21.039  25.036  1.00  0.00     0.036 C 
ATOM     20  O   UNL A   1      35.668  23.173  25.681  1.00  0.00    -0.376 OA
ATOM     21  C   UNL A   1      36.870  22.023  23.965  1.00  0.00     0.031 C 
ATOM     22  C   UNL A   1      36.435  23.369  24.489  1.00  0.00     0.160 C 
ENDBRANCH  17  18
ENDBRANCH  12  17
ENDBRANCH   8   9
ENDBRANCH   7   8
ENDBRANCH   4   7
ENDBRANCH   2   3
ENDBRANCH   1   2
BRANCH   1  23
ATOM     23  C   UNL A   1      33.645  27.889  25.989  1.00  0.00     0.002 C 
BRANCH  23  24
ATOM     24  C   UNL A   1      34.447  28.722  26.998  1.00  0.00     0.002 C 
BRANCH  24  25
ATOM     25  C   UNL A   1      33.813  30.052  27.428  1.00  0.00     0.021 C 
BRANCH  25  26
ATOM     26  C   UNL A   1      34.810  31.185  27.517  1.00  0.00     0.116 C 
BRANCH  26  27
ATOM     27  N   UNL A   1      34.542  32.037  28.664  1.00  0.00    -0.352 N 
ATOM     28  C   UNL A   1      35.090  31.935  29.915  1.00  0.00     0.251 C 
ATOM     29  H   UNL A   1      33.897  32.768  28.527  1.00  0.00     0.163 HD
ATOM     30  O   UNL A   1      34.538  32.441  30.897  1.00  0.00    -0.269 OA
BRANCH  28  31
ATOM     31  C   UNL A   1      36.353  31.206  30.067  1.00  0.00     0.039 A 
ATOM     32  C   UNL A   1      36.356  29.827  30.282  1.00  0.00     0.014 A 
ATOM     33  C   UNL A   1      37.544  31.925  29.959  1.00  0.00     0.014 A 
ATOM     34  C   UNL A   1      37.576  29.168  30.343  1.00  0.00     0.010 A 
ATOM     35  C   UNL A   1      38.735  31.255  29.865  1.00  0.00     0.010 A 
ATOM     36  C   UNL A   1      38.762  29.890  30.124  1.00  0.00    -0.014 A 
BRANCH  36  37
ATOM     37  C   UNL A   1      40.041  29.200  30.087  1.00  0.00     0.031 A 
ATOM     38  C   UNL A   1      40.681  28.997  31.415  1.00  0.00     0.074 A 
ATOM     39  C   UNL A   1      40.518  28.622  28.965  1.00  0.00     0.049 A 
ATOM     40  N   UNL A   1      41.798  29.492  31.833  1.00  0.00    -0.248 NA
ATOM     41  C   UNL A   1      39.935  28.257  32.445  1.00  0.00     0.031 C 
ATOM     42  C   UNL A   1      39.867  28.463  27.660  1.00  0.00     0.029 A 
ATOM     43  N   UNL A   1      41.684  27.947  28.797  1.00  0.00    -0.354 N 
ATOM     44  C   UNL A   1      41.991  28.989  33.117  1.00  0.00     0.074 A 
ATOM     45  C   UNL A   1      40.749  28.366  33.498  1.00  0.00     0.031 C 
ATOM     46  C   UNL A   1      40.531  27.537  26.934  1.00  0.00     0.029 A 
ATOM     47  C   UNL A   1      41.738  27.170  27.649  1.00  0.00     0.049 A 
ATOM     48  H   UNL A   1      42.429  28.005  29.438  1.00  0.00     0.167 HD
ATOM     49  C   UNL A   1      43.234  28.937  33.670  1.00  0.00     0.037 A 
ATOM     50  C   UNL A   1      42.691  26.252  27.352  1.00  0.00     0.037 A 
ATOM     51  C   UNL A   1      44.150  29.807  32.975  1.00  0.00     0.049 A 
ATOM     52  C   UNL A   1      43.881  26.572  28.186  1.00  0.00     0.074 A 
ATOM     53  C   UNL A   1      44.168  31.164  32.711  1.00  0.00     0.029 A 
ATOM     54  N   UNL A   1      45.029  29.249  32.078  1.00  0.00    -0.354 N 
ATOM     55  N   UNL A   1      44.601  27.651  28.031  1.00  0.00    -0.248 NA
ATOM     56  C   UNL A   1      43.963  25.952  29.503  1.00  0.00     0.031 C 
ATOM     57  C   UNL A   1      44.616  31.266  31.361  1.00  0.00     0.029 A 
ATOM     58  C   UNL A   1      44.930  29.980  30.920  1.00  0.00     0.049 A 
ATOM     59  H   UNL A   1      45.618  28.475  32.235  1.00  0.00     0.167 HD
ATOM     60  C   UNL A   1      44.870  28.085  29.321  1.00  0.00     0.074 A 
ATOM     61  C   UNL A   1      44.509  26.962  30.186  1.00  0.00     0.031 C 
ATOM     62  C   UNL A   1      45.072  29.406  29.602  1.00  0.00     0.037 A 
BRANCH  49  63
ATOM     63  C   UNL A   1      43.708  27.851  34.603  1.00  0.00     0.064 A 
ATOM     64  C   UNL A   1      43.696  26.511  34.167  1.00  0.00     0.173 A 
ATOM     65  C   UNL A   1      43.882  28.035  35.992  1.00  0.00     0.173 A 
ATOM     66  F   UNL A   1      43.517  26.216  32.869  1.00  0.00    -0.203 F 
ATOM     67  C   UNL A   1      43.774  25.441  35.061  1.00  0.00     0.198 A 
ATOM     68  C   UNL A   1      44.014  26.966  36.875  1.00  0.00     0.198 A 
ATOM     69  F   UNL A   1      43.819  29.243  36.564  1.00  0.00    -0.203 F 
ATOM     70  F   UNL A   1      43.630  24.186  34.613  1.00  0.00    -0.200 F 
ATOM     71  C   UNL A   1      43.926  25.669  36.416  1.00  0.00     0.200 A 
ATOM     72  F   UNL A   1      44.144  27.210  38.188  1.00  0.00    -0.200 F 
ATOM     73  F   UNL A   1      43.939  24.649  37.284  1.00  0.00    -0.200 F 
ENDBRANCH  49  63
BRANCH  50  74
ATOM     74  C   UNL A   1      42.503  24.947  26.670  1.00  0.00     0.064 A 
ATOM     75  C   UNL A   1      43.263  24.601  25.543  1.00  0.00     0.173 A 
ATOM     76  C   UNL A   1      41.765  23.906  27.269  1.00  0.00     0.173 A 
ATOM     77  F   UNL A   1      44.037  25.519  24.944  1.00  0.00    -0.203 F 
ATOM     78  C   UNL A   1      43.296  23.290  25.054  1.00  0.00     0.198 A 
ATOM     79  C   UNL A   1      41.792  22.600  26.777  1.00  0.00     0.198 A 
ATOM     80  F   UNL A   1      41.077  24.111  28.402  1.00  0.00    -0.203 F 
ATOM     81  F   UNL A   1      44.082  22.984  24.012  1.00  0.00    -0.200 F 
ATOM     82  C   UNL A   1      42.568  22.289  25.677  1.00  0.00     0.200 A 
ATOM     83  F   UNL A   1      41.117  21.634  27.416  1.00  0.00    -0.200 F 
ATOM     84  F   UNL A   1      42.648  21.023  25.246  1.00  0.00    -0.200 F 
ENDBRANCH  50  74
BRANCH  62  85
ATOM     85  C   UNL A   1      45.214  30.373  28.457  1.00  0.00     0.064 A 
ATOM     86  C   UNL A   1      44.137  31.048  27.855  1.00  0.00     0.173 A 
ATOM     87  C   UNL A   1      46.505  30.759  28.071  1.00  0.00     0.173 A 
ATOM     88  F   UNL A   1      42.876  30.822  28.240  1.00  0.00    -0.203 F 
ATOM     89  C   UNL A   1      44.344  32.028  26.886  1.00  0.00     0.198 A 
ATOM     90  C   UNL A   1      46.710  31.766  27.131  1.00  0.00     0.198 A 
ATOM     91  F   UNL A   1      47.576  30.195  28.651  1.00  0.00    -0.203 F 
ATOM     92  F   UNL A   1      43.296  32.651  26.322  1.00  0.00    -0.200 F 
ATOM     93  C   UNL A   1      45.632  32.392  26.530  1.00  0.00     0.200 A 
ATOM     94  F   UNL A   1      47.959  32.150  26.831  1.00  0.00    -0.200 F 
ATOM     95  F   UNL A   1      45.833  33.366  25.631  1.00  0.00    -0.200 F 
ENDBRANCH  62  85
ENDBRANCH  36  37
ENDBRANCH  28  31
ENDBRANCH  26  27
ENDBRANCH  25  26
ENDBRANCH  24  25
ENDBRANCH  23  24
ENDBRANCH   1  23
TORSDOF 19
ENDMDL
