MODEL 1
REMARK VINA RESULT:     -13.0      0.000      0.000
REMARK SMILES Cc1nn(Cc2ccc(Cl)cc2Cl)c(C)c1NC(=O)c1c(C(=O)NCCCCCCNC(=O)c2ccc(-c3c4nc(c(-c5c(F)c(F)c(F)c(F)c5F)c5ccc([nH]5)c(-c5c(F)c(F)c(F)c(F)c5F)c5nc(c(-c6c(F)c(F)c(F)c(F)c6F)c6ccc3[nH]6)C=C5)C=C4)cc2)cnn1C
REMARK SMILES IDX 26 1 25 2 24 3 22 4 23 5 21 7 20 8 99 9 97 10 98 11 100 12
REMARK SMILES IDX 18 13 17 14 19 16 16 17 1 18 2 19 3 20 4 21 14 22 15 23 5 24
REMARK SMILES IDX 6 25 7 26 12 27 8 28 11 29 13 30 9 31 10 32 27 33 28 34
REMARK SMILES IDX 29 35 30 36 31 37 32 38 33 40 34 41 35 42 96 43 36 44 95 45
REMARK SMILES IDX 37 46 38 47 39 48 89 49 40 50 94 51 88 52 90 53 41 54 93 55
REMARK SMILES IDX 87 56 86 57 42 59 74 60 54 61 73 62 55 63 58 64 72 65 91 66
REMARK SMILES IDX 56 67 57 68 71 70 92 71 59 72 43 73 44 74 52 75 45 76 46 77
REMARK SMILES IDX 50 78 53 79 47 80 48 81 51 82 49 83 75 84 76 85 84 86 77 87
REMARK SMILES IDX 78 88 82 89 85 90 79 91 80 92 83 93 81 94 60 95 61 96 69 97
REMARK SMILES IDX 62 98 63 99 67 100 70 101 64 102 65 103 68 104 66 105
REMARK H PARENT 24 6 17 15 31 39 90 58 58 69
REMARK Flexibility Score: inf
ROOT
ATOM      1  C   UNL A   1      37.824  24.084  25.822  1.00  0.00     0.021 C 
ENDROOT
BRANCH   1   2
ATOM      2  C   UNL A   1      36.353  23.714  25.590  1.00  0.00     0.116 C 
BRANCH   2   3
ATOM      3  N   UNL A   1      35.899  23.783  24.210  1.00  0.00    -0.352 N 
ATOM      4  C   UNL A   1      35.039  22.984  23.491  1.00  0.00     0.255 C 
ATOM      5  O   UNL A   1      34.720  23.372  22.360  1.00  0.00    -0.269 OA
ATOM      6  H   UNL A   1      36.274  24.537  23.698  1.00  0.00     0.163 HD
BRANCH   4   7
ATOM      7  C   UNL A   1      34.557  21.720  24.020  1.00  0.00     0.090 A 
ATOM      8  C   UNL A   1      33.320  21.126  23.746  1.00  0.00     0.138 A 
ATOM      9  N   UNL A   1      33.318  19.941  24.447  1.00  0.00    -0.262 N 
ATOM     10  C   UNL A   1      35.152  20.841  24.953  1.00  0.00     0.149 A 
ATOM     11  N   UNL A   1      34.436  19.740  25.169  1.00  0.00    -0.180 NA
ATOM     12  C   UNL A   1      32.363  18.857  24.358  1.00  0.00     0.174 C 
BRANCH   8  13
ATOM     13  C   UNL A   1      32.185  21.573  22.970  1.00  0.00     0.274 C 
ATOM     14  N   UNL A   1      31.427  22.663  23.328  1.00  0.00    -0.317 N 
ATOM     15  H   UNL A   1      30.591  22.758  22.816  1.00  0.00     0.170 HD
ATOM     16  O   UNL A   1      31.846  20.975  21.946  1.00  0.00    -0.267 OA
BRANCH  14  17
ATOM     17  C   UNL A   1      31.623  23.645  24.274  1.00  0.00     0.085 A 
ATOM     18  C   UNL A   1      30.471  22.529  26.359  1.00  0.00     0.071 C 
ATOM     19  C   UNL A   1      31.263  23.567  25.653  1.00  0.00     0.083 A 
ATOM     20  N   UNL A   1      31.779  24.586  26.352  1.00  0.00    -0.175 NA
ATOM     21  N   UNL A   1      32.395  25.326  25.415  1.00  0.00    -0.263 N 
ATOM     22  C   UNL A   1      32.099  24.931  24.133  1.00  0.00     0.060 A 
ATOM     23  C   UNL A   1      32.304  25.834  22.975  1.00  0.00     0.069 C 
BRANCH  21  24
ATOM     24  C   UNL A   1      33.482  26.223  25.792  1.00  0.00     0.181 C 
BRANCH  24  25
ATOM     25  C   UNL A   1      33.039  27.641  25.996  1.00  0.00    -0.008 A 
ATOM     26  C   UNL A   1      32.307  27.937  27.157  1.00  0.00     0.009 A 
ATOM     27  C   UNL A   1      33.307  28.675  25.083  1.00  0.00     0.047 A 
ATOM     28  C   UNL A   1      31.793  29.211  27.364  1.00  0.00     0.021 A 
ATOM     29  C   UNL A   1      32.763  29.948  25.276  1.00  0.00     0.041 A 
ATOM     30  Cl  UNL A   1      34.338  28.460  23.712  1.00  0.00    -0.084 Cl
ATOM     31  C   UNL A   1      31.993  30.199  26.408  1.00  0.00     0.042 A 
ATOM     32  Cl  UNL A   1      31.253  31.728  26.652  1.00  0.00    -0.084 Cl
ENDBRANCH  24  25
ENDBRANCH  21  24
ENDBRANCH  14  17
ENDBRANCH   8  13
ENDBRANCH   4   7
ENDBRANCH   2   3
ENDBRANCH   1   2
BRANCH   1  33
ATOM     33  C   UNL A   1      38.653  23.148  26.700  1.00  0.00     0.002 C 
BRANCH  33  34
ATOM     34  C   UNL A   1      39.059  21.829  26.039  1.00  0.00     0.002 C 
BRANCH  34  35
ATOM     35  C   UNL A   1      40.173  21.042  26.744  1.00  0.00     0.021 C 
BRANCH  35  36
ATOM     36  C   UNL A   1      41.304  21.902  27.289  1.00  0.00     0.116 C 
BRANCH  36  37
ATOM     37  N   UNL A   1      42.323  22.204  26.288  1.00  0.00    -0.352 N 
ATOM     38  C   UNL A   1      42.666  23.443  25.792  1.00  0.00     0.251 C 
ATOM     39  H   UNL A   1      42.822  21.436  25.928  1.00  0.00     0.163 HD
ATOM     40  O   UNL A   1      43.230  23.553  24.702  1.00  0.00    -0.269 OA
BRANCH  38  41
ATOM     41  C   UNL A   1      42.358  24.643  26.587  1.00  0.00     0.039 A 
ATOM     42  C   UNL A   1      43.037  24.922  27.776  1.00  0.00     0.014 A 
ATOM     43  C   UNL A   1      41.356  25.497  26.127  1.00  0.00     0.014 A 
ATOM     44  C   UNL A   1      42.734  26.094  28.463  1.00  0.00     0.010 A 
ATOM     45  C   UNL A   1      41.168  26.721  26.716  1.00  0.00     0.010 A 
ATOM     46  C   UNL A   1      41.803  26.997  27.918  1.00  0.00    -0.014 A 
BRANCH  46  47
ATOM     47  C   UNL A   1      41.561  28.288  28.552  1.00  0.00     0.031 A 
ATOM     48  C   UNL A   1      42.574  29.330  28.220  1.00  0.00     0.074 A 
ATOM     49  C   UNL A   1      40.426  28.589  29.221  1.00  0.00     0.049 A 
ATOM     50  N   UNL A   1      43.400  29.914  29.022  1.00  0.00    -0.248 NA
ATOM     51  C   UNL A   1      42.776  29.672  26.801  1.00  0.00     0.031 C 
ATOM     52  C   UNL A   1      39.194  27.802  29.362  1.00  0.00     0.029 A 
ATOM     53  N   UNL A   1      40.109  29.743  29.868  1.00  0.00    -0.354 N 
ATOM     54  C   UNL A   1      44.115  30.824  28.246  1.00  0.00     0.074 A 
ATOM     55  C   UNL A   1      43.799  30.526  26.874  1.00  0.00     0.031 C 
ATOM     56  C   UNL A   1      38.202  28.587  29.841  1.00  0.00     0.029 A 
ATOM     57  C   UNL A   1      38.769  29.868  30.217  1.00  0.00     0.049 A 
ATOM     58  H   UNL A   1      40.776  30.437  30.073  1.00  0.00     0.167 HD
ATOM     59  C   UNL A   1      44.745  31.891  28.813  1.00  0.00     0.037 A 
ATOM     60  C   UNL A   1      38.176  30.963  30.756  1.00  0.00     0.037 A 
ATOM     61  C   UNL A   1      44.943  31.686  30.226  1.00  0.00     0.049 A 
ATOM     62  C   UNL A   1      39.245  31.817  31.325  1.00  0.00     0.074 A 
ATOM     63  C   UNL A   1      45.626  30.744  30.973  1.00  0.00     0.029 A 
ATOM     64  N   UNL A   1      44.063  32.276  31.100  1.00  0.00    -0.354 N 
ATOM     65  N   UNL A   1      39.962  31.482  32.360  1.00  0.00    -0.248 NA
ATOM     66  C   UNL A   1      39.835  32.813  30.443  1.00  0.00     0.031 C 
ATOM     67  C   UNL A   1      44.769  30.461  32.078  1.00  0.00     0.029 A 
ATOM     68  C   UNL A   1      43.662  31.306  31.985  1.00  0.00     0.049 A 
ATOM     69  H   UNL A   1      43.776  33.218  31.094  1.00  0.00     0.167 HD
ATOM     70  C   UNL A   1      41.249  31.881  32.036  1.00  0.00     0.074 A 
ATOM     71  C   UNL A   1      41.099  32.751  30.870  1.00  0.00     0.031 C 
ATOM     72  C   UNL A   1      42.338  31.244  32.555  1.00  0.00     0.037 A 
BRANCH  59  73
ATOM     73  C   UNL A   1      44.871  33.243  28.160  1.00  0.00     0.064 A 
ATOM     74  C   UNL A   1      46.139  33.703  27.754  1.00  0.00     0.173 A 
ATOM     75  C   UNL A   1      43.849  34.218  28.179  1.00  0.00     0.173 A 
ATOM     76  F   UNL A   1      47.191  32.871  27.726  1.00  0.00    -0.203 F 
ATOM     77  C   UNL A   1      46.376  35.048  27.453  1.00  0.00     0.198 A 
ATOM     78  C   UNL A   1      44.077  35.547  27.826  1.00  0.00     0.198 A 
ATOM     79  F   UNL A   1      42.623  33.956  28.646  1.00  0.00    -0.203 F 
ATOM     80  F   UNL A   1      47.623  35.461  27.188  1.00  0.00    -0.200 F 
ATOM     81  C   UNL A   1      45.345  35.969  27.493  1.00  0.00     0.200 A 
ATOM     82  F   UNL A   1      43.068  36.427  27.895  1.00  0.00    -0.200 F 
ATOM     83  F   UNL A   1      45.581  37.267  27.260  1.00  0.00    -0.200 F 
ENDBRANCH  59  73
BRANCH  60  84
ATOM     84  C   UNL A   1      36.833  31.507  30.454  1.00  0.00     0.064 A 
ATOM     85  C   UNL A   1      35.948  31.889  31.473  1.00  0.00     0.173 A 
ATOM     86  C   UNL A   1      36.527  31.952  29.156  1.00  0.00     0.173 A 
ATOM     87  F   UNL A   1      36.216  31.573  32.750  1.00  0.00    -0.203 F 
ATOM     88  C   UNL A   1      34.814  32.665  31.206  1.00  0.00     0.198 A 
ATOM     89  C   UNL A   1      35.402  32.735  28.891  1.00  0.00     0.198 A 
ATOM     90  F   UNL A   1      37.361  31.702  28.135  1.00  0.00    -0.203 F 
ATOM     91  F   UNL A   1      34.016  33.056  32.210  1.00  0.00    -0.200 F 
ATOM     92  C   UNL A   1      34.544  33.089  29.915  1.00  0.00     0.200 A 
ATOM     93  F   UNL A   1      35.179  33.175  27.644  1.00  0.00    -0.200 F 
ATOM     94  F   UNL A   1      33.486  33.874  29.663  1.00  0.00    -0.200 F 
ENDBRANCH  60  84
BRANCH  72  95
ATOM     95  C   UNL A   1      42.108  30.240  33.654  1.00  0.00     0.064 A 
ATOM     96  C   UNL A   1      41.778  28.888  33.438  1.00  0.00     0.173 A 
ATOM     97  C   UNL A   1      42.372  30.629  34.973  1.00  0.00     0.173 A 
ATOM     98  F   UNL A   1      41.607  28.408  32.202  1.00  0.00    -0.203 F 
ATOM     99  C   UNL A   1      41.676  27.987  34.497  1.00  0.00     0.198 A 
ATOM    100  C   UNL A   1      42.305  29.719  36.025  1.00  0.00     0.198 A 
ATOM    101  F   UNL A   1      42.743  31.892  35.238  1.00  0.00    -0.203 F 
ATOM    102  F   UNL A   1      41.348  26.707  34.263  1.00  0.00    -0.200 F 
ATOM    103  C   UNL A   1      41.947  28.401  35.790  1.00  0.00     0.200 A 
ATOM    104  F   UNL A   1      42.616  30.115  37.267  1.00  0.00    -0.200 F 
ATOM    105  F   UNL A   1      41.889  27.529  36.804  1.00  0.00    -0.200 F 
ENDBRANCH  72  95
ENDBRANCH  46  47
ENDBRANCH  38  41
ENDBRANCH  36  37
ENDBRANCH  35  36
ENDBRANCH  34  35
ENDBRANCH  33  34
ENDBRANCH   1  33
TORSDOF 17
ENDMDL
MODEL 2
REMARK VINA RESULT:     -12.7      2.690      3.706
REMARK SMILES Cc1nn(Cc2ccc(Cl)cc2Cl)c(C)c1NC(=O)c1c(C(=O)NCCCCCCNC(=O)c2ccc(-c3c4nc(c(-c5c(F)c(F)c(F)c(F)c5F)c5ccc([nH]5)c(-c5c(F)c(F)c(F)c(F)c5F)c5nc(c(-c6c(F)c(F)c(F)c(F)c6F)c6ccc3[nH]6)C=C5)C=C4)cc2)cnn1C
REMARK SMILES IDX 26 1 25 2 24 3 22 4 23 5 21 7 20 8 99 9 97 10 98 11 100 12
REMARK SMILES IDX 18 13 17 14 19 16 16 17 1 18 2 19 3 20 4 21 14 22 15 23 5 24
REMARK SMILES IDX 6 25 7 26 12 27 8 28 11 29 13 30 9 31 10 32 27 33 28 34
REMARK SMILES IDX 29 35 30 36 31 37 32 38 33 40 34 41 35 42 96 43 36 44 95 45
REMARK SMILES IDX 37 46 38 47 39 48 89 49 40 50 94 51 88 52 90 53 41 54 93 55
REMARK SMILES IDX 87 56 86 57 42 59 74 60 54 61 73 62 55 63 58 64 72 65 91 66
REMARK SMILES IDX 56 67 57 68 71 70 92 71 59 72 43 73 44 74 52 75 45 76 46 77
REMARK SMILES IDX 50 78 53 79 47 80 48 81 51 82 49 83 75 84 76 85 84 86 77 87
REMARK SMILES IDX 78 88 82 89 85 90 79 91 80 92 83 93 81 94 60 95 61 96 69 97
REMARK SMILES IDX 62 98 63 99 67 100 70 101 64 102 65 103 68 104 66 105
REMARK H PARENT 24 6 17 15 31 39 90 58 58 69
REMARK Flexibility Score: inf
ROOT
ATOM      1  C   UNL A   1      39.722  20.665  26.187  1.00  0.00     0.021 C 
ENDROOT
BRANCH   1   2
ATOM      2  C   UNL A   1      38.614  21.386  25.408  1.00  0.00     0.116 C 
BRANCH   2   3
ATOM      3  N   UNL A   1      38.369  22.766  25.796  1.00  0.00    -0.352 N 
ATOM      4  C   UNL A   1      37.287  23.593  25.592  1.00  0.00     0.255 C 
ATOM      5  O   UNL A   1      37.298  24.689  26.168  1.00  0.00    -0.269 OA
ATOM      6  H   UNL A   1      39.110  23.184  26.293  1.00  0.00     0.163 HD
BRANCH   4   7
ATOM      7  C   UNL A   1      36.199  23.215  24.709  1.00  0.00     0.090 A 
ATOM      8  C   UNL A   1      34.938  22.750  25.100  1.00  0.00     0.138 A 
ATOM      9  N   UNL A   1      34.243  22.543  23.929  1.00  0.00    -0.262 N 
ATOM     10  C   UNL A   1      36.155  23.156  23.297  1.00  0.00     0.149 A 
ATOM     11  N   UNL A   1      34.961  22.808  22.822  1.00  0.00    -0.180 NA
ATOM     12  C   UNL A   1      32.834  22.252  23.772  1.00  0.00     0.174 C 
BRANCH   8  13
ATOM     13  C   UNL A   1      34.380  22.452  26.400  1.00  0.00     0.274 C 
ATOM     14  N   UNL A   1      33.417  23.236  26.990  1.00  0.00    -0.317 N 
ATOM     15  H   UNL A   1      33.247  23.024  27.936  1.00  0.00     0.170 HD
ATOM     16  O   UNL A   1      34.765  21.472  27.042  1.00  0.00    -0.267 OA
BRANCH  14  17
ATOM     17  C   UNL A   1      32.646  24.267  26.496  1.00  0.00     0.085 A 
ATOM     18  C   UNL A   1      30.241  23.246  26.809  1.00  0.00     0.071 C 
ATOM     19  C   UNL A   1      31.219  24.312  26.476  1.00  0.00     0.083 A 
ATOM     20  N   UNL A   1      30.773  25.528  26.138  1.00  0.00    -0.175 NA
ATOM     21  N   UNL A   1      31.901  26.214  25.885  1.00  0.00    -0.263 N 
ATOM     22  C   UNL A   1      33.019  25.417  25.836  1.00  0.00     0.060 A 
ATOM     23  C   UNL A   1      34.263  25.865  25.166  1.00  0.00     0.069 C 
BRANCH  21  24
ATOM     24  C   UNL A   1      31.905  27.670  25.975  1.00  0.00     0.181 C 
BRANCH  24  25
ATOM     25  C   UNL A   1      31.041  28.332  24.945  1.00  0.00    -0.008 A 
ATOM     26  C   UNL A   1      30.401  27.511  24.002  1.00  0.00     0.009 A 
ATOM     27  C   UNL A   1      30.852  29.723  24.868  1.00  0.00     0.047 A 
ATOM     28  C   UNL A   1      29.657  28.067  22.969  1.00  0.00     0.021 A 
ATOM     29  C   UNL A   1      30.129  30.282  23.811  1.00  0.00     0.041 A 
ATOM     30  Cl  UNL A   1      31.453  30.809  26.073  1.00  0.00    -0.084 Cl
ATOM     31  C   UNL A   1      29.554  29.448  22.858  1.00  0.00     0.042 A 
ATOM     32  Cl  UNL A   1      28.713  30.094  21.509  1.00  0.00    -0.084 Cl
ENDBRANCH  24  25
ENDBRANCH  21  24
ENDBRANCH  14  17
ENDBRANCH   8  13
ENDBRANCH   4   7
ENDBRANCH   2   3
ENDBRANCH   1   2
BRANCH   1  33
ATOM     33  C   UNL A   1      40.830  21.526  26.790  1.00  0.00     0.002 C 
BRANCH  33  34
ATOM     34  C   UNL A   1      41.845  20.769  27.649  1.00  0.00     0.002 C 
BRANCH  34  35
ATOM     35  C   UNL A   1      42.484  19.534  26.998  1.00  0.00     0.021 C 
BRANCH  35  36
ATOM     36  C   UNL A   1      42.593  19.607  25.482  1.00  0.00     0.116 C 
BRANCH  36  37
ATOM     37  N   UNL A   1      43.968  19.495  25.003  1.00  0.00    -0.352 N 
ATOM     38  C   UNL A   1      44.822  20.523  24.670  1.00  0.00     0.251 C 
ATOM     39  H   UNL A   1      44.325  18.582  24.910  1.00  0.00     0.163 HD
ATOM     40  O   UNL A   1      45.783  20.329  23.922  1.00  0.00    -0.269 OA
BRANCH  38  41
ATOM     41  C   UNL A   1      44.582  21.863  25.227  1.00  0.00     0.039 A 
ATOM     42  C   UNL A   1      43.633  22.725  24.670  1.00  0.00     0.014 A 
ATOM     43  C   UNL A   1      45.339  22.261  26.330  1.00  0.00     0.014 A 
ATOM     44  C   UNL A   1      43.418  23.964  25.267  1.00  0.00     0.010 A 
ATOM     45  C   UNL A   1      45.019  23.410  27.007  1.00  0.00     0.010 A 
ATOM     46  C   UNL A   1      44.110  24.295  26.447  1.00  0.00    -0.014 A 
BRANCH  46  47
ATOM     47  C   UNL A   1      43.811  25.532  27.161  1.00  0.00     0.031 A 
ATOM     48  C   UNL A   1      44.740  26.654  26.851  1.00  0.00     0.074 A 
ATOM     49  C   UNL A   1      42.687  25.720  27.887  1.00  0.00     0.049 A 
ATOM     50  N   UNL A   1      45.558  27.249  27.653  1.00  0.00    -0.248 NA
ATOM     51  C   UNL A   1      44.862  27.084  25.447  1.00  0.00     0.031 C 
ATOM     52  C   UNL A   1      41.515  24.846  28.029  1.00  0.00     0.029 A 
ATOM     53  N   UNL A   1      42.322  26.814  28.608  1.00  0.00    -0.354 N 
ATOM     54  C   UNL A   1      46.181  28.244  26.904  1.00  0.00     0.074 A 
ATOM     55  C   UNL A   1      45.830  28.000  25.530  1.00  0.00     0.031 C 
ATOM     56  C   UNL A   1      40.494  25.535  28.587  1.00  0.00     0.029 A 
ATOM     57  C   UNL A   1      40.992  26.830  29.012  1.00  0.00     0.049 A 
ATOM     58  H   UNL A   1      42.951  27.538  28.827  1.00  0.00     0.167 HD
ATOM     59  C   UNL A   1      46.763  29.319  27.507  1.00  0.00     0.037 A 
ATOM     60  C   UNL A   1      40.351  27.853  29.633  1.00  0.00     0.037 A 
ATOM     61  C   UNL A   1      47.030  29.053  28.897  1.00  0.00     0.049 A 
ATOM     62  C   UNL A   1      41.385  28.744  30.209  1.00  0.00     0.074 A 
ATOM     63  C   UNL A   1      47.802  28.121  29.565  1.00  0.00     0.029 A 
ATOM     64  N   UNL A   1      46.150  29.535  29.835  1.00  0.00    -0.354 N 
ATOM     65  N   UNL A   1      42.163  28.403  31.198  1.00  0.00    -0.248 NA
ATOM     66  C   UNL A   1      41.873  29.823  29.364  1.00  0.00     0.031 C 
ATOM     67  C   UNL A   1      47.010  27.722  30.683  1.00  0.00     0.029 A 
ATOM     68  C   UNL A   1      45.849  28.495  30.678  1.00  0.00     0.049 A 
ATOM     69  H   UNL A   1      45.802  30.455  29.892  1.00  0.00     0.167 HD
ATOM     70  C   UNL A   1      43.407  28.904  30.849  1.00  0.00     0.074 A 
ATOM     71  C   UNL A   1      43.154  29.823  29.740  1.00  0.00     0.031 C 
ATOM     72  C   UNL A   1      44.555  28.314  31.291  1.00  0.00     0.037 A 
BRANCH  59  73
ATOM     73  C   UNL A   1      46.775  30.710  26.926  1.00  0.00     0.064 A 
ATOM     74  C   UNL A   1      47.975  31.447  26.911  1.00  0.00     0.173 A 
ATOM     75  C   UNL A   1      45.605  31.451  26.649  1.00  0.00     0.173 A 
ATOM     76  F   UNL A   1      49.145  30.852  27.189  1.00  0.00    -0.203 F 
ATOM     77  C   UNL A   1      47.992  32.829  26.700  1.00  0.00     0.198 A 
ATOM     78  C   UNL A   1      45.631  32.819  26.385  1.00  0.00     0.198 A 
ATOM     79  F   UNL A   1      44.383  30.912  26.734  1.00  0.00    -0.203 F 
ATOM     80  F   UNL A   1      49.143  33.506  26.814  1.00  0.00    -0.200 F 
ATOM     81  C   UNL A   1      46.819  33.514  26.440  1.00  0.00     0.200 A 
ATOM     82  F   UNL A   1      44.480  33.467  26.159  1.00  0.00    -0.200 F 
ATOM     83  F   UNL A   1      46.825  34.845  26.293  1.00  0.00    -0.200 F 
ENDBRANCH  59  73
BRANCH  60  84
ATOM     84  C   UNL A   1      38.965  28.321  29.411  1.00  0.00     0.064 A 
ATOM     85  C   UNL A   1      38.078  28.526  30.479  1.00  0.00     0.173 A 
ATOM     86  C   UNL A   1      38.596  28.874  28.173  1.00  0.00     0.173 A 
ATOM     87  F   UNL A   1      38.398  28.101  31.711  1.00  0.00    -0.203 F 
ATOM     88  C   UNL A   1      36.884  29.238  30.313  1.00  0.00     0.198 A 
ATOM     89  C   UNL A   1      37.410  29.592  28.009  1.00  0.00     0.198 A 
ATOM     90  F   UNL A   1      39.422  28.796  27.118  1.00  0.00    -0.203 F 
ATOM     91  F   UNL A   1      36.083  29.460  31.365  1.00  0.00    -0.200 F 
ATOM     92  C   UNL A   1      36.552  29.772  29.078  1.00  0.00     0.200 A 
ATOM     93  F   UNL A   1      37.126  30.141  26.819  1.00  0.00    -0.200 F 
ATOM     94  F   UNL A   1      35.433  30.495  28.927  1.00  0.00    -0.200 F 
ENDBRANCH  60  84
BRANCH  72  95
ATOM     95  C   UNL A   1      44.435  27.240  32.341  1.00  0.00     0.064 A 
ATOM     96  C   UNL A   1      44.325  25.865  32.059  1.00  0.00     0.173 A 
ATOM     97  C   UNL A   1      44.580  27.607  33.684  1.00  0.00     0.173 A 
ATOM     98  F   UNL A   1      44.281  25.419  30.799  1.00  0.00    -0.203 F 
ATOM     99  C   UNL A   1      44.317  24.913  33.078  1.00  0.00     0.198 A 
ATOM    100  C   UNL A   1      44.609  26.652  34.697  1.00  0.00     0.198 A 
ATOM    101  F   UNL A   1      44.742  28.898  34.013  1.00  0.00    -0.203 F 
ATOM    102  F   UNL A   1      44.199  23.609  32.781  1.00  0.00    -0.200 F 
ATOM    103  C   UNL A   1      44.466  25.306  34.397  1.00  0.00     0.200 A 
ATOM    104  F   UNL A   1      44.802  27.036  35.967  1.00  0.00    -0.200 F 
ATOM    105  F   UNL A   1      44.500  24.391  35.375  1.00  0.00    -0.200 F 
ENDBRANCH  72  95
ENDBRANCH  46  47
ENDBRANCH  38  41
ENDBRANCH  36  37
ENDBRANCH  35  36
ENDBRANCH  34  35
ENDBRANCH  33  34
ENDBRANCH   1  33
TORSDOF 17
ENDMDL
MODEL 3
REMARK VINA RESULT:     -12.5      2.450      4.551
REMARK SMILES Cc1nn(Cc2ccc(Cl)cc2Cl)c(C)c1NC(=O)c1c(C(=O)NCCCCCCNC(=O)c2ccc(-c3c4nc(c(-c5c(F)c(F)c(F)c(F)c5F)c5ccc([nH]5)c(-c5c(F)c(F)c(F)c(F)c5F)c5nc(c(-c6c(F)c(F)c(F)c(F)c6F)c6ccc3[nH]6)C=C5)C=C4)cc2)cnn1C
REMARK SMILES IDX 26 1 25 2 24 3 22 4 23 5 21 7 20 8 99 9 97 10 98 11 100 12
REMARK SMILES IDX 18 13 17 14 19 16 16 17 1 18 2 19 3 20 4 21 14 22 15 23 5 24
REMARK SMILES IDX 6 25 7 26 12 27 8 28 11 29 13 30 9 31 10 32 27 33 28 34
REMARK SMILES IDX 29 35 30 36 31 37 32 38 33 40 34 41 35 42 96 43 36 44 95 45
REMARK SMILES IDX 37 46 38 47 39 48 89 49 40 50 94 51 88 52 90 53 41 54 93 55
REMARK SMILES IDX 87 56 86 57 42 59 74 60 54 61 73 62 55 63 58 64 72 65 91 66
REMARK SMILES IDX 56 67 57 68 71 70 92 71 59 72 43 73 44 74 52 75 45 76 46 77
REMARK SMILES IDX 50 78 53 79 47 80 48 81 51 82 49 83 75 84 76 85 84 86 77 87
REMARK SMILES IDX 78 88 82 89 85 90 79 91 80 92 83 93 81 94 60 95 61 96 69 97
REMARK SMILES IDX 62 98 63 99 67 100 70 101 64 102 65 103 68 104 66 105
REMARK H PARENT 24 6 17 15 31 39 90 58 58 69
REMARK Flexibility Score: inf
ROOT
ATOM      1  C   UNL A   1      33.756  24.570  22.662  1.00  0.00     0.021 C 
ENDROOT
BRANCH   1   2
ATOM      2  C   UNL A   1      32.882  25.830  22.641  1.00  0.00     0.116 C 
BRANCH   2   3
ATOM      3  N   UNL A   1      33.594  27.091  22.789  1.00  0.00    -0.352 N 
ATOM      4  C   UNL A   1      33.141  28.384  22.924  1.00  0.00     0.255 C 
ATOM      5  O   UNL A   1      33.984  29.252  23.180  1.00  0.00    -0.269 OA
ATOM      6  H   UNL A   1      34.575  27.003  22.792  1.00  0.00     0.163 HD
BRANCH   4   7
ATOM      7  C   UNL A   1      31.741  28.721  22.737  1.00  0.00     0.090 A 
ATOM      8  C   UNL A   1      30.904  29.336  23.675  1.00  0.00     0.138 A 
ATOM      9  N   UNL A   1      29.686  29.471  23.048  1.00  0.00    -0.262 N 
ATOM     10  C   UNL A   1      30.885  28.467  21.641  1.00  0.00     0.149 A 
ATOM     11  N   UNL A   1      29.663  28.969  21.800  1.00  0.00    -0.180 NA
ATOM     12  C   UNL A   1      28.532  30.217  23.502  1.00  0.00     0.174 C 
BRANCH   8  13
ATOM     13  C   UNL A   1      31.124  29.738  25.047  1.00  0.00     0.274 C 
ATOM     14  N   UNL A   1      31.435  28.840  26.040  1.00  0.00    -0.317 N 
ATOM     15  H   UNL A   1      31.391  29.213  26.950  1.00  0.00     0.170 HD
ATOM     16  O   UNL A   1      31.027  30.921  25.381  1.00  0.00    -0.267 OA
BRANCH  14  17
ATOM     17  C   UNL A   1      31.796  27.510  25.994  1.00  0.00     0.085 A 
ATOM     18  C   UNL A   1      34.380  27.709  26.441  1.00  0.00     0.071 C 
ATOM     19  C   UNL A   1      33.100  26.986  26.243  1.00  0.00     0.083 A 
ATOM     20  N   UNL A   1      33.081  25.650  26.335  1.00  0.00    -0.175 NA
ATOM     21  N   UNL A   1      31.798  25.339  26.081  1.00  0.00    -0.263 N 
ATOM     22  C   UNL A   1      31.065  26.404  25.617  1.00  0.00     0.060 A 
ATOM     23  C   UNL A   1      29.792  26.210  24.883  1.00  0.00     0.069 C 
BRANCH  21  24
ATOM     24  C   UNL A   1      31.244  24.079  26.564  1.00  0.00     0.181 C 
BRANCH  24  25
ATOM     25  C   UNL A   1      31.934  22.872  26.003  1.00  0.00    -0.008 A 
ATOM     26  C   UNL A   1      31.620  22.491  24.689  1.00  0.00     0.009 A 
ATOM     27  C   UNL A   1      32.862  22.103  26.726  1.00  0.00     0.047 A 
ATOM     28  C   UNL A   1      32.157  21.333  24.139  1.00  0.00     0.021 A 
ATOM     29  C   UNL A   1      33.378  20.923  26.184  1.00  0.00     0.041 A 
ATOM     30  Cl  UNL A   1      33.446  22.576  28.284  1.00  0.00    -0.084 Cl
ATOM     31  C   UNL A   1      33.004  20.538  24.901  1.00  0.00     0.042 A 
ATOM     32  Cl  UNL A   1      33.564  19.064  24.221  1.00  0.00    -0.084 Cl
ENDBRANCH  24  25
ENDBRANCH  21  24
ENDBRANCH  14  17
ENDBRANCH   8  13
ENDBRANCH   4   7
ENDBRANCH   2   3
ENDBRANCH   1   2
BRANCH   1  33
ATOM     33  C   UNL A   1      34.725  24.406  23.832  1.00  0.00     0.002 C 
BRANCH  33  34
ATOM     34  C   UNL A   1      35.659  23.198  23.736  1.00  0.00     0.002 C 
BRANCH  34  35
ATOM     35  C   UNL A   1      36.193  22.658  25.070  1.00  0.00     0.021 C 
BRANCH  35  36
ATOM     36  C   UNL A   1      37.566  23.187  25.460  1.00  0.00     0.116 C 
BRANCH  36  37
ATOM     37  N   UNL A   1      38.474  22.138  25.913  1.00  0.00    -0.352 N 
ATOM     38  C   UNL A   1      39.697  22.299  26.526  1.00  0.00     0.251 C 
ATOM     39  H   UNL A   1      38.178  21.211  25.765  1.00  0.00     0.163 HD
ATOM     40  O   UNL A   1      40.538  21.397  26.505  1.00  0.00    -0.269 OA
BRANCH  38  41
ATOM     41  C   UNL A   1      39.989  23.563  27.221  1.00  0.00     0.039 A 
ATOM     42  C   UNL A   1      41.218  23.782  27.848  1.00  0.00     0.014 A 
ATOM     43  C   UNL A   1      38.996  24.542  27.248  1.00  0.00     0.014 A 
ATOM     44  C   UNL A   1      41.454  25.014  28.451  1.00  0.00     0.010 A 
ATOM     45  C   UNL A   1      39.282  25.803  27.703  1.00  0.00     0.010 A 
ATOM     46  C   UNL A   1      40.481  26.027  28.364  1.00  0.00    -0.014 A 
BRANCH  46  47
ATOM     47  C   UNL A   1      40.753  27.365  28.878  1.00  0.00     0.031 A 
ATOM     48  C   UNL A   1      41.963  28.008  28.293  1.00  0.00     0.074 A 
ATOM     49  C   UNL A   1      39.893  28.052  29.662  1.00  0.00     0.049 A 
ATOM     50  N   UNL A   1      43.051  28.348  28.901  1.00  0.00    -0.248 NA
ATOM     51  C   UNL A   1      42.018  28.179  26.831  1.00  0.00     0.031 C 
ATOM     52  C   UNL A   1      38.522  27.708  30.061  1.00  0.00     0.029 A 
ATOM     53  N   UNL A   1      40.054  29.285  30.213  1.00  0.00    -0.354 N 
ATOM     54  C   UNL A   1      43.867  28.933  27.936  1.00  0.00     0.074 A 
ATOM     55  C   UNL A   1      43.249  28.667  26.664  1.00  0.00     0.031 C 
ATOM     56  C   UNL A   1      37.910  28.795  30.584  1.00  0.00     0.029 A 
ATOM     57  C   UNL A   1      38.895  29.850  30.731  1.00  0.00     0.049 A 
ATOM     58  H   UNL A   1      40.926  29.741  30.245  1.00  0.00     0.167 HD
ATOM     59  C   UNL A   1      44.877  29.778  28.287  1.00  0.00     0.037 A 
ATOM     60  C   UNL A   1      38.762  31.108  31.222  1.00  0.00     0.037 A 
ATOM     61  C   UNL A   1      45.238  29.609  29.671  1.00  0.00     0.049 A 
ATOM     62  C   UNL A   1      40.120  31.612  31.537  1.00  0.00     0.074 A 
ATOM     63  C   UNL A   1      45.718  28.548  30.416  1.00  0.00     0.029 A 
ATOM     64  N   UNL A   1      44.739  30.501  30.589  1.00  0.00    -0.354 N 
ATOM     65  N   UNL A   1      40.864  31.131  32.492  1.00  0.00    -0.248 NA
ATOM     66  C   UNL A   1      40.827  32.312  30.475  1.00  0.00     0.031 C 
ATOM     67  C   UNL A   1      45.014  28.621  31.655  1.00  0.00     0.029 A 
ATOM     68  C   UNL A   1      44.218  29.766  31.624  1.00  0.00     0.049 A 
ATOM     69  H   UNL A   1      44.755  31.483  30.518  1.00  0.00     0.167 HD
ATOM     70  C   UNL A   1      42.137  31.080  31.948  1.00  0.00     0.074 A 
ATOM     71  C   UNL A   1      42.065  31.878  30.725  1.00  0.00     0.031 C 
ATOM     72  C   UNL A   1      43.053  30.163  32.377  1.00  0.00     0.037 A 
BRANCH  59  73
ATOM     73  C   UNL A   1      45.297  30.977  27.475  1.00  0.00     0.064 A 
ATOM     74  C   UNL A   1      46.653  31.148  27.138  1.00  0.00     0.173 A 
ATOM     75  C   UNL A   1      44.472  32.104  27.264  1.00  0.00     0.173 A 
ATOM     76  F   UNL A   1      47.534  30.153  27.323  1.00  0.00    -0.203 F 
ATOM     77  C   UNL A   1      47.154  32.373  26.686  1.00  0.00     0.198 A 
ATOM     78  C   UNL A   1      44.965  33.307  26.762  1.00  0.00     0.198 A 
ATOM     79  F   UNL A   1      43.188  32.128  27.640  1.00  0.00    -0.203 F 
ATOM     80  F   UNL A   1      48.472  32.521  26.491  1.00  0.00    -0.200 F 
ATOM     81  C   UNL A   1      46.310  33.452  26.502  1.00  0.00     0.200 A 
ATOM     82  F   UNL A   1      44.133  34.348  26.614  1.00  0.00    -0.200 F 
ATOM     83  F   UNL A   1      46.796  34.641  26.123  1.00  0.00    -0.200 F 
ENDBRANCH  59  73
BRANCH  60  84
ATOM     84  C   UNL A   1      37.617  32.031  31.053  1.00  0.00     0.064 A 
ATOM     85  C   UNL A   1      37.272  32.551  29.796  1.00  0.00     0.173 A 
ATOM     86  C   UNL A   1      36.659  32.162  32.073  1.00  0.00     0.173 A 
ATOM     87  F   UNL A   1      38.098  32.391  28.751  1.00  0.00    -0.203 F 
ATOM     88  C   UNL A   1      36.039  33.177  29.576  1.00  0.00     0.198 A 
ATOM     89  C   UNL A   1      35.426  32.777  31.851  1.00  0.00     0.198 A 
ATOM     90  F   UNL A   1      36.872  31.623  33.283  1.00  0.00    -0.203 F 
ATOM     91  F   UNL A   1      35.719  33.617  28.351  1.00  0.00    -0.200 F 
ATOM     92  C   UNL A   1      35.116  33.287  30.604  1.00  0.00     0.200 A 
ATOM     93  F   UNL A   1      34.525  32.835  32.844  1.00  0.00    -0.200 F 
ATOM     94  F   UNL A   1      33.915  33.841  30.385  1.00  0.00    -0.200 F 
ENDBRANCH  60  84
BRANCH  72  95
ATOM     95  C   UNL A   1      42.717  29.354  33.603  1.00  0.00     0.064 A 
ATOM     96  C   UNL A   1      42.020  28.131  33.580  1.00  0.00     0.173 A 
ATOM     97  C   UNL A   1      43.246  29.765  34.833  1.00  0.00     0.173 A 
ATOM     98  F   UNL A   1      41.566  27.616  32.433  1.00  0.00    -0.203 F 
ATOM     99  C   UNL A   1      41.827  27.383  34.741  1.00  0.00     0.198 A 
ATOM    100  C   UNL A   1      43.085  28.997  35.984  1.00  0.00     0.198 A 
ATOM    101  F   UNL A   1      43.966  30.895  34.910  1.00  0.00    -0.203 F 
ATOM    102  F   UNL A   1      41.148  26.226  34.692  1.00  0.00    -0.200 F 
ATOM    103  C   UNL A   1      42.367  27.813  35.941  1.00  0.00     0.200 A 
ATOM    104  F   UNL A   1      43.650  29.395  37.132  1.00  0.00    -0.200 F 
ATOM    105  F   UNL A   1      42.219  27.076  37.050  1.00  0.00    -0.200 F 
ENDBRANCH  72  95
ENDBRANCH  46  47
ENDBRANCH  38  41
ENDBRANCH  36  37
ENDBRANCH  35  36
ENDBRANCH  34  35
ENDBRANCH  33  34
ENDBRANCH   1  33
TORSDOF 17
ENDMDL
