MODEL 1
REMARK VINA RESULT:     -13.5      0.000      0.000
REMARK SMILES C[N@@H+]1CC[C@H]2CN(C(=O)c3csc(-c4ccncc4)n3)C[C@@]2(C(=O)NCCCCCCNC(=O)c2ccc(-c3c4nc(c(-c5c(F)c(F)c(F)c(F)c5F)c5ccc([nH]5)c(-c5c(F)c(F)c(F)c(F)c5F)c5nc(c(-c6c(F)c(F)c(F)c(F)c6F)c6ccc3[nH]6)C=C5)C=C4)cc2)C1
REMARK SMILES IDX 28 1 27 2 26 3 25 4 23 5 24 6 22 8 1 9 2 10 3 11 98 12 4 14
REMARK SMILES IDX 5 15 21 16 6 17 7 18 8 19 9 20 10 21 11 22 20 23 12 24 13 25
REMARK SMILES IDX 14 26 15 27 19 28 16 29 18 30 17 31 29 32 30 33 31 34 32 35
REMARK SMILES IDX 33 36 34 38 35 39 36 40 97 41 37 42 96 43 38 44 39 45 40 46
REMARK SMILES IDX 90 47 41 48 95 49 89 50 91 51 42 52 94 53 88 54 87 55 43 57
REMARK SMILES IDX 75 58 55 59 74 60 56 61 59 62 73 63 92 64 57 65 58 66 72 68
REMARK SMILES IDX 93 69 60 70 44 71 45 72 53 73 46 74 47 75 51 76 54 77 48 78
REMARK SMILES IDX 49 79 52 80 50 81 76 82 77 83 85 84 78 85 79 86 83 87 86 88
REMARK SMILES IDX 80 89 81 90 84 91 82 92 61 93 62 94 70 95 63 96 64 97 68 98
REMARK SMILES IDX 71 99 65 100 66 101 69 102 67 103
REMARK H PARENT 25 7 2 13 32 37 91 56 59 67
REMARK Flexibility Score: inf
ROOT
ATOM      1  C   UNL A   1      32.336  29.988  26.960  1.00  0.00     0.002 C 
ENDROOT
BRANCH   1   2
ATOM      2  C   UNL A   1      31.768  28.645  27.424  1.00  0.00     0.021 C 
BRANCH   2   3
ATOM      3  C   UNL A   1      32.076  27.450  26.519  1.00  0.00     0.116 C 
BRANCH   3   4
ATOM      4  N   UNL A   1      31.304  26.210  26.703  1.00  0.00    -0.355 N 
ATOM      5  C   UNL A   1      31.547  24.863  26.496  1.00  0.00     0.234 C 
ATOM      6  O   UNL A   1      30.855  24.074  27.146  1.00  0.00    -0.274 OA
ATOM      7  H   UNL A   1      30.401  26.379  27.056  1.00  0.00     0.163 HD
BRANCH   5   8
ATOM      8  C   UNL A   1      32.505  24.362  25.394  1.00  0.00     0.120 C 
ATOM      9  C   UNL A   1      33.194  22.212  28.030  1.00  0.00     0.332 C 
ATOM     10  N   UNL A   1      33.665  22.393  26.656  1.00  0.00    -0.336 N 
ATOM     11  C   UNL A   1      34.907  23.168  26.675  1.00  0.00     0.262 C 
ATOM     12  C   UNL A   1      32.633  22.835  25.680  1.00  0.00     0.281 C 
ATOM     13  H   UNL A   1      33.885  21.474  26.270  1.00  0.00     0.347 HD
ATOM     14  C   UNL A   1      35.080  23.970  25.412  1.00  0.00     0.068 C 
ATOM     15  C   UNL A   1      33.946  24.992  25.299  1.00  0.00     0.037 C 
ATOM     16  C   UNL A   1      31.885  24.830  24.066  1.00  0.00     0.143 C 
ATOM     17  C   UNL A   1      34.086  25.650  23.922  1.00  0.00     0.125 C 
ATOM     18  N   UNL A   1      32.743  25.839  23.497  1.00  0.00    -0.336 N 
BRANCH  18  19
ATOM     19  C   UNL A   1      32.395  26.867  22.630  1.00  0.00     0.273 C 
ATOM     20  O   UNL A   1      33.138  27.223  21.718  1.00  0.00    -0.267 OA
BRANCH  19  21
ATOM     21  C   UNL A   1      31.111  27.550  22.866  1.00  0.00     0.139 A 
ATOM     22  C   UNL A   1      29.951  26.892  23.227  1.00  0.00     0.101 A 
ATOM     23  N   UNL A   1      30.938  28.921  22.624  1.00  0.00    -0.231 NA
ATOM     24  S   UNL A   1      28.638  27.991  23.301  1.00  0.00    -0.122 S 
ATOM     25  C   UNL A   1      29.673  29.257  22.765  1.00  0.00     0.124 A 
BRANCH  25  26
ATOM     26  C   UNL A   1      29.105  30.568  22.441  1.00  0.00     0.013 A 
ATOM     27  C   UNL A   1      29.055  31.564  23.420  1.00  0.00     0.031 A 
ATOM     28  C   UNL A   1      28.618  30.860  21.164  1.00  0.00     0.031 A 
ATOM     29  C   UNL A   1      28.545  32.806  23.078  1.00  0.00     0.111 A 
ATOM     30  C   UNL A   1      28.118  32.130  20.922  1.00  0.00     0.111 A 
ATOM     31  N   UNL A   1      28.078  33.110  21.848  1.00  0.00    -0.265 NA
ENDBRANCH  25  26
ENDBRANCH  19  21
ENDBRANCH  18  19
ENDBRANCH   5   8
ENDBRANCH   3   4
ENDBRANCH   2   3
ENDBRANCH   1   2
BRANCH   1  32
ATOM     32  C   UNL A   1      31.384  30.877  26.149  1.00  0.00     0.002 C 
BRANCH  32  33
ATOM     33  C   UNL A   1      31.316  32.354  26.559  1.00  0.00     0.021 C 
BRANCH  33  34
ATOM     34  C   UNL A   1      32.590  32.912  27.182  1.00  0.00     0.116 C 
BRANCH  34  35
ATOM     35  N   UNL A   1      32.413  34.273  27.652  1.00  0.00    -0.352 N 
ATOM     36  C   UNL A   1      33.018  34.927  28.698  1.00  0.00     0.251 C 
ATOM     37  H   UNL A   1      31.762  34.809  27.146  1.00  0.00     0.163 HD
ATOM     38  O   UNL A   1      32.582  36.009  29.078  1.00  0.00    -0.269 OA
BRANCH  36  39
ATOM     39  C   UNL A   1      34.187  34.328  29.379  1.00  0.00     0.039 A 
ATOM     40  C   UNL A   1      33.973  33.514  30.495  1.00  0.00     0.014 A 
ATOM     41  C   UNL A   1      35.489  34.596  28.949  1.00  0.00     0.014 A 
ATOM     42  C   UNL A   1      35.061  32.932  31.149  1.00  0.00     0.010 A 
ATOM     43  C   UNL A   1      36.567  33.955  29.554  1.00  0.00     0.010 A 
ATOM     44  C   UNL A   1      36.366  33.128  30.669  1.00  0.00    -0.014 A 
BRANCH  44  45
ATOM     45  C   UNL A   1      37.532  32.495  31.337  1.00  0.00     0.031 A 
ATOM     46  C   UNL A   1      38.250  31.349  30.678  1.00  0.00     0.074 A 
ATOM     47  C   UNL A   1      37.915  32.919  32.557  1.00  0.00     0.049 A 
ATOM     48  N   UNL A   1      39.253  30.633  31.122  1.00  0.00    -0.248 NA
ATOM     49  C   UNL A   1      37.755  30.931  29.357  1.00  0.00     0.031 C 
ATOM     50  C   UNL A   1      37.272  33.991  33.318  1.00  0.00     0.029 A 
ATOM     51  N   UNL A   1      38.933  32.495  33.375  1.00  0.00    -0.354 N 
ATOM     52  C   UNL A   1      39.498  29.678  30.144  1.00  0.00     0.074 A 
ATOM     53  C   UNL A   1      38.503  29.866  29.111  1.00  0.00     0.031 C 
ATOM     54  C   UNL A   1      37.924  34.156  34.481  1.00  0.00     0.029 A 
ATOM     55  C   UNL A   1      39.007  33.182  34.561  1.00  0.00     0.049 A 
ATOM     56  H   UNL A   1      39.550  31.767  33.133  1.00  0.00     0.167 HD
ATOM     57  C   UNL A   1      40.480  28.746  30.098  1.00  0.00     0.037 A 
ATOM     58  C   UNL A   1      39.854  33.038  35.599  1.00  0.00     0.037 A 
ATOM     59  C   UNL A   1      41.485  28.581  31.114  1.00  0.00     0.049 A 
ATOM     60  C   UNL A   1      40.937  31.995  35.523  1.00  0.00     0.074 A 
ATOM     61  C   UNL A   1      42.558  27.707  31.134  1.00  0.00     0.029 A 
ATOM     62  N   UNL A   1      41.540  29.308  32.295  1.00  0.00    -0.354 N 
ATOM     63  N   UNL A   1      41.202  31.144  34.562  1.00  0.00    -0.248 NA
ATOM     64  C   UNL A   1      41.844  31.898  36.674  1.00  0.00     0.031 C 
ATOM     65  C   UNL A   1      43.234  27.871  32.348  1.00  0.00     0.029 A 
ATOM     66  C   UNL A   1      42.616  28.885  33.061  1.00  0.00     0.049 A 
ATOM     67  H   UNL A   1      40.909  30.018  32.551  1.00  0.00     0.167 HD
ATOM     68  C   UNL A   1      42.320  30.433  34.976  1.00  0.00     0.074 A 
ATOM     69  C   UNL A   1      42.694  30.965  36.270  1.00  0.00     0.031 C 
ATOM     70  C   UNL A   1      42.978  29.431  34.344  1.00  0.00     0.037 A 
BRANCH  57  71
ATOM     71  C   UNL A   1      40.517  27.834  28.904  1.00  0.00     0.064 A 
ATOM     72  C   UNL A   1      41.309  28.122  27.782  1.00  0.00     0.173 A 
ATOM     73  C   UNL A   1      39.777  26.643  28.894  1.00  0.00     0.173 A 
ATOM     74  F   UNL A   1      42.027  29.255  27.734  1.00  0.00    -0.203 F 
ATOM     75  C   UNL A   1      41.332  27.268  26.682  1.00  0.00     0.198 A 
ATOM     76  C   UNL A   1      39.828  25.775  27.806  1.00  0.00     0.198 A 
ATOM     77  F   UNL A   1      39.008  26.315  29.943  1.00  0.00    -0.203 F 
ATOM     78  F   UNL A   1      42.054  27.592  25.600  1.00  0.00    -0.200 F 
ATOM     79  C   UNL A   1      40.599  26.092  26.698  1.00  0.00     0.200 A 
ATOM     80  F   UNL A   1      39.128  24.632  27.829  1.00  0.00    -0.200 F 
ATOM     81  F   UNL A   1      40.627  25.268  25.641  1.00  0.00    -0.200 F 
ENDBRANCH  57  71
BRANCH  58  82
ATOM     82  C   UNL A   1      39.732  33.923  36.787  1.00  0.00     0.064 A 
ATOM     83  C   UNL A   1      38.921  33.564  37.872  1.00  0.00     0.173 A 
ATOM     84  C   UNL A   1      40.413  35.147  36.859  1.00  0.00     0.173 A 
ATOM     85  F   UNL A   1      38.233  32.413  37.842  1.00  0.00    -0.203 F 
ATOM     86  C   UNL A   1      38.778  34.405  38.974  1.00  0.00     0.198 A 
ATOM     87  C   UNL A   1      40.293  35.973  37.975  1.00  0.00     0.198 A 
ATOM     88  F   UNL A   1      41.207  35.535  35.850  1.00  0.00    -0.203 F 
ATOM     89  F   UNL A   1      37.958  34.059  39.976  1.00  0.00    -0.200 F 
ATOM     90  C   UNL A   1      39.467  35.606  39.027  1.00  0.00     0.200 A 
ATOM     91  F   UNL A   1      40.974  37.126  38.028  1.00  0.00    -0.200 F 
ATOM     92  F   UNL A   1      39.332  36.413  40.087  1.00  0.00    -0.200 F 
ENDBRANCH  58  82
BRANCH  70  93
ATOM     93  C   UNL A   1      44.193  28.868  35.025  1.00  0.00     0.064 A 
ATOM     94  C   UNL A   1      44.102  27.803  35.934  1.00  0.00     0.173 A 
ATOM     95  C   UNL A   1      45.468  29.380  34.737  1.00  0.00     0.173 A 
ATOM     96  F   UNL A   1      42.904  27.289  36.253  1.00  0.00    -0.203 F 
ATOM     97  C   UNL A   1      45.240  27.291  36.551  1.00  0.00     0.198 A 
ATOM     98  C   UNL A   1      46.605  28.843  35.332  1.00  0.00     0.198 A 
ATOM     99  F   UNL A   1      45.611  30.392  33.869  1.00  0.00    -0.203 F 
ATOM    100  F   UNL A   1      45.123  26.309  37.456  1.00  0.00    -0.200 F 
ATOM    101  C   UNL A   1      46.491  27.806  36.244  1.00  0.00     0.200 A 
ATOM    102  F   UNL A   1      47.815  29.331  35.023  1.00  0.00    -0.200 F 
ATOM    103  F   UNL A   1      47.584  27.306  36.835  1.00  0.00    -0.200 F 
ENDBRANCH  70  93
ENDBRANCH  44  45
ENDBRANCH  36  39
ENDBRANCH  34  35
ENDBRANCH  33  34
ENDBRANCH  32  33
ENDBRANCH   1  32
TORSDOF 16
ENDMDL
MODEL 2
REMARK VINA RESULT:     -13.5      0.732      7.093
REMARK SMILES C[N@@H+]1CC[C@H]2CN(C(=O)c3csc(-c4ccncc4)n3)C[C@@]2(C(=O)NCCCCCCNC(=O)c2ccc(-c3c4nc(c(-c5c(F)c(F)c(F)c(F)c5F)c5ccc([nH]5)c(-c5c(F)c(F)c(F)c(F)c5F)c5nc(c(-c6c(F)c(F)c(F)c(F)c6F)c6ccc3[nH]6)C=C5)C=C4)cc2)C1
REMARK SMILES IDX 28 1 27 2 26 3 25 4 23 5 24 6 22 8 1 9 2 10 3 11 98 12 4 14
REMARK SMILES IDX 5 15 21 16 6 17 7 18 8 19 9 20 10 21 11 22 20 23 12 24 13 25
REMARK SMILES IDX 14 26 15 27 19 28 16 29 18 30 17 31 29 32 30 33 31 34 32 35
REMARK SMILES IDX 33 36 34 38 35 39 36 40 97 41 37 42 96 43 38 44 39 45 40 46
REMARK SMILES IDX 90 47 41 48 95 49 89 50 91 51 42 52 94 53 88 54 87 55 43 57
REMARK SMILES IDX 75 58 55 59 74 60 56 61 59 62 73 63 92 64 57 65 58 66 72 68
REMARK SMILES IDX 93 69 60 70 44 71 45 72 53 73 46 74 47 75 51 76 54 77 48 78
REMARK SMILES IDX 49 79 52 80 50 81 76 82 77 83 85 84 78 85 79 86 83 87 86 88
REMARK SMILES IDX 80 89 81 90 84 91 82 92 61 93 62 94 70 95 63 96 64 97 68 98
REMARK SMILES IDX 71 99 65 100 66 101 69 102 67 103
REMARK H PARENT 25 7 2 13 32 37 91 56 59 67
REMARK Flexibility Score: inf
ROOT
ATOM      1  C   UNL A   1      32.247  29.640  26.887  1.00  0.00     0.002 C 
ENDROOT
BRANCH   1   2
ATOM      2  C   UNL A   1      31.593  28.318  27.294  1.00  0.00     0.021 C 
BRANCH   2   3
ATOM      3  C   UNL A   1      31.584  27.228  26.221  1.00  0.00     0.116 C 
BRANCH   3   4
ATOM      4  N   UNL A   1      30.884  25.965  26.507  1.00  0.00    -0.355 N 
ATOM      5  C   UNL A   1      31.183  24.621  26.359  1.00  0.00     0.234 C 
ATOM      6  O   UNL A   1      30.563  23.837  27.083  1.00  0.00    -0.274 OA
ATOM      7  H   UNL A   1      29.990  26.110  26.894  1.00  0.00     0.163 HD
BRANCH   5   8
ATOM      8  C   UNL A   1      32.113  24.106  25.240  1.00  0.00     0.120 C 
ATOM      9  C   UNL A   1      33.299  22.429  28.037  1.00  0.00     0.332 C 
ATOM     10  N   UNL A   1      33.631  22.486  26.614  1.00  0.00    -0.336 N 
ATOM     11  C   UNL A   1      34.751  23.410  26.421  1.00  0.00     0.262 C 
ATOM     12  C   UNL A   1      32.475  22.659  25.694  1.00  0.00     0.281 C 
ATOM     13  H   UNL A   1      33.946  21.561  26.321  1.00  0.00     0.347 HD
ATOM     14  C   UNL A   1      34.711  24.054  25.061  1.00  0.00     0.068 C 
ATOM     15  C   UNL A   1      33.441  24.899  24.933  1.00  0.00     0.037 C 
ATOM     16  C   UNL A   1      31.333  24.311  23.930  1.00  0.00     0.143 C 
ATOM     17  C   UNL A   1      33.380  25.381  23.481  1.00  0.00     0.125 C 
ATOM     18  N   UNL A   1      31.995  25.339  23.165  1.00  0.00    -0.336 N 
BRANCH  18  19
ATOM     19  C   UNL A   1      31.441  26.190  22.217  1.00  0.00     0.273 C 
ATOM     20  O   UNL A   1      31.823  26.194  21.050  1.00  0.00    -0.267 OA
BRANCH  19  21
ATOM     21  C   UNL A   1      30.398  27.126  22.673  1.00  0.00     0.139 A 
ATOM     22  C   UNL A   1      29.268  26.733  23.365  1.00  0.00     0.101 A 
ATOM     23  N   UNL A   1      30.412  28.486  22.330  1.00  0.00    -0.231 NA
ATOM     24  S   UNL A   1      28.230  28.072  23.624  1.00  0.00    -0.122 S 
ATOM     25  C   UNL A   1      29.303  29.073  22.725  1.00  0.00     0.124 A 
BRANCH  25  26
ATOM     26  C   UNL A   1      28.911  30.448  22.403  1.00  0.00     0.013 A 
ATOM     27  C   UNL A   1      28.467  30.758  21.114  1.00  0.00     0.031 A 
ATOM     28  C   UNL A   1      28.956  31.465  23.358  1.00  0.00     0.031 A 
ATOM     29  C   UNL A   1      28.069  32.058  20.845  1.00  0.00     0.111 A 
ATOM     30  C   UNL A   1      28.546  32.737  22.989  1.00  0.00     0.111 A 
ATOM     31  N   UNL A   1      28.097  33.053  21.757  1.00  0.00    -0.265 NA
ENDBRANCH  25  26
ENDBRANCH  19  21
ENDBRANCH  18  19
ENDBRANCH   5   8
ENDBRANCH   3   4
ENDBRANCH   2   3
ENDBRANCH   1   2
BRANCH   1  32
ATOM     32  C   UNL A   1      31.382  30.588  26.046  1.00  0.00     0.002 C 
BRANCH  32  33
ATOM     33  C   UNL A   1      31.363  32.059  26.482  1.00  0.00     0.021 C 
BRANCH  33  34
ATOM     34  C   UNL A   1      32.666  32.574  27.080  1.00  0.00     0.116 C 
BRANCH  34  35
ATOM     35  N   UNL A   1      32.533  33.925  27.593  1.00  0.00    -0.352 N 
ATOM     36  C   UNL A   1      33.184  34.538  28.635  1.00  0.00     0.251 C 
ATOM     37  H   UNL A   1      31.876  34.487  27.122  1.00  0.00     0.163 HD
ATOM     38  O   UNL A   1      32.783  35.618  29.058  1.00  0.00    -0.269 OA
BRANCH  36  39
ATOM     39  C   UNL A   1      34.363  33.898  29.260  1.00  0.00     0.039 A 
ATOM     40  C   UNL A   1      34.161  32.968  30.284  1.00  0.00     0.014 A 
ATOM     41  C   UNL A   1      35.661  34.239  28.871  1.00  0.00     0.014 A 
ATOM     42  C   UNL A   1      35.258  32.347  30.884  1.00  0.00     0.010 A 
ATOM     43  C   UNL A   1      36.750  33.563  29.416  1.00  0.00     0.010 A 
ATOM     44  C   UNL A   1      36.561  32.620  30.437  1.00  0.00    -0.014 A 
BRANCH  44  45
ATOM     45  C   UNL A   1      37.738  31.948  31.046  1.00  0.00     0.031 A 
ATOM     46  C   UNL A   1      38.199  32.337  32.425  1.00  0.00     0.074 A 
ATOM     47  C   UNL A   1      38.421  31.026  30.341  1.00  0.00     0.049 A 
ATOM     48  N   UNL A   1      39.231  31.905  33.107  1.00  0.00    -0.248 NA
ATOM     49  C   UNL A   1      37.412  33.368  33.119  1.00  0.00     0.031 C 
ATOM     50  C   UNL A   1      38.101  30.597  28.979  1.00  0.00     0.029 A 
ATOM     51  N   UNL A   1      39.531  30.288  30.670  1.00  0.00    -0.354 N 
ATOM     52  C   UNL A   1      39.223  32.620  34.297  1.00  0.00     0.074 A 
ATOM     53  C   UNL A   1      38.121  33.555  34.222  1.00  0.00     0.031 C 
ATOM     54  C   UNL A   1      38.979  29.656  28.597  1.00  0.00     0.029 A 
ATOM     55  C   UNL A   1      39.942  29.439  29.672  1.00  0.00     0.049 A 
ATOM     56  H   UNL A   1      39.988  30.361  31.538  1.00  0.00     0.167 HD
ATOM     57  C   UNL A   1      40.043  32.491  35.368  1.00  0.00     0.037 A 
ATOM     58  C   UNL A   1      40.982  28.584  29.629  1.00  0.00     0.037 A 
ATOM     59  C   UNL A   1      41.121  31.541  35.449  1.00  0.00     0.049 A 
ATOM     60  C   UNL A   1      41.879  28.459  30.832  1.00  0.00     0.074 A 
ATOM     61  C   UNL A   1      41.973  31.291  36.511  1.00  0.00     0.029 A 
ATOM     62  N   UNL A   1      41.497  30.684  34.425  1.00  0.00    -0.354 N 
ATOM     63  N   UNL A   1      41.820  29.091  31.979  1.00  0.00    -0.248 NA
ATOM     64  C   UNL A   1      42.983  27.496  30.736  1.00  0.00     0.031 C 
ATOM     65  C   UNL A   1      42.894  30.316  36.113  1.00  0.00     0.029 A 
ATOM     66  C   UNL A   1      42.583  29.920  34.822  1.00  0.00     0.049 A 
ATOM     67  H   UNL A   1      41.057  30.628  33.546  1.00  0.00     0.167 HD
ATOM     68  C   UNL A   1      42.855  28.583  32.751  1.00  0.00     0.074 A 
ATOM     69  C   UNL A   1      43.518  27.577  31.946  1.00  0.00     0.031 C 
ATOM     70  C   UNL A   1      43.225  28.917  34.011  1.00  0.00     0.037 A 
BRANCH  57  71
ATOM     71  C   UNL A   1      39.803  33.399  36.541  1.00  0.00     0.064 A 
ATOM     72  C   UNL A   1      38.901  33.060  37.561  1.00  0.00     0.173 A 
ATOM     73  C   UNL A   1      40.505  34.607  36.663  1.00  0.00     0.173 A 
ATOM     74  F   UNL A   1      38.194  31.922  37.488  1.00  0.00    -0.203 F 
ATOM     75  C   UNL A   1      38.688  33.912  38.642  1.00  0.00     0.198 A 
ATOM     76  C   UNL A   1      40.313  35.441  37.762  1.00  0.00     0.198 A 
ATOM     77  F   UNL A   1      41.384  34.978  35.719  1.00  0.00    -0.203 F 
ATOM     78  F   UNL A   1      37.781  33.592  39.576  1.00  0.00    -0.200 F 
ATOM     79  C   UNL A   1      39.399  35.097  38.745  1.00  0.00     0.200 A 
ATOM     80  F   UNL A   1      41.012  36.581  37.866  1.00  0.00    -0.200 F 
ATOM     81  F   UNL A   1      39.196  35.913  39.789  1.00  0.00    -0.200 F 
ENDBRANCH  57  71
BRANCH  58  82
ATOM     82  C   UNL A   1      41.215  27.756  28.417  1.00  0.00     0.064 A 
ATOM     83  C   UNL A   1      40.545  26.538  28.237  1.00  0.00     0.173 A 
ATOM     84  C   UNL A   1      42.115  28.159  27.420  1.00  0.00     0.173 A 
ATOM     85  F   UNL A   1      39.689  26.100  29.172  1.00  0.00    -0.203 F 
ATOM     86  C   UNL A   1      40.784  25.743  27.117  1.00  0.00     0.198 A 
ATOM     87  C   UNL A   1      42.331  27.377  26.287  1.00  0.00     0.198 A 
ATOM     88  F   UNL A   1      42.778  29.319  27.540  1.00  0.00    -0.203 F 
ATOM     89  F   UNL A   1      40.166  24.560  26.995  1.00  0.00    -0.200 F 
ATOM     90  C   UNL A   1      41.673  26.165  26.141  1.00  0.00     0.200 A 
ATOM     91  F   UNL A   1      43.179  27.796  25.338  1.00  0.00    -0.200 F 
ATOM     92  F   UNL A   1      41.900  25.402  25.064  1.00  0.00    -0.200 F 
ENDBRANCH  58  82
BRANCH  70  93
ATOM     93  C   UNL A   1      44.377  28.164  34.612  1.00  0.00     0.064 A 
ATOM     94  C   UNL A   1      45.695  28.639  34.527  1.00  0.00     0.173 A 
ATOM     95  C   UNL A   1      44.154  26.969  35.314  1.00  0.00     0.173 A 
ATOM     96  F   UNL A   1      45.962  29.770  33.854  1.00  0.00    -0.203 F 
ATOM     97  C   UNL A   1      46.749  27.930  35.095  1.00  0.00     0.198 A 
ATOM     98  C   UNL A   1      45.207  26.281  35.909  1.00  0.00     0.198 A 
ATOM     99  F   UNL A   1      42.912  26.476  35.432  1.00  0.00    -0.203 F 
ATOM    100  F   UNL A   1      48.005  28.376  34.955  1.00  0.00    -0.200 F 
ATOM    101  C   UNL A   1      46.504  26.756  35.792  1.00  0.00     0.200 A 
ATOM    102  F   UNL A   1      44.967  25.154  36.594  1.00  0.00    -0.200 F 
ATOM    103  F   UNL A   1      47.519  26.079  36.345  1.00  0.00    -0.200 F 
ENDBRANCH  70  93
ENDBRANCH  44  45
ENDBRANCH  36  39
ENDBRANCH  34  35
ENDBRANCH  33  34
ENDBRANCH  32  33
ENDBRANCH   1  32
TORSDOF 16
ENDMDL
MODEL 3
REMARK VINA RESULT:     -13.5      1.792      4.884
REMARK SMILES C[N@@H+]1CC[C@H]2CN(C(=O)c3csc(-c4ccncc4)n3)C[C@@]2(C(=O)NCCCCCCNC(=O)c2ccc(-c3c4nc(c(-c5c(F)c(F)c(F)c(F)c5F)c5ccc([nH]5)c(-c5c(F)c(F)c(F)c(F)c5F)c5nc(c(-c6c(F)c(F)c(F)c(F)c6F)c6ccc3[nH]6)C=C5)C=C4)cc2)C1
REMARK SMILES IDX 28 1 27 2 26 3 25 4 23 5 24 6 22 8 1 9 2 10 3 11 98 12 4 14
REMARK SMILES IDX 5 15 21 16 6 17 7 18 8 19 9 20 10 21 11 22 20 23 12 24 13 25
REMARK SMILES IDX 14 26 15 27 19 28 16 29 18 30 17 31 29 32 30 33 31 34 32 35
REMARK SMILES IDX 33 36 34 38 35 39 36 40 97 41 37 42 96 43 38 44 39 45 40 46
REMARK SMILES IDX 90 47 41 48 95 49 89 50 91 51 42 52 94 53 88 54 87 55 43 57
REMARK SMILES IDX 75 58 55 59 74 60 56 61 59 62 73 63 92 64 57 65 58 66 72 68
REMARK SMILES IDX 93 69 60 70 44 71 45 72 53 73 46 74 47 75 51 76 54 77 48 78
REMARK SMILES IDX 49 79 52 80 50 81 76 82 77 83 85 84 78 85 79 86 83 87 86 88
REMARK SMILES IDX 80 89 81 90 84 91 82 92 61 93 62 94 70 95 63 96 64 97 68 98
REMARK SMILES IDX 71 99 65 100 66 101 69 102 67 103
REMARK H PARENT 25 7 2 13 32 37 91 56 59 67
REMARK Flexibility Score: inf
ROOT
ATOM      1  C   UNL A   1      32.286  30.260  26.758  1.00  0.00     0.002 C 
ENDROOT
BRANCH   1   2
ATOM      2  C   UNL A   1      31.776  28.927  27.311  1.00  0.00     0.021 C 
BRANCH   2   3
ATOM      3  C   UNL A   1      32.642  27.706  26.992  1.00  0.00     0.116 C 
BRANCH   3   4
ATOM      4  N   UNL A   1      33.385  27.684  25.721  1.00  0.00    -0.355 N 
ATOM      5  C   UNL A   1      33.060  27.445  24.397  1.00  0.00     0.234 C 
ATOM      6  O   UNL A   1      33.820  27.921  23.550  1.00  0.00    -0.274 OA
ATOM      7  H   UNL A   1      34.341  27.886  25.842  1.00  0.00     0.163 HD
BRANCH   5   8
ATOM      8  C   UNL A   1      31.910  26.498  23.993  1.00  0.00     0.120 C 
ATOM      9  C   UNL A   1      31.326  29.283  22.006  1.00  0.00     0.332 C 
ATOM     10  N   UNL A   1      30.701  27.976  22.213  1.00  0.00    -0.336 N 
ATOM     11  C   UNL A   1      29.575  28.125  23.135  1.00  0.00     0.262 C 
ATOM     12  C   UNL A   1      31.639  26.858  22.501  1.00  0.00     0.281 C 
ATOM     13  H   UNL A   1      30.324  27.658  21.320  1.00  0.00     0.347 HD
ATOM     14  C   UNL A   1      29.332  26.865  23.924  1.00  0.00     0.068 C 
ATOM     15  C   UNL A   1      30.554  26.566  24.795  1.00  0.00     0.037 C 
ATOM     16  C   UNL A   1      32.398  25.083  24.350  1.00  0.00     0.143 C 
ATOM     17  C   UNL A   1      30.312  25.194  25.432  1.00  0.00     0.125 C 
ATOM     18  N   UNL A   1      31.599  24.592  25.444  1.00  0.00    -0.336 N 
BRANCH  18  19
ATOM     19  C   UNL A   1      31.948  23.646  26.401  1.00  0.00     0.273 C 
ATOM     20  O   UNL A   1      31.517  23.700  27.551  1.00  0.00    -0.267 OA
BRANCH  19  21
ATOM     21  C   UNL A   1      32.892  22.590  25.998  1.00  0.00     0.139 A 
ATOM     22  C   UNL A   1      34.265  22.743  26.022  1.00  0.00     0.101 A 
ATOM     23  N   UNL A   1      32.463  21.376  25.440  1.00  0.00    -0.231 NA
ATOM     24  S   UNL A   1      35.034  21.353  25.377  1.00  0.00    -0.122 S 
ATOM     25  C   UNL A   1      33.493  20.669  25.027  1.00  0.00     0.124 A 
BRANCH  25  26
ATOM     26  C   UNL A   1      33.412  19.424  24.259  1.00  0.00     0.013 A 
ATOM     27  C   UNL A   1      32.422  19.274  23.283  1.00  0.00     0.031 A 
ATOM     28  C   UNL A   1      34.311  18.376  24.466  1.00  0.00     0.031 A 
ATOM     29  C   UNL A   1      32.389  18.101  22.547  1.00  0.00     0.111 A 
ATOM     30  C   UNL A   1      34.190  17.237  23.685  1.00  0.00     0.111 A 
ATOM     31  N   UNL A   1      33.254  17.080  22.726  1.00  0.00    -0.265 NA
ENDBRANCH  25  26
ENDBRANCH  19  21
ENDBRANCH  18  19
ENDBRANCH   5   8
ENDBRANCH   3   4
ENDBRANCH   2   3
ENDBRANCH   1   2
BRANCH   1  32
ATOM     32  C   UNL A   1      31.232  31.167  26.110  1.00  0.00     0.002 C 
BRANCH  32  33
ATOM     33  C   UNL A   1      31.310  32.659  26.457  1.00  0.00     0.021 C 
BRANCH  33  34
ATOM     34  C   UNL A   1      32.524  33.068  27.282  1.00  0.00     0.116 C 
BRANCH  34  35
ATOM     35  N   UNL A   1      32.422  34.435  27.758  1.00  0.00    -0.352 N 
ATOM     36  C   UNL A   1      33.062  35.051  28.807  1.00  0.00     0.251 C 
ATOM     37  H   UNL A   1      31.800  35.008  27.254  1.00  0.00     0.163 HD
ATOM     38  O   UNL A   1      32.686  36.154  29.191  1.00  0.00    -0.269 OA
BRANCH  36  39
ATOM     39  C   UNL A   1      34.197  34.387  29.484  1.00  0.00     0.039 A 
ATOM     40  C   UNL A   1      35.475  34.502  28.927  1.00  0.00     0.014 A 
ATOM     41  C   UNL A   1      34.003  33.622  30.637  1.00  0.00     0.014 A 
ATOM     42  C   UNL A   1      36.562  33.889  29.553  1.00  0.00     0.010 A 
ATOM     43  C   UNL A   1      35.099  33.076  31.301  1.00  0.00     0.010 A 
ATOM     44  C   UNL A   1      36.387  33.192  30.759  1.00  0.00    -0.014 A 
BRANCH  44  45
ATOM     45  C   UNL A   1      37.538  32.556  31.452  1.00  0.00     0.031 A 
ATOM     46  C   UNL A   1      38.279  31.422  30.798  1.00  0.00     0.074 A 
ATOM     47  C   UNL A   1      37.883  32.965  32.688  1.00  0.00     0.049 A 
ATOM     48  N   UNL A   1      39.273  30.705  31.260  1.00  0.00    -0.248 NA
ATOM     49  C   UNL A   1      37.824  31.021  29.458  1.00  0.00     0.031 C 
ATOM     50  C   UNL A   1      37.214  34.023  33.445  1.00  0.00     0.029 A 
ATOM     51  N   UNL A   1      38.880  32.535  33.528  1.00  0.00    -0.354 N 
ATOM     52  C   UNL A   1      39.551  29.765  30.277  1.00  0.00     0.074 A 
ATOM     53  C   UNL A   1      38.584  29.962  29.218  1.00  0.00     0.031 C 
ATOM     54  C   UNL A   1      37.832  34.175  34.628  1.00  0.00     0.029 A 
ATOM     55  C   UNL A   1      38.917  33.205  34.726  1.00  0.00     0.049 A 
ATOM     56  H   UNL A   1      39.507  31.813  33.294  1.00  0.00     0.167 HD
ATOM     57  C   UNL A   1      40.538  28.838  30.246  1.00  0.00     0.037 A 
ATOM     58  C   UNL A   1      39.735  33.050  35.785  1.00  0.00     0.037 A 
ATOM     59  C   UNL A   1      41.515  28.664  31.288  1.00  0.00     0.049 A 
ATOM     60  C   UNL A   1      40.825  32.013  35.726  1.00  0.00     0.074 A 
ATOM     61  C   UNL A   1      42.591  27.794  31.327  1.00  0.00     0.029 A 
ATOM     62  N   UNL A   1      41.533  29.374  32.480  1.00  0.00    -0.354 N 
ATOM     63  N   UNL A   1      41.121  31.177  34.761  1.00  0.00    -0.248 NA
ATOM     64  C   UNL A   1      41.700  31.906  36.901  1.00  0.00     0.031 C 
ATOM     65  C   UNL A   1      43.232  27.944  32.561  1.00  0.00     0.029 A 
ATOM     66  C   UNL A   1      42.588  28.946  33.270  1.00  0.00     0.049 A 
ATOM     67  H   UNL A   1      40.891  30.078  32.727  1.00  0.00     0.167 HD
ATOM     68  C   UNL A   1      42.230  30.466  35.197  1.00  0.00     0.074 A 
ATOM     69  C   UNL A   1      42.565  30.982  36.508  1.00  0.00     0.031 C 
ATOM     70  C   UNL A   1      42.911  29.476  34.570  1.00  0.00     0.037 A 
BRANCH  57  71
ATOM     71  C   UNL A   1      40.614  27.943  29.041  1.00  0.00     0.064 A 
ATOM     72  C   UNL A   1      39.843  26.775  28.942  1.00  0.00     0.173 A 
ATOM     73  C   UNL A   1      41.444  28.273  27.959  1.00  0.00     0.173 A 
ATOM     74  F   UNL A   1      39.042  26.406  29.953  1.00  0.00    -0.203 F 
ATOM     75  C   UNL A   1      39.925  25.954  27.820  1.00  0.00     0.198 A 
ATOM     76  C   UNL A   1      41.498  27.467  26.824  1.00  0.00     0.198 A 
ATOM     77  F   UNL A   1      42.199  29.382  27.998  1.00  0.00    -0.203 F 
ATOM     78  F   UNL A   1      39.219  24.815  27.772  1.00  0.00    -0.200 F 
ATOM     79  C   UNL A   1      40.746  26.304  26.759  1.00  0.00     0.200 A 
ATOM     80  F   UNL A   1      42.283  27.815  25.795  1.00  0.00    -0.200 F 
ATOM     81  F   UNL A   1      40.819  25.517  25.678  1.00  0.00    -0.200 F 
ENDBRANCH  57  71
BRANCH  58  82
ATOM     82  C   UNL A   1      39.575  33.919  36.981  1.00  0.00     0.064 A 
ATOM     83  C   UNL A   1      38.817  33.495  38.082  1.00  0.00     0.173 A 
ATOM     84  C   UNL A   1      40.164  35.189  37.045  1.00  0.00     0.173 A 
ATOM     85  F   UNL A   1      38.217  32.296  38.060  1.00  0.00    -0.203 F 
ATOM     86  C   UNL A   1      38.638  34.318  39.192  1.00  0.00     0.198 A 
ATOM     87  C   UNL A   1      40.008  35.999  38.169  1.00  0.00     0.198 A 
ATOM     88  F   UNL A   1      40.904  35.640  36.021  1.00  0.00    -0.203 F 
ATOM     89  F   UNL A   1      37.869  33.907  40.210  1.00  0.00    -0.200 F 
ATOM     90  C   UNL A   1      39.237  35.567  39.237  1.00  0.00     0.200 A 
ATOM     91  F   UNL A   1      40.603  37.199  38.214  1.00  0.00    -0.200 F 
ATOM     92  F   UNL A   1      39.066  36.356  40.306  1.00  0.00    -0.200 F 
ENDBRANCH  58  82
BRANCH  70  93
ATOM     93  C   UNL A   1      44.109  28.909  35.278  1.00  0.00     0.064 A 
ATOM     94  C   UNL A   1      45.395  29.437  35.090  1.00  0.00     0.173 A 
ATOM     95  C   UNL A   1      43.960  27.847  36.182  1.00  0.00     0.173 A 
ATOM     96  F   UNL A   1      45.591  30.444  34.225  1.00  0.00    -0.203 F 
ATOM     97  C   UNL A   1      46.492  28.903  35.760  1.00  0.00     0.198 A 
ATOM     98  C   UNL A   1      45.055  27.337  36.874  1.00  0.00     0.198 A 
ATOM     99  F   UNL A   1      42.751  27.311  36.404  1.00  0.00    -0.203 F 
ATOM    100  F   UNL A   1      47.719  29.389  35.525  1.00  0.00    -0.200 F 
ATOM    101  C   UNL A   1      46.320  27.858  36.656  1.00  0.00     0.200 A 
ATOM    102  F   UNL A   1      44.885  26.338  37.751  1.00  0.00    -0.200 F 
ATOM    103  F   UNL A   1      47.377  27.351  37.305  1.00  0.00    -0.200 F 
ENDBRANCH  70  93
ENDBRANCH  44  45
ENDBRANCH  36  39
ENDBRANCH  34  35
ENDBRANCH  33  34
ENDBRANCH  32  33
ENDBRANCH   1  32
TORSDOF 16
ENDMDL
