MODEL 1
REMARK VINA RESULT:     -12.0      0.000      0.000
REMARK SMILES CC(C)N(c1cc2c(cc1Cl)C=C(C(=O)NCCCCCCNC(=O)c1ccc(-c3c4nc(c(-c5c(F)c(F)c(F)c(F)c5F)c5ccc([nH]5)c(-c5c(F)c(F)c(F)c(F)c5F)c5nc(c(-c6c(F)c(F)c(F)c(F)c6F)c6ccc3[nH]6)C=C5)C=C4)cc1)[C@@H](C(F)(F)F)O2)C(C)C
REMARK SMILES IDX 19 1 18 2 17 3 16 4 14 5 15 6 13 8 5 9 6 10 10 11 7 12 9 13
REMARK SMILES IDX 11 14 8 15 94 16 12 17 89 18 4 19 2 20 1 21 3 22 95 23 96 24
REMARK SMILES IDX 97 25 90 26 91 27 92 28 93 29 20 30 21 31 22 32 23 33 24 34
REMARK SMILES IDX 25 36 26 37 27 38 88 39 28 40 87 41 29 42 30 43 31 44 81 45
REMARK SMILES IDX 32 46 86 47 80 48 82 49 33 50 85 51 79 52 78 53 34 55 66 56
REMARK SMILES IDX 46 57 65 58 47 59 50 60 64 61 83 62 48 63 49 64 63 66 84 67
REMARK SMILES IDX 51 68 35 69 36 70 44 71 37 72 38 73 42 74 45 75 39 76 40 77
REMARK SMILES IDX 43 78 41 79 67 80 68 81 76 82 69 83 70 84 74 85 77 86 71 87
REMARK SMILES IDX 72 88 75 89 73 90 52 91 53 92 61 93 54 94 55 95 59 96 62 97
REMARK SMILES IDX 56 98 57 99 60 100 58 101
REMARK H PARENT 16 7 23 35 82 54 50 65
REMARK Flexibility Score: inf
ROOT
ATOM      1  C   UNL A   1      33.213  29.427  27.249  1.00  0.00     0.002 C 
ENDROOT
BRANCH   1   2
ATOM      2  C   UNL A   1      31.805  29.557  26.654  1.00  0.00     0.021 C 
BRANCH   2   3
ATOM      3  C   UNL A   1      31.779  30.083  25.221  1.00  0.00     0.116 C 
BRANCH   3   4
ATOM      4  N   UNL A   1      30.651  29.558  24.474  1.00  0.00    -0.352 N 
ATOM      5  C   UNL A   1      30.314  28.400  23.862  1.00  0.00     0.251 C 
ATOM      6  O   UNL A   1      29.189  28.389  23.350  1.00  0.00    -0.270 OA
ATOM      7  H   UNL A   1      29.936  30.229  24.388  1.00  0.00     0.163 HD
BRANCH   5   8
ATOM      8  C   UNL A   1      31.173  27.182  23.771  1.00  0.00     0.067 C 
ATOM      9  C   UNL A   1      33.625  22.843  24.742  1.00  0.00     0.060 A 
ATOM     10  C   UNL A   1      33.377  23.624  23.598  1.00  0.00     0.074 A 
ATOM     11  C   UNL A   1      32.990  23.257  25.937  1.00  0.00     0.065 A 
ATOM     12  C   UNL A   1      32.591  24.775  23.649  1.00  0.00     0.130 A 
ATOM     13  C   UNL A   1      32.152  24.387  25.970  1.00  0.00     0.034 A 
ATOM     14  Cl  UNL A   1      33.261  22.487  27.466  1.00  0.00    -0.082 Cl
ATOM     15  C   UNL A   1      31.961  25.158  24.825  1.00  0.00     0.019 A 
ATOM     16  O   UNL A   1      32.462  25.474  22.485  1.00  0.00    -0.475 OA
ATOM     17  C   UNL A   1      31.115  26.344  24.826  1.00  0.00     0.025 C 
ATOM     18  C   UNL A   1      32.100  26.876  22.628  1.00  0.00     0.314 C 
BRANCH   9  19
ATOM     19  N   UNL A   1      34.493  21.736  24.633  1.00  0.00    -0.365 N 
BRANCH  19  20
ATOM     20  C   UNL A   1      35.944  22.019  24.555  1.00  0.00     0.076 C 
ATOM     21  C   UNL A   1      36.353  22.684  23.242  1.00  0.00     0.030 C 
ATOM     22  C   UNL A   1      36.467  22.813  25.749  1.00  0.00     0.030 C 
ENDBRANCH  19  20
BRANCH  19  23
ATOM     23  C   UNL A   1      33.869  20.399  24.775  1.00  0.00     0.076 C 
ATOM     24  C   UNL A   1      32.652  20.213  23.874  1.00  0.00     0.030 C 
ATOM     25  C   UNL A   1      34.853  19.242  24.627  1.00  0.00     0.030 C 
ENDBRANCH  19  23
ENDBRANCH   9  19
BRANCH  18  26
ATOM     26  C   UNL A   1      33.376  27.739  22.654  1.00  0.00     0.429 C 
ATOM     27  F   UNL A   1      33.933  27.727  23.891  1.00  0.00    -0.167 F 
ATOM     28  F   UNL A   1      34.328  27.280  21.805  1.00  0.00    -0.167 F 
ATOM     29  F   UNL A   1      33.144  29.028  22.325  1.00  0.00    -0.167 F 
ENDBRANCH  18  26
ENDBRANCH   5   8
ENDBRANCH   3   4
ENDBRANCH   2   3
ENDBRANCH   1   2
BRANCH   1  30
ATOM     30  C   UNL A   1      33.896  30.746  27.634  1.00  0.00     0.002 C 
BRANCH  30  31
ATOM     31  C   UNL A   1      32.958  31.901  27.992  1.00  0.00     0.021 C 
BRANCH  31  32
ATOM     32  C   UNL A   1      32.979  33.074  27.019  1.00  0.00     0.116 C 
BRANCH  32  33
ATOM     33  N   UNL A   1      32.529  34.315  27.626  1.00  0.00    -0.352 N 
ATOM     34  C   UNL A   1      32.994  34.952  28.750  1.00  0.00     0.251 C 
ATOM     35  H   UNL A   1      31.782  34.764  27.165  1.00  0.00     0.163 HD
ATOM     36  O   UNL A   1      32.400  35.923  29.206  1.00  0.00    -0.269 OA
BRANCH  34  37
ATOM     37  C   UNL A   1      34.201  34.440  29.434  1.00  0.00     0.039 A 
ATOM     38  C   UNL A   1      35.462  34.570  28.848  1.00  0.00     0.014 A 
ATOM     39  C   UNL A   1      34.064  33.804  30.671  1.00  0.00     0.014 A 
ATOM     40  C   UNL A   1      36.556  33.929  29.419  1.00  0.00     0.010 A 
ATOM     41  C   UNL A   1      35.181  33.228  31.284  1.00  0.00     0.010 A 
ATOM     42  C   UNL A   1      36.426  33.245  30.639  1.00  0.00    -0.014 A 
BRANCH  42  43
ATOM     43  C   UNL A   1      37.609  32.552  31.213  1.00  0.00     0.031 A 
ATOM     44  C   UNL A   1      38.088  32.871  32.602  1.00  0.00     0.074 A 
ATOM     45  C   UNL A   1      38.211  31.581  30.498  1.00  0.00     0.049 A 
ATOM     46  N   UNL A   1      39.072  32.334  33.279  1.00  0.00    -0.248 NA
ATOM     47  C   UNL A   1      37.372  33.930  33.330  1.00  0.00     0.031 C 
ATOM     48  C   UNL A   1      37.830  31.177  29.144  1.00  0.00     0.029 A 
ATOM     49  N   UNL A   1      39.244  30.737  30.819  1.00  0.00    -0.354 N 
ATOM     50  C   UNL A   1      39.102  32.996  34.499  1.00  0.00     0.074 A 
ATOM     51  C   UNL A   1      38.057  33.996  34.463  1.00  0.00     0.031 C 
ATOM     52  C   UNL A   1      38.576  30.126  28.775  1.00  0.00     0.029 A 
ATOM     53  C   UNL A   1      39.525  29.818  29.839  1.00  0.00     0.049 A 
ATOM     54  H   UNL A   1      39.736  30.786  31.671  1.00  0.00     0.167 HD
ATOM     55  C   UNL A   1      39.918  32.779  35.558  1.00  0.00     0.037 A 
ATOM     56  C   UNL A   1      40.447  28.839  29.799  1.00  0.00     0.037 A 
ATOM     57  C   UNL A   1      40.941  31.766  35.602  1.00  0.00     0.049 A 
ATOM     58  C   UNL A   1      41.364  28.645  30.974  1.00  0.00     0.074 A 
ATOM     59  C   UNL A   1      41.803  31.455  36.640  1.00  0.00     0.029 A 
ATOM     60  N   UNL A   1      41.238  30.897  34.563  1.00  0.00    -0.354 N 
ATOM     61  N   UNL A   1      41.376  29.274  32.123  1.00  0.00    -0.248 NA
ATOM     62  C   UNL A   1      42.403  27.614  30.840  1.00  0.00     0.031 C 
ATOM     63  C   UNL A   1      42.645  30.424  36.217  1.00  0.00     0.029 A 
ATOM     64  C   UNL A   1      42.283  30.063  34.929  1.00  0.00     0.049 A 
ATOM     65  H   UNL A   1      40.775  30.876  33.694  1.00  0.00     0.167 HD
ATOM     66  C   UNL A   1      42.415  28.715  32.852  1.00  0.00     0.074 A 
ATOM     67  C   UNL A   1      42.996  27.678  32.024  1.00  0.00     0.031 C 
ATOM     68  C   UNL A   1      42.852  29.038  34.093  1.00  0.00     0.037 A 
BRANCH  55  69
ATOM     69  C   UNL A   1      39.746  33.649  36.768  1.00  0.00     0.064 A 
ATOM     70  C   UNL A   1      40.388  34.891  36.873  1.00  0.00     0.173 A 
ATOM     71  C   UNL A   1      38.873  33.271  37.799  1.00  0.00     0.173 A 
ATOM     72  F   UNL A   1      41.241  35.294  35.920  1.00  0.00    -0.203 F 
ATOM     73  C   UNL A   1      40.169  35.719  37.973  1.00  0.00     0.198 A 
ATOM     74  C   UNL A   1      38.638  34.111  38.884  1.00  0.00     0.198 A 
ATOM     75  F   UNL A   1      38.229  32.095  37.743  1.00  0.00    -0.203 F 
ATOM     76  F   UNL A   1      40.814  36.890  38.065  1.00  0.00    -0.200 F 
ATOM     77  C   UNL A   1      39.288  35.332  38.972  1.00  0.00     0.200 A 
ATOM     78  F   UNL A   1      37.777  33.741  39.843  1.00  0.00    -0.200 F 
ATOM     79  F   UNL A   1      39.067  36.137  40.020  1.00  0.00    -0.200 F 
ENDBRANCH  55  69
BRANCH  56  80
ATOM     80  C   UNL A   1      40.534  27.962  28.603  1.00  0.00     0.064 A 
ATOM     81  C   UNL A   1      41.310  28.332  27.497  1.00  0.00     0.173 A 
ATOM     82  C   UNL A   1      39.872  26.727  28.555  1.00  0.00     0.173 A 
ATOM     83  F   UNL A   1      41.945  29.513  27.490  1.00  0.00    -0.203 F 
ATOM     84  C   UNL A   1      41.420  27.499  26.386  1.00  0.00     0.198 A 
ATOM     85  C   UNL A   1      40.004  25.883  27.455  1.00  0.00     0.198 A 
ATOM     86  F   UNL A   1      39.118  26.328  29.591  1.00  0.00    -0.203 F 
ATOM     87  F   UNL A   1      42.147  27.887  25.330  1.00  0.00    -0.200 F 
ATOM     88  C   UNL A   1      40.774  26.271  26.370  1.00  0.00     0.200 A 
ATOM     89  F   UNL A   1      39.392  24.691  27.451  1.00  0.00    -0.200 F 
ATOM     90  F   UNL A   1      40.893  25.463  25.308  1.00  0.00    -0.200 F 
ENDBRANCH  56  80
BRANCH  68  91
ATOM     91  C   UNL A   1      44.014  28.264  34.639  1.00  0.00     0.064 A 
ATOM     92  C   UNL A   1      43.825  27.050  35.315  1.00  0.00     0.173 A 
ATOM     93  C   UNL A   1      45.327  28.707  34.427  1.00  0.00     0.173 A 
ATOM     94  F   UNL A   1      42.587  26.596  35.553  1.00  0.00    -0.203 F 
ATOM     95  C   UNL A   1      44.914  26.311  35.768  1.00  0.00     0.198 A 
ATOM     96  C   UNL A   1      46.414  27.953  34.860  1.00  0.00     0.198 A 
ATOM     97  F   UNL A   1      45.557  29.859  33.780  1.00  0.00    -0.203 F 
ATOM     98  F   UNL A   1      44.712  25.168  36.437  1.00  0.00    -0.200 F 
ATOM     99  C   UNL A   1      46.206  26.758  35.533  1.00  0.00     0.200 A 
ATOM    100  F   UNL A   1      47.662  28.379  34.622  1.00  0.00    -0.200 F 
ATOM    101  F   UNL A   1      47.253  26.037  35.958  1.00  0.00    -0.200 F 
ENDBRANCH  68  91
ENDBRANCH  42  43
ENDBRANCH  34  37
ENDBRANCH  32  33
ENDBRANCH  31  32
ENDBRANCH  30  31
ENDBRANCH   1  30
TORSDOF 17
ENDMDL
MODEL 2
REMARK VINA RESULT:     -11.9      0.664      7.116
REMARK SMILES CC(C)N(c1cc2c(cc1Cl)C=C(C(=O)NCCCCCCNC(=O)c1ccc(-c3c4nc(c(-c5c(F)c(F)c(F)c(F)c5F)c5ccc([nH]5)c(-c5c(F)c(F)c(F)c(F)c5F)c5nc(c(-c6c(F)c(F)c(F)c(F)c6F)c6ccc3[nH]6)C=C5)C=C4)cc1)[C@@H](C(F)(F)F)O2)C(C)C
REMARK SMILES IDX 19 1 18 2 17 3 16 4 14 5 15 6 13 8 5 9 6 10 10 11 7 12 9 13
REMARK SMILES IDX 11 14 8 15 94 16 12 17 89 18 4 19 2 20 1 21 3 22 95 23 96 24
REMARK SMILES IDX 97 25 90 26 91 27 92 28 93 29 20 30 21 31 22 32 23 33 24 34
REMARK SMILES IDX 25 36 26 37 27 38 88 39 28 40 87 41 29 42 30 43 31 44 81 45
REMARK SMILES IDX 32 46 86 47 80 48 82 49 33 50 85 51 79 52 78 53 34 55 66 56
REMARK SMILES IDX 46 57 65 58 47 59 50 60 64 61 83 62 48 63 49 64 63 66 84 67
REMARK SMILES IDX 51 68 35 69 36 70 44 71 37 72 38 73 42 74 45 75 39 76 40 77
REMARK SMILES IDX 43 78 41 79 67 80 68 81 76 82 69 83 70 84 74 85 77 86 71 87
REMARK SMILES IDX 72 88 75 89 73 90 52 91 53 92 61 93 54 94 55 95 59 96 62 97
REMARK SMILES IDX 56 98 57 99 60 100 58 101
REMARK H PARENT 16 7 23 35 82 54 50 65
REMARK Flexibility Score: inf
ROOT
ATOM      1  C   UNL A   1      33.183  29.592  27.336  1.00  0.00     0.002 C 
ENDROOT
BRANCH   1   2
ATOM      2  C   UNL A   1      31.784  29.769  26.733  1.00  0.00     0.021 C 
BRANCH   2   3
ATOM      3  C   UNL A   1      31.775  30.452  25.368  1.00  0.00     0.116 C 
BRANCH   3   4
ATOM      4  N   UNL A   1      30.685  29.978  24.534  1.00  0.00    -0.352 N 
ATOM      5  C   UNL A   1      30.358  28.844  23.874  1.00  0.00     0.251 C 
ATOM      6  O   UNL A   1      29.271  28.878  23.286  1.00  0.00    -0.270 OA
ATOM      7  H   UNL A   1      29.997  30.671  24.417  1.00  0.00     0.163 HD
BRANCH   5   8
ATOM      8  C   UNL A   1      31.188  27.604  23.811  1.00  0.00     0.067 C 
ATOM      9  C   UNL A   1      33.450  23.176  24.840  1.00  0.00     0.060 A 
ATOM     10  C   UNL A   1      33.298  23.987  23.701  1.00  0.00     0.074 A 
ATOM     11  C   UNL A   1      32.751  23.585  26.001  1.00  0.00     0.065 A 
ATOM     12  C   UNL A   1      32.543  25.159  23.726  1.00  0.00     0.130 A 
ATOM     13  C   UNL A   1      31.944  24.738  26.005  1.00  0.00     0.034 A 
ATOM     14  Cl  UNL A   1      32.902  22.776  27.527  1.00  0.00    -0.082 Cl
ATOM     15  C   UNL A   1      31.850  25.536  24.868  1.00  0.00     0.019 A 
ATOM     16  O   UNL A   1      32.508  25.885  22.572  1.00  0.00    -0.475 OA
ATOM     17  C   UNL A   1      31.039  26.747  24.840  1.00  0.00     0.025 C 
ATOM     18  C   UNL A   1      32.178  27.294  22.723  1.00  0.00     0.314 C 
BRANCH   9  19
ATOM     19  N   UNL A   1      34.292  22.047  24.763  1.00  0.00    -0.365 N 
BRANCH  19  20
ATOM     20  C   UNL A   1      35.749  22.278  24.899  1.00  0.00     0.076 C 
ATOM     21  C   UNL A   1      36.432  22.577  23.567  1.00  0.00     0.030 C 
ATOM     22  C   UNL A   1      36.094  23.344  25.935  1.00  0.00     0.030 C 
ENDBRANCH  19  20
BRANCH  19  23
ATOM     23  C   UNL A   1      33.617  20.729  24.718  1.00  0.00     0.076 C 
ATOM     24  C   UNL A   1      32.536  20.652  23.644  1.00  0.00     0.030 C 
ATOM     25  C   UNL A   1      34.578  19.547  24.626  1.00  0.00     0.030 C 
ENDBRANCH  19  23
ENDBRANCH   9  19
BRANCH  18  26
ATOM     26  C   UNL A   1      33.473  28.119  22.849  1.00  0.00     0.429 C 
ATOM     27  F   UNL A   1      34.408  27.671  21.974  1.00  0.00    -0.167 F 
ATOM     28  F   UNL A   1      33.282  29.429  22.562  1.00  0.00    -0.167 F 
ATOM     29  F   UNL A   1      34.013  28.060  24.085  1.00  0.00    -0.167 F 
ENDBRANCH  18  26
ENDBRANCH   5   8
ENDBRANCH   3   4
ENDBRANCH   2   3
ENDBRANCH   1   2
BRANCH   1  30
ATOM     30  C   UNL A   1      33.992  30.883  27.526  1.00  0.00     0.002 C 
BRANCH  30  31
ATOM     31  C   UNL A   1      33.205  32.093  28.034  1.00  0.00     0.021 C 
BRANCH  31  32
ATOM     32  C   UNL A   1      33.432  33.383  27.255  1.00  0.00     0.116 C 
BRANCH  32  33
ATOM     33  N   UNL A   1      32.894  34.550  27.934  1.00  0.00    -0.352 N 
ATOM     34  C   UNL A   1      33.207  35.058  29.170  1.00  0.00     0.251 C 
ATOM     35  H   UNL A   1      32.206  35.048  27.434  1.00  0.00     0.163 HD
ATOM     36  O   UNL A   1      32.549  35.975  29.652  1.00  0.00    -0.269 OA
BRANCH  34  37
ATOM     37  C   UNL A   1      34.326  34.472  29.940  1.00  0.00     0.039 A 
ATOM     38  C   UNL A   1      35.643  34.602  29.496  1.00  0.00     0.014 A 
ATOM     39  C   UNL A   1      34.047  33.765  31.114  1.00  0.00     0.014 A 
ATOM     40  C   UNL A   1      36.658  33.896  30.134  1.00  0.00     0.010 A 
ATOM     41  C   UNL A   1      35.081  33.121  31.800  1.00  0.00     0.010 A 
ATOM     42  C   UNL A   1      36.387  33.142  31.288  1.00  0.00    -0.014 A 
BRANCH  42  43
ATOM     43  C   UNL A   1      37.488  32.383  31.934  1.00  0.00     0.031 A 
ATOM     44  C   UNL A   1      38.184  31.266  31.205  1.00  0.00     0.074 A 
ATOM     45  C   UNL A   1      37.907  32.751  33.161  1.00  0.00     0.049 A 
ATOM     46  N   UNL A   1      39.192  30.528  31.597  1.00  0.00    -0.248 NA
ATOM     47  C   UNL A   1      37.685  30.931  29.863  1.00  0.00     0.031 C 
ATOM     48  C   UNL A   1      37.315  33.824  33.962  1.00  0.00     0.029 A 
ATOM     49  N   UNL A   1      38.941  32.289  33.934  1.00  0.00    -0.354 N 
ATOM     50  C   UNL A   1      39.438  29.637  30.560  1.00  0.00     0.074 A 
ATOM     51  C   UNL A   1      38.456  29.903  29.532  1.00  0.00     0.031 C 
ATOM     52  C   UNL A   1      38.033  33.979  35.084  1.00  0.00     0.029 A 
ATOM     53  C   UNL A   1      39.097  32.981  35.110  1.00  0.00     0.049 A 
ATOM     54  H   UNL A   1      39.516  31.534  33.671  1.00  0.00     0.167 HD
ATOM     55  C   UNL A   1      40.405  28.693  30.470  1.00  0.00     0.037 A 
ATOM     56  C   UNL A   1      39.994  32.827  36.101  1.00  0.00     0.037 A 
ATOM     57  C   UNL A   1      41.397  28.446  31.484  1.00  0.00     0.049 A 
ATOM     58  C   UNL A   1      41.032  31.746  35.991  1.00  0.00     0.074 A 
ATOM     59  C   UNL A   1      42.431  27.525  31.472  1.00  0.00     0.029 A 
ATOM     60  N   UNL A   1      41.482  29.125  32.689  1.00  0.00    -0.354 N 
ATOM     61  N   UNL A   1      41.256  30.916  35.002  1.00  0.00    -0.248 NA
ATOM     62  C   UNL A   1      41.933  31.573  37.139  1.00  0.00     0.031 C 
ATOM     63  C   UNL A   1      43.119  27.621  32.685  1.00  0.00     0.029 A 
ATOM     64  C   UNL A   1      42.538  28.630  33.438  1.00  0.00     0.049 A 
ATOM     65  H   UNL A   1      40.880  29.851  32.972  1.00  0.00     0.167 HD
ATOM     66  C   UNL A   1      42.324  30.127  35.403  1.00  0.00     0.074 A 
ATOM     67  C   UNL A   1      42.719  30.593  36.716  1.00  0.00     0.031 C 
ATOM     68  C   UNL A   1      42.917  29.103  34.743  1.00  0.00     0.037 A 
BRANCH  55  69
ATOM     69  C   UNL A   1      40.447  27.847  29.231  1.00  0.00     0.064 A 
ATOM     70  C   UNL A   1      39.658  26.695  29.105  1.00  0.00     0.173 A 
ATOM     71  C   UNL A   1      41.229  28.233  28.132  1.00  0.00     0.173 A 
ATOM     72  F   UNL A   1      38.902  26.278  30.131  1.00  0.00    -0.203 F 
ATOM     73  C   UNL A   1      39.658  25.954  27.925  1.00  0.00     0.198 A 
ATOM     74  C   UNL A   1      41.208  27.503  26.947  1.00  0.00     0.198 A 
ATOM     75  F   UNL A   1      41.997  29.331  28.201  1.00  0.00    -0.203 F 
ATOM     76  F   UNL A   1      38.916  24.841  27.836  1.00  0.00    -0.200 F 
ATOM     77  C   UNL A   1      40.425  26.364  26.844  1.00  0.00     0.200 A 
ATOM     78  F   UNL A   1      41.940  27.908  25.899  1.00  0.00    -0.200 F 
ATOM     79  F   UNL A   1      40.411  25.658  25.705  1.00  0.00    -0.200 F 
ENDBRANCH  55  69
BRANCH  56  80
ATOM     80  C   UNL A   1      39.950  33.733  37.277  1.00  0.00     0.064 A 
ATOM     81  C   UNL A   1      40.708  34.911  37.305  1.00  0.00     0.173 A 
ATOM     82  C   UNL A   1      39.126  33.458  38.379  1.00  0.00     0.173 A 
ATOM     83  F   UNL A   1      41.525  35.204  36.283  1.00  0.00    -0.203 F 
ATOM     84  C   UNL A   1      40.646  35.779  38.393  1.00  0.00     0.198 A 
ATOM     85  C   UNL A   1      39.044  34.341  39.453  1.00  0.00     0.198 A 
ATOM     86  F   UNL A   1      38.379  32.344  38.397  1.00  0.00    -0.203 F 
ATOM     87  F   UNL A   1      41.401  36.886  38.407  1.00  0.00    -0.200 F 
ATOM     88  C   UNL A   1      39.806  35.498  39.461  1.00  0.00     0.200 A 
ATOM     89  F   UNL A   1      38.220  34.074  40.475  1.00  0.00    -0.200 F 
ATOM     90  F   UNL A   1      39.735  36.342  40.499  1.00  0.00    -0.200 F 
ENDBRANCH  56  80
BRANCH  68  91
ATOM     91  C   UNL A   1      44.060  28.413  35.426  1.00  0.00     0.064 A 
ATOM     92  C   UNL A   1      45.380  28.856  35.260  1.00  0.00     0.173 A 
ATOM     93  C   UNL A   1      43.827  27.344  36.302  1.00  0.00     0.173 A 
ATOM     94  F   UNL A   1      45.653  29.865  34.421  1.00  0.00    -0.203 F 
ATOM     95  C   UNL A   1      46.428  28.245  35.942  1.00  0.00     0.198 A 
ATOM     96  C   UNL A   1      44.873  26.750  37.001  1.00  0.00     0.198 A 
ATOM     97  F   UNL A   1      42.580  26.888  36.497  1.00  0.00    -0.203 F 
ATOM     98  F   UNL A   1      47.686  28.664  35.748  1.00  0.00    -0.200 F 
ATOM     99  C   UNL A   1      46.173  27.199  36.818  1.00  0.00     0.200 A 
ATOM    100  F   UNL A   1      44.626  25.748  37.855  1.00  0.00    -0.200 F 
ATOM    101  F   UNL A   1      47.182  26.621  37.484  1.00  0.00    -0.200 F 
ENDBRANCH  68  91
ENDBRANCH  42  43
ENDBRANCH  34  37
ENDBRANCH  32  33
ENDBRANCH  31  32
ENDBRANCH  30  31
ENDBRANCH   1  30
TORSDOF 17
ENDMDL
MODEL 3
REMARK VINA RESULT:     -11.9      5.921     11.391
REMARK SMILES CC(C)N(c1cc2c(cc1Cl)C=C(C(=O)NCCCCCCNC(=O)c1ccc(-c3c4nc(c(-c5c(F)c(F)c(F)c(F)c5F)c5ccc([nH]5)c(-c5c(F)c(F)c(F)c(F)c5F)c5nc(c(-c6c(F)c(F)c(F)c(F)c6F)c6ccc3[nH]6)C=C5)C=C4)cc1)[C@@H](C(F)(F)F)O2)C(C)C
REMARK SMILES IDX 19 1 18 2 17 3 16 4 14 5 15 6 13 8 5 9 6 10 10 11 7 12 9 13
REMARK SMILES IDX 11 14 8 15 94 16 12 17 89 18 4 19 2 20 1 21 3 22 95 23 96 24
REMARK SMILES IDX 97 25 90 26 91 27 92 28 93 29 20 30 21 31 22 32 23 33 24 34
REMARK SMILES IDX 25 36 26 37 27 38 88 39 28 40 87 41 29 42 30 43 31 44 81 45
REMARK SMILES IDX 32 46 86 47 80 48 82 49 33 50 85 51 79 52 78 53 34 55 66 56
REMARK SMILES IDX 46 57 65 58 47 59 50 60 64 61 83 62 48 63 49 64 63 66 84 67
REMARK SMILES IDX 51 68 35 69 36 70 44 71 37 72 38 73 42 74 45 75 39 76 40 77
REMARK SMILES IDX 43 78 41 79 67 80 68 81 76 82 69 83 70 84 74 85 77 86 71 87
REMARK SMILES IDX 72 88 75 89 73 90 52 91 53 92 61 93 54 94 55 95 59 96 62 97
REMARK SMILES IDX 56 98 57 99 60 100 58 101
REMARK H PARENT 16 7 23 35 82 54 50 65
REMARK Flexibility Score: inf
ROOT
ATOM      1  C   UNL A   1      39.598  21.966  26.122  1.00  0.00     0.002 C 
ENDROOT
BRANCH   1   2
ATOM      2  C   UNL A   1      38.528  20.917  25.796  1.00  0.00     0.021 C 
BRANCH   2   3
ATOM      3  C   UNL A   1      37.394  21.435  24.916  1.00  0.00     0.116 C 
BRANCH   3   4
ATOM      4  N   UNL A   1      36.297  20.487  24.834  1.00  0.00    -0.352 N 
ATOM      5  C   UNL A   1      34.945  20.524  24.857  1.00  0.00     0.251 C 
ATOM      6  O   UNL A   1      34.392  19.427  24.724  1.00  0.00    -0.270 OA
ATOM      7  H   UNL A   1      36.628  19.565  24.736  1.00  0.00     0.163 HD
BRANCH   5   8
ATOM      8  C   UNL A   1      34.112  21.752  25.023  1.00  0.00     0.067 C 
ATOM      9  C   UNL A   1      32.056  26.369  24.541  1.00  0.00     0.060 A 
ATOM     10  C   UNL A   1      31.725  25.187  25.229  1.00  0.00     0.074 A 
ATOM     11  C   UNL A   1      33.176  26.302  23.678  1.00  0.00     0.065 A 
ATOM     12  C   UNL A   1      32.488  24.027  25.109  1.00  0.00     0.130 A 
ATOM     13  C   UNL A   1      33.910  25.112  23.517  1.00  0.00     0.034 A 
ATOM     14  Cl  UNL A   1      33.801  27.682  22.834  1.00  0.00    -0.082 Cl
ATOM     15  C   UNL A   1      33.574  23.973  24.245  1.00  0.00     0.019 A 
ATOM     16  O   UNL A   1      32.094  22.959  25.861  1.00  0.00    -0.475 OA
ATOM     17  C   UNL A   1      34.320  22.728  24.118  1.00  0.00     0.025 C 
ATOM     18  C   UNL A   1      33.121  21.966  26.133  1.00  0.00     0.314 C 
BRANCH   9  19
ATOM     19  N   UNL A   1      31.285  27.528  24.771  1.00  0.00    -0.365 N 
BRANCH  19  20
ATOM     20  C   UNL A   1      31.847  28.545  25.689  1.00  0.00     0.076 C 
ATOM     21  C   UNL A   1      31.419  29.968  25.336  1.00  0.00     0.030 C 
ATOM     22  C   UNL A   1      31.570  28.246  27.160  1.00  0.00     0.030 C 
ENDBRANCH  19  20
BRANCH  19  23
ATOM     23  C   UNL A   1      30.067  27.678  23.940  1.00  0.00     0.076 C 
ATOM     24  C   UNL A   1      30.374  28.109  22.509  1.00  0.00     0.030 C 
ATOM     25  C   UNL A   1      29.149  26.459  23.968  1.00  0.00     0.030 C 
ENDBRANCH  19  23
ENDBRANCH   9  19
BRANCH  18  26
ATOM     26  C   UNL A   1      33.800  22.281  27.480  1.00  0.00     0.429 C 
ATOM     27  F   UNL A   1      34.494  21.203  27.925  1.00  0.00    -0.167 F 
ATOM     28  F   UNL A   1      34.694  23.294  27.384  1.00  0.00    -0.167 F 
ATOM     29  F   UNL A   1      32.918  22.623  28.444  1.00  0.00    -0.167 F 
ENDBRANCH  18  26
ENDBRANCH   5   8
ENDBRANCH   3   4
ENDBRANCH   2   3
ENDBRANCH   1   2
BRANCH   1  30
ATOM     30  C   UNL A   1      41.009  21.418  26.375  1.00  0.00     0.002 C 
BRANCH  30  31
ATOM     31  C   UNL A   1      41.208  19.930  26.081  1.00  0.00     0.021 C 
BRANCH  31  32
ATOM     32  C   UNL A   1      42.601  19.393  26.386  1.00  0.00     0.116 C 
BRANCH  32  33
ATOM     33  N   UNL A   1      43.327  19.004  25.188  1.00  0.00    -0.352 N 
ATOM     34  C   UNL A   1      44.169  19.751  24.402  1.00  0.00     0.251 C 
ATOM     35  H   UNL A   1      43.196  18.071  24.899  1.00  0.00     0.163 HD
ATOM     36  O   UNL A   1      44.588  19.304  23.338  1.00  0.00    -0.269 OA
BRANCH  34  37
ATOM     37  C   UNL A   1      44.547  21.116  24.825  1.00  0.00     0.039 A 
ATOM     38  C   UNL A   1      45.390  21.317  25.920  1.00  0.00     0.014 A 
ATOM     39  C   UNL A   1      44.032  22.212  24.126  1.00  0.00     0.014 A 
ATOM     40  C   UNL A   1      45.589  22.603  26.409  1.00  0.00     0.010 A 
ATOM     41  C   UNL A   1      44.298  23.510  24.572  1.00  0.00     0.010 A 
ATOM     42  C   UNL A   1      45.040  23.713  25.746  1.00  0.00    -0.014 A 
BRANCH  42  43
ATOM     43  C   UNL A   1      45.253  25.073  26.306  1.00  0.00     0.031 A 
ATOM     44  C   UNL A   1      46.592  25.749  26.194  1.00  0.00     0.074 A 
ATOM     45  C   UNL A   1      44.211  25.726  26.855  1.00  0.00     0.049 A 
ATOM     46  N   UNL A   1      46.945  26.948  26.584  1.00  0.00    -0.248 NA
ATOM     47  C   UNL A   1      47.679  24.981  25.566  1.00  0.00     0.031 C 
ATOM     48  C   UNL A   1      42.864  25.177  27.010  1.00  0.00     0.029 A 
ATOM     49  N   UNL A   1      44.111  27.000  27.355  1.00  0.00    -0.354 N 
ATOM     50  C   UNL A   1      48.291  27.073  26.263  1.00  0.00     0.074 A 
ATOM     51  C   UNL A   1      48.702  25.818  25.672  1.00  0.00     0.031 C 
ATOM     52  C   UNL A   1      42.059  26.126  27.510  1.00  0.00     0.029 A 
ATOM     53  C   UNL A   1      42.843  27.330  27.764  1.00  0.00     0.049 A 
ATOM     54  H   UNL A   1      44.876  27.618  27.415  1.00  0.00     0.167 HD
ATOM     55  C   UNL A   1      49.103  28.143  26.432  1.00  0.00     0.037 A 
ATOM     56  C   UNL A   1      42.364  28.473  28.289  1.00  0.00     0.037 A 
ATOM     57  C   UNL A   1      48.685  29.400  26.996  1.00  0.00     0.049 A 
ATOM     58  C   UNL A   1      43.298  29.631  28.501  1.00  0.00     0.074 A 
ATOM     59  C   UNL A   1      49.432  30.550  27.187  1.00  0.00     0.029 A 
ATOM     60  N   UNL A   1      47.407  29.674  27.458  1.00  0.00    -0.354 N 
ATOM     61  N   UNL A   1      44.565  29.737  28.185  1.00  0.00    -0.248 NA
ATOM     62  C   UNL A   1      42.737  30.823  29.151  1.00  0.00     0.031 C 
ATOM     63  C   UNL A   1      48.616  31.507  27.798  1.00  0.00     0.029 A 
ATOM     64  C   UNL A   1      47.349  30.967  27.952  1.00  0.00     0.049 A 
ATOM     65  H   UNL A   1      46.652  29.041  27.439  1.00  0.00     0.167 HD
ATOM     66  C   UNL A   1      44.954  31.004  28.592  1.00  0.00     0.074 A 
ATOM     67  C   UNL A   1      43.781  31.641  29.155  1.00  0.00     0.031 C 
ATOM     68  C   UNL A   1      46.176  31.585  28.512  1.00  0.00     0.037 A 
BRANCH  55  69
ATOM     69  C   UNL A   1      50.535  28.013  26.001  1.00  0.00     0.064 A 
ATOM     70  C   UNL A   1      51.558  27.766  26.929  1.00  0.00     0.173 A 
ATOM     71  C   UNL A   1      50.877  28.062  24.642  1.00  0.00     0.173 A 
ATOM     72  F   UNL A   1      51.284  27.721  28.241  1.00  0.00    -0.203 F 
ATOM     73  C   UNL A   1      52.874  27.583  26.510  1.00  0.00     0.198 A 
ATOM     74  C   UNL A   1      52.189  27.856  24.225  1.00  0.00     0.198 A 
ATOM     75  F   UNL A   1      49.934  28.289  23.715  1.00  0.00    -0.203 F 
ATOM     76  F   UNL A   1      53.840  27.375  27.415  1.00  0.00    -0.200 F 
ATOM     77  C   UNL A   1      53.187  27.619  25.159  1.00  0.00     0.200 A 
ATOM     78  F   UNL A   1      52.487  27.877  22.918  1.00  0.00    -0.200 F 
ATOM     79  F   UNL A   1      54.450  27.427  24.757  1.00  0.00    -0.200 F 
ENDBRANCH  55  69
BRANCH  56  80
ATOM     80  C   UNL A   1      40.925  28.572  28.638  1.00  0.00     0.064 A 
ATOM     81  C   UNL A   1      40.467  28.197  29.908  1.00  0.00     0.173 A 
ATOM     82  C   UNL A   1      39.985  29.074  27.725  1.00  0.00     0.173 A 
ATOM     83  F   UNL A   1      41.325  27.693  30.807  1.00  0.00    -0.203 F 
ATOM     84  C   UNL A   1      39.121  28.317  30.251  1.00  0.00     0.198 A 
ATOM     85  C   UNL A   1      38.646  29.220  28.078  1.00  0.00     0.198 A 
ATOM     86  F   UNL A   1      40.376  29.449  26.498  1.00  0.00    -0.203 F 
ATOM     87  F   UNL A   1      38.704  27.927  31.463  1.00  0.00    -0.200 F 
ATOM     88  C   UNL A   1      38.214  28.838  29.339  1.00  0.00     0.200 A 
ATOM     89  F   UNL A   1      37.777  29.738  27.200  1.00  0.00    -0.200 F 
ATOM     90  F   UNL A   1      36.924  28.969  29.675  1.00  0.00    -0.200 F 
ENDBRANCH  56  80
BRANCH  68  91
ATOM     91  C   UNL A   1      46.313  32.980  29.043  1.00  0.00     0.064 A 
ATOM     92  C   UNL A   1      46.058  34.095  28.231  1.00  0.00     0.173 A 
ATOM     93  C   UNL A   1      46.637  33.202  30.389  1.00  0.00     0.173 A 
ATOM     94  F   UNL A   1      45.760  33.932  26.935  1.00  0.00    -0.203 F 
ATOM     95  C   UNL A   1      46.133  35.385  28.749  1.00  0.00     0.198 A 
ATOM     96  C   UNL A   1      46.687  34.491  30.909  1.00  0.00     0.198 A 
ATOM     97  F   UNL A   1      46.883  32.166  31.205  1.00  0.00    -0.203 F 
ATOM     98  F   UNL A   1      45.915  36.438  27.950  1.00  0.00    -0.200 F 
ATOM     99  C   UNL A   1      46.439  35.582  30.088  1.00  0.00     0.200 A 
ATOM    100  F   UNL A   1      46.971  34.680  32.205  1.00  0.00    -0.200 F 
ATOM    101  F   UNL A   1      46.496  36.824  30.587  1.00  0.00    -0.200 F 
ENDBRANCH  68  91
ENDBRANCH  42  43
ENDBRANCH  34  37
ENDBRANCH  32  33
ENDBRANCH  31  32
ENDBRANCH  30  31
ENDBRANCH   1  30
TORSDOF 17
ENDMDL
