MODEL 1
REMARK VINA RESULT:     -12.4      0.000      0.000
REMARK SMILES C[NH2+][C@@]1(C(=O)NCCCCCCNC(=O)c2ccc(-c3c4nc(c(-c5c(F)c(F)c(F)c(F)c5F)c5ccc([nH]5)c(-c5c(F)c(F)c(F)c(F)c5F)c5nc(c(-c6c(F)c(F)c(F)c(F)c6F)c6ccc3[nH]6)C=C5)C=C4)cc2)CCC[C@@H](Oc2cc(F)cc(F)c2)C1
REMARK SMILES IDX 9 1 8 2 7 3 6 4 4 5 5 6 3 8 79 9 92 10 80 11 82 12 81 13
REMARK SMILES IDX 2 14 1 15 83 18 84 19 85 20 91 21 86 22 89 23 87 24 88 25
REMARK SMILES IDX 90 26 10 27 11 28 12 29 13 30 14 31 15 33 16 34 17 35 78 36
REMARK SMILES IDX 18 37 77 38 19 39 20 40 21 41 71 42 22 43 76 44 70 45 72 46
REMARK SMILES IDX 23 47 75 48 69 49 68 50 24 52 56 53 36 54 55 55 37 56 40 57
REMARK SMILES IDX 54 58 73 59 38 60 39 61 53 63 74 64 41 65 25 66 26 67 34 68
REMARK SMILES IDX 27 69 28 70 32 71 35 72 29 73 30 74 33 75 31 76 57 77 58 78
REMARK SMILES IDX 66 79 59 80 60 81 64 82 67 83 61 84 62 85 65 86 63 87 42 88
REMARK SMILES IDX 43 89 51 90 44 91 45 92 49 93 52 94 46 95 47 96 50 97 48 98
REMARK H PARENT 6 7 2 16 2 17 13 32 72 51 40 62
REMARK Flexibility Score: inf
ROOT
ATOM      1  C   UNL A   1      32.545  29.973  27.045  1.00  0.00     0.002 C 
ENDROOT
BRANCH   1   2
ATOM      2  C   UNL A   1      32.210  28.534  27.444  1.00  0.00     0.021 C 
BRANCH   2   3
ATOM      3  C   UNL A   1      31.130  27.888  26.580  1.00  0.00     0.116 C 
BRANCH   3   4
ATOM      4  N   UNL A   1      30.968  26.482  26.845  1.00  0.00    -0.351 N 
ATOM      5  C   UNL A   1      31.549  25.369  26.342  1.00  0.00     0.281 C 
ATOM      6  O   UNL A   1      31.533  24.411  27.134  1.00  0.00    -0.268 OA
ATOM      7  H   UNL A   1      30.293  26.289  27.537  1.00  0.00     0.163 HD
BRANCH   5   8
ATOM      8  C   UNL A   1      32.223  25.198  24.908  1.00  0.00     0.178 C 
ATOM      9  C   UNL A   1      33.681  25.720  24.872  1.00  0.00     0.079 C 
ATOM     10  C   UNL A   1      31.406  25.693  23.700  1.00  0.00     0.124 C 
ATOM     11  C   UNL A   1      33.907  27.160  24.415  1.00  0.00     0.011 C 
ATOM     12  C   UNL A   1      31.592  27.157  23.315  1.00  0.00     0.180 C 
ATOM     13  C   UNL A   1      33.063  27.576  23.213  1.00  0.00     0.046 C 
BRANCH   8  14
ATOM     14  N   UNL A   1      32.411  23.695  24.749  1.00  0.00    -0.336 N 
ATOM     15  C   UNL A   1      33.798  23.231  24.702  1.00  0.00     0.331 C 
ATOM     16  H   UNL A   1      31.953  23.237  25.536  1.00  0.00     0.346 HD
ATOM     17  H   UNL A   1      32.007  23.459  23.842  1.00  0.00     0.346 HD
ENDBRANCH   8  14
BRANCH  12  18
ATOM     18  O   UNL A   1      30.747  27.532  22.207  1.00  0.00    -0.490 OA
BRANCH  18  19
ATOM     19  C   UNL A   1      29.791  28.475  22.430  1.00  0.00     0.125 A 
ATOM     20  C   UNL A   1      28.581  28.056  22.981  1.00  0.00     0.085 A 
ATOM     21  C   UNL A   1      29.947  29.788  22.001  1.00  0.00     0.085 A 
ATOM     22  C   UNL A   1      27.554  28.978  23.151  1.00  0.00     0.129 A 
ATOM     23  C   UNL A   1      28.906  30.693  22.188  1.00  0.00     0.129 A 
ATOM     24  F   UNL A   1      26.393  28.577  23.685  1.00  0.00    -0.207 F 
ATOM     25  C   UNL A   1      27.707  30.302  22.766  1.00  0.00     0.078 A 
ATOM     26  F   UNL A   1      29.060  31.961  21.785  1.00  0.00    -0.207 F 
ENDBRANCH  18  19
ENDBRANCH  12  18
ENDBRANCH   5   8
ENDBRANCH   3   4
ENDBRANCH   2   3
ENDBRANCH   1   2
BRANCH   1  27
ATOM     27  C   UNL A   1      31.414  30.732  26.337  1.00  0.00     0.002 C 
BRANCH  27  28
ATOM     28  C   UNL A   1      31.345  32.234  26.626  1.00  0.00     0.021 C 
BRANCH  28  29
ATOM     29  C   UNL A   1      32.652  32.852  27.117  1.00  0.00     0.116 C 
BRANCH  29  30
ATOM     30  N   UNL A   1      32.462  34.215  27.588  1.00  0.00    -0.352 N 
ATOM     31  C   UNL A   1      33.036  34.864  28.646  1.00  0.00     0.251 C 
ATOM     32  H   UNL A   1      31.823  34.751  27.066  1.00  0.00     0.163 HD
ATOM     33  O   UNL A   1      32.571  35.935  29.039  1.00  0.00    -0.269 OA
BRANCH  31  34
ATOM     34  C   UNL A   1      34.213  34.287  29.323  1.00  0.00     0.039 A 
ATOM     35  C   UNL A   1      34.022  33.494  30.457  1.00  0.00     0.014 A 
ATOM     36  C   UNL A   1      35.506  34.565  28.867  1.00  0.00     0.014 A 
ATOM     37  C   UNL A   1      35.124  32.941  31.108  1.00  0.00     0.010 A 
ATOM     38  C   UNL A   1      36.599  33.958  29.477  1.00  0.00     0.010 A 
ATOM     39  C   UNL A   1      36.420  33.150  30.609  1.00  0.00    -0.014 A 
BRANCH  39  40
ATOM     40  C   UNL A   1      37.601  32.540  31.265  1.00  0.00     0.031 A 
ATOM     41  C   UNL A   1      38.342  31.418  30.592  1.00  0.00     0.074 A 
ATOM     42  C   UNL A   1      37.964  32.952  32.495  1.00  0.00     0.049 A 
ATOM     43  N   UNL A   1      39.350  30.709  31.032  1.00  0.00    -0.248 NA
ATOM     44  C   UNL A   1      37.869  31.024  29.256  1.00  0.00     0.031 C 
ATOM     45  C   UNL A   1      37.292  33.998  33.266  1.00  0.00     0.029 A 
ATOM     46  N   UNL A   1      38.978  32.532  33.316  1.00  0.00    -0.354 N 
ATOM     47  C   UNL A   1      39.618  29.777  30.039  1.00  0.00     0.074 A 
ATOM     48  C   UNL A   1      38.638  29.978  28.994  1.00  0.00     0.031 C 
ATOM     49  C   UNL A   1      37.923  34.151  34.441  1.00  0.00     0.029 A 
ATOM     50  C   UNL A   1      39.020  33.191  34.520  1.00  0.00     0.049 A 
ATOM     51  H   UNL A   1      39.617  31.824  33.066  1.00  0.00     0.167 HD
ATOM     52  C   UNL A   1      40.607  28.853  29.994  1.00  0.00     0.037 A 
ATOM     53  C   UNL A   1      39.845  33.032  35.571  1.00  0.00     0.037 A 
ATOM     54  C   UNL A   1      41.597  28.679  31.025  1.00  0.00     0.049 A 
ATOM     55  C   UNL A   1      40.940  32.002  35.493  1.00  0.00     0.074 A 
ATOM     56  C   UNL A   1      42.680  27.818  31.046  1.00  0.00     0.029 A 
ATOM     57  N   UNL A   1      41.622  29.383  32.220  1.00  0.00    -0.354 N 
ATOM     58  N   UNL A   1      41.227  31.174  34.519  1.00  0.00    -0.248 NA
ATOM     59  C   UNL A   1      41.828  31.892  36.658  1.00  0.00     0.031 C 
ATOM     60  C   UNL A   1      43.334  27.968  32.273  1.00  0.00     0.029 A 
ATOM     61  C   UNL A   1      42.689  28.959  32.995  1.00  0.00     0.049 A 
ATOM     62  H   UNL A   1      40.976  30.080  32.479  1.00  0.00     0.167 HD
ATOM     63  C   UNL A   1      42.344  30.464  34.940  1.00  0.00     0.074 A 
ATOM     64  C   UNL A   1      42.690  30.970  36.252  1.00  0.00     0.031 C 
ATOM     65  C   UNL A   1      43.021  29.480  34.297  1.00  0.00     0.037 A 
BRANCH  52  66
ATOM     66  C   UNL A   1      40.670  27.960  28.789  1.00  0.00     0.064 A 
ATOM     67  C   UNL A   1      39.930  26.769  28.716  1.00  0.00     0.173 A 
ATOM     68  C   UNL A   1      41.451  28.314  27.679  1.00  0.00     0.173 A 
ATOM     69  F   UNL A   1      39.175  26.379  29.754  1.00  0.00    -0.203 F 
ATOM     70  C   UNL A   1      39.993  25.953  27.589  1.00  0.00     0.198 A 
ATOM     71  C   UNL A   1      41.489  27.510  26.542  1.00  0.00     0.198 A 
ATOM     72  F   UNL A   1      42.174  29.443  27.695  1.00  0.00    -0.203 F 
ATOM     73  F   UNL A   1      39.316  24.797  27.563  1.00  0.00    -0.200 F 
ATOM     74  C   UNL A   1      40.766  26.327  26.501  1.00  0.00     0.200 A 
ATOM     75  F   UNL A   1      42.227  27.881  25.486  1.00  0.00    -0.200 F 
ATOM     76  F   UNL A   1      40.821  25.545  25.415  1.00  0.00    -0.200 F 
ENDBRANCH  52  66
BRANCH  53  77
ATOM     77  C   UNL A   1      39.684  33.887  36.775  1.00  0.00     0.064 A 
ATOM     78  C   UNL A   1      38.887  33.472  37.850  1.00  0.00     0.173 A 
ATOM     79  C   UNL A   1      40.326  35.130  36.880  1.00  0.00     0.173 A 
ATOM     80  F   UNL A   1      38.238  32.299  37.787  1.00  0.00    -0.203 F 
ATOM     81  C   UNL A   1      38.720  34.275  38.976  1.00  0.00     0.198 A 
ATOM     82  C   UNL A   1      40.181  35.920  38.018  1.00  0.00     0.198 A 
ATOM     83  F   UNL A   1      41.106  35.570  35.882  1.00  0.00    -0.203 F 
ATOM     84  F   UNL A   1      37.918  33.872  39.971  1.00  0.00    -0.200 F 
ATOM     85  C   UNL A   1      39.372  35.495  39.062  1.00  0.00     0.200 A 
ATOM     86  F   UNL A   1      40.826  37.091  38.104  1.00  0.00    -0.200 F 
ATOM     87  F   UNL A   1      39.217  36.265  40.148  1.00  0.00    -0.200 F 
ENDBRANCH  53  77
BRANCH  65  88
ATOM     88  C   UNL A   1      44.224  28.910  34.990  1.00  0.00     0.064 A 
ATOM     89  C   UNL A   1      44.130  27.784  35.821  1.00  0.00     0.173 A 
ATOM     90  C   UNL A   1      45.492  29.473  34.786  1.00  0.00     0.173 A 
ATOM     91  F   UNL A   1      42.937  27.220  36.059  1.00  0.00    -0.203 F 
ATOM     92  C   UNL A   1      45.260  27.258  36.442  1.00  0.00     0.198 A 
ATOM     93  C   UNL A   1      46.624  28.927  35.384  1.00  0.00     0.198 A 
ATOM     94  F   UNL A   1      45.636  30.548  33.995  1.00  0.00    -0.203 F 
ATOM     95  F   UNL A   1      45.140  26.210  37.268  1.00  0.00    -0.200 F 
ATOM     96  C   UNL A   1      46.505  27.825  36.217  1.00  0.00     0.200 A 
ATOM     97  F   UNL A   1      47.828  29.468  35.156  1.00  0.00    -0.200 F 
ATOM     98  F   UNL A   1      47.592  27.311  36.810  1.00  0.00    -0.200 F 
ENDBRANCH  65  88
ENDBRANCH  39  40
ENDBRANCH  31  34
ENDBRANCH  29  30
ENDBRANCH  28  29
ENDBRANCH  27  28
ENDBRANCH   1  27
TORSDOF 16
ENDMDL
MODEL 2
REMARK VINA RESULT:     -12.4      0.348      1.680
REMARK SMILES C[NH2+][C@@]1(C(=O)NCCCCCCNC(=O)c2ccc(-c3c4nc(c(-c5c(F)c(F)c(F)c(F)c5F)c5ccc([nH]5)c(-c5c(F)c(F)c(F)c(F)c5F)c5nc(c(-c6c(F)c(F)c(F)c(F)c6F)c6ccc3[nH]6)C=C5)C=C4)cc2)CCC[C@@H](Oc2cc(F)cc(F)c2)C1
REMARK SMILES IDX 9 1 8 2 7 3 6 4 4 5 5 6 3 8 79 9 92 10 80 11 82 12 81 13
REMARK SMILES IDX 2 14 1 15 83 18 84 19 85 20 91 21 86 22 89 23 87 24 88 25
REMARK SMILES IDX 90 26 10 27 11 28 12 29 13 30 14 31 15 33 16 34 17 35 78 36
REMARK SMILES IDX 18 37 77 38 19 39 20 40 21 41 71 42 22 43 76 44 70 45 72 46
REMARK SMILES IDX 23 47 75 48 69 49 68 50 24 52 56 53 36 54 55 55 37 56 40 57
REMARK SMILES IDX 54 58 73 59 38 60 39 61 53 63 74 64 41 65 25 66 26 67 34 68
REMARK SMILES IDX 27 69 28 70 32 71 35 72 29 73 30 74 33 75 31 76 57 77 58 78
REMARK SMILES IDX 66 79 59 80 60 81 64 82 67 83 61 84 62 85 65 86 63 87 42 88
REMARK SMILES IDX 43 89 51 90 44 91 45 92 49 93 52 94 46 95 47 96 50 97 48 98
REMARK H PARENT 6 7 2 16 2 17 13 32 72 51 40 62
REMARK Flexibility Score: inf
ROOT
ATOM      1  C   UNL A   1      32.586  29.948  27.192  1.00  0.00     0.002 C 
ENDROOT
BRANCH   1   2
ATOM      2  C   UNL A   1      32.244  28.491  27.511  1.00  0.00     0.021 C 
BRANCH   2   3
ATOM      3  C   UNL A   1      31.132  27.912  26.640  1.00  0.00     0.116 C 
BRANCH   3   4
ATOM      4  N   UNL A   1      30.927  26.503  26.858  1.00  0.00    -0.351 N 
ATOM      5  C   UNL A   1      31.497  25.391  26.340  1.00  0.00     0.281 C 
ATOM      6  O   UNL A   1      31.433  24.411  27.103  1.00  0.00    -0.268 OA
ATOM      7  H   UNL A   1      30.227  26.308  27.522  1.00  0.00     0.163 HD
BRANCH   5   8
ATOM      8  C   UNL A   1      32.212  25.245  24.924  1.00  0.00     0.178 C 
ATOM      9  C   UNL A   1      33.665  25.782  24.934  1.00  0.00     0.079 C 
ATOM     10  C   UNL A   1      31.423  25.746  23.700  1.00  0.00     0.124 C 
ATOM     11  C   UNL A   1      33.888  27.229  24.500  1.00  0.00     0.011 C 
ATOM     12  C   UNL A   1      31.604  27.216  23.337  1.00  0.00     0.180 C 
ATOM     13  C   UNL A   1      33.073  27.652  23.280  1.00  0.00     0.046 C 
BRANCH   8  14
ATOM     14  N   UNL A   1      32.420  23.745  24.751  1.00  0.00    -0.336 N 
ATOM     15  C   UNL A   1      31.607  23.109  23.715  1.00  0.00     0.331 C 
ATOM     16  H   UNL A   1      33.401  23.589  24.521  1.00  0.00     0.346 HD
ATOM     17  H   UNL A   1      32.130  23.322  25.633  1.00  0.00     0.346 HD
ENDBRANCH   8  14
BRANCH  12  18
ATOM     18  O   UNL A   1      30.786  27.596  22.211  1.00  0.00    -0.490 OA
BRANCH  18  19
ATOM     19  C   UNL A   1      29.814  28.525  22.419  1.00  0.00     0.125 A 
ATOM     20  C   UNL A   1      28.608  28.093  22.969  1.00  0.00     0.085 A 
ATOM     21  C   UNL A   1      29.950  29.837  21.977  1.00  0.00     0.085 A 
ATOM     22  C   UNL A   1      27.564  28.999  23.124  1.00  0.00     0.129 A 
ATOM     23  C   UNL A   1      28.893  30.726  22.149  1.00  0.00     0.129 A 
ATOM     24  F   UNL A   1      26.408  28.584  23.657  1.00  0.00    -0.207 F 
ATOM     25  C   UNL A   1      27.698  30.321  22.726  1.00  0.00     0.078 A 
ATOM     26  F   UNL A   1      29.028  31.992  21.734  1.00  0.00    -0.207 F 
ENDBRANCH  18  19
ENDBRANCH  12  18
ENDBRANCH   5   8
ENDBRANCH   3   4
ENDBRANCH   2   3
ENDBRANCH   1   2
BRANCH   1  27
ATOM     27  C   UNL A   1      31.519  30.707  26.389  1.00  0.00     0.002 C 
BRANCH  27  28
ATOM     28  C   UNL A   1      31.417  32.207  26.678  1.00  0.00     0.021 C 
BRANCH  28  29
ATOM     29  C   UNL A   1      32.742  32.883  27.021  1.00  0.00     0.116 C 
BRANCH  29  30
ATOM     30  N   UNL A   1      32.541  34.207  27.589  1.00  0.00    -0.352 N 
ATOM     31  C   UNL A   1      33.089  34.773  28.707  1.00  0.00     0.251 C 
ATOM     32  H   UNL A   1      31.914  34.782  27.094  1.00  0.00     0.163 HD
ATOM     33  O   UNL A   1      32.615  35.813  29.168  1.00  0.00    -0.269 OA
BRANCH  31  34
ATOM     34  C   UNL A   1      34.249  34.145  29.366  1.00  0.00     0.039 A 
ATOM     35  C   UNL A   1      35.536  34.479  28.937  1.00  0.00     0.014 A 
ATOM     36  C   UNL A   1      34.067  33.195  30.376  1.00  0.00     0.014 A 
ATOM     37  C   UNL A   1      36.644  33.894  29.552  1.00  0.00     0.010 A 
ATOM     38  C   UNL A   1      35.174  32.663  31.033  1.00  0.00     0.010 A 
ATOM     39  C   UNL A   1      36.471  33.000  30.620  1.00  0.00    -0.014 A 
BRANCH  39  40
ATOM     40  C   UNL A   1      37.636  32.396  31.310  1.00  0.00     0.031 A 
ATOM     41  C   UNL A   1      38.380  31.255  30.674  1.00  0.00     0.074 A 
ATOM     42  C   UNL A   1      37.981  32.832  32.536  1.00  0.00     0.049 A 
ATOM     43  N   UNL A   1      39.375  30.548  31.146  1.00  0.00    -0.248 NA
ATOM     44  C   UNL A   1      37.927  30.835  29.339  1.00  0.00     0.031 C 
ATOM     45  C   UNL A   1      37.303  33.899  33.274  1.00  0.00     0.029 A 
ATOM     46  N   UNL A   1      38.978  32.423  33.384  1.00  0.00    -0.354 N 
ATOM     47  C   UNL A   1      39.653  29.593  30.178  1.00  0.00     0.074 A 
ATOM     48  C   UNL A   1      38.692  29.778  29.112  1.00  0.00     0.031 C 
ATOM     49  C   UNL A   1      37.915  34.073  34.456  1.00  0.00     0.029 A 
ATOM     50  C   UNL A   1      39.003  33.107  34.574  1.00  0.00     0.049 A 
ATOM     51  H   UNL A   1      39.615  31.705  33.160  1.00  0.00     0.167 HD
ATOM     52  C   UNL A   1      40.636  28.662  30.170  1.00  0.00     0.037 A 
ATOM     53  C   UNL A   1      39.810  32.965  35.643  1.00  0.00     0.037 A 
ATOM     54  C   UNL A   1      41.607  28.504  31.221  1.00  0.00     0.049 A 
ATOM     55  C   UNL A   1      40.898  31.926  35.605  1.00  0.00     0.074 A 
ATOM     56  C   UNL A   1      42.683  27.636  31.279  1.00  0.00     0.029 A 
ATOM     57  N   UNL A   1      41.616  29.233  32.402  1.00  0.00    -0.354 N 
ATOM     58  N   UNL A   1      41.196  31.075  34.655  1.00  0.00    -0.248 NA
ATOM     59  C   UNL A   1      41.765  31.835  36.787  1.00  0.00     0.031 C 
ATOM     60  C   UNL A   1      43.317  27.807  32.514  1.00  0.00     0.029 A 
ATOM     61  C   UNL A   1      42.667  28.818  33.204  1.00  0.00     0.049 A 
ATOM     62  H   UNL A   1      40.972  29.940  32.634  1.00  0.00     0.167 HD
ATOM     63  C   UNL A   1      42.300  30.366  35.109  1.00  0.00     0.074 A 
ATOM     64  C   UNL A   1      42.627  30.899  36.416  1.00  0.00     0.031 C 
ATOM     65  C   UNL A   1      42.981  29.364  34.500  1.00  0.00     0.037 A 
BRANCH  52  66
ATOM     66  C   UNL A   1      40.713  27.742  28.986  1.00  0.00     0.064 A 
ATOM     67  C   UNL A   1      41.609  27.975  27.930  1.00  0.00     0.173 A 
ATOM     68  C   UNL A   1      39.909  26.595  28.921  1.00  0.00     0.173 A 
ATOM     69  F   UNL A   1      42.393  29.063  27.937  1.00  0.00    -0.203 F 
ATOM     70  C   UNL A   1      41.674  27.109  26.841  1.00  0.00     0.198 A 
ATOM     71  C   UNL A   1      39.998  25.715  27.844  1.00  0.00     0.198 A 
ATOM     72  F   UNL A   1      39.040  26.322  29.906  1.00  0.00    -0.203 F 
ATOM     73  F   UNL A   1      42.501  27.379  25.821  1.00  0.00    -0.200 F 
ATOM     74  C   UNL A   1      40.875  25.977  26.802  1.00  0.00     0.200 A 
ATOM     75  F   UNL A   1      39.234  24.614  27.816  1.00  0.00    -0.200 F 
ATOM     76  F   UNL A   1      40.944  25.142  25.758  1.00  0.00    -0.200 F 
ENDBRANCH  52  66
BRANCH  53  77
ATOM     77  C   UNL A   1      39.634  33.847  36.824  1.00  0.00     0.064 A 
ATOM     78  C   UNL A   1      38.828  33.453  37.902  1.00  0.00     0.173 A 
ATOM     79  C   UNL A   1      40.270  35.094  36.907  1.00  0.00     0.173 A 
ATOM     80  F   UNL A   1      38.185  32.277  37.860  1.00  0.00    -0.203 F 
ATOM     81  C   UNL A   1      38.648  34.282  39.007  1.00  0.00     0.198 A 
ATOM     82  C   UNL A   1      40.112  35.910  38.026  1.00  0.00     0.198 A 
ATOM     83  F   UNL A   1      41.059  35.514  35.907  1.00  0.00    -0.203 F 
ATOM     84  F   UNL A   1      37.838  33.898  40.004  1.00  0.00    -0.200 F 
ATOM     85  C   UNL A   1      39.295  35.506  39.071  1.00  0.00     0.200 A 
ATOM     86  F   UNL A   1      40.752  37.085  38.091  1.00  0.00    -0.200 F 
ATOM     87  F   UNL A   1      39.127  36.300  40.138  1.00  0.00    -0.200 F 
ENDBRANCH  53  77
BRANCH  65  88
ATOM     88  C   UNL A   1      44.167  28.801  35.225  1.00  0.00     0.064 A 
ATOM     89  C   UNL A   1      45.449  29.349  35.075  1.00  0.00     0.173 A 
ATOM     90  C   UNL A   1      44.010  27.727  36.114  1.00  0.00     0.173 A 
ATOM     91  F   UNL A   1      45.653  30.367  34.226  1.00  0.00    -0.203 F 
ATOM     92  C   UNL A   1      46.536  28.825  35.772  1.00  0.00     0.198 A 
ATOM     93  C   UNL A   1      45.093  27.225  36.830  1.00  0.00     0.198 A 
ATOM     94  F   UNL A   1      42.802  27.171  36.297  1.00  0.00    -0.203 F 
ATOM     95  F   UNL A   1      47.760  29.334  35.578  1.00  0.00    -0.200 F 
ATOM     96  C   UNL A   1      46.355  27.770  36.652  1.00  0.00     0.200 A 
ATOM     97  F   UNL A   1      44.914  26.214  37.691  1.00  0.00    -0.200 F 
ATOM     98  F   UNL A   1      47.402  27.273  37.327  1.00  0.00    -0.200 F 
ENDBRANCH  65  88
ENDBRANCH  39  40
ENDBRANCH  31  34
ENDBRANCH  29  30
ENDBRANCH  28  29
ENDBRANCH  27  28
ENDBRANCH   1  27
TORSDOF 16
ENDMDL
MODEL 3
REMARK VINA RESULT:     -12.2      4.594     10.545
REMARK SMILES C[NH2+][C@@]1(C(=O)NCCCCCCNC(=O)c2ccc(-c3c4nc(c(-c5c(F)c(F)c(F)c(F)c5F)c5ccc([nH]5)c(-c5c(F)c(F)c(F)c(F)c5F)c5nc(c(-c6c(F)c(F)c(F)c(F)c6F)c6ccc3[nH]6)C=C5)C=C4)cc2)CCC[C@@H](Oc2cc(F)cc(F)c2)C1
REMARK SMILES IDX 9 1 8 2 7 3 6 4 4 5 5 6 3 8 79 9 92 10 80 11 82 12 81 13
REMARK SMILES IDX 2 14 1 15 83 18 84 19 85 20 91 21 86 22 89 23 87 24 88 25
REMARK SMILES IDX 90 26 10 27 11 28 12 29 13 30 14 31 15 33 16 34 17 35 78 36
REMARK SMILES IDX 18 37 77 38 19 39 20 40 21 41 71 42 22 43 76 44 70 45 72 46
REMARK SMILES IDX 23 47 75 48 69 49 68 50 24 52 56 53 36 54 55 55 37 56 40 57
REMARK SMILES IDX 54 58 73 59 38 60 39 61 53 63 74 64 41 65 25 66 26 67 34 68
REMARK SMILES IDX 27 69 28 70 32 71 35 72 29 73 30 74 33 75 31 76 57 77 58 78
REMARK SMILES IDX 66 79 59 80 60 81 64 82 67 83 61 84 62 85 65 86 63 87 42 88
REMARK SMILES IDX 43 89 51 90 44 91 45 92 49 93 52 94 46 95 47 96 50 97 48 98
REMARK H PARENT 6 7 2 16 2 17 13 32 72 51 40 62
REMARK Flexibility Score: inf
ROOT
ATOM      1  C   UNL A   1      38.332  34.133  29.164  1.00  0.00     0.002 C 
ENDROOT
BRANCH   1   2
ATOM      2  C   UNL A   1      39.120  34.593  30.392  1.00  0.00     0.021 C 
BRANCH   2   3
ATOM      3  C   UNL A   1      38.307  34.590  31.685  1.00  0.00     0.116 C 
BRANCH   3   4
ATOM      4  N   UNL A   1      39.133  34.569  32.865  1.00  0.00    -0.351 N 
ATOM      5  C   UNL A   1      39.200  33.746  33.937  1.00  0.00     0.281 C 
ATOM      6  O   UNL A   1      40.321  33.737  34.474  1.00  0.00    -0.268 OA
ATOM      7  H   UNL A   1      39.785  35.306  32.899  1.00  0.00     0.163 HD
BRANCH   5   8
ATOM      8  C   UNL A   1      38.034  32.834  34.525  1.00  0.00     0.178 C 
ATOM      9  C   UNL A   1      37.924  31.469  33.799  1.00  0.00     0.079 C 
ATOM     10  C   UNL A   1      36.658  33.503  34.700  1.00  0.00     0.124 C 
ATOM     11  C   UNL A   1      36.940  31.362  32.637  1.00  0.00     0.011 C 
ATOM     12  C   UNL A   1      35.724  33.450  33.495  1.00  0.00     0.180 C 
ATOM     13  C   UNL A   1      35.599  32.049  32.885  1.00  0.00     0.046 C 
BRANCH   8  14
ATOM     14  N   UNL A   1      38.525  32.428  35.909  1.00  0.00    -0.336 N 
ATOM     15  C   UNL A   1      38.128  31.093  36.355  1.00  0.00     0.331 C 
ATOM     16  H   UNL A   1      39.543  32.468  35.904  1.00  0.00     0.346 HD
ATOM     17  H   UNL A   1      38.088  33.081  36.560  1.00  0.00     0.346 HD
ENDBRANCH   8  14
BRANCH  12  18
ATOM     18  O   UNL A   1      34.486  34.147  33.744  1.00  0.00    -0.490 OA
BRANCH  18  19
ATOM     19  C   UNL A   1      34.141  35.150  32.891  1.00  0.00     0.125 A 
ATOM     20  C   UNL A   1      34.300  36.462  33.332  1.00  0.00     0.085 A 
ATOM     21  C   UNL A   1      33.520  34.892  31.673  1.00  0.00     0.085 A 
ATOM     22  C   UNL A   1      33.886  37.511  32.518  1.00  0.00     0.129 A 
ATOM     23  C   UNL A   1      33.120  35.959  30.874  1.00  0.00     0.129 A 
ATOM     24  F   UNL A   1      34.043  38.772  32.940  1.00  0.00    -0.207 F 
ATOM     25  C   UNL A   1      33.302  37.272  31.282  1.00  0.00     0.078 A 
ATOM     26  F   UNL A   1      32.533  35.711  29.696  1.00  0.00    -0.207 F 
ENDBRANCH  18  19
ENDBRANCH  12  18
ENDBRANCH   5   8
ENDBRANCH   3   4
ENDBRANCH   2   3
ENDBRANCH   1   2
BRANCH   1  27
ATOM     27  C   UNL A   1      37.314  33.013  29.425  1.00  0.00     0.002 C 
BRANCH  27  28
ATOM     28  C   UNL A   1      35.948  33.194  28.758  1.00  0.00     0.021 C 
BRANCH  28  29
ATOM     29  C   UNL A   1      34.797  32.468  29.450  1.00  0.00     0.116 C 
BRANCH  29  30
ATOM     30  N   UNL A   1      34.194  31.465  28.587  1.00  0.00    -0.352 N 
ATOM     31  C   UNL A   1      34.772  30.414  27.929  1.00  0.00     0.251 C 
ATOM     32  H   UNL A   1      33.223  31.557  28.457  1.00  0.00     0.163 HD
ATOM     33  O   UNL A   1      34.147  29.819  27.049  1.00  0.00    -0.269 OA
BRANCH  31  34
ATOM     34  C   UNL A   1      36.143  29.988  28.266  1.00  0.00     0.039 A 
ATOM     35  C   UNL A   1      37.147  30.108  27.302  1.00  0.00     0.014 A 
ATOM     36  C   UNL A   1      36.429  29.430  29.516  1.00  0.00     0.014 A 
ATOM     37  C   UNL A   1      38.449  29.710  27.606  1.00  0.00     0.010 A 
ATOM     38  C   UNL A   1      37.741  29.096  29.840  1.00  0.00     0.010 A 
ATOM     39  C   UNL A   1      38.760  29.223  28.886  1.00  0.00    -0.014 A 
BRANCH  39  40
ATOM     40  C   UNL A   1      40.145  28.830  29.239  1.00  0.00     0.031 A 
ATOM     41  C   UNL A   1      41.007  29.755  30.051  1.00  0.00     0.074 A 
ATOM     42  C   UNL A   1      40.646  27.670  28.772  1.00  0.00     0.049 A 
ATOM     43  N   UNL A   1      42.261  29.626  30.402  1.00  0.00    -0.248 NA
ATOM     44  C   UNL A   1      40.382  31.007  30.509  1.00  0.00     0.031 C 
ATOM     45  C   UNL A   1      39.920  26.714  27.935  1.00  0.00     0.029 A 
ATOM     46  N   UNL A   1      41.886  27.105  28.924  1.00  0.00    -0.354 N 
ATOM     47  C   UNL A   1      42.579  30.782  31.102  1.00  0.00     0.074 A 
ATOM     48  C   UNL A   1      41.402  31.624  31.086  1.00  0.00     0.031 C 
ATOM     49  C   UNL A   1      40.722  25.673  27.662  1.00  0.00     0.029 A 
ATOM     50  C   UNL A   1      42.027  25.904  28.274  1.00  0.00     0.049 A 
ATOM     51  H   UNL A   1      42.607  27.522  29.450  1.00  0.00     0.167 HD
ATOM     52  C   UNL A   1      43.740  31.101  31.720  1.00  0.00     0.037 A 
ATOM     53  C   UNL A   1      43.091  25.086  28.177  1.00  0.00     0.037 A 
ATOM     54  C   UNL A   1      44.897  30.245  31.757  1.00  0.00     0.049 A 
ATOM     55  C   UNL A   1      44.368  25.462  28.879  1.00  0.00     0.074 A 
ATOM     56  C   UNL A   1      46.100  30.445  32.411  1.00  0.00     0.029 A 
ATOM     57  N   UNL A   1      44.994  29.023  31.106  1.00  0.00    -0.354 N 
ATOM     58  N   UNL A   1      44.635  26.525  29.597  1.00  0.00    -0.248 NA
ATOM     59  C   UNL A   1      45.489  24.519  28.763  1.00  0.00     0.031 C 
ATOM     60  C   UNL A   1      46.941  29.367  32.121  1.00  0.00     0.029 A 
ATOM     61  C   UNL A   1      46.245  28.469  31.327  1.00  0.00     0.049 A 
ATOM     62  H   UNL A   1      44.280  28.612  30.568  1.00  0.00     0.167 HD
ATOM     63  C   UNL A   1      45.942  26.368  30.041  1.00  0.00     0.074 A 
ATOM     64  C   UNL A   1      46.407  25.098  29.522  1.00  0.00     0.031 C 
ATOM     65  C   UNL A   1      46.689  27.201  30.807  1.00  0.00     0.037 A 
BRANCH  52  66
ATOM     66  C   UNL A   1      43.818  32.432  32.412  1.00  0.00     0.064 A 
ATOM     67  C   UNL A   1      43.581  32.560  33.789  1.00  0.00     0.173 A 
ATOM     68  C   UNL A   1      44.168  33.587  31.697  1.00  0.00     0.173 A 
ATOM     69  F   UNL A   1      43.233  31.489  34.517  1.00  0.00    -0.203 F 
ATOM     70  C   UNL A   1      43.663  33.800  34.418  1.00  0.00     0.198 A 
ATOM     71  C   UNL A   1      44.278  34.820  32.335  1.00  0.00     0.198 A 
ATOM     72  F   UNL A   1      44.409  33.519  30.379  1.00  0.00    -0.203 F 
ATOM     73  F   UNL A   1      43.384  33.906  35.725  1.00  0.00    -0.200 F 
ATOM     74  C   UNL A   1      44.019  34.927  33.693  1.00  0.00     0.200 A 
ATOM     75  F   UNL A   1      44.635  35.906  31.635  1.00  0.00    -0.200 F 
ATOM     76  F   UNL A   1      44.104  36.117  34.301  1.00  0.00    -0.200 F 
ENDBRANCH  52  66
BRANCH  53  77
ATOM     77  C   UNL A   1      42.985  23.821  27.408  1.00  0.00     0.064 A 
ATOM     78  C   UNL A   1      42.508  22.650  28.013  1.00  0.00     0.173 A 
ATOM     79  C   UNL A   1      43.350  23.754  26.056  1.00  0.00     0.173 A 
ATOM     80  F   UNL A   1      42.164  22.660  29.309  1.00  0.00    -0.203 F 
ATOM     81  C   UNL A   1      42.419  21.456  27.301  1.00  0.00     0.198 A 
ATOM     82  C   UNL A   1      43.234  22.566  25.337  1.00  0.00     0.198 A 
ATOM     83  F   UNL A   1      43.805  24.848  25.428  1.00  0.00    -0.203 F 
ATOM     84  F   UNL A   1      41.999  20.341  27.915  1.00  0.00    -0.200 F 
ATOM     85  C   UNL A   1      42.776  21.417  25.962  1.00  0.00     0.200 A 
ATOM     86  F   UNL A   1      43.565  22.537  24.039  1.00  0.00    -0.200 F 
ATOM     87  F   UNL A   1      42.684  20.269  25.275  1.00  0.00    -0.200 F 
ENDBRANCH  53  77
BRANCH  65  88
ATOM     88  C   UNL A   1      48.075  26.749  31.159  1.00  0.00     0.064 A 
ATOM     89  C   UNL A   1      49.190  27.137  30.402  1.00  0.00     0.173 A 
ATOM     90  C   UNL A   1      48.295  25.953  32.293  1.00  0.00     0.173 A 
ATOM     91  F   UNL A   1      49.030  27.886  29.301  1.00  0.00    -0.203 F 
ATOM     92  C   UNL A   1      50.472  26.724  30.755  1.00  0.00     0.198 A 
ATOM     93  C   UNL A   1      49.581  25.565  32.659  1.00  0.00     0.198 A 
ATOM     94  F   UNL A   1      47.262  25.559  33.054  1.00  0.00    -0.203 F 
ATOM     95  F   UNL A   1      51.518  27.068  29.991  1.00  0.00    -0.200 F 
ATOM     96  C   UNL A   1      50.667  25.946  31.885  1.00  0.00     0.200 A 
ATOM     97  F   UNL A   1      49.768  24.824  33.760  1.00  0.00    -0.200 F 
ATOM     98  F   UNL A   1      51.903  25.556  32.226  1.00  0.00    -0.200 F 
ENDBRANCH  65  88
ENDBRANCH  39  40
ENDBRANCH  31  34
ENDBRANCH  29  30
ENDBRANCH  28  29
ENDBRANCH  27  28
ENDBRANCH   1  27
TORSDOF 16
ENDMDL
