MODEL 1
REMARK VINA RESULT:     -11.4      0.000      0.000
REMARK SMILES C=CCOc1ccccc1/C=C1\SC(=S)N(CC(=O)NCCCCCCNC(=O)c2ccc(-c3c4nc(c(-c5c(F)c(F)c(F)c(F)c5F)c5ccc([nH]5)c(-c5c(F)c(F)c(F)c(F)c5F)c5nc(c(-c6c(F)c(F)c(F)c(F)c6F)c6ccc3[nH]6)C=C5)C=C4)cc2)C1=O
REMARK SMILES IDX 22 1 21 2 20 3 18 4 19 5 17 7 16 8 11 9 12 10 13 11 93 12
REMARK SMILES IDX 14 13 94 14 15 15 10 16 5 17 6 18 7 19 9 20 8 21 4 22 3 23
REMARK SMILES IDX 2 24 1 25 23 26 24 27 25 28 26 29 27 30 28 31 29 33 30 34
REMARK SMILES IDX 31 35 92 36 32 37 91 38 33 39 34 40 35 41 85 42 36 43 90 44
REMARK SMILES IDX 84 45 86 46 37 47 89 48 83 49 82 50 38 52 70 53 50 54 69 55
REMARK SMILES IDX 51 56 54 57 68 58 87 59 52 60 53 61 67 63 88 64 55 65 39 66
REMARK SMILES IDX 40 67 48 68 41 69 42 70 46 71 49 72 43 73 44 74 47 75 45 76
REMARK SMILES IDX 71 77 72 78 80 79 73 80 74 81 78 82 81 83 75 84 76 85 79 86
REMARK SMILES IDX 77 87 56 88 57 89 65 90 58 91 59 92 63 93 66 94 60 95 61 96
REMARK SMILES IDX 64 97 62 98
REMARK H PARENT 20 6 27 32 86 51 54 62
REMARK Flexibility Score: inf
ROOT
ATOM      1  C   UNL A   1      32.816  29.726  25.035  1.00  0.00     0.021 C 
ENDROOT
BRANCH   1   2
ATOM      2  C   UNL A   1      32.982  28.360  24.373  1.00  0.00     0.116 C 
BRANCH   2   3
ATOM      3  N   UNL A   1      33.504  27.370  25.288  1.00  0.00    -0.355 N 
ATOM      4  C   UNL A   1      33.083  26.105  25.565  1.00  0.00     0.240 C 
ATOM      5  O   UNL A   1      33.846  25.397  26.231  1.00  0.00    -0.273 OA
ATOM      6  H   UNL A   1      34.295  27.659  25.797  1.00  0.00     0.163 HD
BRANCH   4   7
ATOM      7  C   UNL A   1      31.831  25.493  24.926  1.00  0.00     0.227 C 
BRANCH   7   8
ATOM      8  N   UNL A   1      32.006  24.195  24.285  1.00  0.00    -0.283 N 
ATOM      9  C   UNL A   1      32.217  20.661  24.905  1.00  0.00     0.033 C 
ATOM     10  C   UNL A   1      32.136  21.848  24.293  1.00  0.00     0.081 C 
ATOM     11  S   UNL A   1      32.569  22.262  22.685  1.00  0.00    -0.054 SA
ATOM     12  C   UNL A   1      31.773  23.068  25.054  1.00  0.00     0.266 C 
ATOM     13  C   UNL A   1      32.533  23.984  23.027  1.00  0.00     0.148 C 
ATOM     14  O   UNL A   1      31.363  23.061  26.207  1.00  0.00    -0.268 OA
ATOM     15  S   UNL A   1      33.069  25.113  21.921  1.00  0.00    -0.052 S 
BRANCH   9  16
ATOM     16  C   UNL A   1      32.907  19.480  24.371  1.00  0.00     0.018 A 
ATOM     17  C   UNL A   1      34.231  19.175  24.738  1.00  0.00     0.127 A 
ATOM     18  C   UNL A   1      34.877  18.058  24.211  1.00  0.00     0.047 A 
ATOM     19  C   UNL A   1      34.181  17.192  23.368  1.00  0.00     0.004 A 
ATOM     20  C   UNL A   1      32.211  18.593  23.545  1.00  0.00     0.012 A 
ATOM     21  C   UNL A   1      32.847  17.452  23.047  1.00  0.00     0.001 A 
BRANCH  17  22
ATOM     22  O   UNL A   1      34.949  20.007  25.565  1.00  0.00    -0.489 OA
BRANCH  22  23
ATOM     23  C   UNL A   1      36.135  20.505  24.931  1.00  0.00     0.257 C 
BRANCH  23  24
ATOM     24  C   UNL A   1      35.876  21.880  24.386  1.00  0.00     0.006 C 
ATOM     25  C   UNL A   1      36.351  23.012  24.925  1.00  0.00     0.007 C 
ENDBRANCH  23  24
ENDBRANCH  22  23
ENDBRANCH  17  22
ENDBRANCH   9  16
ENDBRANCH   7   8
ENDBRANCH   4   7
ENDBRANCH   2   3
ENDBRANCH   1   2
BRANCH   1  26
ATOM     26  C   UNL A   1      31.407  29.997  25.572  1.00  0.00     0.002 C 
BRANCH  26  27
ATOM     27  C   UNL A   1      31.043  31.477  25.720  1.00  0.00     0.002 C 
BRANCH  27  28
ATOM     28  C   UNL A   1      31.382  32.095  27.079  1.00  0.00     0.021 C 
BRANCH  28  29
ATOM     29  C   UNL A   1      32.667  32.918  27.100  1.00  0.00     0.116 C 
BRANCH  29  30
ATOM     30  N   UNL A   1      32.436  34.275  27.569  1.00  0.00    -0.352 N 
ATOM     31  C   UNL A   1      33.000  34.940  28.627  1.00  0.00     0.251 C 
ATOM     32  H   UNL A   1      31.777  34.792  27.051  1.00  0.00     0.163 HD
ATOM     33  O   UNL A   1      32.535  36.012  29.001  1.00  0.00    -0.269 OA
BRANCH  31  34
ATOM     34  C   UNL A   1      34.164  34.360  29.328  1.00  0.00     0.039 A 
ATOM     35  C   UNL A   1      33.947  33.598  30.479  1.00  0.00     0.014 A 
ATOM     36  C   UNL A   1      35.465  34.585  28.870  1.00  0.00     0.014 A 
ATOM     37  C   UNL A   1      35.031  33.020  31.142  1.00  0.00     0.010 A 
ATOM     38  C   UNL A   1      36.539  33.950  29.489  1.00  0.00     0.010 A 
ATOM     39  C   UNL A   1      36.333  33.168  30.635  1.00  0.00    -0.014 A 
BRANCH  39  40
ATOM     40  C   UNL A   1      37.490  32.516  31.298  1.00  0.00     0.031 A 
ATOM     41  C   UNL A   1      38.210  31.383  30.623  1.00  0.00     0.074 A 
ATOM     42  C   UNL A   1      37.854  32.907  32.534  1.00  0.00     0.049 A 
ATOM     43  N   UNL A   1      39.215  30.663  31.056  1.00  0.00    -0.248 NA
ATOM     44  C   UNL A   1      37.719  30.987  29.294  1.00  0.00     0.031 C 
ATOM     45  C   UNL A   1      37.206  33.964  33.310  1.00  0.00     0.029 A 
ATOM     46  N   UNL A   1      38.857  32.458  33.356  1.00  0.00    -0.354 N 
ATOM     47  C   UNL A   1      39.461  29.722  30.065  1.00  0.00     0.074 A 
ATOM     48  C   UNL A   1      38.470  29.928  29.032  1.00  0.00     0.031 C 
ATOM     49  C   UNL A   1      37.847  34.105  34.481  1.00  0.00     0.029 A 
ATOM     50  C   UNL A   1      38.927  33.125  34.554  1.00  0.00     0.049 A 
ATOM     51  H   UNL A   1      39.468  31.726  33.110  1.00  0.00     0.167 HD
ATOM     52  C   UNL A   1      40.438  28.785  30.014  1.00  0.00     0.037 A 
ATOM     53  C   UNL A   1      39.769  32.965  35.592  1.00  0.00     0.037 A 
ATOM     54  C   UNL A   1      41.439  28.603  31.032  1.00  0.00     0.049 A 
ATOM     55  C   UNL A   1      40.840  31.911  35.511  1.00  0.00     0.074 A 
ATOM     56  C   UNL A   1      42.519  27.738  31.038  1.00  0.00     0.029 A 
ATOM     57  N   UNL A   1      41.477  29.297  32.233  1.00  0.00    -0.354 N 
ATOM     58  N   UNL A   1      41.116  31.083  34.535  1.00  0.00    -0.248 NA
ATOM     59  C   UNL A   1      41.718  31.775  36.682  1.00  0.00     0.031 C 
ATOM     60  C   UNL A   1      43.179  27.871  32.264  1.00  0.00     0.029 A 
ATOM     61  C   UNL A   1      42.544  28.858  33.001  1.00  0.00     0.049 A 
ATOM     62  H   UNL A   1      40.840  29.999  32.500  1.00  0.00     0.167 HD
ATOM     63  C   UNL A   1      42.218  30.350  34.955  1.00  0.00     0.074 A 
ATOM     64  C   UNL A   1      42.566  30.841  36.273  1.00  0.00     0.031 C 
ATOM     65  C   UNL A   1      42.882  29.361  34.308  1.00  0.00     0.037 A 
BRANCH  52  66
ATOM     66  C   UNL A   1      40.465  27.879  28.815  1.00  0.00     0.064 A 
ATOM     67  C   UNL A   1      39.744  26.675  28.781  1.00  0.00     0.173 A 
ATOM     68  C   UNL A   1      41.209  28.227  27.678  1.00  0.00     0.173 A 
ATOM     69  F   UNL A   1      39.025  26.288  29.847  1.00  0.00    -0.203 F 
ATOM     70  C   UNL A   1      39.797  25.837  27.671  1.00  0.00     0.198 A 
ATOM     71  C   UNL A   1      41.234  27.402  26.556  1.00  0.00     0.198 A 
ATOM     72  F   UNL A   1      41.911  29.370  27.653  1.00  0.00    -0.203 F 
ATOM     73  F   UNL A   1      39.149  24.664  27.686  1.00  0.00    -0.200 F 
ATOM     74  C   UNL A   1      40.538  26.204  26.557  1.00  0.00     0.200 A 
ATOM     75  F   UNL A   1      41.939  27.766  25.476  1.00  0.00    -0.200 F 
ATOM     76  F   UNL A   1      40.587  25.397  25.488  1.00  0.00    -0.200 F 
ENDBRANCH  52  66
BRANCH  53  77
ATOM     77  C   UNL A   1      39.662  33.853  36.777  1.00  0.00     0.064 A 
ATOM     78  C   UNL A   1      40.388  35.052  36.839  1.00  0.00     0.173 A 
ATOM     79  C   UNL A   1      38.841  33.531  37.867  1.00  0.00     0.173 A 
ATOM     80  F   UNL A   1      41.203  35.392  35.829  1.00  0.00    -0.203 F 
ATOM     81  C   UNL A   1      40.309  35.885  37.951  1.00  0.00     0.198 A 
ATOM     82  C   UNL A   1      38.742  34.379  38.968  1.00  0.00     0.198 A 
ATOM     83  F   UNL A   1      38.124  32.398  37.855  1.00  0.00    -0.203 F 
ATOM     84  F   UNL A   1      41.045  37.004  38.001  1.00  0.00    -0.200 F 
ATOM     85  C   UNL A   1      39.482  35.552  39.013  1.00  0.00     0.200 A 
ATOM     86  F   UNL A   1      37.931  34.060  39.986  1.00  0.00    -0.200 F 
ATOM     87  F   UNL A   1      39.402  36.356  40.081  1.00  0.00    -0.200 F 
ENDBRANCH  53  77
BRANCH  65  88
ATOM     88  C   UNL A   1      44.076  28.771  35.000  1.00  0.00     0.064 A 
ATOM     89  C   UNL A   1      45.358  29.321  34.860  1.00  0.00     0.173 A 
ATOM     90  C   UNL A   1      43.929  27.654  35.838  1.00  0.00     0.173 A 
ATOM     91  F   UNL A   1      45.555  30.379  34.057  1.00  0.00    -0.203 F 
ATOM     92  C   UNL A   1      46.454  28.758  35.510  1.00  0.00     0.198 A 
ATOM     93  C   UNL A   1      45.022  27.114  36.511  1.00  0.00     0.198 A 
ATOM     94  F   UNL A   1      42.724  27.093  36.012  1.00  0.00    -0.203 F 
ATOM     95  F   UNL A   1      47.678  29.269  35.319  1.00  0.00    -0.200 F 
ATOM     96  C   UNL A   1      46.284  27.661  36.340  1.00  0.00     0.200 A 
ATOM     97  F   UNL A   1      44.852  26.062  37.324  1.00  0.00    -0.200 F 
ATOM     98  F   UNL A   1      47.339  27.125  36.968  1.00  0.00    -0.200 F 
ENDBRANCH  65  88
ENDBRANCH  39  40
ENDBRANCH  31  34
ENDBRANCH  29  30
ENDBRANCH  28  29
ENDBRANCH  27  28
ENDBRANCH  26  27
ENDBRANCH   1  26
TORSDOF 18
ENDMDL
MODEL 2
REMARK VINA RESULT:     -11.2      5.048     10.085
REMARK SMILES C=CCOc1ccccc1/C=C1\SC(=S)N(CC(=O)NCCCCCCNC(=O)c2ccc(-c3c4nc(c(-c5c(F)c(F)c(F)c(F)c5F)c5ccc([nH]5)c(-c5c(F)c(F)c(F)c(F)c5F)c5nc(c(-c6c(F)c(F)c(F)c(F)c6F)c6ccc3[nH]6)C=C5)C=C4)cc2)C1=O
REMARK SMILES IDX 22 1 21 2 20 3 18 4 19 5 17 7 16 8 11 9 12 10 13 11 93 12
REMARK SMILES IDX 14 13 94 14 15 15 10 16 5 17 6 18 7 19 9 20 8 21 4 22 3 23
REMARK SMILES IDX 2 24 1 25 23 26 24 27 25 28 26 29 27 30 28 31 29 33 30 34
REMARK SMILES IDX 31 35 92 36 32 37 91 38 33 39 34 40 35 41 85 42 36 43 90 44
REMARK SMILES IDX 84 45 86 46 37 47 89 48 83 49 82 50 38 52 70 53 50 54 69 55
REMARK SMILES IDX 51 56 54 57 68 58 87 59 52 60 53 61 67 63 88 64 55 65 39 66
REMARK SMILES IDX 40 67 48 68 41 69 42 70 46 71 49 72 43 73 44 74 47 75 45 76
REMARK SMILES IDX 71 77 72 78 80 79 73 80 74 81 78 82 81 83 75 84 76 85 79 86
REMARK SMILES IDX 77 87 56 88 57 89 65 90 58 91 59 92 63 93 66 94 60 95 61 96
REMARK SMILES IDX 64 97 62 98
REMARK H PARENT 20 6 27 32 86 51 54 62
REMARK Flexibility Score: inf
ROOT
ATOM      1  C   UNL A   1      35.330  21.337  26.111  1.00  0.00     0.021 C 
ENDROOT
BRANCH   1   2
ATOM      2  C   UNL A   1      34.163  22.187  25.614  1.00  0.00     0.116 C 
BRANCH   2   3
ATOM      3  N   UNL A   1      34.544  23.565  25.397  1.00  0.00    -0.355 N 
ATOM      4  C   UNL A   1      34.024  24.513  24.569  1.00  0.00     0.240 C 
ATOM      5  O   UNL A   1      34.403  25.675  24.745  1.00  0.00    -0.273 OA
ATOM      6  H   UNL A   1      35.308  23.869  25.938  1.00  0.00     0.163 HD
BRANCH   4   7
ATOM      7  C   UNL A   1      32.873  24.220  23.600  1.00  0.00     0.227 C 
BRANCH   7   8
ATOM      8  N   UNL A   1      31.747  25.145  23.641  1.00  0.00    -0.283 N 
ATOM      9  C   UNL A   1      30.477  28.226  22.293  1.00  0.00     0.033 C 
ATOM     10  C   UNL A   1      30.580  27.065  22.952  1.00  0.00     0.081 C 
ATOM     11  S   UNL A   1      29.653  26.495  24.279  1.00  0.00    -0.054 SA
ATOM     12  C   UNL A   1      31.701  26.135  22.675  1.00  0.00     0.266 C 
ATOM     13  C   UNL A   1      30.805  25.222  24.647  1.00  0.00     0.148 C 
ATOM     14  O   UNL A   1      32.482  26.262  21.742  1.00  0.00    -0.268 OA
ATOM     15  S   UNL A   1      30.681  24.294  26.028  1.00  0.00    -0.052 S 
BRANCH   9  16
ATOM     16  C   UNL A   1      29.660  29.369  22.718  1.00  0.00     0.018 A 
ATOM     17  C   UNL A   1      30.019  30.155  23.830  1.00  0.00     0.127 A 
ATOM     18  C   UNL A   1      29.224  31.229  24.229  1.00  0.00     0.047 A 
ATOM     19  C   UNL A   1      28.103  31.574  23.476  1.00  0.00     0.004 A 
ATOM     20  C   UNL A   1      28.548  29.740  21.956  1.00  0.00     0.012 A 
ATOM     21  C   UNL A   1      27.773  30.840  22.336  1.00  0.00     0.001 A 
BRANCH  17  22
ATOM     22  O   UNL A   1      31.116  29.841  24.598  1.00  0.00    -0.489 OA
BRANCH  22  23
ATOM     23  C   UNL A   1      31.292  30.757  25.687  1.00  0.00     0.257 C 
BRANCH  23  24
ATOM     24  C   UNL A   1      32.417  30.288  26.563  1.00  0.00     0.006 C 
ATOM     25  C   UNL A   1      33.187  31.095  27.307  1.00  0.00     0.007 C 
ENDBRANCH  23  24
ENDBRANCH  22  23
ENDBRANCH  17  22
ENDBRANCH   9  16
ENDBRANCH   7   8
ENDBRANCH   4   7
ENDBRANCH   2   3
ENDBRANCH   1   2
BRANCH   1  26
ATOM     26  C   UNL A   1      36.692  21.745  25.537  1.00  0.00     0.002 C 
BRANCH  26  27
ATOM     27  C   UNL A   1      37.238  20.820  24.445  1.00  0.00     0.002 C 
BRANCH  27  28
ATOM     28  C   UNL A   1      38.111  19.668  24.950  1.00  0.00     0.021 C 
BRANCH  28  29
ATOM     29  C   UNL A   1      39.177  20.075  25.963  1.00  0.00     0.116 C 
BRANCH  29  30
ATOM     30  N   UNL A   1      40.318  19.174  25.944  1.00  0.00    -0.352 N 
ATOM     31  C   UNL A   1      41.656  19.458  26.044  1.00  0.00     0.251 C 
ATOM     32  H   UNL A   1      40.098  18.219  25.843  1.00  0.00     0.163 HD
ATOM     33  O   UNL A   1      42.491  18.592  25.801  1.00  0.00    -0.269 OA
BRANCH  31  34
ATOM     34  C   UNL A   1      42.096  20.813  26.434  1.00  0.00     0.039 A 
ATOM     35  C   UNL A   1      42.380  21.744  25.432  1.00  0.00     0.014 A 
ATOM     36  C   UNL A   1      42.254  21.158  27.780  1.00  0.00     0.014 A 
ATOM     37  C   UNL A   1      42.773  23.038  25.780  1.00  0.00     0.010 A 
ATOM     38  C   UNL A   1      42.575  22.468  28.127  1.00  0.00     0.010 A 
ATOM     39  C   UNL A   1      42.845  23.418  27.130  1.00  0.00    -0.014 A 
BRANCH  39  40
ATOM     40  C   UNL A   1      43.210  24.804  27.516  1.00  0.00     0.031 A 
ATOM     41  C   UNL A   1      44.652  25.223  27.566  1.00  0.00     0.074 A 
ATOM     42  C   UNL A   1      42.242  25.669  27.879  1.00  0.00     0.049 A 
ATOM     43  N   UNL A   1      45.170  26.374  27.915  1.00  0.00    -0.248 NA
ATOM     44  C   UNL A   1      45.647  24.205  27.199  1.00  0.00     0.031 C 
ATOM     45  C   UNL A   1      40.811  25.367  27.915  1.00  0.00     0.029 A 
ATOM     46  N   UNL A   1      42.317  26.975  28.290  1.00  0.00    -0.354 N 
ATOM     47  C   UNL A   1      46.546  26.212  27.829  1.00  0.00     0.074 A 
ATOM     48  C   UNL A   1      46.785  24.837  27.444  1.00  0.00     0.031 C 
ATOM     49  C   UNL A   1      40.140  26.466  28.293  1.00  0.00     0.029 A 
ATOM     50  C   UNL A   1      41.095  27.537  28.562  1.00  0.00     0.049 A 
ATOM     51  H   UNL A   1      43.168  27.463  28.382  1.00  0.00     0.167 HD
ATOM     52  C   UNL A   1      47.520  27.130  28.033  1.00  0.00     0.037 A 
ATOM     53  C   UNL A   1      40.781  28.779  28.979  1.00  0.00     0.037 A 
ATOM     54  C   UNL A   1      47.275  28.503  28.388  1.00  0.00     0.049 A 
ATOM     55  C   UNL A   1      41.883  29.777  29.206  1.00  0.00     0.074 A 
ATOM     56  C   UNL A   1      48.187  29.534  28.538  1.00  0.00     0.029 A 
ATOM     57  N   UNL A   1      46.022  29.038  28.657  1.00  0.00    -0.354 N 
ATOM     58  N   UNL A   1      43.175  29.637  29.040  1.00  0.00    -0.248 NA
ATOM     59  C   UNL A   1      41.477  31.110  29.674  1.00  0.00     0.031 C 
ATOM     60  C   UNL A   1      47.492  30.676  28.948  1.00  0.00     0.029 A 
ATOM     61  C   UNL A   1      46.141  30.374  29.002  1.00  0.00     0.049 A 
ATOM     62  H   UNL A   1      45.174  28.539  28.608  1.00  0.00     0.167 HD
ATOM     63  C   UNL A   1      43.735  30.868  29.351  1.00  0.00     0.074 A 
ATOM     64  C   UNL A   1      42.639  31.748  29.704  1.00  0.00     0.031 C 
ATOM     65  C   UNL A   1      45.039  31.238  29.344  1.00  0.00     0.037 A 
BRANCH  52  66
ATOM     66  C   UNL A   1      48.944  26.675  27.882  1.00  0.00     0.064 A 
ATOM     67  C   UNL A   1      49.740  26.353  28.993  1.00  0.00     0.173 A 
ATOM     68  C   UNL A   1      49.516  26.541  26.608  1.00  0.00     0.173 A 
ATOM     69  F   UNL A   1      49.246  26.474  30.235  1.00  0.00    -0.203 F 
ATOM     70  C   UNL A   1      51.064  25.953  28.836  1.00  0.00     0.198 A 
ATOM     71  C   UNL A   1      50.831  26.109  26.453  1.00  0.00     0.198 A 
ATOM     72  F   UNL A   1      48.799  26.828  25.511  1.00  0.00    -0.203 F 
ATOM     73  F   UNL A   1      51.822  25.710  29.915  1.00  0.00    -0.200 F 
ATOM     74  C   UNL A   1      51.607  25.825  27.566  1.00  0.00     0.200 A 
ATOM     75  F   UNL A   1      51.349  25.973  25.224  1.00  0.00    -0.200 F 
ATOM     76  F   UNL A   1      52.881  25.438  27.416  1.00  0.00    -0.200 F 
ENDBRANCH  52  66
BRANCH  53  77
ATOM     77  C   UNL A   1      39.357  29.160  29.165  1.00  0.00     0.064 A 
ATOM     78  C   UNL A   1      38.764  29.107  30.434  1.00  0.00     0.173 A 
ATOM     79  C   UNL A   1      38.562  29.583  28.090  1.00  0.00     0.173 A 
ATOM     80  F   UNL A   1      39.479  28.689  31.489  1.00  0.00    -0.203 F 
ATOM     81  C   UNL A   1      37.426  29.446  30.619  1.00  0.00     0.198 A 
ATOM     82  C   UNL A   1      37.231  29.948  28.280  1.00  0.00     0.198 A 
ATOM     83  F   UNL A   1      39.084  29.654  26.856  1.00  0.00    -0.203 F 
ATOM     84  F   UNL A   1      36.874  29.347  31.835  1.00  0.00    -0.200 F 
ATOM     85  C   UNL A   1      36.662  29.872  29.543  1.00  0.00     0.200 A 
ATOM     86  F   UNL A   1      36.500  30.372  27.240  1.00  0.00    -0.200 F 
ATOM     87  F   UNL A   1      35.376  30.203  29.721  1.00  0.00    -0.200 F 
ENDBRANCH  53  77
BRANCH  65  88
ATOM     88  C   UNL A   1      45.349  32.665  29.692  1.00  0.00     0.064 A 
ATOM     89  C   UNL A   1      45.334  33.682  28.726  1.00  0.00     0.173 A 
ATOM     90  C   UNL A   1      45.639  33.025  31.018  1.00  0.00     0.173 A 
ATOM     91  F   UNL A   1      45.078  33.388  27.442  1.00  0.00    -0.203 F 
ATOM     92  C   UNL A   1      45.625  35.000  29.069  1.00  0.00     0.198 A 
ATOM     93  C   UNL A   1      45.898  34.349  31.362  1.00  0.00     0.198 A 
ATOM     94  F   UNL A   1      45.661  32.092  31.982  1.00  0.00    -0.203 F 
ATOM     95  F   UNL A   1      45.655  35.945  28.119  1.00  0.00    -0.200 F 
ATOM     96  C   UNL A   1      45.899  35.334  30.387  1.00  0.00     0.200 A 
ATOM     97  F   UNL A   1      46.149  34.670  32.638  1.00  0.00    -0.200 F 
ATOM     98  F   UNL A   1      46.173  36.603  30.714  1.00  0.00    -0.200 F 
ENDBRANCH  65  88
ENDBRANCH  39  40
ENDBRANCH  31  34
ENDBRANCH  29  30
ENDBRANCH  28  29
ENDBRANCH  27  28
ENDBRANCH  26  27
ENDBRANCH   1  26
TORSDOF 18
ENDMDL
MODEL 3
REMARK VINA RESULT:     -11.2      5.283     11.201
REMARK SMILES C=CCOc1ccccc1/C=C1\SC(=S)N(CC(=O)NCCCCCCNC(=O)c2ccc(-c3c4nc(c(-c5c(F)c(F)c(F)c(F)c5F)c5ccc([nH]5)c(-c5c(F)c(F)c(F)c(F)c5F)c5nc(c(-c6c(F)c(F)c(F)c(F)c6F)c6ccc3[nH]6)C=C5)C=C4)cc2)C1=O
REMARK SMILES IDX 22 1 21 2 20 3 18 4 19 5 17 7 16 8 11 9 12 10 13 11 93 12
REMARK SMILES IDX 14 13 94 14 15 15 10 16 5 17 6 18 7 19 9 20 8 21 4 22 3 23
REMARK SMILES IDX 2 24 1 25 23 26 24 27 25 28 26 29 27 30 28 31 29 33 30 34
REMARK SMILES IDX 31 35 92 36 32 37 91 38 33 39 34 40 35 41 85 42 36 43 90 44
REMARK SMILES IDX 84 45 86 46 37 47 89 48 83 49 82 50 38 52 70 53 50 54 69 55
REMARK SMILES IDX 51 56 54 57 68 58 87 59 52 60 53 61 67 63 88 64 55 65 39 66
REMARK SMILES IDX 40 67 48 68 41 69 42 70 46 71 49 72 43 73 44 74 47 75 45 76
REMARK SMILES IDX 71 77 72 78 80 79 73 80 74 81 78 82 81 83 75 84 76 85 79 86
REMARK SMILES IDX 77 87 56 88 57 89 65 90 58 91 59 92 63 93 66 94 60 95 61 96
REMARK SMILES IDX 64 97 62 98
REMARK H PARENT 20 6 27 32 86 51 54 62
REMARK Flexibility Score: inf
ROOT
ATOM      1  C   UNL A   1      34.881  20.434  25.003  1.00  0.00     0.021 C 
ENDROOT
BRANCH   1   2
ATOM      2  C   UNL A   1      33.743  21.450  24.929  1.00  0.00     0.116 C 
BRANCH   2   3
ATOM      3  N   UNL A   1      34.230  22.811  24.873  1.00  0.00    -0.355 N 
ATOM      4  C   UNL A   1      33.771  23.893  24.184  1.00  0.00     0.240 C 
ATOM      5  O   UNL A   1      34.246  24.991  24.491  1.00  0.00    -0.273 OA
ATOM      6  H   UNL A   1      35.026  22.984  25.424  1.00  0.00     0.163 HD
BRANCH   4   7
ATOM      7  C   UNL A   1      32.582  23.814  23.221  1.00  0.00     0.227 C 
BRANCH   7   8
ATOM      8  N   UNL A   1      31.530  24.805  23.415  1.00  0.00    -0.283 N 
ATOM      9  C   UNL A   1      30.296  27.983  22.274  1.00  0.00     0.033 C 
ATOM     10  C   UNL A   1      30.408  26.806  22.901  1.00  0.00     0.081 C 
ATOM     11  S   UNL A   1      29.623  26.268  24.330  1.00  0.00    -0.054 SA
ATOM     12  C   UNL A   1      31.425  25.814  22.473  1.00  0.00     0.266 C 
ATOM     13  C   UNL A   1      30.729  24.919  24.533  1.00  0.00     0.148 C 
ATOM     14  O   UNL A   1      32.089  25.911  21.451  1.00  0.00    -0.268 OA
ATOM     15  S   UNL A   1      30.722  23.974  25.908  1.00  0.00    -0.052 S 
BRANCH   9  16
ATOM     16  C   UNL A   1      29.613  29.165  22.813  1.00  0.00     0.018 A 
ATOM     17  C   UNL A   1      30.239  30.014  23.745  1.00  0.00     0.127 A 
ATOM     18  C   UNL A   1      29.571  31.125  24.257  1.00  0.00     0.047 A 
ATOM     19  C   UNL A   1      28.297  31.442  23.787  1.00  0.00     0.004 A 
ATOM     20  C   UNL A   1      28.346  29.506  22.330  1.00  0.00     0.012 A 
ATOM     21  C   UNL A   1      27.692  30.642  22.816  1.00  0.00     0.001 A 
BRANCH  17  22
ATOM     22  O   UNL A   1      31.493  29.731  24.234  1.00  0.00    -0.489 OA
BRANCH  22  23
ATOM     23  C   UNL A   1      31.558  29.858  25.661  1.00  0.00     0.257 C 
BRANCH  23  24
ATOM     24  C   UNL A   1      31.767  28.506  26.278  1.00  0.00     0.006 C 
ATOM     25  C   UNL A   1      31.683  28.250  27.592  1.00  0.00     0.007 C 
ENDBRANCH  23  24
ENDBRANCH  22  23
ENDBRANCH  17  22
ENDBRANCH   9  16
ENDBRANCH   7   8
ENDBRANCH   4   7
ENDBRANCH   2   3
ENDBRANCH   1   2
BRANCH   1  26
ATOM     26  C   UNL A   1      36.237  21.037  25.385  1.00  0.00     0.002 C 
BRANCH  26  27
ATOM     27  C   UNL A   1      37.395  20.674  24.451  1.00  0.00     0.002 C 
BRANCH  27  28
ATOM     28  C   UNL A   1      38.300  19.545  24.950  1.00  0.00     0.021 C 
BRANCH  28  29
ATOM     29  C   UNL A   1      39.304  19.961  26.021  1.00  0.00     0.116 C 
BRANCH  29  30
ATOM     30  N   UNL A   1      40.482  19.110  26.023  1.00  0.00    -0.352 N 
ATOM     31  C   UNL A   1      41.808  19.456  26.077  1.00  0.00     0.251 C 
ATOM     32  H   UNL A   1      40.303  18.143  25.977  1.00  0.00     0.163 HD
ATOM     33  O   UNL A   1      42.675  18.616  25.860  1.00  0.00    -0.269 OA
BRANCH  31  34
ATOM     34  C   UNL A   1      42.196  20.848  26.385  1.00  0.00     0.039 A 
ATOM     35  C   UNL A   1      42.446  21.200  27.714  1.00  0.00     0.014 A 
ATOM     36  C   UNL A   1      42.290  21.809  25.374  1.00  0.00     0.014 A 
ATOM     37  C   UNL A   1      42.839  22.504  28.023  1.00  0.00     0.010 A 
ATOM     38  C   UNL A   1      42.752  23.088  25.673  1.00  0.00     0.010 A 
ATOM     39  C   UNL A   1      43.023  23.450  27.001  1.00  0.00    -0.014 A 
BRANCH  39  40
ATOM     40  C   UNL A   1      43.492  24.825  27.307  1.00  0.00     0.031 A 
ATOM     41  C   UNL A   1      42.548  25.833  27.899  1.00  0.00     0.074 A 
ATOM     42  C   UNL A   1      44.753  25.181  26.997  1.00  0.00     0.049 A 
ATOM     43  N   UNL A   1      42.759  27.091  28.199  1.00  0.00    -0.248 NA
ATOM     44  C   UNL A   1      41.176  25.376  28.165  1.00  0.00     0.031 C 
ATOM     45  C   UNL A   1      45.749  24.305  26.378  1.00  0.00     0.029 A 
ATOM     46  N   UNL A   1      45.412  26.374  27.156  1.00  0.00    -0.354 N 
ATOM     47  C   UNL A   1      41.546  27.576  28.669  1.00  0.00     0.074 A 
ATOM     48  C   UNL A   1      40.591  26.494  28.566  1.00  0.00     0.031 C 
ATOM     49  C   UNL A   1      46.902  24.980  26.241  1.00  0.00     0.029 A 
ATOM     50  C   UNL A   1      46.715  26.344  26.725  1.00  0.00     0.049 A 
ATOM     51  H   UNL A   1      44.989  27.175  27.540  1.00  0.00     0.167 HD
ATOM     52  C   UNL A   1      41.261  28.806  29.159  1.00  0.00     0.037 A 
ATOM     53  C   UNL A   1      47.654  27.309  26.725  1.00  0.00     0.037 A 
ATOM     54  C   UNL A   1      42.223  29.869  29.285  1.00  0.00     0.049 A 
ATOM     55  C   UNL A   1      47.308  28.669  27.268  1.00  0.00     0.074 A 
ATOM     56  C   UNL A   1      42.056  31.125  29.844  1.00  0.00     0.029 A 
ATOM     57  N   UNL A   1      43.535  29.803  28.838  1.00  0.00    -0.354 N 
ATOM     58  N   UNL A   1      46.182  29.093  27.787  1.00  0.00    -0.248 NA
ATOM     59  C   UNL A   1      48.371  29.683  27.228  1.00  0.00     0.031 C 
ATOM     60  C   UNL A   1      43.250  31.836  29.686  1.00  0.00     0.029 A 
ATOM     61  C   UNL A   1      44.179  31.006  29.079  1.00  0.00     0.049 A 
ATOM     62  H   UNL A   1      43.947  29.017  28.412  1.00  0.00     0.167 HD
ATOM     63  C   UNL A   1      46.407  30.409  28.165  1.00  0.00     0.074 A 
ATOM     64  C   UNL A   1      47.783  30.711  27.825  1.00  0.00     0.031 C 
ATOM     65  C   UNL A   1      45.552  31.289  28.742  1.00  0.00     0.037 A 
BRANCH  52  66
ATOM     66  C   UNL A   1      39.846  29.068  29.591  1.00  0.00     0.064 A 
ATOM     67  C   UNL A   1      38.865  29.505  28.686  1.00  0.00     0.173 A 
ATOM     68  C   UNL A   1      39.460  28.863  30.924  1.00  0.00     0.173 A 
ATOM     69  F   UNL A   1      39.183  29.728  27.401  1.00  0.00    -0.203 F 
ATOM     70  C   UNL A   1      37.564  29.763  29.108  1.00  0.00     0.198 A 
ATOM     71  C   UNL A   1      38.149  29.091  31.336  1.00  0.00     0.198 A 
ATOM     72  F   UNL A   1      40.355  28.440  31.829  1.00  0.00    -0.203 F 
ATOM     73  F   UNL A   1      36.660  30.238  28.238  1.00  0.00    -0.200 F 
ATOM     74  C   UNL A   1      37.205  29.550  30.431  1.00  0.00     0.200 A 
ATOM     75  F   UNL A   1      37.802  28.872  32.611  1.00  0.00    -0.200 F 
ATOM     76  F   UNL A   1      35.952  29.798  30.835  1.00  0.00    -0.200 F 
ENDBRANCH  52  66
BRANCH  53  77
ATOM     77  C   UNL A   1      49.024  27.011  26.236  1.00  0.00     0.064 A 
ATOM     78  C   UNL A   1      49.333  27.112  24.872  1.00  0.00     0.173 A 
ATOM     79  C   UNL A   1      50.049  26.620  27.110  1.00  0.00     0.173 A 
ATOM     80  F   UNL A   1      48.380  27.463  23.996  1.00  0.00    -0.203 F 
ATOM     81  C   UNL A   1      50.609  26.820  24.398  1.00  0.00     0.198 A 
ATOM     82  C   UNL A   1      51.333  26.353  26.639  1.00  0.00     0.198 A 
ATOM     83  F   UNL A   1      49.805  26.511  28.424  1.00  0.00    -0.203 F 
ATOM     84  F   UNL A   1      50.865  26.886  23.085  1.00  0.00    -0.200 F 
ATOM     85  C   UNL A   1      51.610  26.446  25.282  1.00  0.00     0.200 A 
ATOM     86  F   UNL A   1      52.300  26.005  27.497  1.00  0.00    -0.200 F 
ATOM     87  F   UNL A   1      52.839  26.169  24.827  1.00  0.00    -0.200 F 
ENDBRANCH  53  77
BRANCH  65  88
ATOM     88  C   UNL A   1      46.091  32.649  29.077  1.00  0.00     0.064 A 
ATOM     89  C   UNL A   1      46.663  32.929  30.327  1.00  0.00     0.173 A 
ATOM     90  C   UNL A   1      46.059  33.679  28.124  1.00  0.00     0.173 A 
ATOM     91  F   UNL A   1      46.704  31.983  31.278  1.00  0.00    -0.203 F 
ATOM     92  C   UNL A   1      47.158  34.198  30.620  1.00  0.00     0.198 A 
ATOM     93  C   UNL A   1      46.582  34.938  28.410  1.00  0.00     0.198 A 
ATOM     94  F   UNL A   1      45.527  33.463  26.912  1.00  0.00    -0.203 F 
ATOM     95  F   UNL A   1      47.652  34.457  31.838  1.00  0.00    -0.200 F 
ATOM     96  C   UNL A   1      47.124  35.198  29.660  1.00  0.00     0.200 A 
ATOM     97  F   UNL A   1      46.561  35.898  27.476  1.00  0.00    -0.200 F 
ATOM     98  F   UNL A   1      47.605  36.416  29.942  1.00  0.00    -0.200 F 
ENDBRANCH  65  88
ENDBRANCH  39  40
ENDBRANCH  31  34
ENDBRANCH  29  30
ENDBRANCH  28  29
ENDBRANCH  27  28
ENDBRANCH  26  27
ENDBRANCH   1  26
TORSDOF 18
ENDMDL
