MODEL 1
REMARK VINA RESULT:     -10.5      0.000      0.000
REMARK SMILES C=CCS(=O)(=O)N[C@H](CC(N)=O)C(=O)NCCCCCCNC(=O)c1ccc(-c2c3nc(c(-c4c(F)c(F)c(F)c(F)c4F)c4ccc([nH]4)c(-c4c(F)c(F)c(F)c(F)c4F)c4nc(c(-c5c(F)c(F)c(F)c(F)c5F)c5ccc2[nH]5)C=C4)C=C3)cc1
REMARK SMILES IDX 17 1 16 2 15 3 13 4 14 5 8 7 7 8 4 10 5 11 6 12 3 13 2 14
REMARK SMILES IDX 1 15 9 16 10 17 11 18 12 19 18 22 19 23 20 24 21 25 22 26
REMARK SMILES IDX 23 27 24 29 25 30 26 31 87 32 27 33 86 34 28 35 29 36 30 37
REMARK SMILES IDX 80 38 31 39 85 40 79 41 81 42 32 43 84 44 78 45 77 46 33 48
REMARK SMILES IDX 65 49 45 50 64 51 46 52 49 53 63 54 82 55 47 56 48 57 62 59
REMARK SMILES IDX 83 60 50 61 34 62 35 63 43 64 36 65 37 66 41 67 44 68 38 69
REMARK SMILES IDX 39 70 42 71 40 72 66 73 67 74 75 75 68 76 69 77 73 78 76 79
REMARK SMILES IDX 70 80 71 81 74 82 72 83 51 84 52 85 60 86 53 87 54 88 58 89
REMARK SMILES IDX 61 90 55 91 56 92 59 93 57 94
REMARK H PARENT 15 6 7 9 11 20 11 21 22 28 81 47 49 58
REMARK Flexibility Score: inf
ROOT
ATOM      1  C   UNL A   1      35.584  22.827  25.530  1.00  0.00     0.021 C 
ENDROOT
BRANCH   1   2
ATOM      2  C   UNL A   1      35.099  23.666  24.362  1.00  0.00     0.116 C 
BRANCH   2   3
ATOM      3  N   UNL A   1      34.266  22.920  23.460  1.00  0.00    -0.355 N 
ATOM      4  C   UNL A   1      32.985  23.168  23.102  1.00  0.00     0.238 C 
ATOM      5  O   UNL A   1      32.488  22.392  22.274  1.00  0.00    -0.273 OA
ATOM      6  H   UNL A   1      34.681  22.127  23.049  1.00  0.00     0.163 HD
BRANCH   4   7
ATOM      7  C   UNL A   1      32.132  24.260  23.731  1.00  0.00     0.168 C 
BRANCH   7   8
ATOM      8  N   UNL A   1      31.162  24.126  24.824  1.00  0.00    -0.202 NA
ATOM      9  H   UNL A   1      30.285  24.429  24.401  1.00  0.00     0.141 HD
BRANCH   8  10
ATOM     10  S   UNL A   1      31.097  24.767  26.344  1.00  0.00     0.215 S 
ATOM     11  O   UNL A   1      31.517  23.780  27.313  1.00  0.00    -0.212 OA
ATOM     12  O   UNL A   1      29.745  25.280  26.415  1.00  0.00    -0.212 OA
BRANCH  10  13
ATOM     13  C   UNL A   1      32.171  26.216  26.464  1.00  0.00     0.180 C 
BRANCH  13  14
ATOM     14  C   UNL A   1      31.451  27.523  26.429  1.00  0.00    -0.017 C 
ATOM     15  C   UNL A   1      31.731  28.546  27.249  1.00  0.00     0.005 C 
ENDBRANCH  13  14
ENDBRANCH  10  13
ENDBRANCH   8  10
ENDBRANCH   7   8
BRANCH   7  16
ATOM     16  C   UNL A   1      31.761  25.323  22.674  1.00  0.00     0.129 C 
BRANCH  16  17
ATOM     17  C   UNL A   1      32.759  25.660  21.588  1.00  0.00     0.219 C 
ATOM     18  N   UNL A   1      32.308  25.502  20.310  1.00  0.00    -0.370 N 
ATOM     19  O   UNL A   1      33.871  26.136  21.777  1.00  0.00    -0.275 OA
ATOM     20  H   UNL A   1      31.415  25.121  20.147  1.00  0.00     0.159 HD
ATOM     21  H   UNL A   1      32.875  25.771  19.552  1.00  0.00     0.159 HD
ENDBRANCH  16  17
ENDBRANCH   7  16
ENDBRANCH   4   7
ENDBRANCH   2   3
ENDBRANCH   1   2
BRANCH   1  22
ATOM     22  C   UNL A   1      35.975  21.410  25.101  1.00  0.00     0.002 C 
BRANCH  22  23
ATOM     23  C   UNL A   1      37.373  21.284  24.475  1.00  0.00     0.002 C 
BRANCH  23  24
ATOM     24  C   UNL A   1      38.146  20.021  24.862  1.00  0.00     0.021 C 
BRANCH  24  25
ATOM     25  C   UNL A   1      39.184  20.240  25.955  1.00  0.00     0.116 C 
BRANCH  25  26
ATOM     26  N   UNL A   1      40.182  19.181  25.975  1.00  0.00    -0.352 N 
ATOM     27  C   UNL A   1      41.545  19.287  26.071  1.00  0.00     0.251 C 
ATOM     28  H   UNL A   1      39.831  18.262  25.909  1.00  0.00     0.163 HD
ATOM     29  O   UNL A   1      42.270  18.317  25.886  1.00  0.00    -0.269 OA
BRANCH  27  30
ATOM     30  C   UNL A   1      42.128  20.602  26.393  1.00  0.00     0.039 A 
ATOM     31  C   UNL A   1      42.358  21.514  25.362  1.00  0.00     0.014 A 
ATOM     32  C   UNL A   1      42.419  20.930  27.719  1.00  0.00     0.014 A 
ATOM     33  C   UNL A   1      42.838  22.788  25.670  1.00  0.00     0.010 A 
ATOM     34  C   UNL A   1      42.826  22.219  28.030  1.00  0.00     0.010 A 
ATOM     35  C   UNL A   1      43.050  23.155  27.008  1.00  0.00    -0.014 A 
BRANCH  35  36
ATOM     36  C   UNL A   1      43.539  24.503  27.380  1.00  0.00     0.031 A 
ATOM     37  C   UNL A   1      42.567  25.518  27.907  1.00  0.00     0.074 A 
ATOM     38  C   UNL A   1      44.824  24.836  27.158  1.00  0.00     0.049 A 
ATOM     39  N   UNL A   1      42.744  26.791  28.149  1.00  0.00    -0.248 NA
ATOM     40  C   UNL A   1      41.198  25.042  28.166  1.00  0.00     0.031 C 
ATOM     41  C   UNL A   1      45.850  23.941  26.622  1.00  0.00     0.029 A 
ATOM     42  N   UNL A   1      45.480  26.028  27.335  1.00  0.00    -0.354 N 
ATOM     43  C   UNL A   1      41.509  27.269  28.563  1.00  0.00     0.074 A 
ATOM     44  C   UNL A   1      40.577  26.166  28.490  1.00  0.00     0.031 C 
ATOM     45  C   UNL A   1      47.010  24.612  26.527  1.00  0.00     0.029 A 
ATOM     46  C   UNL A   1      46.796  25.993  26.948  1.00  0.00     0.049 A 
ATOM     47  H   UNL A   1      45.047  26.831  27.705  1.00  0.00     0.167 HD
ATOM     48  C   UNL A   1      41.187  28.514  28.988  1.00  0.00     0.037 A 
ATOM     49  C   UNL A   1      47.719  26.973  26.920  1.00  0.00     0.037 A 
ATOM     50  C   UNL A   1      42.128  29.599  29.079  1.00  0.00     0.049 A 
ATOM     51  C   UNL A   1      47.331  28.355  27.373  1.00  0.00     0.074 A 
ATOM     52  C   UNL A   1      41.919  30.887  29.539  1.00  0.00     0.029 A 
ATOM     53  N   UNL A   1      43.461  29.519  28.702  1.00  0.00    -0.354 N 
ATOM     54  N   UNL A   1      46.173  28.789  27.811  1.00  0.00    -0.248 NA
ATOM     55  C   UNL A   1      48.378  29.385  27.332  1.00  0.00     0.031 C 
ATOM     56  C   UNL A   1      43.112  31.599  29.395  1.00  0.00     0.029 A 
ATOM     57  C   UNL A   1      44.081  30.740  28.901  1.00  0.00     0.049 A 
ATOM     58  H   UNL A   1      43.900  28.713  28.344  1.00  0.00     0.167 HD
ATOM     59  C   UNL A   1      46.362  30.126  28.134  1.00  0.00     0.074 A 
ATOM     60  C   UNL A   1      47.747  30.434  27.843  1.00  0.00     0.031 C 
ATOM     61  C   UNL A   1      45.470  31.017  28.630  1.00  0.00     0.037 A 
BRANCH  48  62
ATOM     62  C   UNL A   1      39.760  28.766  29.381  1.00  0.00     0.064 A 
ATOM     63  C   UNL A   1      39.300  28.519  30.683  1.00  0.00     0.173 A 
ATOM     64  C   UNL A   1      38.845  29.280  28.449  1.00  0.00     0.173 A 
ATOM     65  F   UNL A   1      40.131  28.016  31.610  1.00  0.00    -0.203 F 
ATOM     66  C   UNL A   1      37.970  28.744  31.029  1.00  0.00     0.198 A 
ATOM     67  C   UNL A   1      37.524  29.537  28.808  1.00  0.00     0.198 A 
ATOM     68  F   UNL A   1      39.232  29.540  27.192  1.00  0.00    -0.203 F 
ATOM     69  F   UNL A   1      37.541  28.447  32.264  1.00  0.00    -0.200 F 
ATOM     70  C   UNL A   1      37.086  29.259  30.094  1.00  0.00     0.200 A 
ATOM     71  F   UNL A   1      36.675  30.048  27.907  1.00  0.00    -0.200 F 
ATOM     72  F   UNL A   1      35.807  29.481  30.430  1.00  0.00    -0.200 F 
ENDBRANCH  48  62
BRANCH  49  73
ATOM     73  C   UNL A   1      49.104  26.679  26.466  1.00  0.00     0.064 A 
ATOM     74  C   UNL A   1      49.474  26.873  25.128  1.00  0.00     0.173 A 
ATOM     75  C   UNL A   1      50.080  26.197  27.350  1.00  0.00     0.173 A 
ATOM     76  F   UNL A   1      48.570  27.313  24.240  1.00  0.00    -0.203 F 
ATOM     77  C   UNL A   1      50.762  26.578  24.687  1.00  0.00     0.198 A 
ATOM     78  C   UNL A   1      51.376  25.929  26.913  1.00  0.00     0.198 A 
ATOM     79  F   UNL A   1      49.778  25.997  28.641  1.00  0.00    -0.203 F 
ATOM     80  F   UNL A   1      51.076  26.728  23.393  1.00  0.00    -0.200 F 
ATOM     81  C   UNL A   1      51.714  26.111  25.581  1.00  0.00     0.200 A 
ATOM     82  F   UNL A   1      52.296  25.491  27.783  1.00  0.00    -0.200 F 
ATOM     83  F   UNL A   1      52.953  25.829  25.156  1.00  0.00    -0.200 F 
ENDBRANCH  49  73
BRANCH  61  84
ATOM     84  C   UNL A   1      45.970  32.394  28.953  1.00  0.00     0.064 A 
ATOM     85  C   UNL A   1      46.464  32.725  30.223  1.00  0.00     0.173 A 
ATOM     86  C   UNL A   1      46.024  33.375  27.950  1.00  0.00     0.173 A 
ATOM     87  F   UNL A   1      46.421  31.826  31.218  1.00  0.00    -0.203 F 
ATOM     88  C   UNL A   1      46.977  33.993  30.482  1.00  0.00     0.198 A 
ATOM     89  C   UNL A   1      46.566  34.631  28.204  1.00  0.00     0.198 A 
ATOM     90  F   UNL A   1      45.570  33.106  26.717  1.00  0.00    -0.203 F 
ATOM     91  F   UNL A   1      47.411  34.299  31.712  1.00  0.00    -0.200 F 
ATOM     92  C   UNL A   1      47.038  34.940  29.470  1.00  0.00     0.200 A 
ATOM     93  F   UNL A   1      46.638  35.539  27.222  1.00  0.00    -0.200 F 
ATOM     94  F   UNL A   1      47.550  36.153  29.717  1.00  0.00    -0.200 F 
ENDBRANCH  61  84
ENDBRANCH  35  36
ENDBRANCH  27  30
ENDBRANCH  25  26
ENDBRANCH  24  25
ENDBRANCH  23  24
ENDBRANCH  22  23
ENDBRANCH   1  22
TORSDOF 19
ENDMDL
MODEL 2
REMARK VINA RESULT:     -10.5      5.360     10.892
REMARK SMILES C=CCS(=O)(=O)N[C@H](CC(N)=O)C(=O)NCCCCCCNC(=O)c1ccc(-c2c3nc(c(-c4c(F)c(F)c(F)c(F)c4F)c4ccc([nH]4)c(-c4c(F)c(F)c(F)c(F)c4F)c4nc(c(-c5c(F)c(F)c(F)c(F)c5F)c5ccc2[nH]5)C=C4)C=C3)cc1
REMARK SMILES IDX 17 1 16 2 15 3 13 4 14 5 8 7 7 8 4 10 5 11 6 12 3 13 2 14
REMARK SMILES IDX 1 15 9 16 10 17 11 18 12 19 18 22 19 23 20 24 21 25 22 26
REMARK SMILES IDX 23 27 24 29 25 30 26 31 87 32 27 33 86 34 28 35 29 36 30 37
REMARK SMILES IDX 80 38 31 39 85 40 79 41 81 42 32 43 84 44 78 45 77 46 33 48
REMARK SMILES IDX 65 49 45 50 64 51 46 52 49 53 63 54 82 55 47 56 48 57 62 59
REMARK SMILES IDX 83 60 50 61 34 62 35 63 43 64 36 65 37 66 41 67 44 68 38 69
REMARK SMILES IDX 39 70 42 71 40 72 66 73 67 74 75 75 68 76 69 77 73 78 76 79
REMARK SMILES IDX 70 80 71 81 74 82 72 83 51 84 52 85 60 86 53 87 54 88 58 89
REMARK SMILES IDX 61 90 55 91 56 92 59 93 57 94
REMARK H PARENT 15 6 7 9 11 20 11 21 22 28 81 47 49 58
REMARK Flexibility Score: inf
ROOT
ATOM      1  C   UNL A   1      33.537  28.700  26.741  1.00  0.00     0.021 C 
ENDROOT
BRANCH   1   2
ATOM      2  C   UNL A   1      33.559  27.304  26.144  1.00  0.00     0.116 C 
BRANCH   2   3
ATOM      3  N   UNL A   1      32.284  26.649  26.236  1.00  0.00    -0.355 N 
ATOM      4  C   UNL A   1      31.742  25.744  25.387  1.00  0.00     0.238 C 
ATOM      5  O   UNL A   1      30.632  25.294  25.703  1.00  0.00    -0.273 OA
ATOM      6  H   UNL A   1      31.734  26.886  27.018  1.00  0.00     0.163 HD
BRANCH   4   7
ATOM      7  C   UNL A   1      32.374  25.355  24.059  1.00  0.00     0.168 C 
BRANCH   7   8
ATOM      8  N   UNL A   1      33.657  24.678  23.838  1.00  0.00    -0.202 NA
ATOM      9  H   UNL A   1      34.152  25.306  23.206  1.00  0.00     0.141 HD
BRANCH   8  10
ATOM     10  S   UNL A   1      34.043  23.178  23.267  1.00  0.00     0.215 S 
ATOM     11  O   UNL A   1      35.396  23.179  22.756  1.00  0.00    -0.212 OA
ATOM     12  O   UNL A   1      32.955  22.895  22.354  1.00  0.00    -0.212 OA
BRANCH  10  13
ATOM     13  C   UNL A   1      33.904  21.946  24.582  1.00  0.00     0.180 C 
BRANCH  13  14
ATOM     14  C   UNL A   1      35.131  21.123  24.791  1.00  0.00    -0.017 C 
ATOM     15  C   UNL A   1      36.041  21.377  25.742  1.00  0.00     0.005 C 
ENDBRANCH  13  14
ENDBRANCH  10  13
ENDBRANCH   8  10
ENDBRANCH   7   8
BRANCH   7  16
ATOM     16  C   UNL A   1      31.996  26.379  22.967  1.00  0.00     0.129 C 
BRANCH  16  17
ATOM     17  C   UNL A   1      32.668  26.292  21.614  1.00  0.00     0.219 C 
ATOM     18  N   UNL A   1      31.889  25.806  20.605  1.00  0.00    -0.370 N 
ATOM     19  O   UNL A   1      33.792  26.703  21.358  1.00  0.00    -0.275 OA
ATOM     20  H   UNL A   1      30.983  25.473  20.799  1.00  0.00     0.159 HD
ATOM     21  H   UNL A   1      32.232  25.788  19.683  1.00  0.00     0.159 HD
ENDBRANCH  16  17
ENDBRANCH   7  16
ENDBRANCH   4   7
ENDBRANCH   2   3
ENDBRANCH   1   2
BRANCH   1  22
ATOM     22  C   UNL A   1      32.113  29.250  26.871  1.00  0.00     0.002 C 
BRANCH  22  23
ATOM     23  C   UNL A   1      31.792  30.438  25.951  1.00  0.00     0.002 C 
BRANCH  23  24
ATOM     24  C   UNL A   1      31.481  31.752  26.672  1.00  0.00     0.021 C 
BRANCH  24  25
ATOM     25  C   UNL A   1      32.710  32.464  27.222  1.00  0.00     0.116 C 
BRANCH  25  26
ATOM     26  N   UNL A   1      32.443  33.866  27.507  1.00  0.00    -0.352 N 
ATOM     27  C   UNL A   1      33.014  34.673  28.455  1.00  0.00     0.251 C 
ATOM     28  H   UNL A   1      31.758  34.293  26.941  1.00  0.00     0.163 HD
ATOM     29  O   UNL A   1      32.555  35.782  28.702  1.00  0.00    -0.269 OA
BRANCH  27  30
ATOM     30  C   UNL A   1      34.192  34.175  29.187  1.00  0.00     0.039 A 
ATOM     31  C   UNL A   1      34.006  33.336  30.286  1.00  0.00     0.014 A 
ATOM     32  C   UNL A   1      35.476  34.525  28.761  1.00  0.00     0.014 A 
ATOM     33  C   UNL A   1      35.119  32.801  30.935  1.00  0.00     0.010 A 
ATOM     34  C   UNL A   1      36.579  33.935  29.361  1.00  0.00     0.010 A 
ATOM     35  C   UNL A   1      36.411  33.077  30.460  1.00  0.00    -0.014 A 
BRANCH  35  36
ATOM     36  C   UNL A   1      37.618  32.513  31.107  1.00  0.00     0.031 A 
ATOM     37  C   UNL A   1      38.366  31.403  30.427  1.00  0.00     0.074 A 
ATOM     38  C   UNL A   1      37.980  32.933  32.333  1.00  0.00     0.049 A 
ATOM     39  N   UNL A   1      39.349  30.666  30.876  1.00  0.00    -0.248 NA
ATOM     40  C   UNL A   1      37.925  31.053  29.067  1.00  0.00     0.031 C 
ATOM     41  C   UNL A   1      37.312  33.983  33.101  1.00  0.00     0.029 A 
ATOM     42  N   UNL A   1      38.991  32.508  33.158  1.00  0.00    -0.354 N 
ATOM     43  C   UNL A   1      39.624  29.754  29.867  1.00  0.00     0.074 A 
ATOM     44  C   UNL A   1      38.674  29.993  28.804  1.00  0.00     0.031 C 
ATOM     45  C   UNL A   1      37.938  34.130  34.280  1.00  0.00     0.029 A 
ATOM     46  C   UNL A   1      39.019  33.153  34.369  1.00  0.00     0.049 A 
ATOM     47  H   UNL A   1      39.635  31.807  32.906  1.00  0.00     0.167 HD
ATOM     48  C   UNL A   1      40.599  28.816  29.823  1.00  0.00     0.037 A 
ATOM     49  C   UNL A   1      39.818  32.963  35.437  1.00  0.00     0.037 A 
ATOM     50  C   UNL A   1      41.555  28.602  30.877  1.00  0.00     0.049 A 
ATOM     51  C   UNL A   1      40.878  31.896  35.375  1.00  0.00     0.074 A 
ATOM     52  C   UNL A   1      42.612  27.710  30.917  1.00  0.00     0.029 A 
ATOM     53  N   UNL A   1      41.568  29.294  32.081  1.00  0.00    -0.354 N 
ATOM     54  N   UNL A   1      41.166  31.070  34.397  1.00  0.00    -0.248 NA
ATOM     55  C   UNL A   1      41.728  31.736  36.563  1.00  0.00     0.031 C 
ATOM     56  C   UNL A   1      43.235  27.829  32.163  1.00  0.00     0.029 A 
ATOM     57  C   UNL A   1      42.603  28.835  32.877  1.00  0.00     0.049 A 
ATOM     58  H   UNL A   1      40.934  30.005  32.331  1.00  0.00     0.167 HD
ATOM     59  C   UNL A   1      42.251  30.322  34.835  1.00  0.00     0.074 A 
ATOM     60  C   UNL A   1      42.572  30.793  36.166  1.00  0.00     0.031 C 
ATOM     61  C   UNL A   1      42.923  29.338  34.190  1.00  0.00     0.037 A 
BRANCH  48  62
ATOM     62  C   UNL A   1      40.675  27.950  28.599  1.00  0.00     0.064 A 
ATOM     63  C   UNL A   1      41.445  28.316  27.484  1.00  0.00     0.173 A 
ATOM     64  C   UNL A   1      39.986  26.728  28.547  1.00  0.00     0.173 A 
ATOM     65  F   UNL A   1      42.114  29.480  27.478  1.00  0.00    -0.203 F 
ATOM     66  C   UNL A   1      41.494  27.510  26.350  1.00  0.00     0.198 A 
ATOM     67  C   UNL A   1      40.066  25.908  27.424  1.00  0.00     0.198 A 
ATOM     68  F   UNL A   1      39.240  26.327  29.586  1.00  0.00    -0.203 F 
ATOM     69  F   UNL A   1      42.191  27.909  25.276  1.00  0.00    -0.200 F 
ATOM     70  C   UNL A   1      40.811  26.304  26.324  1.00  0.00     0.200 A 
ATOM     71  F   UNL A   1      39.417  24.736  27.406  1.00  0.00    -0.200 F 
ATOM     72  F   UNL A   1      40.864  25.526  25.234  1.00  0.00    -0.200 F 
ENDBRANCH  48  62
BRANCH  49  73
ATOM     73  C   UNL A   1      39.659  33.813  36.646  1.00  0.00     0.064 A 
ATOM     74  C   UNL A   1      38.874  33.381  37.725  1.00  0.00     0.173 A 
ATOM     75  C   UNL A   1      40.279  35.065  36.750  1.00  0.00     0.173 A 
ATOM     76  F   UNL A   1      38.244  32.199  37.664  1.00  0.00    -0.203 F 
ATOM     77  C   UNL A   1      38.699  34.180  38.853  1.00  0.00     0.198 A 
ATOM     78  C   UNL A   1      40.127  35.851  37.892  1.00  0.00     0.198 A 
ATOM     79  F   UNL A   1      41.043  35.522  35.748  1.00  0.00    -0.203 F 
ATOM     80  F   UNL A   1      37.905  33.765  39.849  1.00  0.00    -0.200 F 
ATOM     81  C   UNL A   1      39.330  35.412  38.938  1.00  0.00     0.200 A 
ATOM     82  F   UNL A   1      40.748  37.035  37.975  1.00  0.00    -0.200 F 
ATOM     83  F   UNL A   1      39.163  36.179  40.024  1.00  0.00    -0.200 F 
ENDBRANCH  49  73
BRANCH  61  84
ATOM     84  C   UNL A   1      44.113  28.742  34.882  1.00  0.00     0.064 A 
ATOM     85  C   UNL A   1      45.394  29.300  34.767  1.00  0.00     0.173 A 
ATOM     86  C   UNL A   1      43.950  27.636  35.731  1.00  0.00     0.173 A 
ATOM     87  F   UNL A   1      45.602  30.348  33.957  1.00  0.00    -0.203 F 
ATOM     88  C   UNL A   1      46.472  28.763  35.466  1.00  0.00     0.198 A 
ATOM     89  C   UNL A   1      45.024  27.121  36.451  1.00  0.00     0.198 A 
ATOM     90  F   UNL A   1      42.743  27.070  35.880  1.00  0.00    -0.203 F 
ATOM     91  F   UNL A   1      47.694  29.291  35.315  1.00  0.00    -0.200 F 
ATOM     92  C   UNL A   1      46.284  27.682  36.315  1.00  0.00     0.200 A 
ATOM     93  F   UNL A   1      44.837  26.087  37.283  1.00  0.00    -0.200 F 
ATOM     94  F   UNL A   1      47.319  27.180  37.000  1.00  0.00    -0.200 F 
ENDBRANCH  61  84
ENDBRANCH  35  36
ENDBRANCH  27  30
ENDBRANCH  25  26
ENDBRANCH  24  25
ENDBRANCH  23  24
ENDBRANCH  22  23
ENDBRANCH   1  22
TORSDOF 19
ENDMDL
MODEL 3
REMARK VINA RESULT:     -10.4      5.784     11.092
REMARK SMILES C=CCS(=O)(=O)N[C@H](CC(N)=O)C(=O)NCCCCCCNC(=O)c1ccc(-c2c3nc(c(-c4c(F)c(F)c(F)c(F)c4F)c4ccc([nH]4)c(-c4c(F)c(F)c(F)c(F)c4F)c4nc(c(-c5c(F)c(F)c(F)c(F)c5F)c5ccc2[nH]5)C=C4)C=C3)cc1
REMARK SMILES IDX 17 1 16 2 15 3 13 4 14 5 8 7 7 8 4 10 5 11 6 12 3 13 2 14
REMARK SMILES IDX 1 15 9 16 10 17 11 18 12 19 18 22 19 23 20 24 21 25 22 26
REMARK SMILES IDX 23 27 24 29 25 30 26 31 87 32 27 33 86 34 28 35 29 36 30 37
REMARK SMILES IDX 80 38 31 39 85 40 79 41 81 42 32 43 84 44 78 45 77 46 33 48
REMARK SMILES IDX 65 49 45 50 64 51 46 52 49 53 63 54 82 55 47 56 48 57 62 59
REMARK SMILES IDX 83 60 50 61 34 62 35 63 43 64 36 65 37 66 41 67 44 68 38 69
REMARK SMILES IDX 39 70 42 71 40 72 66 73 67 74 75 75 68 76 69 77 73 78 76 79
REMARK SMILES IDX 70 80 71 81 74 82 72 83 51 84 52 85 60 86 53 87 54 88 58 89
REMARK SMILES IDX 61 90 55 91 56 92 59 93 57 94
REMARK H PARENT 15 6 7 9 11 20 11 21 22 28 81 47 49 58
REMARK Flexibility Score: inf
ROOT
ATOM      1  C   UNL A   1      33.351  28.712  26.687  1.00  0.00     0.021 C 
ENDROOT
BRANCH   1   2
ATOM      2  C   UNL A   1      33.078  27.727  25.566  1.00  0.00     0.116 C 
BRANCH   2   3
ATOM      3  N   UNL A   1      33.563  28.194  24.296  1.00  0.00    -0.355 N 
ATOM      4  C   UNL A   1      32.850  28.497  23.186  1.00  0.00     0.238 C 
ATOM      5  O   UNL A   1      33.498  28.916  22.217  1.00  0.00    -0.273 OA
ATOM      6  H   UNL A   1      34.538  28.310  24.225  1.00  0.00     0.163 HD
BRANCH   4   7
ATOM      7  C   UNL A   1      31.354  28.253  23.055  1.00  0.00     0.168 C 
BRANCH   7   8
ATOM      8  N   UNL A   1      30.264  28.965  23.733  1.00  0.00    -0.202 NA
ATOM      9  H   UNL A   1      29.769  28.224  24.229  1.00  0.00     0.141 HD
BRANCH   8  10
ATOM     10  S   UNL A   1      29.048  29.933  23.178  1.00  0.00     0.215 S 
ATOM     11  O   UNL A   1      28.960  31.127  23.989  1.00  0.00    -0.212 OA
ATOM     12  O   UNL A   1      27.915  29.032  23.141  1.00  0.00    -0.212 OA
BRANCH  10  13
ATOM     13  C   UNL A   1      29.350  30.402  21.458  1.00  0.00     0.180 C 
BRANCH  13  14
ATOM     14  C   UNL A   1      28.210  31.107  20.801  1.00  0.00    -0.017 C 
ATOM     15  C   UNL A   1      27.976  32.420  20.931  1.00  0.00     0.005 C 
ENDBRANCH  13  14
ENDBRANCH  10  13
ENDBRANCH   8  10
ENDBRANCH   7   8
BRANCH   7  16
ATOM     16  C   UNL A   1      31.077  26.755  22.800  1.00  0.00     0.129 C 
BRANCH  16  17
ATOM     17  C   UNL A   1      32.082  25.947  22.010  1.00  0.00     0.219 C 
ATOM     18  N   UNL A   1      31.898  25.946  20.658  1.00  0.00    -0.370 N 
ATOM     19  O   UNL A   1      33.067  25.392  22.481  1.00  0.00    -0.275 OA
ATOM     20  H   UNL A   1      31.110  26.388  20.268  1.00  0.00     0.159 HD
ATOM     21  H   UNL A   1      32.553  25.503  20.073  1.00  0.00     0.159 HD
ENDBRANCH  16  17
ENDBRANCH   7  16
ENDBRANCH   4   7
ENDBRANCH   2   3
ENDBRANCH   1   2
BRANCH   1  22
ATOM     22  C   UNL A   1      32.105  29.519  27.064  1.00  0.00     0.002 C 
BRANCH  22  23
ATOM     23  C   UNL A   1      31.792  30.701  26.133  1.00  0.00     0.002 C 
BRANCH  23  24
ATOM     24  C   UNL A   1      31.502  32.027  26.842  1.00  0.00     0.021 C 
BRANCH  24  25
ATOM     25  C   UNL A   1      32.750  32.775  27.292  1.00  0.00     0.116 C 
BRANCH  25  26
ATOM     26  N   UNL A   1      32.459  34.161  27.629  1.00  0.00    -0.352 N 
ATOM     27  C   UNL A   1      33.003  34.935  28.620  1.00  0.00     0.251 C 
ATOM     28  H   UNL A   1      31.778  34.602  27.070  1.00  0.00     0.163 HD
ATOM     29  O   UNL A   1      32.525  36.027  28.904  1.00  0.00    -0.269 OA
BRANCH  27  30
ATOM     30  C   UNL A   1      34.175  34.423  29.352  1.00  0.00     0.039 A 
ATOM     31  C   UNL A   1      33.978  33.686  30.521  1.00  0.00     0.014 A 
ATOM     32  C   UNL A   1      35.461  34.657  28.859  1.00  0.00     0.014 A 
ATOM     33  C   UNL A   1      35.081  33.135  31.174  1.00  0.00     0.010 A 
ATOM     34  C   UNL A   1      36.548  34.047  29.469  1.00  0.00     0.010 A 
ATOM     35  C   UNL A   1      36.368  33.290  30.638  1.00  0.00    -0.014 A 
BRANCH  35  36
ATOM     36  C   UNL A   1      37.562  32.704  31.290  1.00  0.00     0.031 A 
ATOM     37  C   UNL A   1      38.298  31.587  30.607  1.00  0.00     0.074 A 
ATOM     38  C   UNL A   1      37.922  33.109  32.521  1.00  0.00     0.049 A 
ATOM     39  N   UNL A   1      39.266  30.833  31.057  1.00  0.00    -0.248 NA
ATOM     40  C   UNL A   1      37.862  31.254  29.241  1.00  0.00     0.031 C 
ATOM     41  C   UNL A   1      37.263  34.164  33.292  1.00  0.00     0.029 A 
ATOM     42  N   UNL A   1      38.920  32.663  33.350  1.00  0.00    -0.354 N 
ATOM     43  C   UNL A   1      39.536  29.924  30.044  1.00  0.00     0.074 A 
ATOM     44  C   UNL A   1      38.597  30.184  28.976  1.00  0.00     0.031 C 
ATOM     45  C   UNL A   1      37.883  34.293  34.476  1.00  0.00     0.029 A 
ATOM     46  C   UNL A   1      38.949  33.300  34.566  1.00  0.00     0.049 A 
ATOM     47  H   UNL A   1      39.555  31.955  33.097  1.00  0.00     0.167 HD
ATOM     48  C   UNL A   1      40.497  28.971  30.001  1.00  0.00     0.037 A 
ATOM     49  C   UNL A   1      39.737  33.090  35.638  1.00  0.00     0.037 A 
ATOM     50  C   UNL A   1      41.442  28.736  31.060  1.00  0.00     0.049 A 
ATOM     51  C   UNL A   1      40.781  32.008  35.576  1.00  0.00     0.074 A 
ATOM     52  C   UNL A   1      42.485  27.828  31.101  1.00  0.00     0.029 A 
ATOM     53  N   UNL A   1      41.456  29.419  32.268  1.00  0.00    -0.354 N 
ATOM     54  N   UNL A   1      41.064  31.184  34.595  1.00  0.00    -0.248 NA
ATOM     55  C   UNL A   1      41.620  31.826  36.769  1.00  0.00     0.031 C 
ATOM     56  C   UNL A   1      43.100  27.929  32.352  1.00  0.00     0.029 A 
ATOM     57  C   UNL A   1      42.479  28.939  33.068  1.00  0.00     0.049 A 
ATOM     58  H   UNL A   1      40.831  30.138  32.519  1.00  0.00     0.167 HD
ATOM     59  C   UNL A   1      42.134  30.418  35.034  1.00  0.00     0.074 A 
ATOM     60  C   UNL A   1      42.453  30.874  36.372  1.00  0.00     0.031 C 
ATOM     61  C   UNL A   1      42.796  29.428  34.387  1.00  0.00     0.037 A 
BRANCH  48  62
ATOM     62  C   UNL A   1      40.569  28.114  28.771  1.00  0.00     0.064 A 
ATOM     63  C   UNL A   1      41.336  28.485  27.657  1.00  0.00     0.173 A 
ATOM     64  C   UNL A   1      39.878  26.893  28.712  1.00  0.00     0.173 A 
ATOM     65  F   UNL A   1      42.007  29.648  27.656  1.00  0.00    -0.203 F 
ATOM     66  C   UNL A   1      41.382  27.686  26.517  1.00  0.00     0.198 A 
ATOM     67  C   UNL A   1      39.954  26.079  27.585  1.00  0.00     0.198 A 
ATOM     68  F   UNL A   1      39.134  26.486  29.751  1.00  0.00    -0.203 F 
ATOM     69  F   UNL A   1      42.077  28.091  25.444  1.00  0.00    -0.200 F 
ATOM     70  C   UNL A   1      40.697  26.481  26.485  1.00  0.00     0.200 A 
ATOM     71  F   UNL A   1      39.303  24.909  27.561  1.00  0.00    -0.200 F 
ATOM     72  F   UNL A   1      40.747  25.710  25.390  1.00  0.00    -0.200 F 
ENDBRANCH  48  62
BRANCH  49  73
ATOM     73  C   UNL A   1      39.582  33.933  36.852  1.00  0.00     0.064 A 
ATOM     74  C   UNL A   1      40.231  35.173  36.949  1.00  0.00     0.173 A 
ATOM     75  C   UNL A   1      38.792  33.525  37.935  1.00  0.00     0.173 A 
ATOM     76  F   UNL A   1      41.015  35.598  35.947  1.00  0.00    -0.203 F 
ATOM     77  C   UNL A   1      40.113  35.961  38.091  1.00  0.00     0.198 A 
ATOM     78  C   UNL A   1      38.650  34.328  39.066  1.00  0.00     0.198 A 
ATOM     79  F   UNL A   1      38.147  32.350  37.892  1.00  0.00    -0.203 F 
ATOM     80  F   UNL A   1      40.782  37.118  38.177  1.00  0.00    -0.200 F 
ATOM     81  C   UNL A   1      39.317  35.540  39.147  1.00  0.00     0.200 A 
ATOM     82  F   UNL A   1      37.871  33.923  40.078  1.00  0.00    -0.200 F 
ATOM     83  F   UNL A   1      39.202  36.299  40.245  1.00  0.00    -0.200 F 
ENDBRANCH  49  73
BRANCH  61  84
ATOM     84  C   UNL A   1      43.972  28.809  35.083  1.00  0.00     0.064 A 
ATOM     85  C   UNL A   1      45.277  29.290  34.904  1.00  0.00     0.173 A 
ATOM     86  C   UNL A   1      43.776  27.764  36.001  1.00  0.00     0.173 A 
ATOM     87  F   UNL A   1      45.518  30.276  34.028  1.00  0.00    -0.203 F 
ATOM     88  C   UNL A   1      46.345  28.736  35.607  1.00  0.00     0.198 A 
ATOM     89  C   UNL A   1      44.840  27.235  36.723  1.00  0.00     0.198 A 
ATOM     90  F   UNL A   1      42.545  27.274  36.212  1.00  0.00    -0.203 F 
ATOM     91  F   UNL A   1      47.589  29.187  35.394  1.00  0.00    -0.200 F 
ATOM     92  C   UNL A   1      46.124  27.718  36.523  1.00  0.00     0.200 A 
ATOM     93  F   UNL A   1      44.623  26.262  37.619  1.00  0.00    -0.200 F 
ATOM     94  F   UNL A   1      47.150  27.201  37.210  1.00  0.00    -0.200 F 
ENDBRANCH  61  84
ENDBRANCH  35  36
ENDBRANCH  27  30
ENDBRANCH  25  26
ENDBRANCH  24  25
ENDBRANCH  23  24
ENDBRANCH  22  23
ENDBRANCH   1  22
TORSDOF 19
ENDMDL
