MODEL 1
REMARK VINA RESULT:     -11.5      0.000      0.000
REMARK SMILES C[C@H]1[C@H](C(=O)NCCCCCCNC(=O)c2ccc(-c3c4nc(c(-c5c(F)c(F)c(F)c(F)c5F)c5ccc([nH]5)c(-c5c(F)c(F)c(F)c(F)c5F)c5nc(c(-c6c(F)c(F)c(F)c(F)c6F)c6ccc3[nH]6)C=C5)C=C4)cc2)CCN1C(=O)CC[NH2+]C1CC1
REMARK SMILES IDX 8 1 7 2 6 3 4 4 5 5 3 7 1 8 2 9 81 10 79 11 80 12 82 13
REMARK SMILES IDX 83 14 84 15 85 16 86 17 87 20 88 21 89 22 9 23 10 24 11 25
REMARK SMILES IDX 12 26 13 27 14 28 15 30 16 31 17 32 78 33 18 34 77 35 19 36
REMARK SMILES IDX 20 37 21 38 71 39 22 40 76 41 70 42 72 43 23 44 75 45 69 46
REMARK SMILES IDX 68 47 24 49 56 50 36 51 55 52 37 53 40 54 54 55 73 56 38 57
REMARK SMILES IDX 39 58 53 60 74 61 41 62 25 63 26 64 34 65 27 66 28 67 32 68
REMARK SMILES IDX 35 69 29 70 30 71 33 72 31 73 57 74 58 75 66 76 59 77 60 78
REMARK SMILES IDX 64 79 67 80 61 81 62 82 65 83 63 84 42 85 43 86 51 87 44 88
REMARK SMILES IDX 45 89 49 90 52 91 46 92 47 93 50 94 48 95
REMARK H PARENT 6 6 86 18 86 19 13 29 72 48 40 59
REMARK Flexibility Score: inf
ROOT
ATOM      1  C   UNL A   1      31.729  28.504  27.409  1.00  0.00     0.021 C 
ENDROOT
BRANCH   1   2
ATOM      2  C   UNL A   1      31.579  27.456  26.312  1.00  0.00     0.116 C 
BRANCH   2   3
ATOM      3  N   UNL A   1      31.001  26.233  26.829  1.00  0.00    -0.356 N 
ATOM      4  C   UNL A   1      31.288  24.937  26.563  1.00  0.00     0.225 C 
ATOM      5  O   UNL A   1      30.593  24.077  27.109  1.00  0.00    -0.275 OA
ATOM      6  H   UNL A   1      30.277  26.366  27.482  1.00  0.00     0.163 HD
BRANCH   4   7
ATOM      7  C   UNL A   1      32.394  24.526  25.610  1.00  0.00     0.102 C 
ATOM      8  C   UNL A   1      32.066  23.538  23.354  1.00  0.00     0.032 C 
ATOM      9  C   UNL A   1      32.055  24.843  24.146  1.00  0.00     0.094 C 
ATOM     10  N   UNL A   1      33.128  25.723  23.683  1.00  0.00    -0.339 N 
ATOM     11  C   UNL A   1      33.771  25.139  25.878  1.00  0.00     0.037 C 
ATOM     12  C   UNL A   1      34.305  25.553  24.512  1.00  0.00     0.120 C 
BRANCH  10  13
ATOM     13  C   UNL A   1      33.140  26.593  22.611  1.00  0.00     0.228 C 
ATOM     14  O   UNL A   1      33.585  26.248  21.514  1.00  0.00    -0.275 OA
BRANCH  13  15
ATOM     15  C   UNL A   1      32.663  28.026  22.806  1.00  0.00     0.161 C 
BRANCH  15  16
ATOM     16  C   UNL A   1      31.190  28.231  22.446  1.00  0.00     0.270 C 
BRANCH  16  17
ATOM     17  N   UNL A   1      30.768  29.618  22.674  1.00  0.00    -0.343 N 
ATOM     18  H   UNL A   1      30.842  30.125  21.793  1.00  0.00     0.346 HD
ATOM     19  H   UNL A   1      31.378  29.995  23.400  1.00  0.00     0.346 HD
BRANCH  17  20
ATOM     20  C   UNL A   1      29.393  29.755  23.168  1.00  0.00     0.182 C 
ATOM     21  C   UNL A   1      28.779  31.090  23.499  1.00  0.00     0.071 C 
ATOM     22  C   UNL A   1      28.361  30.371  22.253  1.00  0.00     0.071 C 
ENDBRANCH  17  20
ENDBRANCH  16  17
ENDBRANCH  15  16
ENDBRANCH  13  15
ENDBRANCH  10  13
ENDBRANCH   4   7
ENDBRANCH   2   3
ENDBRANCH   1   2
BRANCH   1  23
ATOM     23  C   UNL A   1      32.426  29.789  26.952  1.00  0.00     0.002 C 
BRANCH  23  24
ATOM     24  C   UNL A   1      31.587  30.681  26.031  1.00  0.00     0.002 C 
BRANCH  24  25
ATOM     25  C   UNL A   1      31.365  32.105  26.547  1.00  0.00     0.021 C 
BRANCH  25  26
ATOM     26  C   UNL A   1      32.563  32.696  27.278  1.00  0.00     0.116 C 
BRANCH  26  27
ATOM     27  N   UNL A   1      32.368  34.105  27.578  1.00  0.00    -0.352 N 
ATOM     28  C   UNL A   1      32.961  34.872  28.546  1.00  0.00     0.251 C 
ATOM     29  H   UNL A   1      31.719  34.575  27.005  1.00  0.00     0.163 HD
ATOM     30  O   UNL A   1      32.519  35.987  28.814  1.00  0.00    -0.269 OA
BRANCH  28  31
ATOM     31  C   UNL A   1      34.127  34.343  29.280  1.00  0.00     0.039 A 
ATOM     32  C   UNL A   1      33.917  33.643  30.470  1.00  0.00     0.014 A 
ATOM     33  C   UNL A   1      35.423  34.538  28.793  1.00  0.00     0.014 A 
ATOM     34  C   UNL A   1      35.007  33.092  31.145  1.00  0.00     0.010 A 
ATOM     35  C   UNL A   1      36.498  33.918  29.422  1.00  0.00     0.010 A 
ATOM     36  C   UNL A   1      36.301  33.198  30.609  1.00  0.00    -0.014 A 
BRANCH  36  37
ATOM     37  C   UNL A   1      37.461  32.561  31.280  1.00  0.00     0.031 A 
ATOM     38  C   UNL A   1      38.197  31.435  30.609  1.00  0.00     0.074 A 
ATOM     39  C   UNL A   1      37.816  32.960  32.516  1.00  0.00     0.049 A 
ATOM     40  N   UNL A   1      39.201  30.720  31.053  1.00  0.00    -0.248 NA
ATOM     41  C   UNL A   1      37.727  31.042  29.271  1.00  0.00     0.031 C 
ATOM     42  C   UNL A   1      37.149  34.010  33.287  1.00  0.00     0.029 A 
ATOM     43  N   UNL A   1      38.819  32.527  33.345  1.00  0.00    -0.354 N 
ATOM     44  C   UNL A   1      39.473  29.793  30.056  1.00  0.00     0.074 A 
ATOM     45  C   UNL A   1      38.492  29.992  29.012  1.00  0.00     0.031 C 
ATOM     46  C   UNL A   1      37.778  34.159  34.463  1.00  0.00     0.029 A 
ATOM     47  C   UNL A   1      38.863  33.187  34.548  1.00  0.00     0.049 A 
ATOM     48  H   UNL A   1      39.449  31.810  33.100  1.00  0.00     0.167 HD
ATOM     49  C   UNL A   1      40.468  28.875  30.006  1.00  0.00     0.037 A 
ATOM     50  C   UNL A   1      39.681  33.018  35.604  1.00  0.00     0.037 A 
ATOM     51  C   UNL A   1      41.449  28.691  31.043  1.00  0.00     0.049 A 
ATOM     52  C   UNL A   1      40.762  31.973  35.534  1.00  0.00     0.074 A 
ATOM     53  C   UNL A   1      42.530  27.828  31.065  1.00  0.00     0.029 A 
ATOM     54  N   UNL A   1      41.462  29.378  32.249  1.00  0.00    -0.354 N 
ATOM     55  N   UNL A   1      41.058  31.153  34.556  1.00  0.00    -0.248 NA
ATOM     56  C   UNL A   1      41.625  31.834  36.714  1.00  0.00     0.031 C 
ATOM     57  C   UNL A   1      43.162  27.950  32.307  1.00  0.00     0.029 A 
ATOM     58  C   UNL A   1      42.515  28.936  33.034  1.00  0.00     0.049 A 
ATOM     59  H   UNL A   1      40.819  30.077  32.508  1.00  0.00     0.167 HD
ATOM     60  C   UNL A   1      42.157  30.422  34.988  1.00  0.00     0.074 A 
ATOM     61  C   UNL A   1      42.486  30.911  36.312  1.00  0.00     0.031 C 
ATOM     62  C   UNL A   1      42.832  29.435  34.349  1.00  0.00     0.037 A 
BRANCH  49  63
ATOM     63  C   UNL A   1      40.542  27.997  28.789  1.00  0.00     0.064 A 
ATOM     64  C   UNL A   1      39.854  26.776  28.716  1.00  0.00     0.173 A 
ATOM     65  C   UNL A   1      41.285  28.396  27.667  1.00  0.00     0.173 A 
ATOM     66  F   UNL A   1      39.136  26.341  29.763  1.00  0.00    -0.203 F 
ATOM     67  C   UNL A   1      39.935  25.971  27.582  1.00  0.00     0.198 A 
ATOM     68  C   UNL A   1      41.335  27.605  26.521  1.00  0.00     0.198 A 
ATOM     69  F   UNL A   1      41.958  29.557  27.678  1.00  0.00    -0.203 F 
ATOM     70  F   UNL A   1      39.315  24.784  27.559  1.00  0.00    -0.200 F 
ATOM     71  C   UNL A   1      40.669  26.391  26.483  1.00  0.00     0.200 A 
ATOM     72  F   UNL A   1      42.033  28.020  25.454  1.00  0.00    -0.200 F 
ATOM     73  F   UNL A   1      40.740  25.620  25.389  1.00  0.00    -0.200 F 
ENDBRANCH  49  63
BRANCH  50  74
ATOM     74  C   UNL A   1      39.523  33.872  36.811  1.00  0.00     0.064 A 
ATOM     75  C   UNL A   1      40.122  35.138  36.881  1.00  0.00     0.173 A 
ATOM     76  C   UNL A   1      38.778  33.443  37.919  1.00  0.00     0.173 A 
ATOM     77  F   UNL A   1      40.862  35.587  35.855  1.00  0.00    -0.203 F 
ATOM     78  C   UNL A   1      40.003  35.930  38.021  1.00  0.00     0.198 A 
ATOM     79  C   UNL A   1      38.632  34.249  39.045  1.00  0.00     0.198 A 
ATOM     80  F   UNL A   1      38.178  32.243  37.901  1.00  0.00    -0.203 F 
ATOM     81  F   UNL A   1      40.629  37.113  38.081  1.00  0.00    -0.200 F 
ATOM     82  C   UNL A   1      39.253  35.488  39.100  1.00  0.00     0.200 A 
ATOM     83  F   UNL A   1      37.892  33.825  40.078  1.00  0.00    -0.200 F 
ATOM     84  F   UNL A   1      39.134  36.251  40.194  1.00  0.00    -0.200 F 
ENDBRANCH  50  74
BRANCH  62  85
ATOM     85  C   UNL A   1      44.016  28.840  35.057  1.00  0.00     0.064 A 
ATOM     86  C   UNL A   1      43.895  27.710  35.878  1.00  0.00     0.173 A 
ATOM     87  C   UNL A   1      45.297  29.387  34.879  1.00  0.00     0.173 A 
ATOM     88  F   UNL A   1      42.691  27.157  36.094  1.00  0.00    -0.203 F 
ATOM     89  C   UNL A   1      45.006  27.167  36.519  1.00  0.00     0.198 A 
ATOM     90  C   UNL A   1      46.410  28.820  35.492  1.00  0.00     0.198 A 
ATOM     91  F   UNL A   1      45.471  30.463  34.097  1.00  0.00    -0.203 F 
ATOM     92  F   UNL A   1      44.857  26.120  37.342  1.00  0.00    -0.200 F 
ATOM     93  C   UNL A   1      46.263  27.716  36.318  1.00  0.00     0.200 A 
ATOM     94  F   UNL A   1      47.627  29.342  35.283  1.00  0.00    -0.200 F 
ATOM     95  F   UNL A   1      47.333  27.186  36.927  1.00  0.00    -0.200 F 
ENDBRANCH  62  85
ENDBRANCH  36  37
ENDBRANCH  28  31
ENDBRANCH  26  27
ENDBRANCH  25  26
ENDBRANCH  24  25
ENDBRANCH  23  24
ENDBRANCH   1  23
TORSDOF 18
ENDMDL
MODEL 2
REMARK VINA RESULT:     -11.4      0.588      7.511
REMARK SMILES C[C@H]1[C@H](C(=O)NCCCCCCNC(=O)c2ccc(-c3c4nc(c(-c5c(F)c(F)c(F)c(F)c5F)c5ccc([nH]5)c(-c5c(F)c(F)c(F)c(F)c5F)c5nc(c(-c6c(F)c(F)c(F)c(F)c6F)c6ccc3[nH]6)C=C5)C=C4)cc2)CCN1C(=O)CC[NH2+]C1CC1
REMARK SMILES IDX 8 1 7 2 6 3 4 4 5 5 3 7 1 8 2 9 81 10 79 11 80 12 82 13
REMARK SMILES IDX 83 14 84 15 85 16 86 17 87 20 88 21 89 22 9 23 10 24 11 25
REMARK SMILES IDX 12 26 13 27 14 28 15 30 16 31 17 32 78 33 18 34 77 35 19 36
REMARK SMILES IDX 20 37 21 38 71 39 22 40 76 41 70 42 72 43 23 44 75 45 69 46
REMARK SMILES IDX 68 47 24 49 56 50 36 51 55 52 37 53 40 54 54 55 73 56 38 57
REMARK SMILES IDX 39 58 53 60 74 61 41 62 25 63 26 64 34 65 27 66 28 67 32 68
REMARK SMILES IDX 35 69 29 70 30 71 33 72 31 73 57 74 58 75 66 76 59 77 60 78
REMARK SMILES IDX 64 79 67 80 61 81 62 82 65 83 63 84 42 85 43 86 51 87 44 88
REMARK SMILES IDX 45 89 49 90 52 91 46 92 47 93 50 94 48 95
REMARK H PARENT 6 6 86 18 86 19 13 29 72 48 40 59
REMARK Flexibility Score: inf
ROOT
ATOM      1  C   UNL A   1      31.923  28.642  27.505  1.00  0.00     0.021 C 
ENDROOT
BRANCH   1   2
ATOM      2  C   UNL A   1      31.653  27.646  26.382  1.00  0.00     0.116 C 
BRANCH   2   3
ATOM      3  N   UNL A   1      31.152  26.392  26.902  1.00  0.00    -0.356 N 
ATOM      4  C   UNL A   1      31.342  25.120  26.479  1.00  0.00     0.225 C 
ATOM      5  O   UNL A   1      30.742  24.225  27.081  1.00  0.00    -0.275 OA
ATOM      6  H   UNL A   1      30.575  26.478  27.695  1.00  0.00     0.163 HD
BRANCH   4   7
ATOM      7  C   UNL A   1      32.226  24.777  25.296  1.00  0.00     0.102 C 
ATOM      8  C   UNL A   1      31.449  24.443  22.960  1.00  0.00     0.032 C 
ATOM      9  C   UNL A   1      31.790  25.496  24.011  1.00  0.00     0.094 C 
ATOM     10  N   UNL A   1      32.956  26.272  23.588  1.00  0.00    -0.339 N 
ATOM     11  C   UNL A   1      33.719  25.067  25.470  1.00  0.00     0.037 C 
ATOM     12  C   UNL A   1      34.163  25.709  24.161  1.00  0.00     0.120 C 
BRANCH  10  13
ATOM     13  C   UNL A   1      33.018  27.364  22.745  1.00  0.00     0.228 C 
ATOM     14  O   UNL A   1      33.757  27.368  21.759  1.00  0.00    -0.275 OA
BRANCH  13  15
ATOM     15  C   UNL A   1      32.214  28.612  23.081  1.00  0.00     0.161 C 
BRANCH  15  16
ATOM     16  C   UNL A   1      30.864  28.677  22.364  1.00  0.00     0.270 C 
BRANCH  16  17
ATOM     17  N   UNL A   1      30.652  29.985  21.731  1.00  0.00    -0.343 N 
ATOM     18  H   UNL A   1      31.020  29.944  20.781  1.00  0.00     0.346 HD
ATOM     19  H   UNL A   1      31.131  30.673  22.312  1.00  0.00     0.346 HD
BRANCH  17  20
ATOM     20  C   UNL A   1      29.246  30.399  21.661  1.00  0.00     0.182 C 
ATOM     21  C   UNL A   1      28.189  29.835  22.573  1.00  0.00     0.071 C 
ATOM     22  C   UNL A   1      28.688  31.231  22.791  1.00  0.00     0.071 C 
ENDBRANCH  17  20
ENDBRANCH  16  17
ENDBRANCH  15  16
ENDBRANCH  13  15
ENDBRANCH  10  13
ENDBRANCH   4   7
ENDBRANCH   2   3
ENDBRANCH   1   2
BRANCH   1  23
ATOM     23  C   UNL A   1      32.394  30.016  27.018  1.00  0.00     0.002 C 
BRANCH  23  24
ATOM     24  C   UNL A   1      31.360  30.797  26.200  1.00  0.00     0.002 C 
BRANCH  24  25
ATOM     25  C   UNL A   1      31.351  32.305  26.452  1.00  0.00     0.021 C 
BRANCH  25  26
ATOM     26  C   UNL A   1      32.584  32.824  27.180  1.00  0.00     0.116 C 
BRANCH  26  27
ATOM     27  N   UNL A   1      32.418  34.204  27.605  1.00  0.00    -0.352 N 
ATOM     28  C   UNL A   1      33.035  34.872  28.629  1.00  0.00     0.251 C 
ATOM     29  H   UNL A   1      31.771  34.733  27.083  1.00  0.00     0.163 HD
ATOM     30  O   UNL A   1      32.617  35.967  28.999  1.00  0.00    -0.269 OA
BRANCH  28  31
ATOM     31  C   UNL A   1      34.200  34.261  29.299  1.00  0.00     0.039 A 
ATOM     32  C   UNL A   1      33.988  33.433  30.402  1.00  0.00     0.014 A 
ATOM     33  C   UNL A   1      35.496  34.506  28.837  1.00  0.00     0.014 A 
ATOM     34  C   UNL A   1      35.076  32.807  31.011  1.00  0.00     0.010 A 
ATOM     35  C   UNL A   1      36.570  33.817  29.392  1.00  0.00     0.010 A 
ATOM     36  C   UNL A   1      36.371  32.968  30.491  1.00  0.00    -0.014 A 
BRANCH  36  37
ATOM     37  C   UNL A   1      37.529  32.257  31.086  1.00  0.00     0.031 A 
ATOM     38  C   UNL A   1      38.024  32.634  32.454  1.00  0.00     0.074 A 
ATOM     39  C   UNL A   1      38.166  31.310  30.372  1.00  0.00     0.049 A 
ATOM     40  N   UNL A   1      39.048  32.165  33.123  1.00  0.00    -0.248 NA
ATOM     41  C   UNL A   1      37.288  33.698  33.155  1.00  0.00     0.031 C 
ATOM     42  C   UNL A   1      37.807  30.891  29.016  1.00  0.00     0.029 A 
ATOM     43  N   UNL A   1      39.254  30.534  30.681  1.00  0.00    -0.354 N 
ATOM     44  C   UNL A   1      39.081  32.881  34.312  1.00  0.00     0.074 A 
ATOM     45  C   UNL A   1      38.016  33.857  34.249  1.00  0.00     0.031 C 
ATOM     46  C   UNL A   1      38.640  29.916  28.622  1.00  0.00     0.029 A 
ATOM     47  C   UNL A   1      39.618  29.671  29.677  1.00  0.00     0.049 A 
ATOM     48  H   UNL A   1      39.729  30.591  31.542  1.00  0.00     0.167 HD
ATOM     49  C   UNL A   1      39.911  32.720  35.371  1.00  0.00     0.037 A 
ATOM     50  C   UNL A   1      40.633  28.790  29.613  1.00  0.00     0.037 A 
ATOM     51  C   UNL A   1      40.960  31.736  35.432  1.00  0.00     0.049 A 
ATOM     52  C   UNL A   1      41.557  28.649  30.793  1.00  0.00     0.074 A 
ATOM     53  C   UNL A   1      41.818  31.455  36.480  1.00  0.00     0.029 A 
ATOM     54  N   UNL A   1      41.300  30.879  34.395  1.00  0.00    -0.354 N 
ATOM     55  N   UNL A   1      41.533  29.277  31.943  1.00  0.00    -0.248 NA
ATOM     56  C   UNL A   1      42.646  27.671  30.667  1.00  0.00     0.031 C 
ATOM     57  C   UNL A   1      42.715  30.468  36.057  1.00  0.00     0.029 A 
ATOM     58  C   UNL A   1      42.376  30.088  34.769  1.00  0.00     0.049 A 
ATOM     59  H   UNL A   1      40.845  30.837  33.524  1.00  0.00     0.167 HD
ATOM     60  C   UNL A   1      42.582  28.753  32.687  1.00  0.00     0.074 A 
ATOM     61  C   UNL A   1      43.210  27.741  31.864  1.00  0.00     0.031 C 
ATOM     62  C   UNL A   1      42.988  29.081  33.939  1.00  0.00     0.037 A 
BRANCH  49  63
ATOM     63  C   UNL A   1      39.716  33.631  36.550  1.00  0.00     0.064 A 
ATOM     64  C   UNL A   1      40.384  34.861  36.651  1.00  0.00     0.173 A 
ATOM     65  C   UNL A   1      38.825  33.285  37.577  1.00  0.00     0.173 A 
ATOM     66  F   UNL A   1      41.254  35.237  35.702  1.00  0.00    -0.203 F 
ATOM     67  C   UNL A   1      40.195  35.693  37.752  1.00  0.00     0.198 A 
ATOM     68  C   UNL A   1      38.612  34.136  38.660  1.00  0.00     0.198 A 
ATOM     69  F   UNL A   1      38.154  32.124  37.531  1.00  0.00    -0.203 F 
ATOM     70  F   UNL A   1      40.887  36.836  37.852  1.00  0.00    -0.200 F 
ATOM     71  C   UNL A   1      39.303  35.333  38.751  1.00  0.00     0.200 A 
ATOM     72  F   UNL A   1      37.739  33.793  39.617  1.00  0.00    -0.200 F 
ATOM     73  F   UNL A   1      39.116  36.138  39.806  1.00  0.00    -0.200 F 
ENDBRANCH  49  63
BRANCH  50  74
ATOM     74  C   UNL A   1      40.820  27.957  28.395  1.00  0.00     0.064 A 
ATOM     75  C   UNL A   1      40.219  26.694  28.287  1.00  0.00     0.173 A 
ATOM     76  C   UNL A   1      41.602  28.399  27.319  1.00  0.00     0.173 A 
ATOM     77  F   UNL A   1      39.477  26.217  29.298  1.00  0.00    -0.203 F 
ATOM     78  C   UNL A   1      40.415  25.897  27.161  1.00  0.00     0.198 A 
ATOM     79  C   UNL A   1      41.770  27.615  26.179  1.00  0.00     0.198 A 
ATOM     80  F   UNL A   1      42.193  29.603  27.367  1.00  0.00    -0.203 F 
ATOM     81  F   UNL A   1      39.871  24.673  27.108  1.00  0.00    -0.200 F 
ATOM     82  C   UNL A   1      41.185  26.360  26.106  1.00  0.00     0.200 A 
ATOM     83  F   UNL A   1      42.501  28.075  25.155  1.00  0.00    -0.200 F 
ATOM     84  F   UNL A   1      41.369  25.596  25.021  1.00  0.00    -0.200 F 
ENDBRANCH  50  74
BRANCH  62  85
ATOM     85  C   UNL A   1      44.148  28.314  34.509  1.00  0.00     0.064 A 
ATOM     86  C   UNL A   1      45.467  28.779  34.399  1.00  0.00     0.173 A 
ATOM     87  C   UNL A   1      43.930  27.117  35.210  1.00  0.00     0.173 A 
ATOM     88  F   UNL A   1      45.731  29.910  33.727  1.00  0.00    -0.203 F 
ATOM     89  C   UNL A   1      46.527  28.059  34.944  1.00  0.00     0.198 A 
ATOM     90  C   UNL A   1      44.988  26.419  35.783  1.00  0.00     0.198 A 
ATOM     91  F   UNL A   1      42.687  26.632  35.352  1.00  0.00    -0.203 F 
ATOM     92  F   UNL A   1      47.784  28.493  34.779  1.00  0.00    -0.200 F 
ATOM     93  C   UNL A   1      46.286  26.885  35.642  1.00  0.00     0.200 A 
ATOM     94  F   UNL A   1      44.751  25.294  36.472  1.00  0.00    -0.200 F 
ATOM     95  F   UNL A   1      47.307  26.198  36.174  1.00  0.00    -0.200 F 
ENDBRANCH  62  85
ENDBRANCH  36  37
ENDBRANCH  28  31
ENDBRANCH  26  27
ENDBRANCH  25  26
ENDBRANCH  24  25
ENDBRANCH  23  24
ENDBRANCH   1  23
TORSDOF 18
ENDMDL
MODEL 3
REMARK VINA RESULT:     -11.2      1.901      3.875
REMARK SMILES C[C@H]1[C@H](C(=O)NCCCCCCNC(=O)c2ccc(-c3c4nc(c(-c5c(F)c(F)c(F)c(F)c5F)c5ccc([nH]5)c(-c5c(F)c(F)c(F)c(F)c5F)c5nc(c(-c6c(F)c(F)c(F)c(F)c6F)c6ccc3[nH]6)C=C5)C=C4)cc2)CCN1C(=O)CC[NH2+]C1CC1
REMARK SMILES IDX 8 1 7 2 6 3 4 4 5 5 3 7 1 8 2 9 81 10 79 11 80 12 82 13
REMARK SMILES IDX 83 14 84 15 85 16 86 17 87 20 88 21 89 22 9 23 10 24 11 25
REMARK SMILES IDX 12 26 13 27 14 28 15 30 16 31 17 32 78 33 18 34 77 35 19 36
REMARK SMILES IDX 20 37 21 38 71 39 22 40 76 41 70 42 72 43 23 44 75 45 69 46
REMARK SMILES IDX 68 47 24 49 56 50 36 51 55 52 37 53 40 54 54 55 73 56 38 57
REMARK SMILES IDX 39 58 53 60 74 61 41 62 25 63 26 64 34 65 27 66 28 67 32 68
REMARK SMILES IDX 35 69 29 70 30 71 33 72 31 73 57 74 58 75 66 76 59 77 60 78
REMARK SMILES IDX 64 79 67 80 61 81 62 82 65 83 63 84 42 85 43 86 51 87 44 88
REMARK SMILES IDX 45 89 49 90 52 91 46 92 47 93 50 94 48 95
REMARK H PARENT 6 6 86 18 86 19 13 29 72 48 40 59
REMARK Flexibility Score: inf
ROOT
ATOM      1  C   UNL A   1      33.693  29.347  26.022  1.00  0.00     0.021 C 
ENDROOT
BRANCH   1   2
ATOM      2  C   UNL A   1      33.984  27.882  26.326  1.00  0.00     0.116 C 
BRANCH   2   3
ATOM      3  N   UNL A   1      32.764  27.142  26.568  1.00  0.00    -0.356 N 
ATOM      4  C   UNL A   1      32.323  25.970  26.054  1.00  0.00     0.225 C 
ATOM      5  O   UNL A   1      31.201  25.585  26.395  1.00  0.00    -0.275 OA
ATOM      6  H   UNL A   1      32.151  27.563  27.213  1.00  0.00     0.163 HD
BRANCH   4   7
ATOM      7  C   UNL A   1      33.138  25.153  25.070  1.00  0.00     0.102 C 
ATOM      8  C   UNL A   1      35.492  24.426  25.395  1.00  0.00     0.032 C 
ATOM      9  C   UNL A   1      34.042  24.126  25.768  1.00  0.00     0.094 C 
ATOM     10  N   UNL A   1      33.641  22.827  25.228  1.00  0.00    -0.339 N 
ATOM     11  C   UNL A   1      32.338  24.381  24.017  1.00  0.00     0.037 C 
ATOM     12  C   UNL A   1      32.984  23.002  23.948  1.00  0.00     0.120 C 
BRANCH  10  13
ATOM     13  C   UNL A   1      33.840  21.566  25.753  1.00  0.00     0.228 C 
ATOM     14  O   UNL A   1      34.099  21.404  26.947  1.00  0.00    -0.275 OA
BRANCH  13  15
ATOM     15  C   UNL A   1      33.810  20.358  24.825  1.00  0.00     0.161 C 
BRANCH  15  16
ATOM     16  C   UNL A   1      32.570  19.481  25.009  1.00  0.00     0.270 C 
BRANCH  16  17
ATOM     17  N   UNL A   1      32.933  18.085  25.284  1.00  0.00    -0.343 N 
ATOM     18  H   UNL A   1      32.165  17.488  24.978  1.00  0.00     0.346 HD
ATOM     19  H   UNL A   1      33.109  18.020  26.288  1.00  0.00     0.346 HD
BRANCH  17  20
ATOM     20  C   UNL A   1      34.159  17.639  24.613  1.00  0.00     0.182 C 
ATOM     21  C   UNL A   1      34.709  16.246  24.773  1.00  0.00     0.071 C 
ATOM     22  C   UNL A   1      34.035  16.633  23.493  1.00  0.00     0.071 C 
ENDBRANCH  17  20
ENDBRANCH  16  17
ENDBRANCH  15  16
ENDBRANCH  13  15
ENDBRANCH  10  13
ENDBRANCH   4   7
ENDBRANCH   2   3
ENDBRANCH   1   2
BRANCH   1  23
ATOM     23  C   UNL A   1      32.671  29.988  26.966  1.00  0.00     0.002 C 
BRANCH  23  24
ATOM     24  C   UNL A   1      31.504  30.693  26.266  1.00  0.00     0.002 C 
BRANCH  24  25
ATOM     25  C   UNL A   1      31.387  32.188  26.567  1.00  0.00     0.021 C 
BRANCH  25  26
ATOM     26  C   UNL A   1      32.594  32.776  27.286  1.00  0.00     0.116 C 
BRANCH  26  27
ATOM     27  N   UNL A   1      32.395  34.179  27.611  1.00  0.00    -0.352 N 
ATOM     28  C   UNL A   1      32.973  34.925  28.604  1.00  0.00     0.251 C 
ATOM     29  H   UNL A   1      31.757  34.661  27.037  1.00  0.00     0.163 HD
ATOM     30  O   UNL A   1      32.528  36.035  28.887  1.00  0.00    -0.269 OA
BRANCH  28  31
ATOM     31  C   UNL A   1      34.126  34.380  29.347  1.00  0.00     0.039 A 
ATOM     32  C   UNL A   1      33.902  33.741  30.568  1.00  0.00     0.014 A 
ATOM     33  C   UNL A   1      35.422  34.499  28.838  1.00  0.00     0.014 A 
ATOM     34  C   UNL A   1      34.977  33.175  31.255  1.00  0.00     0.010 A 
ATOM     35  C   UNL A   1      36.479  33.863  29.481  1.00  0.00     0.010 A 
ATOM     36  C   UNL A   1      36.268  33.202  30.700  1.00  0.00    -0.014 A 
BRANCH  36  37
ATOM     37  C   UNL A   1      37.409  32.546  31.385  1.00  0.00     0.031 A 
ATOM     38  C   UNL A   1      38.121  31.395  30.732  1.00  0.00     0.074 A 
ATOM     39  C   UNL A   1      37.767  32.953  32.617  1.00  0.00     0.049 A 
ATOM     40  N   UNL A   1      39.105  30.663  31.189  1.00  0.00    -0.248 NA
ATOM     41  C   UNL A   1      37.648  30.996  29.397  1.00  0.00     0.031 C 
ATOM     42  C   UNL A   1      37.122  34.029  33.372  1.00  0.00     0.029 A 
ATOM     43  N   UNL A   1      38.756  32.507  33.457  1.00  0.00    -0.354 N 
ATOM     44  C   UNL A   1      39.360  29.716  30.206  1.00  0.00     0.074 A 
ATOM     45  C   UNL A   1      38.388  29.925  29.155  1.00  0.00     0.031 C 
ATOM     46  C   UNL A   1      37.748  34.177  34.549  1.00  0.00     0.029 A 
ATOM     47  C   UNL A   1      38.810  33.181  34.652  1.00  0.00     0.049 A 
ATOM     48  H   UNL A   1      39.370  31.772  33.223  1.00  0.00     0.167 HD
ATOM     49  C   UNL A   1      40.332  28.774  30.173  1.00  0.00     0.037 A 
ATOM     50  C   UNL A   1      39.619  33.007  35.714  1.00  0.00     0.037 A 
ATOM     51  C   UNL A   1      41.305  28.581  31.217  1.00  0.00     0.049 A 
ATOM     52  C   UNL A   1      40.674  31.935  35.662  1.00  0.00     0.074 A 
ATOM     53  C   UNL A   1      42.364  27.692  31.255  1.00  0.00     0.029 A 
ATOM     54  N   UNL A   1      41.328  29.283  32.414  1.00  0.00    -0.354 N 
ATOM     55  N   UNL A   1      40.956  31.095  34.696  1.00  0.00    -0.248 NA
ATOM     56  C   UNL A   1      41.529  31.791  36.848  1.00  0.00     0.031 C 
ATOM     57  C   UNL A   1      42.993  27.815  32.498  1.00  0.00     0.029 A 
ATOM     58  C   UNL A   1      42.367  28.825  33.210  1.00  0.00     0.049 A 
ATOM     59  H   UNL A   1      40.701  29.999  32.661  1.00  0.00     0.167 HD
ATOM     60  C   UNL A   1      42.035  30.345  35.143  1.00  0.00     0.074 A 
ATOM     61  C   UNL A   1      42.369  30.842  36.462  1.00  0.00     0.031 C 
ATOM     62  C   UNL A   1      42.689  29.334  34.520  1.00  0.00     0.037 A 
BRANCH  49  63
ATOM     63  C   UNL A   1      40.391  27.879  28.967  1.00  0.00     0.064 A 
ATOM     64  C   UNL A   1      41.187  28.191  27.854  1.00  0.00     0.173 A 
ATOM     65  C   UNL A   1      39.667  26.677  28.937  1.00  0.00     0.173 A 
ATOM     66  F   UNL A   1      41.892  29.332  27.826  1.00  0.00    -0.203 F 
ATOM     67  C   UNL A   1      41.229  27.352  26.743  1.00  0.00     0.198 A 
ATOM     68  C   UNL A   1      39.738  25.823  27.838  1.00  0.00     0.198 A 
ATOM     69  F   UNL A   1      38.894  26.324  29.975  1.00  0.00    -0.203 F 
ATOM     70  F   UNL A   1      41.952  27.701  25.670  1.00  0.00    -0.200 F 
ATOM     71  C   UNL A   1      40.511  26.166  26.739  1.00  0.00     0.200 A 
ATOM     72  F   UNL A   1      39.056  24.670  27.842  1.00  0.00    -0.200 F 
ATOM     73  F   UNL A   1      40.558  25.356  25.672  1.00  0.00    -0.200 F 
ENDBRANCH  49  63
BRANCH  50  74
ATOM     74  C   UNL A   1      39.476  33.880  36.908  1.00  0.00     0.064 A 
ATOM     75  C   UNL A   1      40.114  35.126  36.971  1.00  0.00     0.173 A 
ATOM     76  C   UNL A   1      38.705  33.488  38.013  1.00  0.00     0.173 A 
ATOM     77  F   UNL A   1      40.879  35.539  35.948  1.00  0.00    -0.203 F 
ATOM     78  C   UNL A   1      40.009  35.936  38.100  1.00  0.00     0.198 A 
ATOM     79  C   UNL A   1      38.573  34.312  39.129  1.00  0.00     0.198 A 
ATOM     80  F   UNL A   1      38.067  32.308  38.003  1.00  0.00    -0.203 F 
ATOM     81  F   UNL A   1      40.672  37.098  38.153  1.00  0.00    -0.200 F 
ATOM     82  C   UNL A   1      39.234  35.530  39.176  1.00  0.00     0.200 A 
ATOM     83  F   UNL A   1      37.809  33.924  40.158  1.00  0.00    -0.200 F 
ATOM     84  F   UNL A   1      39.127  36.310  40.260  1.00  0.00    -0.200 F 
ENDBRANCH  50  74
BRANCH  62  85
ATOM     85  C   UNL A   1      43.855  28.720  35.241  1.00  0.00     0.064 A 
ATOM     86  C   UNL A   1      45.166  29.185  35.058  1.00  0.00     0.173 A 
ATOM     87  C   UNL A   1      43.652  27.677  36.158  1.00  0.00     0.173 A 
ATOM     88  F   UNL A   1      45.417  30.170  34.182  1.00  0.00    -0.203 F 
ATOM     89  C   UNL A   1      46.233  28.610  35.744  1.00  0.00     0.198 A 
ATOM     90  C   UNL A   1      44.716  27.129  36.869  1.00  0.00     0.198 A 
ATOM     91  F   UNL A   1      42.418  27.199  36.378  1.00  0.00    -0.203 F 
ATOM     92  F   UNL A   1      47.482  29.034  35.512  1.00  0.00    -0.200 F 
ATOM     93  C   UNL A   1      46.006  27.589  36.655  1.00  0.00     0.200 A 
ATOM     94  F   UNL A   1      44.492  26.153  37.761  1.00  0.00    -0.200 F 
ATOM     95  F   UNL A   1      47.033  27.043  37.321  1.00  0.00    -0.200 F 
ENDBRANCH  62  85
ENDBRANCH  36  37
ENDBRANCH  28  31
ENDBRANCH  26  27
ENDBRANCH  25  26
ENDBRANCH  24  25
ENDBRANCH  23  24
ENDBRANCH   1  23
TORSDOF 18
ENDMDL
