MODEL 1
REMARK VINA RESULT:     -13.6      0.000      0.000
REMARK SMILES Cc1ccccc1OCC(=O)N[C@@H](Cc1c[nH]c2ccccc12)C(=O)NCCCCCCNC(=O)c1ccc(-c2c3nc(c(-c4c(F)c(F)c(F)c(F)c4F)c4ccc([nH]4)c(-c4c(F)c(F)c(F)c(F)c4F)c4nc(c(-c5c(F)c(F)c(F)c(F)c5F)c5ccc2[nH]5)C=C4)C=C3)cc1
REMARK SMILES IDX 28 1 27 2 26 3 24 4 25 5 13 7 12 8 10 9 11 10 9 12 8 13 7 14
REMARK SMILES IDX 1 15 2 16 3 17 4 18 6 19 5 20 14 21 15 22 16 23 23 24 17 25
REMARK SMILES IDX 18 26 22 27 19 29 21 30 20 31 29 32 30 33 31 34 32 35 33 36
REMARK SMILES IDX 34 37 35 39 36 40 37 41 98 42 38 43 97 44 39 45 40 46 41 47
REMARK SMILES IDX 91 48 42 49 96 50 90 51 92 52 43 53 95 54 89 55 88 56 44 58
REMARK SMILES IDX 76 59 56 60 75 61 57 62 60 63 74 64 93 65 58 66 59 67 73 69
REMARK SMILES IDX 94 70 61 71 45 72 46 73 54 74 47 75 48 76 52 77 55 78 49 79
REMARK SMILES IDX 50 80 53 81 51 82 77 83 78 84 86 85 79 86 80 87 84 88 87 89
REMARK SMILES IDX 81 90 82 91 85 92 83 93 62 94 63 95 71 96 64 97 65 98 69 99
REMARK SMILES IDX 72 100 66 101 67 102 70 103 68 104
REMARK H PARENT 26 6 12 11 17 28 33 38 92 57 60 68
REMARK Flexibility Score: inf
ROOT
ATOM      1  C   UNL A   1      31.132  27.458  26.974  1.00  0.00     0.021 C 
ENDROOT
BRANCH   1   2
ATOM      2  C   UNL A   1      31.245  26.075  26.340  1.00  0.00     0.116 C 
BRANCH   2   3
ATOM      3  N   UNL A   1      32.577  25.514  26.295  1.00  0.00    -0.354 N 
ATOM      4  C   UNL A   1      33.310  25.143  25.199  1.00  0.00     0.242 C 
ATOM      5  O   UNL A   1      34.540  25.230  25.301  1.00  0.00    -0.273 OA
ATOM      6  H   UNL A   1      33.015  25.383  27.166  1.00  0.00     0.163 HD
BRANCH   4   7
ATOM      7  C   UNL A   1      32.681  24.697  23.850  1.00  0.00     0.175 C 
BRANCH   7   8
ATOM      8  N   UNL A   1      33.381  25.273  22.703  1.00  0.00    -0.341 N 
ATOM      9  C   UNL A   1      33.068  26.435  22.062  1.00  0.00     0.258 C 
ATOM     10  O   UNL A   1      33.981  27.085  21.550  1.00  0.00    -0.271 OA
ATOM     11  H   UNL A   1      34.156  24.772  22.360  1.00  0.00     0.164 HD
BRANCH   9  12
ATOM     12  C   UNL A   1      31.608  26.893  21.991  1.00  0.00     0.329 C 
BRANCH  12  13
ATOM     13  O   UNL A   1      31.123  27.783  22.979  1.00  0.00    -0.484 OA
BRANCH  13  14
ATOM     14  C   UNL A   1      29.922  28.422  22.849  1.00  0.00     0.122 A 
ATOM     15  C   UNL A   1      28.279  26.713  23.901  1.00  0.00     0.048 C 
ATOM     16  C   UNL A   1      28.639  28.015  23.246  1.00  0.00    -0.009 A 
ATOM     17  C   UNL A   1      27.553  28.892  23.018  1.00  0.00     0.007 A 
ATOM     18  C   UNL A   1      27.714  30.106  22.354  1.00  0.00     0.001 A 
ATOM     19  C   UNL A   1      30.061  29.638  22.155  1.00  0.00     0.047 A 
ATOM     20  C   UNL A   1      28.972  30.475  21.906  1.00  0.00     0.004 A 
ENDBRANCH  13  14
ENDBRANCH  12  13
ENDBRANCH   9  12
ENDBRANCH   7   8
BRANCH   7  21
ATOM     21  C   UNL A   1      32.385  23.192  23.738  1.00  0.00     0.072 C 
BRANCH  21  22
ATOM     22  C   UNL A   1      33.297  22.261  24.475  1.00  0.00    -0.020 A 
ATOM     23  C   UNL A   1      32.914  21.346  25.437  1.00  0.00     0.087 A 
ATOM     24  C   UNL A   1      34.712  22.110  24.303  1.00  0.00     0.003 A 
ATOM     25  N   UNL A   1      34.032  20.700  25.890  1.00  0.00    -0.361 N 
ATOM     26  C   UNL A   1      35.148  21.172  25.240  1.00  0.00     0.046 A 
ATOM     27  C   UNL A   1      35.668  22.701  23.451  1.00  0.00     0.010 A 
ATOM     28  H   UNL A   1      34.036  19.999  26.581  1.00  0.00     0.166 HD
ATOM     29  C   UNL A   1      36.496  20.830  25.403  1.00  0.00     0.026 A 
ATOM     30  C   UNL A   1      37.018  22.354  23.586  1.00  0.00     0.001 A 
ATOM     31  C   UNL A   1      37.424  21.442  24.557  1.00  0.00     0.002 A 
ENDBRANCH  21  22
ENDBRANCH   7  21
ENDBRANCH   4   7
ENDBRANCH   2   3
ENDBRANCH   1   2
BRANCH   1  32
ATOM     32  C   UNL A   1      32.326  28.399  26.774  1.00  0.00     0.002 C 
BRANCH  32  33
ATOM     33  C   UNL A   1      32.035  29.887  26.512  1.00  0.00     0.002 C 
BRANCH  33  34
ATOM     34  C   UNL A   1      32.944  30.920  27.184  1.00  0.00     0.021 C 
BRANCH  34  35
ATOM     35  C   UNL A   1      34.218  30.362  27.796  1.00  0.00     0.116 C 
BRANCH  35  36
ATOM     36  N   UNL A   1      34.858  31.242  28.768  1.00  0.00    -0.352 N 
ATOM     37  C   UNL A   1      36.018  31.014  29.492  1.00  0.00     0.251 C 
ATOM     38  H   UNL A   1      34.411  32.105  28.928  1.00  0.00     0.163 HD
ATOM     39  O   UNL A   1      36.445  31.835  30.282  1.00  0.00    -0.269 OA
BRANCH  37  40
ATOM     40  C   UNL A   1      36.794  29.789  29.184  1.00  0.00     0.039 A 
ATOM     41  C   UNL A   1      37.227  29.007  30.258  1.00  0.00     0.014 A 
ATOM     42  C   UNL A   1      37.298  29.584  27.901  1.00  0.00     0.014 A 
ATOM     43  C   UNL A   1      38.344  28.194  30.092  1.00  0.00     0.010 A 
ATOM     44  C   UNL A   1      38.459  28.846  27.757  1.00  0.00     0.010 A 
ATOM     45  C   UNL A   1      39.020  28.210  28.869  1.00  0.00    -0.014 A 
BRANCH  45  46
ATOM     46  C   UNL A   1      40.379  27.700  28.727  1.00  0.00     0.031 A 
ATOM     47  C   UNL A   1      40.623  26.297  28.347  1.00  0.00     0.074 A 
ATOM     48  C   UNL A   1      41.432  28.519  28.955  1.00  0.00     0.049 A 
ATOM     49  N   UNL A   1      41.619  25.595  28.780  1.00  0.00    -0.248 NA
ATOM     50  C   UNL A   1      39.736  25.558  27.459  1.00  0.00     0.031 C 
ATOM     51  C   UNL A   1      42.841  28.226  28.710  1.00  0.00     0.029 A 
ATOM     52  N   UNL A   1      41.441  29.734  29.662  1.00  0.00    -0.354 N 
ATOM     53  C   UNL A   1      41.656  24.430  28.051  1.00  0.00     0.074 A 
ATOM     54  C   UNL A   1      40.427  24.426  27.287  1.00  0.00     0.031 C 
ATOM     55  C   UNL A   1      43.587  29.022  29.492  1.00  0.00     0.029 A 
ATOM     56  C   UNL A   1      42.678  29.769  30.344  1.00  0.00     0.049 A 
ATOM     57  H   UNL A   1      40.734  30.418  29.678  1.00  0.00     0.167 HD
ATOM     58  C   UNL A   1      42.782  23.658  28.060  1.00  0.00     0.037 A 
ATOM     59  C   UNL A   1      42.751  29.838  31.703  1.00  0.00     0.037 A 
ATOM     60  C   UNL A   1      43.827  24.248  28.890  1.00  0.00     0.049 A 
ATOM     61  C   UNL A   1      43.502  28.693  32.335  1.00  0.00     0.074 A 
ATOM     62  C   UNL A   1      44.915  25.046  28.573  1.00  0.00     0.029 A 
ATOM     63  N   UNL A   1      43.675  24.318  30.270  1.00  0.00    -0.354 N 
ATOM     64  N   UNL A   1      43.724  27.556  31.736  1.00  0.00    -0.248 NA
ATOM     65  C   UNL A   1      44.020  28.719  33.700  1.00  0.00     0.031 C 
ATOM     66  C   UNL A   1      45.401  25.624  29.767  1.00  0.00     0.029 A 
ATOM     67  C   UNL A   1      44.619  25.170  30.813  1.00  0.00     0.049 A 
ATOM     68  H   UNL A   1      42.993  23.831  30.787  1.00  0.00     0.167 HD
ATOM     69  C   UNL A   1      44.365  26.706  32.601  1.00  0.00     0.074 A 
ATOM     70  C   UNL A   1      44.546  27.487  33.809  1.00  0.00     0.031 C 
ATOM     71  C   UNL A   1      44.682  25.428  32.242  1.00  0.00     0.037 A 
BRANCH  58  72
ATOM     72  C   UNL A   1      43.039  22.557  27.055  1.00  0.00     0.064 A 
ATOM     73  C   UNL A   1      42.352  21.326  27.126  1.00  0.00     0.173 A 
ATOM     74  C   UNL A   1      43.994  22.641  26.026  1.00  0.00     0.173 A 
ATOM     75  F   UNL A   1      41.325  21.140  27.964  1.00  0.00    -0.203 F 
ATOM     76  C   UNL A   1      42.699  20.226  26.336  1.00  0.00     0.198 A 
ATOM     77  C   UNL A   1      44.379  21.527  25.272  1.00  0.00     0.198 A 
ATOM     78  F   UNL A   1      44.551  23.814  25.696  1.00  0.00    -0.203 F 
ATOM     79  F   UNL A   1      42.023  19.076  26.464  1.00  0.00    -0.200 F 
ATOM     80  C   UNL A   1      43.743  20.314  25.440  1.00  0.00     0.200 A 
ATOM     81  F   UNL A   1      45.378  21.638  24.383  1.00  0.00    -0.200 F 
ATOM     82  F   UNL A   1      44.116  19.244  24.726  1.00  0.00    -0.200 F 
ENDBRANCH  58  72
BRANCH  59  83
ATOM     83  C   UNL A   1      41.607  30.551  32.325  1.00  0.00     0.064 A 
ATOM     84  C   UNL A   1      41.514  31.944  32.148  1.00  0.00     0.173 A 
ATOM     85  C   UNL A   1      40.462  29.872  32.755  1.00  0.00     0.173 A 
ATOM     86  F   UNL A   1      42.586  32.641  31.734  1.00  0.00    -0.203 F 
ATOM     87  C   UNL A   1      40.301  32.613  32.286  1.00  0.00     0.198 A 
ATOM     88  C   UNL A   1      39.250  30.549  32.907  1.00  0.00     0.198 A 
ATOM     89  F   UNL A   1      40.484  28.543  32.924  1.00  0.00    -0.203 F 
ATOM     90  F   UNL A   1      40.222  33.921  32.004  1.00  0.00    -0.200 F 
ATOM     91  C   UNL A   1      39.162  31.908  32.640  1.00  0.00     0.200 A 
ATOM     92  F   UNL A   1      38.143  29.865  33.231  1.00  0.00    -0.200 F 
ATOM     93  F   UNL A   1      37.977  32.532  32.688  1.00  0.00    -0.200 F 
ENDBRANCH  59  83
BRANCH  71  94
ATOM     94  C   UNL A   1      45.192  24.344  33.160  1.00  0.00     0.064 A 
ATOM     95  C   UNL A   1      44.444  23.217  33.535  1.00  0.00     0.173 A 
ATOM     96  C   UNL A   1      46.541  24.349  33.592  1.00  0.00     0.173 A 
ATOM     97  F   UNL A   1      43.194  23.031  33.089  1.00  0.00    -0.203 F 
ATOM     98  C   UNL A   1      44.980  22.206  34.338  1.00  0.00     0.198 A 
ATOM     99  C   UNL A   1      47.090  23.313  34.346  1.00  0.00     0.198 A 
ATOM    100  F   UNL A   1      47.376  25.350  33.274  1.00  0.00    -0.203 F 
ATOM    101  F   UNL A   1      44.211  21.172  34.705  1.00  0.00    -0.200 F 
ATOM    102  C   UNL A   1      46.304  22.249  34.735  1.00  0.00     0.200 A 
ATOM    103  F   UNL A   1      48.388  23.344  34.677  1.00  0.00    -0.200 F 
ATOM    104  F   UNL A   1      46.825  21.257  35.469  1.00  0.00    -0.200 F 
ENDBRANCH  71  94
ENDBRANCH  45  46
ENDBRANCH  37  40
ENDBRANCH  35  36
ENDBRANCH  34  35
ENDBRANCH  33  34
ENDBRANCH  32  33
ENDBRANCH   1  32
TORSDOF 19
ENDMDL
MODEL 2
REMARK VINA RESULT:     -13.5      3.373      9.810
REMARK SMILES Cc1ccccc1OCC(=O)N[C@@H](Cc1c[nH]c2ccccc12)C(=O)NCCCCCCNC(=O)c1ccc(-c2c3nc(c(-c4c(F)c(F)c(F)c(F)c4F)c4ccc([nH]4)c(-c4c(F)c(F)c(F)c(F)c4F)c4nc(c(-c5c(F)c(F)c(F)c(F)c5F)c5ccc2[nH]5)C=C4)C=C3)cc1
REMARK SMILES IDX 28 1 27 2 26 3 24 4 25 5 13 7 12 8 10 9 11 10 9 12 8 13 7 14
REMARK SMILES IDX 1 15 2 16 3 17 4 18 6 19 5 20 14 21 15 22 16 23 23 24 17 25
REMARK SMILES IDX 18 26 22 27 19 29 21 30 20 31 29 32 30 33 31 34 32 35 33 36
REMARK SMILES IDX 34 37 35 39 36 40 37 41 98 42 38 43 97 44 39 45 40 46 41 47
REMARK SMILES IDX 91 48 42 49 96 50 90 51 92 52 43 53 95 54 89 55 88 56 44 58
REMARK SMILES IDX 76 59 56 60 75 61 57 62 60 63 74 64 93 65 58 66 59 67 73 69
REMARK SMILES IDX 94 70 61 71 45 72 46 73 54 74 47 75 48 76 52 77 55 78 49 79
REMARK SMILES IDX 50 80 53 81 51 82 77 83 78 84 86 85 79 86 80 87 84 88 87 89
REMARK SMILES IDX 81 90 82 91 85 92 83 93 62 94 63 95 71 96 64 97 65 98 69 99
REMARK SMILES IDX 72 100 66 101 67 102 70 103 68 104
REMARK H PARENT 26 6 12 11 17 28 33 38 92 57 60 68
REMARK Flexibility Score: inf
ROOT
ATOM      1  C   UNL A   1      35.545  21.422  24.612  1.00  0.00     0.021 C 
ENDROOT
BRANCH   1   2
ATOM      2  C   UNL A   1      34.599  20.569  25.452  1.00  0.00     0.116 C 
BRANCH   2   3
ATOM      3  N   UNL A   1      33.538  19.909  24.723  1.00  0.00    -0.354 N 
ATOM      4  C   UNL A   1      32.671  20.445  23.807  1.00  0.00     0.242 C 
ATOM      5  O   UNL A   1      32.257  19.683  22.926  1.00  0.00    -0.273 OA
ATOM      6  H   UNL A   1      33.425  18.950  24.908  1.00  0.00     0.163 HD
BRANCH   4   7
ATOM      7  C   UNL A   1      32.252  21.942  23.788  1.00  0.00     0.175 C 
BRANCH   7   8
ATOM      8  N   UNL A   1      32.290  22.502  22.438  1.00  0.00    -0.341 N 
ATOM      9  C   UNL A   1      33.242  23.339  21.934  1.00  0.00     0.258 C 
ATOM     10  O   UNL A   1      33.495  23.277  20.729  1.00  0.00    -0.271 OA
ATOM     11  H   UNL A   1      31.555  22.250  21.833  1.00  0.00     0.164 HD
BRANCH   9  12
ATOM     12  C   UNL A   1      33.957  24.323  22.864  1.00  0.00     0.329 C 
BRANCH  12  13
ATOM     13  O   UNL A   1      33.776  25.712  22.658  1.00  0.00    -0.484 OA
BRANCH  13  14
ATOM     14  C   UNL A   1      33.790  26.603  23.694  1.00  0.00     0.122 A 
ATOM     15  C   UNL A   1      33.505  28.870  22.465  1.00  0.00     0.048 C 
ATOM     16  C   UNL A   1      33.660  28.000  23.679  1.00  0.00    -0.009 A 
ATOM     17  C   UNL A   1      33.677  28.692  24.913  1.00  0.00     0.007 A 
ATOM     18  C   UNL A   1      33.887  28.034  26.122  1.00  0.00     0.001 A 
ATOM     19  C   UNL A   1      34.028  25.958  24.922  1.00  0.00     0.047 A 
ATOM     20  C   UNL A   1      34.079  26.662  26.126  1.00  0.00     0.004 A 
ENDBRANCH  13  14
ENDBRANCH  12  13
ENDBRANCH   9  12
ENDBRANCH   7   8
BRANCH   7  21
ATOM     21  C   UNL A   1      30.982  22.271  24.589  1.00  0.00     0.072 C 
BRANCH  21  22
ATOM     22  C   UNL A   1      30.935  23.598  25.280  1.00  0.00    -0.020 A 
ATOM     23  C   UNL A   1      31.189  23.822  26.621  1.00  0.00     0.087 A 
ATOM     24  C   UNL A   1      30.660  24.877  24.694  1.00  0.00     0.003 A 
ATOM     25  N   UNL A   1      31.024  25.156  26.876  1.00  0.00    -0.361 N 
ATOM     26  C   UNL A   1      30.666  25.818  25.725  1.00  0.00     0.046 A 
ATOM     27  C   UNL A   1      30.386  25.319  23.383  1.00  0.00     0.010 A 
ATOM     28  H   UNL A   1      31.143  25.580  27.756  1.00  0.00     0.166 HD
ATOM     29  C   UNL A   1      30.363  27.169  25.521  1.00  0.00     0.026 A 
ATOM     30  C   UNL A   1      30.102  26.672  23.159  1.00  0.00     0.001 A 
ATOM     31  C   UNL A   1      30.079  27.578  24.216  1.00  0.00     0.002 A 
ENDBRANCH  21  22
ENDBRANCH   7  21
ENDBRANCH   4   7
ENDBRANCH   2   3
ENDBRANCH   1   2
BRANCH   1  32
ATOM     32  C   UNL A   1      36.850  21.857  25.288  1.00  0.00     0.002 C 
BRANCH  32  33
ATOM     33  C   UNL A   1      38.067  20.921  25.174  1.00  0.00     0.002 C 
BRANCH  33  34
ATOM     34  C   UNL A   1      39.243  21.164  26.125  1.00  0.00     0.021 C 
BRANCH  34  35
ATOM     35  C   UNL A   1      39.544  22.622  26.426  1.00  0.00     0.116 C 
BRANCH  35  36
ATOM     36  N   UNL A   1      40.950  22.989  26.297  1.00  0.00    -0.352 N 
ATOM     37  C   UNL A   1      41.516  24.250  26.404  1.00  0.00     0.251 C 
ATOM     38  H   UNL A   1      41.573  22.249  26.111  1.00  0.00     0.163 HD
ATOM     39  O   UNL A   1      42.713  24.421  26.267  1.00  0.00    -0.269 OA
BRANCH  37  40
ATOM     40  C   UNL A   1      40.636  25.369  26.815  1.00  0.00     0.039 A 
ATOM     41  C   UNL A   1      40.842  26.613  26.211  1.00  0.00     0.014 A 
ATOM     42  C   UNL A   1      39.831  25.248  27.945  1.00  0.00     0.014 A 
ATOM     43  C   UNL A   1      40.446  27.763  26.886  1.00  0.00     0.010 A 
ATOM     44  C   UNL A   1      39.516  26.390  28.659  1.00  0.00     0.010 A 
ATOM     45  C   UNL A   1      39.887  27.643  28.162  1.00  0.00    -0.014 A 
BRANCH  45  46
ATOM     46  C   UNL A   1      39.797  28.774  29.077  1.00  0.00     0.031 A 
ATOM     47  C   UNL A   1      38.750  29.800  28.910  1.00  0.00     0.074 A 
ATOM     48  C   UNL A   1      40.687  28.894  30.089  1.00  0.00     0.049 A 
ATOM     49  N   UNL A   1      38.918  31.052  29.180  1.00  0.00    -0.248 NA
ATOM     50  C   UNL A   1      37.424  29.490  28.393  1.00  0.00     0.031 C 
ATOM     51  C   UNL A   1      40.651  29.864  31.181  1.00  0.00     0.029 A 
ATOM     52  N   UNL A   1      41.941  28.272  30.212  1.00  0.00    -0.354 N 
ATOM     53  C   UNL A   1      37.685  31.659  29.125  1.00  0.00     0.074 A 
ATOM     54  C   UNL A   1      36.799  30.659  28.568  1.00  0.00     0.031 C 
ATOM     55  C   UNL A   1      41.893  30.010  31.666  1.00  0.00     0.029 A 
ATOM     56  C   UNL A   1      42.782  29.225  30.828  1.00  0.00     0.049 A 
ATOM     57  H   UNL A   1      42.183  27.361  29.928  1.00  0.00     0.167 HD
ATOM     58  C   UNL A   1      37.509  32.893  29.683  1.00  0.00     0.037 A 
ATOM     59  C   UNL A   1      43.908  29.695  30.219  1.00  0.00     0.037 A 
ATOM     60  C   UNL A   1      38.740  33.383  30.293  1.00  0.00     0.049 A 
ATOM     61  C   UNL A   1      43.922  31.190  30.027  1.00  0.00     0.074 A 
ATOM     62  C   UNL A   1      39.198  33.349  31.600  1.00  0.00     0.029 A 
ATOM     63  N   UNL A   1      39.831  33.725  29.501  1.00  0.00    -0.354 N 
ATOM     64  N   UNL A   1      42.851  31.933  30.058  1.00  0.00    -0.248 NA
ATOM     65  C   UNL A   1      45.130  31.959  29.740  1.00  0.00     0.031 C 
ATOM     66  C   UNL A   1      40.580  33.641  31.592  1.00  0.00     0.029 A 
ATOM     67  C   UNL A   1      40.963  33.866  30.282  1.00  0.00     0.049 A 
ATOM     68  H   UNL A   1      39.802  33.848  28.525  1.00  0.00     0.167 HD
ATOM     69  C   UNL A   1      43.192  33.232  29.778  1.00  0.00     0.074 A 
ATOM     70  C   UNL A   1      44.631  33.200  29.607  1.00  0.00     0.031 C 
ATOM     71  C   UNL A   1      42.249  34.217  29.704  1.00  0.00     0.037 A 
BRANCH  58  72
ATOM     72  C   UNL A   1      36.147  33.489  29.961  1.00  0.00     0.064 A 
ATOM     73  C   UNL A   1      35.345  34.003  28.919  1.00  0.00     0.173 A 
ATOM     74  C   UNL A   1      35.599  33.627  31.249  1.00  0.00     0.173 A 
ATOM     75  F   UNL A   1      35.668  33.828  27.631  1.00  0.00    -0.203 F 
ATOM     76  C   UNL A   1      34.174  34.727  29.159  1.00  0.00     0.198 A 
ATOM     77  C   UNL A   1      34.457  34.397  31.496  1.00  0.00     0.198 A 
ATOM     78  F   UNL A   1      36.133  32.988  32.298  1.00  0.00    -0.203 F 
ATOM     79  F   UNL A   1      33.466  35.208  28.128  1.00  0.00    -0.200 F 
ATOM     80  C   UNL A   1      33.754  34.962  30.451  1.00  0.00     0.200 A 
ATOM     81  F   UNL A   1      34.046  34.591  32.758  1.00  0.00    -0.200 F 
ATOM     82  F   UNL A   1      32.665  35.707  30.685  1.00  0.00    -0.200 F 
ENDBRANCH  58  72
BRANCH  59  83
ATOM     83  C   UNL A   1      44.542  28.714  29.304  1.00  0.00     0.064 A 
ATOM     84  C   UNL A   1      45.326  27.688  29.865  1.00  0.00     0.173 A 
ATOM     85  C   UNL A   1      44.113  28.554  27.982  1.00  0.00     0.173 A 
ATOM     86  F   UNL A   1      45.762  27.793  31.131  1.00  0.00    -0.203 F 
ATOM     87  C   UNL A   1      45.573  26.505  29.174  1.00  0.00     0.198 A 
ATOM     88  C   UNL A   1      44.376  27.372  27.286  1.00  0.00     0.198 A 
ATOM     89  F   UNL A   1      43.348  29.488  27.399  1.00  0.00    -0.203 F 
ATOM     90  F   UNL A   1      46.230  25.504  29.776  1.00  0.00    -0.200 F 
ATOM     91  C   UNL A   1      45.074  26.338  27.893  1.00  0.00     0.200 A 
ATOM     92  F   UNL A   1      43.877  27.201  26.054  1.00  0.00    -0.200 F 
ATOM     93  F   UNL A   1      45.236  25.168  27.260  1.00  0.00    -0.200 F 
ENDBRANCH  59  83
BRANCH  71  94
ATOM     94  C   UNL A   1      42.469  35.625  29.205  1.00  0.00     0.064 A 
ATOM     95  C   UNL A   1      41.887  36.142  28.037  1.00  0.00     0.173 A 
ATOM     96  C   UNL A   1      43.188  36.558  29.992  1.00  0.00     0.173 A 
ATOM     97  F   UNL A   1      41.081  35.396  27.270  1.00  0.00    -0.203 F 
ATOM     98  C   UNL A   1      42.068  37.473  27.648  1.00  0.00     0.198 A 
ATOM     99  C   UNL A   1      43.320  37.898  29.629  1.00  0.00     0.198 A 
ATOM    100  F   UNL A   1      43.765  36.204  31.150  1.00  0.00    -0.203 F 
ATOM    101  F   UNL A   1      41.528  37.907  26.500  1.00  0.00    -0.200 F 
ATOM    102  C   UNL A   1      42.775  38.352  28.447  1.00  0.00     0.200 A 
ATOM    103  F   UNL A   1      43.963  38.748  30.442  1.00  0.00    -0.200 F 
ATOM    104  F   UNL A   1      42.910  39.636  28.090  1.00  0.00    -0.200 F 
ENDBRANCH  71  94
ENDBRANCH  45  46
ENDBRANCH  37  40
ENDBRANCH  35  36
ENDBRANCH  34  35
ENDBRANCH  33  34
ENDBRANCH  32  33
ENDBRANCH   1  32
TORSDOF 19
ENDMDL
MODEL 3
REMARK VINA RESULT:     -13.4      3.716      9.489
REMARK SMILES Cc1ccccc1OCC(=O)N[C@@H](Cc1c[nH]c2ccccc12)C(=O)NCCCCCCNC(=O)c1ccc(-c2c3nc(c(-c4c(F)c(F)c(F)c(F)c4F)c4ccc([nH]4)c(-c4c(F)c(F)c(F)c(F)c4F)c4nc(c(-c5c(F)c(F)c(F)c(F)c5F)c5ccc2[nH]5)C=C4)C=C3)cc1
REMARK SMILES IDX 28 1 27 2 26 3 24 4 25 5 13 7 12 8 10 9 11 10 9 12 8 13 7 14
REMARK SMILES IDX 1 15 2 16 3 17 4 18 6 19 5 20 14 21 15 22 16 23 23 24 17 25
REMARK SMILES IDX 18 26 22 27 19 29 21 30 20 31 29 32 30 33 31 34 32 35 33 36
REMARK SMILES IDX 34 37 35 39 36 40 37 41 98 42 38 43 97 44 39 45 40 46 41 47
REMARK SMILES IDX 91 48 42 49 96 50 90 51 92 52 43 53 95 54 89 55 88 56 44 58
REMARK SMILES IDX 76 59 56 60 75 61 57 62 60 63 74 64 93 65 58 66 59 67 73 69
REMARK SMILES IDX 94 70 61 71 45 72 46 73 54 74 47 75 48 76 52 77 55 78 49 79
REMARK SMILES IDX 50 80 53 81 51 82 77 83 78 84 86 85 79 86 80 87 84 88 87 89
REMARK SMILES IDX 81 90 82 91 85 92 83 93 62 94 63 95 71 96 64 97 65 98 69 99
REMARK SMILES IDX 72 100 66 101 67 102 70 103 68 104
REMARK H PARENT 26 6 12 11 17 28 33 38 92 57 60 68
REMARK Flexibility Score: inf
ROOT
ATOM      1  C   UNL A   1      36.108  23.900  25.906  1.00  0.00     0.021 C 
ENDROOT
BRANCH   1   2
ATOM      2  C   UNL A   1      35.179  24.430  24.818  1.00  0.00     0.116 C 
BRANCH   2   3
ATOM      3  N   UNL A   1      34.959  23.543  23.697  1.00  0.00    -0.354 N 
ATOM      4  C   UNL A   1      33.853  23.440  22.895  1.00  0.00     0.242 C 
ATOM      5  O   UNL A   1      34.048  23.080  21.728  1.00  0.00    -0.273 OA
ATOM      6  H   UNL A   1      35.701  22.934  23.482  1.00  0.00     0.163 HD
BRANCH   4   7
ATOM      7  C   UNL A   1      32.415  23.813  23.355  1.00  0.00     0.175 C 
BRANCH   7   8
ATOM      8  N   UNL A   1      31.667  24.499  22.303  1.00  0.00    -0.341 N 
ATOM      9  C   UNL A   1      31.786  25.810  21.947  1.00  0.00     0.258 C 
ATOM     10  O   UNL A   1      31.580  26.117  20.771  1.00  0.00    -0.271 OA
ATOM     11  H   UNL A   1      31.011  23.961  21.803  1.00  0.00     0.164 HD
BRANCH   9  12
ATOM     12  C   UNL A   1      32.162  26.853  23.003  1.00  0.00     0.329 C 
BRANCH  12  13
ATOM     13  O   UNL A   1      31.140  27.405  23.813  1.00  0.00    -0.484 OA
BRANCH  13  14
ATOM     14  C   UNL A   1      31.408  27.980  25.023  1.00  0.00     0.122 A 
ATOM     15  C   UNL A   1      31.198  25.965  26.642  1.00  0.00     0.048 C 
ATOM     16  C   UNL A   1      31.465  27.402  26.300  1.00  0.00    -0.009 A 
ATOM     17  C   UNL A   1      31.800  28.226  27.399  1.00  0.00     0.007 A 
ATOM     18  C   UNL A   1      32.005  29.597  27.255  1.00  0.00     0.001 A 
ATOM     19  C   UNL A   1      31.591  29.370  24.901  1.00  0.00     0.047 A 
ATOM     20  C   UNL A   1      31.885  30.175  26.002  1.00  0.00     0.004 A 
ENDBRANCH  13  14
ENDBRANCH  12  13
ENDBRANCH   9  12
ENDBRANCH   7   8
BRANCH   7  21
ATOM     21  C   UNL A   1      31.649  22.685  24.064  1.00  0.00     0.072 C 
BRANCH  21  22
ATOM     22  C   UNL A   1      32.455  21.543  24.600  1.00  0.00    -0.020 A 
ATOM     23  C   UNL A   1      33.158  21.537  25.791  1.00  0.00     0.087 A 
ATOM     24  C   UNL A   1      32.623  20.245  24.016  1.00  0.00     0.003 A 
ATOM     25  N   UNL A   1      33.783  20.327  25.918  1.00  0.00    -0.361 N 
ATOM     26  C   UNL A   1      33.503  19.531  24.832  1.00  0.00     0.046 A 
ATOM     27  C   UNL A   1      32.125  19.617  22.856  1.00  0.00     0.010 A 
ATOM     28  H   UNL A   1      34.351  20.063  26.678  1.00  0.00     0.166 HD
ATOM     29  C   UNL A   1      33.948  18.241  24.523  1.00  0.00     0.026 A 
ATOM     30  C   UNL A   1      32.545  18.317  22.543  1.00  0.00     0.001 A 
ATOM     31  C   UNL A   1      33.452  17.647  23.359  1.00  0.00     0.002 A 
ENDBRANCH  21  22
ENDBRANCH   7  21
ENDBRANCH   4   7
ENDBRANCH   2   3
ENDBRANCH   1   2
BRANCH   1  32
ATOM     32  C   UNL A   1      37.530  23.530  25.467  1.00  0.00     0.002 C 
BRANCH  32  33
ATOM     33  C   UNL A   1      37.885  22.037  25.359  1.00  0.00     0.002 C 
BRANCH  33  34
ATOM     34  C   UNL A   1      39.189  21.566  26.010  1.00  0.00     0.021 C 
BRANCH  34  35
ATOM     35  C   UNL A   1      39.860  22.576  26.924  1.00  0.00     0.116 C 
BRANCH  35  36
ATOM     36  N   UNL A   1      41.159  23.047  26.457  1.00  0.00    -0.352 N 
ATOM     37  C   UNL A   1      41.588  24.357  26.301  1.00  0.00     0.251 C 
ATOM     38  H   UNL A   1      41.812  22.348  26.223  1.00  0.00     0.163 HD
ATOM     39  O   UNL A   1      42.704  24.614  25.892  1.00  0.00    -0.269 OA
BRANCH  37  40
ATOM     40  C   UNL A   1      40.687  25.437  26.767  1.00  0.00     0.039 A 
ATOM     41  C   UNL A   1      40.842  26.704  26.196  1.00  0.00     0.014 A 
ATOM     42  C   UNL A   1      39.913  25.259  27.912  1.00  0.00     0.014 A 
ATOM     43  C   UNL A   1      40.431  27.821  26.916  1.00  0.00     0.010 A 
ATOM     44  C   UNL A   1      39.584  26.370  28.668  1.00  0.00     0.010 A 
ATOM     45  C   UNL A   1      39.908  27.647  28.201  1.00  0.00    -0.014 A 
BRANCH  45  46
ATOM     46  C   UNL A   1      39.808  28.747  29.152  1.00  0.00     0.031 A 
ATOM     47  C   UNL A   1      38.776  29.789  28.997  1.00  0.00     0.074 A 
ATOM     48  C   UNL A   1      40.676  28.823  30.188  1.00  0.00     0.049 A 
ATOM     49  N   UNL A   1      38.951  31.030  29.314  1.00  0.00    -0.248 NA
ATOM     50  C   UNL A   1      37.459  29.513  28.440  1.00  0.00     0.031 C 
ATOM     51  C   UNL A   1      40.625  29.754  31.311  1.00  0.00     0.029 A 
ATOM     52  N   UNL A   1      41.921  28.182  30.317  1.00  0.00    -0.354 N 
ATOM     53  C   UNL A   1      37.726  31.653  29.252  1.00  0.00     0.074 A 
ATOM     54  C   UNL A   1      36.843  30.682  28.641  1.00  0.00     0.031 C 
ATOM     55  C   UNL A   1      41.857  29.870  31.829  1.00  0.00     0.029 A 
ATOM     56  C   UNL A   1      42.757  29.104  30.984  1.00  0.00     0.049 A 
ATOM     57  H   UNL A   1      42.160  27.279  30.007  1.00  0.00     0.167 HD
ATOM     58  C   UNL A   1      37.550  32.868  29.848  1.00  0.00     0.037 A 
ATOM     59  C   UNL A   1      43.901  29.582  30.418  1.00  0.00     0.037 A 
ATOM     60  C   UNL A   1      38.772  33.324  30.502  1.00  0.00     0.049 A 
ATOM     61  C   UNL A   1      43.935  31.083  30.277  1.00  0.00     0.074 A 
ATOM     62  C   UNL A   1      39.200  33.239  31.817  1.00  0.00     0.029 A 
ATOM     63  N   UNL A   1      39.885  33.680  29.747  1.00  0.00    -0.354 N 
ATOM     64  N   UNL A   1      42.872  31.836  30.310  1.00  0.00    -0.248 NA
ATOM     65  C   UNL A   1      45.157  31.847  30.045  1.00  0.00     0.031 C 
ATOM     66  C   UNL A   1      40.585  33.516  31.850  1.00  0.00     0.029 A 
ATOM     67  C   UNL A   1      41.000  33.781  30.558  1.00  0.00     0.049 A 
ATOM     68  H   UNL A   1      39.879  33.837  28.776  1.00  0.00     0.167 HD
ATOM     69  C   UNL A   1      43.233  33.139  30.082  1.00  0.00     0.074 A 
ATOM     70  C   UNL A   1      44.675  33.098  29.943  1.00  0.00     0.031 C 
ATOM     71  C   UNL A   1      42.302  34.138  30.022  1.00  0.00     0.037 A 
BRANCH  58  72
ATOM     72  C   UNL A   1      36.189  33.470  30.116  1.00  0.00     0.064 A 
ATOM     73  C   UNL A   1      35.405  34.005  29.070  1.00  0.00     0.173 A 
ATOM     74  C   UNL A   1      35.623  33.593  31.397  1.00  0.00     0.173 A 
ATOM     75  F   UNL A   1      35.744  33.846  27.784  1.00  0.00    -0.203 F 
ATOM     76  C   UNL A   1      34.235  34.733  29.304  1.00  0.00     0.198 A 
ATOM     77  C   UNL A   1      34.483  34.367  31.640  1.00  0.00     0.198 A 
ATOM     78  F   UNL A   1      36.138  32.935  32.445  1.00  0.00    -0.203 F 
ATOM     79  F   UNL A   1      33.545  35.234  28.271  1.00  0.00    -0.200 F 
ATOM     80  C   UNL A   1      33.799  34.953  30.594  1.00  0.00     0.200 A 
ATOM     81  F   UNL A   1      34.056  34.546  32.898  1.00  0.00    -0.200 F 
ATOM     82  F   UNL A   1      32.712  35.701  30.823  1.00  0.00    -0.200 F 
ENDBRANCH  58  72
BRANCH  59  83
ATOM     83  C   UNL A   1      44.546  28.626  29.483  1.00  0.00     0.064 A 
ATOM     84  C   UNL A   1      44.274  28.751  28.108  1.00  0.00     0.173 A 
ATOM     85  C   UNL A   1      45.658  27.864  29.859  1.00  0.00     0.173 A 
ATOM     86  F   UNL A   1      43.218  29.473  27.697  1.00  0.00    -0.203 F 
ATOM     87  C   UNL A   1      45.139  28.233  27.148  1.00  0.00     0.198 A 
ATOM     88  C   UNL A   1      46.516  27.334  28.893  1.00  0.00     0.198 A 
ATOM     89  F   UNL A   1      45.979  27.724  31.153  1.00  0.00    -0.203 F 
ATOM     90  F   UNL A   1      44.910  28.463  25.848  1.00  0.00    -0.200 F 
ATOM     91  C   UNL A   1      46.275  27.547  27.543  1.00  0.00     0.200 A 
ATOM     92  F   UNL A   1      47.626  26.686  29.274  1.00  0.00    -0.200 F 
ATOM     93  F   UNL A   1      47.154  27.124  26.624  1.00  0.00    -0.200 F 
ENDBRANCH  59  83
BRANCH  71  94
ATOM     94  C   UNL A   1      42.548  35.559  29.577  1.00  0.00     0.064 A 
ATOM     95  C   UNL A   1      43.336  36.478  30.288  1.00  0.00     0.173 A 
ATOM     96  C   UNL A   1      42.089  36.002  28.312  1.00  0.00     0.173 A 
ATOM     97  F   UNL A   1      43.933  36.140  31.439  1.00  0.00    -0.203 F 
ATOM     98  C   UNL A   1      43.588  37.766  29.805  1.00  0.00     0.198 A 
ATOM     99  C   UNL A   1      42.388  37.267  27.808  1.00  0.00     0.198 A 
ATOM    100  F   UNL A   1      41.355  35.211  27.516  1.00  0.00    -0.203 F 
ATOM    101  F   UNL A   1      44.311  38.620  30.542  1.00  0.00    -0.200 F 
ATOM    102  C   UNL A   1      43.124  38.156  28.563  1.00  0.00     0.200 A 
ATOM    103  F   UNL A   1      41.975  37.610  26.581  1.00  0.00    -0.200 F 
ATOM    104  F   UNL A   1      43.403  39.377  28.086  1.00  0.00    -0.200 F 
ENDBRANCH  71  94
ENDBRANCH  45  46
ENDBRANCH  37  40
ENDBRANCH  35  36
ENDBRANCH  34  35
ENDBRANCH  33  34
ENDBRANCH  32  33
ENDBRANCH   1  32
TORSDOF 19
ENDMDL
