MODEL 1
REMARK VINA RESULT:     -10.4      0.000      0.000
REMARK SMILES CC(=O)N[C@@H](C(=O)N(CC(=O)NCCCCCCNC(=O)c1ccc(-c2c3nc(c(-c4c(F)c(F)c(F)c(F)c4F)c4ccc([nH]4)c(-c4c(F)c(F)c(F)c(F)c4F)c4nc(c(-c5c(F)c(F)c(F)c(F)c5F)c5ccc2[nH]5)C=C4)C=C3)cc1)C(C)(C)C)C(C)C
REMARK SMILES IDX 14 1 13 2 12 3 10 4 11 5 9 7 8 8 6 9 7 10 5 11 4 12 1 13
REMARK SMILES IDX 2 14 3 15 89 17 90 18 91 19 85 20 86 21 87 22 88 23 15 24
REMARK SMILES IDX 16 25 17 26 18 27 19 28 20 29 21 31 22 32 23 33 84 34 24 35
REMARK SMILES IDX 83 36 25 37 26 38 27 39 77 40 28 41 82 42 76 43 78 44 29 45
REMARK SMILES IDX 81 46 75 47 74 48 30 50 62 51 42 52 61 53 43 54 46 55 60 56
REMARK SMILES IDX 79 57 44 58 45 59 59 61 80 62 47 63 31 64 32 65 40 66 33 67
REMARK SMILES IDX 34 68 38 69 41 70 35 71 36 72 39 73 37 74 63 75 64 76 72 77
REMARK SMILES IDX 65 78 66 79 70 80 73 81 67 82 68 83 71 84 69 85 48 86 49 87
REMARK SMILES IDX 57 88 50 89 51 90 55 91 58 92 52 93 53 94 56 95 54 96
REMARK H PARENT 12 6 4 16 19 30 78 49 46 60
REMARK Flexibility Score: inf
ROOT
ATOM      1  C   UNL A   1      34.825  30.604  27.732  1.00  0.00     0.021 C 
ENDROOT
BRANCH   1   2
ATOM      2  C   UNL A   1      34.422  29.280  27.107  1.00  0.00     0.116 C 
BRANCH   2   3
ATOM      3  N   UNL A   1      33.275  28.651  27.712  1.00  0.00    -0.355 N 
ATOM      4  C   UNL A   1      32.105  28.267  27.126  1.00  0.00     0.239 C 
ATOM      5  O   UNL A   1      31.404  27.454  27.738  1.00  0.00    -0.273 OA
ATOM      6  H   UNL A   1      33.346  28.475  28.678  1.00  0.00     0.163 HD
BRANCH   4   7
ATOM      7  C   UNL A   1      31.711  28.695  25.694  1.00  0.00     0.220 C 
BRANCH   7   8
ATOM      8  N   UNL A   1      31.821  27.707  24.607  1.00  0.00    -0.327 N 
BRANCH   8   9
ATOM      9  C   UNL A   1      32.980  26.930  24.398  1.00  0.00     0.246 C 
ATOM     10  O   UNL A   1      34.027  27.472  24.025  1.00  0.00    -0.272 OA
BRANCH   9  11
ATOM     11  C   UNL A   1      32.975  25.349  24.594  1.00  0.00     0.174 C 
BRANCH  11  12
ATOM     12  N   UNL A   1      32.558  24.960  25.950  1.00  0.00    -0.344 N 
ATOM     13  C   UNL A   1      31.030  23.103  25.360  1.00  0.00     0.114 C 
ATOM     14  C   UNL A   1      31.722  23.972  26.373  1.00  0.00     0.217 C 
ATOM     15  O   UNL A   1      31.565  23.816  27.582  1.00  0.00    -0.275 OA
ATOM     16  H   UNL A   1      32.948  25.504  26.671  1.00  0.00     0.164 HD
ENDBRANCH  11  12
BRANCH  11  17
ATOM     17  C   UNL A   1      34.414  24.769  24.363  1.00  0.00     0.015 C 
ATOM     18  C   UNL A   1      35.154  24.427  25.667  1.00  0.00     0.010 C 
ATOM     19  C   UNL A   1      34.406  23.520  23.476  1.00  0.00     0.010 C 
ENDBRANCH  11  17
ENDBRANCH   9  11
ENDBRANCH   8   9
BRANCH   8  20
ATOM     20  C   UNL A   1      30.642  27.570  23.652  1.00  0.00     0.035 C 
ATOM     21  C   UNL A   1      29.595  26.557  24.158  1.00  0.00     0.034 C 
ATOM     22  C   UNL A   1      29.974  28.947  23.443  1.00  0.00     0.034 C 
ATOM     23  C   UNL A   1      31.028  27.081  22.227  1.00  0.00     0.034 C 
ENDBRANCH   8  20
ENDBRANCH   7   8
ENDBRANCH   4   7
ENDBRANCH   2   3
ENDBRANCH   1   2
BRANCH   1  24
ATOM     24  C   UNL A   1      33.716  31.646  27.784  1.00  0.00     0.002 C 
BRANCH  24  25
ATOM     25  C   UNL A   1      34.162  33.033  28.250  1.00  0.00     0.002 C 
BRANCH  25  26
ATOM     26  C   UNL A   1      33.119  34.145  28.100  1.00  0.00     0.021 C 
BRANCH  26  27
ATOM     27  C   UNL A   1      33.525  35.495  28.683  1.00  0.00     0.116 C 
BRANCH  27  28
ATOM     28  N   UNL A   1      32.798  35.809  29.903  1.00  0.00    -0.352 N 
ATOM     29  C   UNL A   1      32.981  35.329  31.171  1.00  0.00     0.251 C 
ATOM     30  H   UNL A   1      32.070  36.463  29.801  1.00  0.00     0.163 HD
ATOM     31  O   UNL A   1      32.153  35.565  32.050  1.00  0.00    -0.269 OA
BRANCH  29  32
ATOM     32  C   UNL A   1      34.165  34.506  31.482  1.00  0.00     0.039 A 
ATOM     33  C   UNL A   1      35.434  35.018  31.201  1.00  0.00     0.014 A 
ATOM     34  C   UNL A   1      34.028  33.231  32.040  1.00  0.00     0.014 A 
ATOM     35  C   UNL A   1      36.568  34.275  31.530  1.00  0.00     0.010 A 
ATOM     36  C   UNL A   1      35.160  32.521  32.432  1.00  0.00     0.010 A 
ATOM     37  C   UNL A   1      36.440  33.035  32.177  1.00  0.00    -0.014 A 
BRANCH  37  38
ATOM     38  C   UNL A   1      37.641  32.270  32.601  1.00  0.00     0.031 A 
ATOM     39  C   UNL A   1      38.327  32.596  33.899  1.00  0.00     0.074 A 
ATOM     40  C   UNL A   1      38.143  31.320  31.789  1.00  0.00     0.049 A 
ATOM     41  N   UNL A   1      39.416  32.079  34.411  1.00  0.00    -0.248 NA
ATOM     42  C   UNL A   1      37.728  33.661  34.720  1.00  0.00     0.031 C 
ATOM     43  C   UNL A   1      37.595  30.950  30.483  1.00  0.00     0.029 A 
ATOM     44  N   UNL A   1      39.235  30.500  31.934  1.00  0.00    -0.354 N 
ATOM     45  C   UNL A   1      39.638  32.762  35.599  1.00  0.00     0.074 A 
ATOM     46  C   UNL A   1      38.600  33.763  35.712  1.00  0.00     0.031 C 
ATOM     47  C   UNL A   1      38.342  29.967  29.954  1.00  0.00     0.029 A 
ATOM     48  C   UNL A   1      39.443  29.665  30.863  1.00  0.00     0.049 A 
ATOM     49  H   UNL A   1      39.813  30.509  32.730  1.00  0.00     0.167 HD
ATOM     50  C   UNL A   1      40.609  32.558  36.520  1.00  0.00     0.037 A 
ATOM     51  C   UNL A   1      40.421  28.769  30.633  1.00  0.00     0.037 A 
ATOM     52  C   UNL A   1      41.621  31.541  36.418  1.00  0.00     0.049 A 
ATOM     53  C   UNL A   1      41.485  28.563  31.679  1.00  0.00     0.074 A 
ATOM     54  C   UNL A   1      42.602  31.205  37.335  1.00  0.00     0.029 A 
ATOM     55  N   UNL A   1      41.785  30.696  35.330  1.00  0.00    -0.354 N 
ATOM     56  N   UNL A   1      41.634  29.158  32.837  1.00  0.00    -0.248 NA
ATOM     57  C   UNL A   1      42.515  27.554  31.388  1.00  0.00     0.031 C 
ATOM     58  C   UNL A   1      43.395  30.198  36.778  1.00  0.00     0.029 A 
ATOM     59  C   UNL A   1      42.871  29.861  35.541  1.00  0.00     0.049 A 
ATOM     60  H   UNL A   1      41.216  30.691  34.526  1.00  0.00     0.167 HD
ATOM     61  C   UNL A   1      42.750  28.575  33.425  1.00  0.00     0.074 A 
ATOM     62  C   UNL A   1      43.228  27.567  32.504  1.00  0.00     0.031 C 
ATOM     63  C   UNL A   1      43.328  28.853  34.619  1.00  0.00     0.037 A 
BRANCH  50  64
ATOM     64  C   UNL A   1      40.631  33.448  37.730  1.00  0.00     0.064 A 
ATOM     65  C   UNL A   1      39.771  33.235  38.818  1.00  0.00     0.173 A 
ATOM     66  C   UNL A   1      41.579  34.478  37.835  1.00  0.00     0.173 A 
ATOM     67  F   UNL A   1      38.842  32.270  38.765  1.00  0.00    -0.203 F 
ATOM     68  C   UNL A   1      39.849  34.031  39.958  1.00  0.00     0.198 A 
ATOM     69  C   UNL A   1      41.673  35.252  38.988  1.00  0.00     0.198 A 
ATOM     70  F   UNL A   1      42.429  34.721  36.825  1.00  0.00    -0.203 F 
ATOM     71  F   UNL A   1      38.995  33.830  40.972  1.00  0.00    -0.200 F 
ATOM     72  C   UNL A   1      40.806  35.029  40.047  1.00  0.00     0.200 A 
ATOM     73  F   UNL A   1      42.609  36.206  39.078  1.00  0.00    -0.200 F 
ATOM     74  F   UNL A   1      40.893  35.781  41.154  1.00  0.00    -0.200 F 
ENDBRANCH  50  64
BRANCH  51  75
ATOM     75  C   UNL A   1      40.444  27.993  29.365  1.00  0.00     0.064 A 
ATOM     76  C   UNL A   1      41.222  28.409  28.274  1.00  0.00     0.173 A 
ATOM     77  C   UNL A   1      39.662  26.839  29.202  1.00  0.00     0.173 A 
ATOM     78  F   UNL A   1      41.971  29.517  28.371  1.00  0.00    -0.203 F 
ATOM     79  C   UNL A   1      41.189  27.724  27.062  1.00  0.00     0.198 A 
ATOM     80  C   UNL A   1      39.657  26.134  28.001  1.00  0.00     0.198 A 
ATOM     81  F   UNL A   1      38.904  26.394  30.215  1.00  0.00    -0.203 F 
ATOM     82  F   UNL A   1      41.892  28.182  26.016  1.00  0.00    -0.200 F 
ATOM     83  C   UNL A   1      40.409  26.585  26.927  1.00  0.00     0.200 A 
ATOM     84  F   UNL A   1      38.914  25.026  27.880  1.00  0.00    -0.200 F 
ATOM     85  F   UNL A   1      40.373  25.929  25.759  1.00  0.00    -0.200 F 
ENDBRANCH  51  75
BRANCH  63  86
ATOM     86  C   UNL A   1      44.516  28.027  35.019  1.00  0.00     0.064 A 
ATOM     87  C   UNL A   1      45.829  28.439  34.743  1.00  0.00     0.173 A 
ATOM     88  C   UNL A   1      44.340  26.826  35.725  1.00  0.00     0.173 A 
ATOM     89  F   UNL A   1      46.051  29.571  34.059  1.00  0.00    -0.203 F 
ATOM     90  C   UNL A   1      46.918  27.663  35.131  1.00  0.00     0.198 A 
ATOM     91  C   UNL A   1      45.431  26.072  36.142  1.00  0.00     0.198 A 
ATOM     92  F   UNL A   1      43.105  26.392  36.022  1.00  0.00    -0.203 F 
ATOM     93  F   UNL A   1      48.160  28.049  34.809  1.00  0.00    -0.200 F 
ATOM     94  C   UNL A   1      46.719  26.486  35.838  1.00  0.00     0.200 A 
ATOM     95  F   UNL A   1      45.238  24.944  36.839  1.00  0.00    -0.200 F 
ATOM     96  F   UNL A   1      47.770  25.747  36.218  1.00  0.00    -0.200 F 
ENDBRANCH  63  86
ENDBRANCH  37  38
ENDBRANCH  29  32
ENDBRANCH  27  28
ENDBRANCH  26  27
ENDBRANCH  25  26
ENDBRANCH  24  25
ENDBRANCH   1  24
TORSDOF 19
ENDMDL
MODEL 2
REMARK VINA RESULT:     -10.2      6.291     11.763
REMARK SMILES CC(=O)N[C@@H](C(=O)N(CC(=O)NCCCCCCNC(=O)c1ccc(-c2c3nc(c(-c4c(F)c(F)c(F)c(F)c4F)c4ccc([nH]4)c(-c4c(F)c(F)c(F)c(F)c4F)c4nc(c(-c5c(F)c(F)c(F)c(F)c5F)c5ccc2[nH]5)C=C4)C=C3)cc1)C(C)(C)C)C(C)C
REMARK SMILES IDX 14 1 13 2 12 3 10 4 11 5 9 7 8 8 6 9 7 10 5 11 4 12 1 13
REMARK SMILES IDX 2 14 3 15 89 17 90 18 91 19 85 20 86 21 87 22 88 23 15 24
REMARK SMILES IDX 16 25 17 26 18 27 19 28 20 29 21 31 22 32 23 33 84 34 24 35
REMARK SMILES IDX 83 36 25 37 26 38 27 39 77 40 28 41 82 42 76 43 78 44 29 45
REMARK SMILES IDX 81 46 75 47 74 48 30 50 62 51 42 52 61 53 43 54 46 55 60 56
REMARK SMILES IDX 79 57 44 58 45 59 59 61 80 62 47 63 31 64 32 65 40 66 33 67
REMARK SMILES IDX 34 68 38 69 41 70 35 71 36 72 39 73 37 74 63 75 64 76 72 77
REMARK SMILES IDX 65 78 66 79 70 80 73 81 67 82 68 83 71 84 69 85 48 86 49 87
REMARK SMILES IDX 57 88 50 89 51 90 55 91 58 92 52 93 53 94 56 95 54 96
REMARK H PARENT 12 6 4 16 19 30 78 49 46 60
REMARK Flexibility Score: inf
ROOT
ATOM      1  C   UNL A   1      38.964  21.365  25.809  1.00  0.00     0.021 C 
ENDROOT
BRANCH   1   2
ATOM      2  C   UNL A   1      37.787  22.207  25.350  1.00  0.00     0.116 C 
BRANCH   2   3
ATOM      3  N   UNL A   1      36.679  22.250  26.271  1.00  0.00    -0.355 N 
ATOM      4  C   UNL A   1      35.450  21.672  26.153  1.00  0.00     0.239 C 
ATOM      5  O   UNL A   1      34.780  21.548  27.184  1.00  0.00    -0.273 OA
ATOM      6  H   UNL A   1      36.831  22.766  27.096  1.00  0.00     0.163 HD
BRANCH   4   7
ATOM      7  C   UNL A   1      34.942  21.055  24.829  1.00  0.00     0.220 C 
BRANCH   7   8
ATOM      8  N   UNL A   1      33.965  21.811  24.028  1.00  0.00    -0.327 N 
BRANCH   8   9
ATOM      9  C   UNL A   1      34.254  23.071  23.462  1.00  0.00     0.246 C 
ATOM     10  O   UNL A   1      35.245  23.207  22.736  1.00  0.00    -0.272 OA
BRANCH   9  11
ATOM     11  C   UNL A   1      33.353  24.350  23.761  1.00  0.00     0.174 C 
BRANCH  11  12
ATOM     12  N   UNL A   1      33.805  25.534  23.014  1.00  0.00    -0.344 N 
ATOM     13  C   UNL A   1      31.780  25.917  21.643  1.00  0.00     0.114 C 
ATOM     14  C   UNL A   1      33.168  26.293  22.081  1.00  0.00     0.217 C 
ATOM     15  O   UNL A   1      33.751  27.275  21.626  1.00  0.00    -0.275 OA
ATOM     16  H   UNL A   1      34.722  25.826  23.224  1.00  0.00     0.164 HD
ENDBRANCH  11  12
BRANCH  11  17
ATOM     17  C   UNL A   1      33.410  24.710  25.286  1.00  0.00     0.015 C 
ATOM     18  C   UNL A   1      34.778  25.249  25.739  1.00  0.00     0.010 C 
ATOM     19  C   UNL A   1      32.338  25.728  25.688  1.00  0.00     0.010 C 
ENDBRANCH  11  17
ENDBRANCH   9  11
ENDBRANCH   8   9
BRANCH   8  20
ATOM     20  C   UNL A   1      32.576  21.210  23.855  1.00  0.00     0.035 C 
ATOM     21  C   UNL A   1      32.017  21.428  22.434  1.00  0.00     0.034 C 
ATOM     22  C   UNL A   1      32.615  19.698  24.171  1.00  0.00     0.034 C 
ATOM     23  C   UNL A   1      31.501  21.802  24.811  1.00  0.00     0.034 C 
ENDBRANCH   8  20
ENDBRANCH   7   8
ENDBRANCH   4   7
ENDBRANCH   2   3
ENDBRANCH   1   2
BRANCH   1  24
ATOM     24  C   UNL A   1      40.049  22.138  26.547  1.00  0.00     0.002 C 
BRANCH  24  25
ATOM     25  C   UNL A   1      41.369  21.384  26.715  1.00  0.00     0.002 C 
BRANCH  25  26
ATOM     26  C   UNL A   1      41.400  19.969  26.129  1.00  0.00     0.021 C 
BRANCH  26  27
ATOM     27  C   UNL A   1      42.610  19.130  26.527  1.00  0.00     0.116 C 
BRANCH  27  28
ATOM     28  N   UNL A   1      43.410  18.736  25.379  1.00  0.00    -0.352 N 
ATOM     29  C   UNL A   1      44.203  19.502  24.569  1.00  0.00     0.251 C 
ATOM     30  H   UNL A   1      43.375  17.779  25.151  1.00  0.00     0.163 HD
ATOM     31  O   UNL A   1      44.663  19.034  23.528  1.00  0.00    -0.269 OA
BRANCH  29  32
ATOM     32  C   UNL A   1      44.493  20.901  24.934  1.00  0.00     0.039 A 
ATOM     33  C   UNL A   1      44.073  21.922  24.078  1.00  0.00     0.014 A 
ATOM     34  C   UNL A   1      45.183  21.208  26.111  1.00  0.00     0.014 A 
ATOM     35  C   UNL A   1      44.296  23.253  24.429  1.00  0.00     0.010 A 
ATOM     36  C   UNL A   1      45.342  22.537  26.495  1.00  0.00     0.010 A 
ATOM     37  C   UNL A   1      44.903  23.573  25.655  1.00  0.00    -0.014 A 
BRANCH  37  38
ATOM     38  C   UNL A   1      45.077  24.987  26.074  1.00  0.00     0.031 A 
ATOM     39  C   UNL A   1      46.430  25.638  25.999  1.00  0.00     0.074 A 
ATOM     40  C   UNL A   1      44.026  25.664  26.575  1.00  0.00     0.049 A 
ATOM     41  N   UNL A   1      46.791  26.841  26.371  1.00  0.00    -0.248 NA
ATOM     42  C   UNL A   1      47.531  24.825  25.459  1.00  0.00     0.031 C 
ATOM     43  C   UNL A   1      42.677  25.123  26.746  1.00  0.00     0.029 A 
ATOM     44  N   UNL A   1      43.929  26.950  27.047  1.00  0.00    -0.354 N 
ATOM     45  C   UNL A   1      48.155  26.921  26.124  1.00  0.00     0.074 A 
ATOM     46  C   UNL A   1      48.570  25.633  25.614  1.00  0.00     0.031 C 
ATOM     47  C   UNL A   1      41.883  26.073  27.267  1.00  0.00     0.029 A 
ATOM     48  C   UNL A   1      42.675  27.275  27.505  1.00  0.00     0.049 A 
ATOM     49  H   UNL A   1      44.685  27.579  27.054  1.00  0.00     0.167 HD
ATOM     50  C   UNL A   1      48.981  27.982  26.290  1.00  0.00     0.037 A 
ATOM     51  C   UNL A   1      42.220  28.411  28.068  1.00  0.00     0.037 A 
ATOM     52  C   UNL A   1      48.556  29.271  26.767  1.00  0.00     0.049 A 
ATOM     53  C   UNL A   1      43.163  29.573  28.236  1.00  0.00     0.074 A 
ATOM     54  C   UNL A   1      49.302  30.430  26.898  1.00  0.00     0.029 A 
ATOM     55  N   UNL A   1      47.272  29.571  27.198  1.00  0.00    -0.354 N 
ATOM     56  N   UNL A   1      44.432  29.663  27.920  1.00  0.00    -0.248 NA
ATOM     57  C   UNL A   1      42.607  30.797  28.834  1.00  0.00     0.031 C 
ATOM     58  C   UNL A   1      48.485  31.414  27.461  1.00  0.00     0.029 A 
ATOM     59  C   UNL A   1      47.214  30.889  27.623  1.00  0.00     0.049 A 
ATOM     60  H   UNL A   1      46.515  28.942  27.202  1.00  0.00     0.167 HD
ATOM     61  C   UNL A   1      44.816  30.957  28.248  1.00  0.00     0.074 A 
ATOM     62  C   UNL A   1      43.642  31.621  28.770  1.00  0.00     0.031 C 
ATOM     63  C   UNL A   1      46.034  31.541  28.129  1.00  0.00     0.037 A 
BRANCH  50  64
ATOM     64  C   UNL A   1      50.432  27.804  25.950  1.00  0.00     0.064 A 
ATOM     65  C   UNL A   1      50.907  27.959  24.639  1.00  0.00     0.173 A 
ATOM     66  C   UNL A   1      51.372  27.554  26.962  1.00  0.00     0.173 A 
ATOM     67  F   UNL A   1      50.051  28.189  23.633  1.00  0.00    -0.203 F 
ATOM     68  C   UNL A   1      52.266  27.853  24.352  1.00  0.00     0.198 A 
ATOM     69  C   UNL A   1      52.732  27.479  26.676  1.00  0.00     0.198 A 
ATOM     70  F   UNL A   1      50.972  27.404  28.234  1.00  0.00    -0.203 F 
ATOM     71  F   UNL A   1      52.693  27.971  23.087  1.00  0.00    -0.200 F 
ATOM     72  C   UNL A   1      53.177  27.625  25.372  1.00  0.00     0.200 A 
ATOM     73  F   UNL A   1      53.612  27.275  27.666  1.00  0.00    -0.200 F 
ATOM     74  F   UNL A   1      54.488  27.544  25.097  1.00  0.00    -0.200 F 
ENDBRANCH  50  64
BRANCH  51  75
ATOM     75  C   UNL A   1      40.805  28.511  28.514  1.00  0.00     0.064 A 
ATOM     76  C   UNL A   1      39.803  28.978  27.650  1.00  0.00     0.173 A 
ATOM     77  C   UNL A   1      40.428  28.178  29.824  1.00  0.00     0.173 A 
ATOM     78  F   UNL A   1      40.115  29.329  26.394  1.00  0.00    -0.203 F 
ATOM     79  C   UNL A   1      38.491  29.140  28.088  1.00  0.00     0.198 A 
ATOM     80  C   UNL A   1      39.108  28.307  30.251  1.00  0.00     0.198 A 
ATOM     81  F   UNL A   1      41.344  27.722  30.691  1.00  0.00    -0.203 F 
ATOM     82  F   UNL A   1      37.569  29.649  27.259  1.00  0.00    -0.200 F 
ATOM     83  C   UNL A   1      38.143  28.801  29.386  1.00  0.00     0.200 A 
ATOM     84  F   UNL A   1      38.775  27.965  31.502  1.00  0.00    -0.200 F 
ATOM     85  F   UNL A   1      36.882  28.963  29.809  1.00  0.00    -0.200 F 
ENDBRANCH  51  75
BRANCH  63  86
ATOM     86  C   UNL A   1      46.149  32.982  28.533  1.00  0.00     0.064 A 
ATOM     87  C   UNL A   1      46.536  33.358  29.828  1.00  0.00     0.173 A 
ATOM     88  C   UNL A   1      45.909  34.001  27.597  1.00  0.00     0.173 A 
ATOM     89  F   UNL A   1      46.763  32.424  30.763  1.00  0.00    -0.203 F 
ATOM     90  C   UNL A   1      46.647  34.702  30.179  1.00  0.00     0.198 A 
ATOM     91  C   UNL A   1      46.056  35.340  27.942  1.00  0.00     0.198 A 
ATOM     92  F   UNL A   1      45.547  33.695  26.342  1.00  0.00    -0.203 F 
ATOM     93  F   UNL A   1      46.965  35.038  31.437  1.00  0.00    -0.200 F 
ATOM     94  C   UNL A   1      46.416  35.690  29.234  1.00  0.00     0.200 A 
ATOM     95  F   UNL A   1      45.849  36.295  27.023  1.00  0.00    -0.200 F 
ATOM     96  F   UNL A   1      46.533  36.981  29.572  1.00  0.00    -0.200 F 
ENDBRANCH  63  86
ENDBRANCH  37  38
ENDBRANCH  29  32
ENDBRANCH  27  28
ENDBRANCH  26  27
ENDBRANCH  25  26
ENDBRANCH  24  25
ENDBRANCH   1  24
TORSDOF 19
ENDMDL
MODEL 3
REMARK VINA RESULT:     -10.2      1.759      2.951
REMARK SMILES CC(=O)N[C@@H](C(=O)N(CC(=O)NCCCCCCNC(=O)c1ccc(-c2c3nc(c(-c4c(F)c(F)c(F)c(F)c4F)c4ccc([nH]4)c(-c4c(F)c(F)c(F)c(F)c4F)c4nc(c(-c5c(F)c(F)c(F)c(F)c5F)c5ccc2[nH]5)C=C4)C=C3)cc1)C(C)(C)C)C(C)C
REMARK SMILES IDX 14 1 13 2 12 3 10 4 11 5 9 7 8 8 6 9 7 10 5 11 4 12 1 13
REMARK SMILES IDX 2 14 3 15 89 17 90 18 91 19 85 20 86 21 87 22 88 23 15 24
REMARK SMILES IDX 16 25 17 26 18 27 19 28 20 29 21 31 22 32 23 33 84 34 24 35
REMARK SMILES IDX 83 36 25 37 26 38 27 39 77 40 28 41 82 42 76 43 78 44 29 45
REMARK SMILES IDX 81 46 75 47 74 48 30 50 62 51 42 52 61 53 43 54 46 55 60 56
REMARK SMILES IDX 79 57 44 58 45 59 59 61 80 62 47 63 31 64 32 65 40 66 33 67
REMARK SMILES IDX 34 68 38 69 41 70 35 71 36 72 39 73 37 74 63 75 64 76 72 77
REMARK SMILES IDX 65 78 66 79 70 80 73 81 67 82 68 83 71 84 69 85 48 86 49 87
REMARK SMILES IDX 57 88 50 89 51 90 55 91 58 92 52 93 53 94 56 95 54 96
REMARK H PARENT 12 6 4 16 19 30 78 49 46 60
REMARK Flexibility Score: inf
ROOT
ATOM      1  C   UNL A   1      31.673  28.556  27.350  1.00  0.00     0.021 C 
ENDROOT
BRANCH   1   2
ATOM      2  C   UNL A   1      31.488  27.419  26.360  1.00  0.00     0.116 C 
BRANCH   2   3
ATOM      3  N   UNL A   1      31.181  26.143  26.955  1.00  0.00    -0.355 N 
ATOM      4  C   UNL A   1      30.922  24.955  26.338  1.00  0.00     0.239 C 
ATOM      5  O   UNL A   1      31.018  23.929  27.021  1.00  0.00    -0.273 OA
ATOM      6  H   UNL A   1      31.155  26.127  27.939  1.00  0.00     0.163 HD
BRANCH   4   7
ATOM      7  C   UNL A   1      30.661  24.844  24.819  1.00  0.00     0.220 C 
BRANCH   7   8
ATOM      8  N   UNL A   1      31.776  24.459  23.937  1.00  0.00    -0.327 N 
BRANCH   8   9
ATOM      9  C   UNL A   1      32.327  23.160  23.928  1.00  0.00     0.246 C 
ATOM     10  O   UNL A   1      31.750  22.250  23.322  1.00  0.00    -0.272 OA
BRANCH   9  11
ATOM     11  C   UNL A   1      33.670  22.814  24.712  1.00  0.00     0.174 C 
BRANCH  11  12
ATOM     12  N   UNL A   1      34.809  22.621  23.802  1.00  0.00    -0.344 N 
ATOM     13  C   UNL A   1      36.541  23.823  25.101  1.00  0.00     0.114 C 
ATOM     14  C   UNL A   1      36.108  23.016  23.909  1.00  0.00     0.217 C 
ATOM     15  O   UNL A   1      36.894  22.691  23.022  1.00  0.00    -0.275 OA
ATOM     16  H   UNL A   1      34.598  22.124  22.979  1.00  0.00     0.164 HD
ENDBRANCH  11  12
BRANCH  11  17
ATOM     17  C   UNL A   1      33.494  21.487  25.528  1.00  0.00     0.015 C 
ATOM     18  C   UNL A   1      34.128  20.260  24.850  1.00  0.00     0.010 C 
ATOM     19  C   UNL A   1      34.059  21.593  26.949  1.00  0.00     0.010 C 
ENDBRANCH  11  17
ENDBRANCH   9  11
ENDBRANCH   8   9
BRANCH   8  20
ATOM     20  C   UNL A   1      32.375  25.536  23.042  1.00  0.00     0.035 C 
ATOM     21  C   UNL A   1      31.358  26.644  22.699  1.00  0.00     0.034 C 
ATOM     22  C   UNL A   1      33.612  26.160  23.727  1.00  0.00     0.034 C 
ATOM     23  C   UNL A   1      32.887  25.013  21.669  1.00  0.00     0.034 C 
ENDBRANCH   8  20
ENDBRANCH   7   8
ENDBRANCH   4   7
ENDBRANCH   2   3
ENDBRANCH   1   2
BRANCH   1  24
ATOM     24  C   UNL A   1      32.358  29.790  26.778  1.00  0.00     0.002 C 
BRANCH  24  25
ATOM     25  C   UNL A   1      31.415  30.796  26.117  1.00  0.00     0.002 C 
BRANCH  25  26
ATOM     26  C   UNL A   1      31.336  32.169  26.794  1.00  0.00     0.021 C 
BRANCH  26  27
ATOM     27  C   UNL A   1      32.657  32.928  26.872  1.00  0.00     0.116 C 
BRANCH  27  28
ATOM     28  N   UNL A   1      32.526  34.189  27.584  1.00  0.00    -0.352 N 
ATOM     29  C   UNL A   1      33.187  34.632  28.697  1.00  0.00     0.251 C 
ATOM     30  H   UNL A   1      31.865  34.816  27.210  1.00  0.00     0.163 HD
ATOM     31  O   UNL A   1      32.817  35.653  29.275  1.00  0.00    -0.269 OA
BRANCH  29  32
ATOM     32  C   UNL A   1      34.337  33.870  29.220  1.00  0.00     0.039 A 
ATOM     33  C   UNL A   1      35.628  34.292  28.895  1.00  0.00     0.014 A 
ATOM     34  C   UNL A   1      34.146  32.739  30.020  1.00  0.00     0.014 A 
ATOM     35  C   UNL A   1      36.729  33.613  29.417  1.00  0.00     0.010 A 
ATOM     36  C   UNL A   1      35.243  32.106  30.598  1.00  0.00     0.010 A 
ATOM     37  C   UNL A   1      36.546  32.534  30.298  1.00  0.00    -0.014 A 
BRANCH  37  38
ATOM     38  C   UNL A   1      37.708  31.852  30.921  1.00  0.00     0.031 A 
ATOM     39  C   UNL A   1      38.170  32.246  32.296  1.00  0.00     0.074 A 
ATOM     40  C   UNL A   1      38.381  30.917  30.223  1.00  0.00     0.049 A 
ATOM     41  N   UNL A   1      39.196  31.807  32.982  1.00  0.00    -0.248 NA
ATOM     42  C   UNL A   1      37.395  33.290  32.985  1.00  0.00     0.031 C 
ATOM     43  C   UNL A   1      38.060  30.487  28.860  1.00  0.00     0.029 A 
ATOM     44  N   UNL A   1      39.483  30.168  30.554  1.00  0.00    -0.354 N 
ATOM     45  C   UNL A   1      39.196  32.527  34.168  1.00  0.00     0.074 A 
ATOM     46  C   UNL A   1      38.098  33.466  34.095  1.00  0.00     0.031 C 
ATOM     47  C   UNL A   1      38.932  29.540  28.479  1.00  0.00     0.029 A 
ATOM     48  C   UNL A   1      39.898  29.324  29.552  1.00  0.00     0.049 A 
ATOM     49  H   UNL A   1      39.932  30.229  31.428  1.00  0.00     0.167 HD
ATOM     50  C   UNL A   1      40.026  32.402  35.231  1.00  0.00     0.037 A 
ATOM     51  C   UNL A   1      40.949  28.484  29.500  1.00  0.00     0.037 A 
ATOM     52  C   UNL A   1      41.098  31.445  35.313  1.00  0.00     0.049 A 
ATOM     53  C   UNL A   1      41.852  28.365  30.699  1.00  0.00     0.074 A 
ATOM     54  C   UNL A   1      41.945  31.189  36.377  1.00  0.00     0.029 A 
ATOM     55  N   UNL A   1      41.473  30.589  34.288  1.00  0.00    -0.354 N 
ATOM     56  N   UNL A   1      41.789  28.992  31.848  1.00  0.00    -0.248 NA
ATOM     57  C   UNL A   1      42.969  27.414  30.596  1.00  0.00     0.031 C 
ATOM     58  C   UNL A   1      42.869  30.219  35.976  1.00  0.00     0.029 A 
ATOM     59  C   UNL A   1      42.559  29.826  34.685  1.00  0.00     0.049 A 
ATOM     60  H   UNL A   1      41.033  30.532  33.408  1.00  0.00     0.167 HD
ATOM     61  C   UNL A   1      42.833  28.490  32.614  1.00  0.00     0.074 A 
ATOM     62  C   UNL A   1      43.502  27.494  31.806  1.00  0.00     0.031 C 
ATOM     63  C   UNL A   1      43.206  28.827  33.873  1.00  0.00     0.037 A 
BRANCH  50  64
ATOM     64  C   UNL A   1      39.814  33.316  36.403  1.00  0.00     0.064 A 
ATOM     65  C   UNL A   1      40.476  34.549  36.507  1.00  0.00     0.173 A 
ATOM     66  C   UNL A   1      38.877  32.989  37.396  1.00  0.00     0.173 A 
ATOM     67  F   UNL A   1      41.387  34.905  35.591  1.00  0.00    -0.203 F 
ATOM     68  C   UNL A   1      40.219  35.412  37.569  1.00  0.00     0.198 A 
ATOM     69  C   UNL A   1      38.601  33.868  38.440  1.00  0.00     0.198 A 
ATOM     70  F   UNL A   1      38.212  31.825  37.342  1.00  0.00    -0.203 F 
ATOM     71  F   UNL A   1      40.887  36.570  37.665  1.00  0.00    -0.200 F 
ATOM     72  C   UNL A   1      39.274  35.077  38.527  1.00  0.00     0.200 A 
ATOM     73  F   UNL A   1      37.676  33.548  39.355  1.00  0.00    -0.200 F 
ATOM     74  F   UNL A   1      39.013  35.919  39.538  1.00  0.00    -0.200 F 
ENDBRANCH  50  64
BRANCH  51  75
ATOM     75  C   UNL A   1      41.208  27.684  28.272  1.00  0.00     0.064 A 
ATOM     76  C   UNL A   1      40.633  26.417  28.098  1.00  0.00     0.173 A 
ATOM     77  C   UNL A   1      42.065  28.153  27.265  1.00  0.00     0.173 A 
ATOM     78  F   UNL A   1      39.823  25.915  29.041  1.00  0.00    -0.203 F 
ATOM     79  C   UNL A   1      40.931  25.638  26.983  1.00  0.00     0.198 A 
ATOM     80  C   UNL A   1      42.335  27.387  26.133  1.00  0.00     0.198 A 
ATOM     81  F   UNL A   1      42.639  29.360  27.379  1.00  0.00    -0.203 F 
ATOM     82  F   UNL A   1      40.418  24.404  26.874  1.00  0.00    -0.200 F 
ATOM     83  C   UNL A   1      41.779  26.124  25.999  1.00  0.00     0.200 A 
ATOM     84  F   UNL A   1      43.143  27.868  25.179  1.00  0.00    -0.200 F 
ATOM     85  F   UNL A   1      42.071  25.372  24.930  1.00  0.00    -0.200 F 
ENDBRANCH  51  75
BRANCH  63  86
ATOM     86  C   UNL A   1      44.365  28.084  34.471  1.00  0.00     0.064 A 
ATOM     87  C   UNL A   1      45.679  28.570  34.387  1.00  0.00     0.173 A 
ATOM     88  C   UNL A   1      44.152  26.887  35.175  1.00  0.00     0.173 A 
ATOM     89  F   UNL A   1      45.938  29.701  33.715  1.00  0.00    -0.203 F 
ATOM     90  C   UNL A   1      46.738  27.869  34.958  1.00  0.00     0.198 A 
ATOM     91  C   UNL A   1      45.208  26.209  35.774  1.00  0.00     0.198 A 
ATOM     92  F   UNL A   1      42.914  26.384  35.293  1.00  0.00    -0.203 F 
ATOM     93  F   UNL A   1      47.991  28.325  34.819  1.00  0.00    -0.200 F 
ATOM     94  C   UNL A   1      46.501  26.696  35.658  1.00  0.00     0.200 A 
ATOM     95  F   UNL A   1      44.976  25.084  36.464  1.00  0.00    -0.200 F 
ATOM     96  F   UNL A   1      47.522  26.029  36.214  1.00  0.00    -0.200 F 
ENDBRANCH  63  86
ENDBRANCH  37  38
ENDBRANCH  29  32
ENDBRANCH  27  28
ENDBRANCH  26  27
ENDBRANCH  25  26
ENDBRANCH  24  25
ENDBRANCH   1  24
TORSDOF 19
ENDMDL
