MODEL 1
REMARK VINA RESULT:     -11.8      0.000      0.000
REMARK SMILES CC[C@](C)(NC(=O)CCOc1ccc(Cl)c(Cl)c1)C(=O)NCCCCCCNC(=O)c1ccc(-c2c3nc(c(-c4c(F)c(F)c(F)c(F)c4F)c4ccc([nH]4)c(-c4c(F)c(F)c(F)c(F)c4F)c4nc(c(-c5c(F)c(F)c(F)c(F)c5F)c5ccc2[nH]5)C=C4)C=C3)cc1
REMARK SMILES IDX 23 1 22 2 21 3 19 4 20 5 3 7 4 8 2 9 1 10 5 11 6 12 7 14
REMARK SMILES IDX 8 15 9 16 10 17 11 18 12 19 18 20 13 21 16 22 14 23 17 24
REMARK SMILES IDX 15 25 24 26 25 27 26 28 27 29 28 30 29 31 30 33 31 34 32 35
REMARK SMILES IDX 93 36 33 37 92 38 34 39 35 40 36 41 86 42 37 43 91 44 85 45
REMARK SMILES IDX 87 46 38 47 90 48 84 49 83 50 39 52 71 53 51 54 70 55 52 56
REMARK SMILES IDX 55 57 69 58 88 59 53 60 54 61 68 63 89 64 56 65 40 66 41 67
REMARK SMILES IDX 49 68 42 69 43 70 47 71 50 72 44 73 45 74 48 75 46 76 72 77
REMARK SMILES IDX 73 78 81 79 74 80 75 81 79 82 82 83 76 84 77 85 80 86 78 87
REMARK SMILES IDX 57 88 58 89 66 90 59 91 60 92 64 93 67 94 61 95 62 96 65 97
REMARK SMILES IDX 63 98
REMARK H PARENT 21 6 5 13 28 32 87 51 55 62
REMARK Flexibility Score: inf
ROOT
ATOM      1  C   UNL A   1      31.772  28.631  27.311  1.00  0.00     0.021 C 
ENDROOT
BRANCH   1   2
ATOM      2  C   UNL A   1      31.407  27.672  26.184  1.00  0.00     0.116 C 
BRANCH   2   3
ATOM      3  N   UNL A   1      32.531  26.891  25.717  1.00  0.00    -0.354 N 
ATOM      4  C   UNL A   1      33.165  26.873  24.514  1.00  0.00     0.245 C 
ATOM      5  O   UNL A   1      34.212  26.222  24.454  1.00  0.00    -0.272 OA
ATOM      6  H   UNL A   1      32.899  26.266  26.382  1.00  0.00     0.163 HD
BRANCH   4   7
ATOM      7  C   UNL A   1      32.657  27.723  23.316  1.00  0.00     0.116 C 
ATOM      8  C   UNL A   1      33.282  29.117  23.399  1.00  0.00     0.045 C 
BRANCH   7   9
ATOM      9  C   UNL A   1      31.111  27.858  23.489  1.00  0.00     0.035 C 
ATOM     10  C   UNL A   1      30.475  29.061  22.796  1.00  0.00     0.007 C 
ENDBRANCH   7   9
BRANCH   7  11
ATOM     11  N   UNL A   1      32.951  27.074  22.015  1.00  0.00    -0.342 N 
ATOM     12  C   UNL A   1      32.738  25.814  21.544  1.00  0.00     0.224 C 
ATOM     13  H   UNL A   1      33.386  27.671  21.365  1.00  0.00     0.164 HD
ATOM     14  O   UNL A   1      33.142  25.567  20.402  1.00  0.00    -0.275 OA
BRANCH  12  15
ATOM     15  C   UNL A   1      31.941  24.782  22.314  1.00  0.00     0.141 C 
BRANCH  15  16
ATOM     16  C   UNL A   1      32.716  23.511  22.660  1.00  0.00     0.239 C 
BRANCH  16  17
ATOM     17  O   UNL A   1      32.521  23.046  24.001  1.00  0.00    -0.493 OA
BRANCH  17  18
ATOM     18  C   UNL A   1      32.973  21.799  24.331  1.00  0.00     0.120 A 
ATOM     19  C   UNL A   1      32.224  20.629  24.290  1.00  0.00     0.048 A 
ATOM     20  C   UNL A   1      34.331  21.726  24.654  1.00  0.00     0.068 A 
ATOM     21  C   UNL A   1      32.853  19.386  24.374  1.00  0.00     0.026 A 
ATOM     22  C   UNL A   1      34.963  20.484  24.777  1.00  0.00     0.063 A 
ATOM     23  C   UNL A   1      34.228  19.309  24.589  1.00  0.00     0.059 A 
ATOM     24  Cl  UNL A   1      36.665  20.470  25.071  1.00  0.00    -0.083 Cl
ATOM     25  Cl  UNL A   1      34.958  17.746  24.562  1.00  0.00    -0.083 Cl
ENDBRANCH  17  18
ENDBRANCH  16  17
ENDBRANCH  15  16
ENDBRANCH  12  15
ENDBRANCH   7  11
ENDBRANCH   4   7
ENDBRANCH   2   3
ENDBRANCH   1   2
BRANCH   1  26
ATOM     26  C   UNL A   1      32.399  29.951  26.859  1.00  0.00     0.002 C 
BRANCH  26  27
ATOM     27  C   UNL A   1      31.469  30.857  26.051  1.00  0.00     0.002 C 
BRANCH  27  28
ATOM     28  C   UNL A   1      31.322  32.275  26.601  1.00  0.00     0.021 C 
BRANCH  28  29
ATOM     29  C   UNL A   1      32.584  32.825  27.246  1.00  0.00     0.116 C 
BRANCH  29  30
ATOM     30  N   UNL A   1      32.416  34.210  27.643  1.00  0.00    -0.352 N 
ATOM     31  C   UNL A   1      33.042  34.881  28.662  1.00  0.00     0.251 C 
ATOM     32  H   UNL A   1      31.771  34.734  27.115  1.00  0.00     0.163 HD
ATOM     33  O   UNL A   1      32.624  35.964  29.048  1.00  0.00    -0.269 OA
BRANCH  31  34
ATOM     34  C   UNL A   1      34.224  34.266  29.299  1.00  0.00     0.039 A 
ATOM     35  C   UNL A   1      34.034  33.390  30.367  1.00  0.00     0.014 A 
ATOM     36  C   UNL A   1      35.511  34.546  28.828  1.00  0.00     0.014 A 
ATOM     37  C   UNL A   1      35.139  32.767  30.945  1.00  0.00     0.010 A 
ATOM     38  C   UNL A   1      36.601  33.858  29.347  1.00  0.00     0.010 A 
ATOM     39  C   UNL A   1      36.429  32.978  30.425  1.00  0.00    -0.014 A 
BRANCH  39  40
ATOM     40  C   UNL A   1      37.603  32.294  31.017  1.00  0.00     0.031 A 
ATOM     41  C   UNL A   1      38.074  32.658  32.398  1.00  0.00     0.074 A 
ATOM     42  C   UNL A   1      38.262  31.368  30.297  1.00  0.00     0.049 A 
ATOM     43  N   UNL A   1      39.063  32.156  33.094  1.00  0.00    -0.248 NA
ATOM     44  C   UNL A   1      37.358  33.749  33.076  1.00  0.00     0.031 C 
ATOM     45  C   UNL A   1      37.931  30.970  28.928  1.00  0.00     0.029 A 
ATOM     46  N   UNL A   1      39.342  30.585  30.619  1.00  0.00    -0.354 N 
ATOM     47  C   UNL A   1      39.093  32.877  34.281  1.00  0.00     0.074 A 
ATOM     48  C   UNL A   1      38.066  33.890  34.186  1.00  0.00     0.031 C 
ATOM     49  C   UNL A   1      38.757  29.984  28.546  1.00  0.00     0.029 A 
ATOM     50  C   UNL A   1      39.699  29.707  29.626  1.00  0.00     0.049 A 
ATOM     51  H   UNL A   1      39.816  30.648  31.480  1.00  0.00     0.167 HD
ATOM     52  C   UNL A   1      39.888  32.692  35.362  1.00  0.00     0.037 A 
ATOM     53  C   UNL A   1      40.670  28.776  29.597  1.00  0.00     0.037 A 
ATOM     54  C   UNL A   1      40.894  31.667  35.455  1.00  0.00     0.049 A 
ATOM     55  C   UNL A   1      41.546  28.597  30.808  1.00  0.00     0.074 A 
ATOM     56  C   UNL A   1      41.701  31.344  36.531  1.00  0.00     0.029 A 
ATOM     57  N   UNL A   1      41.239  30.803  34.423  1.00  0.00    -0.354 N 
ATOM     58  N   UNL A   1      41.505  29.220  31.961  1.00  0.00    -0.248 NA
ATOM     59  C   UNL A   1      42.598  27.578  30.712  1.00  0.00     0.031 C 
ATOM     60  C   UNL A   1      42.579  30.330  36.131  1.00  0.00     0.029 A 
ATOM     61  C   UNL A   1      42.274  29.974  34.826  1.00  0.00     0.049 A 
ATOM     62  H   UNL A   1      40.811  30.783  33.537  1.00  0.00     0.167 HD
ATOM     63  C   UNL A   1      42.504  28.650  32.740  1.00  0.00     0.074 A 
ATOM     64  C   UNL A   1      43.118  27.615  31.930  1.00  0.00     0.031 C 
ATOM     65  C   UNL A   1      42.878  28.952  34.007  1.00  0.00     0.037 A 
BRANCH  52  66
ATOM     66  C   UNL A   1      39.709  33.631  36.522  1.00  0.00     0.064 A 
ATOM     67  C   UNL A   1      38.890  33.311  37.617  1.00  0.00     0.173 A 
ATOM     68  C   UNL A   1      40.376  34.865  36.546  1.00  0.00     0.173 A 
ATOM     69  F   UNL A   1      38.219  32.151  37.643  1.00  0.00    -0.203 F 
ATOM     70  C   UNL A   1      38.714  34.208  38.669  1.00  0.00     0.198 A 
ATOM     71  C   UNL A   1      40.227  35.744  37.615  1.00  0.00     0.198 A 
ATOM     72  F   UNL A   1      41.176  35.221  35.528  1.00  0.00    -0.203 F 
ATOM     73  F   UNL A   1      37.876  33.908  39.670  1.00  0.00    -0.200 F 
ATOM     74  C   UNL A   1      39.387  35.421  38.670  1.00  0.00     0.200 A 
ATOM     75  F   UNL A   1      40.890  36.908  37.621  1.00  0.00    -0.200 F 
ATOM     76  F   UNL A   1      39.218  36.282  39.683  1.00  0.00    -0.200 F 
ENDBRANCH  52  66
BRANCH  53  77
ATOM     77  C   UNL A   1      40.834  27.909  28.402  1.00  0.00     0.064 A 
ATOM     78  C   UNL A   1      41.624  28.322  27.319  1.00  0.00     0.173 A 
ATOM     79  C   UNL A   1      40.211  26.656  28.313  1.00  0.00     0.173 A 
ATOM     80  F   UNL A   1      42.225  29.521  27.350  1.00  0.00    -0.203 F 
ATOM     81  C   UNL A   1      41.769  27.525  26.187  1.00  0.00     0.198 A 
ATOM     82  C   UNL A   1      40.381  25.846  27.191  1.00  0.00     0.198 A 
ATOM     83  F   UNL A   1      39.449  26.210  29.323  1.00  0.00    -0.203 F 
ATOM     84  F   UNL A   1      42.494  27.965  25.149  1.00  0.00    -0.200 F 
ATOM     85  C   UNL A   1      41.153  26.284  26.127  1.00  0.00     0.200 A 
ATOM     86  F   UNL A   1      39.798  24.641  27.144  1.00  0.00    -0.200 F 
ATOM     87  F   UNL A   1      41.297  25.515  25.039  1.00  0.00    -0.200 F 
ENDBRANCH  53  77
BRANCH  65  88
ATOM     88  C   UNL A   1      43.986  28.132  34.606  1.00  0.00     0.064 A 
ATOM     89  C   UNL A   1      45.326  28.540  34.544  1.00  0.00     0.173 A 
ATOM     90  C   UNL A   1      43.699  26.924  35.262  1.00  0.00     0.173 A 
ATOM     91  F   UNL A   1      45.657  29.679  33.916  1.00  0.00    -0.203 F 
ATOM     92  C   UNL A   1      46.342  27.751  35.078  1.00  0.00     0.198 A 
ATOM     93  C   UNL A   1      44.713  26.156  35.828  1.00  0.00     0.198 A 
ATOM     94  F   UNL A   1      42.434  26.489  35.359  1.00  0.00    -0.203 F 
ATOM     95  F   UNL A   1      47.620  28.129  34.946  1.00  0.00    -0.200 F 
ATOM     96  C   UNL A   1      46.034  26.564  35.724  1.00  0.00     0.200 A 
ATOM     97  F   UNL A   1      44.412  25.017  36.467  1.00  0.00    -0.200 F 
ATOM     98  F   UNL A   1      47.013  25.805  36.238  1.00  0.00    -0.200 F 
ENDBRANCH  65  88
ENDBRANCH  39  40
ENDBRANCH  31  34
ENDBRANCH  29  30
ENDBRANCH  28  29
ENDBRANCH  27  28
ENDBRANCH  26  27
ENDBRANCH   1  26
TORSDOF 19
ENDMDL
MODEL 2
REMARK VINA RESULT:     -11.7      2.252      3.932
REMARK SMILES CC[C@](C)(NC(=O)CCOc1ccc(Cl)c(Cl)c1)C(=O)NCCCCCCNC(=O)c1ccc(-c2c3nc(c(-c4c(F)c(F)c(F)c(F)c4F)c4ccc([nH]4)c(-c4c(F)c(F)c(F)c(F)c4F)c4nc(c(-c5c(F)c(F)c(F)c(F)c5F)c5ccc2[nH]5)C=C4)C=C3)cc1
REMARK SMILES IDX 23 1 22 2 21 3 19 4 20 5 3 7 4 8 2 9 1 10 5 11 6 12 7 14
REMARK SMILES IDX 8 15 9 16 10 17 11 18 12 19 18 20 13 21 16 22 14 23 17 24
REMARK SMILES IDX 15 25 24 26 25 27 26 28 27 29 28 30 29 31 30 33 31 34 32 35
REMARK SMILES IDX 93 36 33 37 92 38 34 39 35 40 36 41 86 42 37 43 91 44 85 45
REMARK SMILES IDX 87 46 38 47 90 48 84 49 83 50 39 52 71 53 51 54 70 55 52 56
REMARK SMILES IDX 55 57 69 58 88 59 53 60 54 61 68 63 89 64 56 65 40 66 41 67
REMARK SMILES IDX 49 68 42 69 43 70 47 71 50 72 44 73 45 74 48 75 46 76 72 77
REMARK SMILES IDX 73 78 81 79 74 80 75 81 79 82 82 83 76 84 77 85 80 86 78 87
REMARK SMILES IDX 57 88 58 89 66 90 59 91 60 92 64 93 67 94 61 95 62 96 65 97
REMARK SMILES IDX 63 98
REMARK H PARENT 21 6 5 13 28 32 87 51 55 62
REMARK Flexibility Score: inf
ROOT
ATOM      1  C   UNL A   1      33.342  28.515  25.732  1.00  0.00     0.021 C 
ENDROOT
BRANCH   1   2
ATOM      2  C   UNL A   1      33.193  27.048  26.118  1.00  0.00     0.116 C 
BRANCH   2   3
ATOM      3  N   UNL A   1      31.814  26.628  26.231  1.00  0.00    -0.354 N 
ATOM      4  C   UNL A   1      31.253  25.390  26.185  1.00  0.00     0.245 C 
ATOM      5  O   UNL A   1      30.057  25.316  26.485  1.00  0.00    -0.272 OA
ATOM      6  H   UNL A   1      31.173  27.363  26.364  1.00  0.00     0.163 HD
BRANCH   4   7
ATOM      7  C   UNL A   1      32.103  24.124  25.885  1.00  0.00     0.116 C 
ATOM      8  C   UNL A   1      31.182  23.025  25.353  1.00  0.00     0.045 C 
BRANCH   7   9
ATOM      9  C   UNL A   1      32.703  23.656  27.248  1.00  0.00     0.035 C 
ATOM     10  C   UNL A   1      33.808  22.606  27.154  1.00  0.00     0.007 C 
ENDBRANCH   7   9
BRANCH   7  11
ATOM     11  N   UNL A   1      33.206  24.413  24.935  1.00  0.00    -0.342 N 
ATOM     12  C   UNL A   1      33.277  24.410  23.576  1.00  0.00     0.224 C 
ATOM     13  H   UNL A   1      34.053  24.653  25.375  1.00  0.00     0.164 HD
ATOM     14  O   UNL A   1      34.376  24.664  23.071  1.00  0.00    -0.275 OA
BRANCH  12  15
ATOM     15  C   UNL A   1      32.057  24.227  22.699  1.00  0.00     0.141 C 
BRANCH  15  16
ATOM     16  C   UNL A   1      31.401  25.531  22.244  1.00  0.00     0.239 C 
BRANCH  16  17
ATOM     17  O   UNL A   1      31.588  26.632  23.141  1.00  0.00    -0.493 OA
BRANCH  17  18
ATOM     18  C   UNL A   1      30.812  27.745  22.979  1.00  0.00     0.120 A 
ATOM     19  C   UNL A   1      31.216  28.934  22.381  1.00  0.00     0.048 A 
ATOM     20  C   UNL A   1      29.483  27.608  23.389  1.00  0.00     0.068 A 
ATOM     21  C   UNL A   1      30.273  29.895  22.016  1.00  0.00     0.026 A 
ATOM     22  C   UNL A   1      28.537  28.585  23.059  1.00  0.00     0.063 A 
ATOM     23  C   UNL A   1      28.927  29.711  22.328  1.00  0.00     0.059 A 
ATOM     24  Cl  UNL A   1      26.893  28.298  23.504  1.00  0.00    -0.083 Cl
ATOM     25  Cl  UNL A   1      27.801  30.880  21.742  1.00  0.00    -0.083 Cl
ENDBRANCH  17  18
ENDBRANCH  16  17
ENDBRANCH  15  16
ENDBRANCH  12  15
ENDBRANCH   7  11
ENDBRANCH   4   7
ENDBRANCH   2   3
ENDBRANCH   1   2
BRANCH   1  26
ATOM     26  C   UNL A   1      32.544  29.494  26.593  1.00  0.00     0.002 C 
BRANCH  26  27
ATOM     27  C   UNL A   1      31.605  30.414  25.813  1.00  0.00     0.002 C 
BRANCH  27  28
ATOM     28  C   UNL A   1      31.407  31.799  26.431  1.00  0.00     0.021 C 
BRANCH  28  29
ATOM     29  C   UNL A   1      32.630  32.337  27.156  1.00  0.00     0.116 C 
BRANCH  29  30
ATOM     30  N   UNL A   1      32.486  33.746  27.464  1.00  0.00    -0.352 N 
ATOM     31  C   UNL A   1      33.132  34.471  28.431  1.00  0.00     0.251 C 
ATOM     32  H   UNL A   1      31.844  34.245  26.909  1.00  0.00     0.163 HD
ATOM     33  O   UNL A   1      32.734  35.583  28.751  1.00  0.00    -0.269 OA
BRANCH  31  34
ATOM     34  C   UNL A   1      34.312  33.881  29.095  1.00  0.00     0.039 A 
ATOM     35  C   UNL A   1      34.118  32.897  30.064  1.00  0.00     0.014 A 
ATOM     36  C   UNL A   1      35.603  34.291  28.747  1.00  0.00     0.014 A 
ATOM     37  C   UNL A   1      35.225  32.299  30.664  1.00  0.00     0.010 A 
ATOM     38  C   UNL A   1      36.705  33.633  29.281  1.00  0.00     0.010 A 
ATOM     39  C   UNL A   1      36.527  32.646  30.260  1.00  0.00    -0.014 A 
BRANCH  39  40
ATOM     40  C   UNL A   1      37.707  31.990  30.873  1.00  0.00     0.031 A 
ATOM     41  C   UNL A   1      38.144  32.364  32.262  1.00  0.00     0.074 A 
ATOM     42  C   UNL A   1      38.401  31.080  30.164  1.00  0.00     0.049 A 
ATOM     43  N   UNL A   1      39.132  31.886  32.975  1.00  0.00    -0.248 NA
ATOM     44  C   UNL A   1      37.389  33.437  32.928  1.00  0.00     0.031 C 
ATOM     45  C   UNL A   1      38.104  30.676  28.789  1.00  0.00     0.029 A 
ATOM     46  N   UNL A   1      39.493  30.325  30.506  1.00  0.00    -0.354 N 
ATOM     47  C   UNL A   1      39.123  32.606  34.163  1.00  0.00     0.074 A 
ATOM     48  C   UNL A   1      38.074  33.594  34.050  1.00  0.00     0.031 C 
ATOM     49  C   UNL A   1      38.961  29.710  28.422  1.00  0.00     0.029 A 
ATOM     50  C   UNL A   1      39.890  29.456  29.518  1.00  0.00     0.049 A 
ATOM     51  H   UNL A   1      39.951  30.398  31.374  1.00  0.00     0.167 HD
ATOM     52  C   UNL A   1      39.904  32.441  35.257  1.00  0.00     0.037 A 
ATOM     53  C   UNL A   1      40.884  28.549  29.507  1.00  0.00     0.037 A 
ATOM     54  C   UNL A   1      40.932  31.441  35.368  1.00  0.00     0.049 A 
ATOM     55  C   UNL A   1      41.742  28.390  30.733  1.00  0.00     0.074 A 
ATOM     56  C   UNL A   1      41.728  31.136  36.458  1.00  0.00     0.029 A 
ATOM     57  N   UNL A   1      41.317  30.586  34.343  1.00  0.00    -0.354 N 
ATOM     58  N   UNL A   1      41.666  29.012  31.886  1.00  0.00    -0.248 NA
ATOM     59  C   UNL A   1      42.820  27.397  30.656  1.00  0.00     0.031 C 
ATOM     60  C   UNL A   1      42.637  30.144  36.074  1.00  0.00     0.029 A 
ATOM     61  C   UNL A   1      42.364  29.782  34.764  1.00  0.00     0.049 A 
ATOM     62  H   UNL A   1      40.906  30.556  33.449  1.00  0.00     0.167 HD
ATOM     63  C   UNL A   1      42.664  28.465  32.681  1.00  0.00     0.074 A 
ATOM     64  C   UNL A   1      43.318  27.447  31.883  1.00  0.00     0.031 C 
ATOM     65  C   UNL A   1      43.008  28.776  33.955  1.00  0.00     0.037 A 
BRANCH  52  66
ATOM     66  C   UNL A   1      39.681  33.374  36.414  1.00  0.00     0.064 A 
ATOM     67  C   UNL A   1      40.357  34.601  36.520  1.00  0.00     0.173 A 
ATOM     68  C   UNL A   1      38.768  33.044  37.428  1.00  0.00     0.173 A 
ATOM     69  F   UNL A   1      41.249  34.964  35.588  1.00  0.00    -0.203 F 
ATOM     70  C   UNL A   1      40.158  35.438  37.616  1.00  0.00     0.198 A 
ATOM     71  C   UNL A   1      38.545  33.899  38.503  1.00  0.00     0.198 A 
ATOM     72  F   UNL A   1      38.090  31.886  37.376  1.00  0.00    -0.203 F 
ATOM     73  F   UNL A   1      40.864  36.572  37.728  1.00  0.00    -0.200 F 
ATOM     74  C   UNL A   1      39.249  35.089  38.603  1.00  0.00     0.200 A 
ATOM     75  F   UNL A   1      37.655  33.567  39.448  1.00  0.00    -0.200 F 
ATOM     76  F   UNL A   1      39.057  35.897  39.656  1.00  0.00    -0.200 F 
ENDBRANCH  52  66
BRANCH  53  77
ATOM     77  C   UNL A   1      41.090  27.687  28.315  1.00  0.00     0.064 A 
ATOM     78  C   UNL A   1      40.412  26.466  28.186  1.00  0.00     0.173 A 
ATOM     79  C   UNL A   1      41.963  28.060  27.282  1.00  0.00     0.173 A 
ATOM     80  F   UNL A   1      39.581  26.058  29.157  1.00  0.00    -0.203 F 
ATOM     81  C   UNL A   1      40.613  25.643  27.081  1.00  0.00     0.198 A 
ATOM     82  C   UNL A   1      42.139  27.249  26.161  1.00  0.00     0.198 A 
ATOM     83  F   UNL A   1      42.631  29.220  27.351  1.00  0.00    -0.203 F 
ATOM     84  F   UNL A   1      39.985  24.461  27.007  1.00  0.00    -0.200 F 
ATOM     85  C   UNL A   1      41.471  26.038  26.066  1.00  0.00     0.200 A 
ATOM     86  F   UNL A   1      42.957  27.642  25.175  1.00  0.00    -0.200 F 
ATOM     87  F   UNL A   1      41.659  25.248  25.001  1.00  0.00    -0.200 F 
ENDBRANCH  53  77
BRANCH  65  88
ATOM     88  C   UNL A   1      44.125  27.982  34.574  1.00  0.00     0.064 A 
ATOM     89  C   UNL A   1      45.458  28.416  34.522  1.00  0.00     0.173 A 
ATOM     90  C   UNL A   1      43.854  26.775  35.238  1.00  0.00     0.173 A 
ATOM     91  F   UNL A   1      45.773  29.555  33.887  1.00  0.00    -0.203 F 
ATOM     92  C   UNL A   1      46.482  27.651  35.074  1.00  0.00     0.198 A 
ATOM     93  C   UNL A   1      44.876  26.032  35.822  1.00  0.00     0.198 A 
ATOM     94  F   UNL A   1      42.596  26.317  35.325  1.00  0.00    -0.203 F 
ATOM     95  F   UNL A   1      47.755  28.053  34.952  1.00  0.00    -0.200 F 
ATOM     96  C   UNL A   1      46.190  26.464  35.728  1.00  0.00     0.200 A 
ATOM     97  F   UNL A   1      44.590  24.894  36.468  1.00  0.00    -0.200 F 
ATOM     98  F   UNL A   1      47.178  25.729  36.260  1.00  0.00    -0.200 F 
ENDBRANCH  65  88
ENDBRANCH  39  40
ENDBRANCH  31  34
ENDBRANCH  29  30
ENDBRANCH  28  29
ENDBRANCH  27  28
ENDBRANCH  26  27
ENDBRANCH   1  26
TORSDOF 19
ENDMDL
MODEL 3
REMARK VINA RESULT:     -11.7      1.120      2.687
REMARK SMILES CC[C@](C)(NC(=O)CCOc1ccc(Cl)c(Cl)c1)C(=O)NCCCCCCNC(=O)c1ccc(-c2c3nc(c(-c4c(F)c(F)c(F)c(F)c4F)c4ccc([nH]4)c(-c4c(F)c(F)c(F)c(F)c4F)c4nc(c(-c5c(F)c(F)c(F)c(F)c5F)c5ccc2[nH]5)C=C4)C=C3)cc1
REMARK SMILES IDX 23 1 22 2 21 3 19 4 20 5 3 7 4 8 2 9 1 10 5 11 6 12 7 14
REMARK SMILES IDX 8 15 9 16 10 17 11 18 12 19 18 20 13 21 16 22 14 23 17 24
REMARK SMILES IDX 15 25 24 26 25 27 26 28 27 29 28 30 29 31 30 33 31 34 32 35
REMARK SMILES IDX 93 36 33 37 92 38 34 39 35 40 36 41 86 42 37 43 91 44 85 45
REMARK SMILES IDX 87 46 38 47 90 48 84 49 83 50 39 52 71 53 51 54 70 55 52 56
REMARK SMILES IDX 55 57 69 58 88 59 53 60 54 61 68 63 89 64 56 65 40 66 41 67
REMARK SMILES IDX 49 68 42 69 43 70 47 71 50 72 44 73 45 74 48 75 46 76 72 77
REMARK SMILES IDX 73 78 81 79 74 80 75 81 79 82 82 83 76 84 77 85 80 86 78 87
REMARK SMILES IDX 57 88 58 89 66 90 59 91 60 92 64 93 67 94 61 95 62 96 65 97
REMARK SMILES IDX 63 98
REMARK H PARENT 21 6 5 13 28 32 87 51 55 62
REMARK Flexibility Score: inf
ROOT
ATOM      1  C   UNL A   1      33.200  28.583  25.669  1.00  0.00     0.021 C 
ENDROOT
BRANCH   1   2
ATOM      2  C   UNL A   1      33.099  27.081  25.909  1.00  0.00     0.116 C 
BRANCH   2   3
ATOM      3  N   UNL A   1      33.428  26.296  24.739  1.00  0.00    -0.354 N 
ATOM      4  C   UNL A   1      32.667  25.456  23.987  1.00  0.00     0.245 C 
ATOM      5  O   UNL A   1      33.170  25.051  22.935  1.00  0.00    -0.272 OA
ATOM      6  H   UNL A   1      34.360  26.386  24.435  1.00  0.00     0.163 HD
BRANCH   4   7
ATOM      7  C   UNL A   1      31.200  25.120  24.378  1.00  0.00     0.116 C 
ATOM      8  C   UNL A   1      30.592  24.230  23.293  1.00  0.00     0.045 C 
BRANCH   7   9
ATOM      9  C   UNL A   1      30.425  26.474  24.406  1.00  0.00     0.035 C 
ATOM     10  C   UNL A   1      30.551  27.329  23.147  1.00  0.00     0.007 C 
ENDBRANCH   7   9
BRANCH   7  11
ATOM     11  N   UNL A   1      31.119  24.479  25.713  1.00  0.00    -0.342 N 
ATOM     12  C   UNL A   1      31.703  23.368  26.241  1.00  0.00     0.224 C 
ATOM     13  H   UNL A   1      30.525  24.949  26.342  1.00  0.00     0.164 HD
ATOM     14  O   UNL A   1      31.396  23.069  27.399  1.00  0.00    -0.275 OA
BRANCH  12  15
ATOM     15  C   UNL A   1      32.773  22.587  25.507  1.00  0.00     0.141 C 
BRANCH  15  16
ATOM     16  C   UNL A   1      32.245  21.429  24.660  1.00  0.00     0.239 C 
BRANCH  16  17
ATOM     17  O   UNL A   1      32.051  20.208  25.383  1.00  0.00    -0.493 OA
BRANCH  17  18
ATOM     18  C   UNL A   1      32.850  19.139  25.085  1.00  0.00     0.120 A 
ATOM     19  C   UNL A   1      34.161  19.211  24.627  1.00  0.00     0.048 A 
ATOM     20  C   UNL A   1      32.292  17.887  25.355  1.00  0.00     0.068 A 
ATOM     21  C   UNL A   1      34.969  18.074  24.623  1.00  0.00     0.026 A 
ATOM     22  C   UNL A   1      33.086  16.736  25.318  1.00  0.00     0.063 A 
ATOM     23  C   UNL A   1      34.443  16.838  24.997  1.00  0.00     0.059 A 
ATOM     24  Cl  UNL A   1      32.355  15.237  25.768  1.00  0.00    -0.083 Cl
ATOM     25  Cl  UNL A   1      35.527  15.499  25.086  1.00  0.00    -0.083 Cl
ENDBRANCH  17  18
ENDBRANCH  16  17
ENDBRANCH  15  16
ENDBRANCH  12  15
ENDBRANCH   7  11
ENDBRANCH   4   7
ENDBRANCH   2   3
ENDBRANCH   1   2
BRANCH   1  26
ATOM     26  C   UNL A   1      32.257  29.437  26.517  1.00  0.00     0.002 C 
BRANCH  26  27
ATOM     27  C   UNL A   1      31.508  30.523  25.743  1.00  0.00     0.002 C 
BRANCH  27  28
ATOM     28  C   UNL A   1      31.321  31.836  26.503  1.00  0.00     0.021 C 
BRANCH  28  29
ATOM     29  C   UNL A   1      32.612  32.433  27.039  1.00  0.00     0.116 C 
BRANCH  29  30
ATOM     30  N   UNL A   1      32.443  33.829  27.394  1.00  0.00    -0.352 N 
ATOM     31  C   UNL A   1      33.058  34.527  28.401  1.00  0.00     0.251 C 
ATOM     32  H   UNL A   1      31.807  34.340  26.843  1.00  0.00     0.163 HD
ATOM     33  O   UNL A   1      32.638  35.622  28.751  1.00  0.00    -0.269 OA
BRANCH  31  34
ATOM     34  C   UNL A   1      34.229  33.928  29.071  1.00  0.00     0.039 A 
ATOM     35  C   UNL A   1      34.028  32.887  29.978  1.00  0.00     0.014 A 
ATOM     36  C   UNL A   1      35.521  34.385  28.790  1.00  0.00     0.014 A 
ATOM     37  C   UNL A   1      35.130  32.282  30.581  1.00  0.00     0.010 A 
ATOM     38  C   UNL A   1      36.620  33.724  29.323  1.00  0.00     0.010 A 
ATOM     39  C   UNL A   1      36.435  32.680  30.240  1.00  0.00    -0.014 A 
BRANCH  39  40
ATOM     40  C   UNL A   1      37.611  32.018  30.856  1.00  0.00     0.031 A 
ATOM     41  C   UNL A   1      38.045  32.388  32.246  1.00  0.00     0.074 A 
ATOM     42  C   UNL A   1      38.303  31.107  30.148  1.00  0.00     0.049 A 
ATOM     43  N   UNL A   1      39.029  31.905  32.962  1.00  0.00    -0.248 NA
ATOM     44  C   UNL A   1      37.293  33.463  32.912  1.00  0.00     0.031 C 
ATOM     45  C   UNL A   1      38.008  30.705  28.771  1.00  0.00     0.029 A 
ATOM     46  N   UNL A   1      39.391  30.345  30.491  1.00  0.00    -0.354 N 
ATOM     47  C   UNL A   1      39.020  32.623  34.151  1.00  0.00     0.074 A 
ATOM     48  C   UNL A   1      37.975  33.616  34.036  1.00  0.00     0.031 C 
ATOM     49  C   UNL A   1      38.862  29.737  28.404  1.00  0.00     0.029 A 
ATOM     50  C   UNL A   1      39.786  29.477  29.503  1.00  0.00     0.049 A 
ATOM     51  H   UNL A   1      39.846  30.415  31.361  1.00  0.00     0.167 HD
ATOM     52  C   UNL A   1      39.796  32.452  35.247  1.00  0.00     0.037 A 
ATOM     53  C   UNL A   1      40.776  28.566  29.494  1.00  0.00     0.037 A 
ATOM     54  C   UNL A   1      40.820  31.447  35.360  1.00  0.00     0.049 A 
ATOM     55  C   UNL A   1      41.630  28.401  30.722  1.00  0.00     0.074 A 
ATOM     56  C   UNL A   1      41.612  31.137  36.451  1.00  0.00     0.029 A 
ATOM     57  N   UNL A   1      41.204  30.593  34.334  1.00  0.00    -0.354 N 
ATOM     58  N   UNL A   1      41.553  29.021  31.875  1.00  0.00    -0.248 NA
ATOM     59  C   UNL A   1      42.705  27.403  30.646  1.00  0.00     0.031 C 
ATOM     60  C   UNL A   1      42.517  30.142  36.068  1.00  0.00     0.029 A 
ATOM     61  C   UNL A   1      42.247  29.783  34.757  1.00  0.00     0.049 A 
ATOM     62  H   UNL A   1      40.795  30.566  33.439  1.00  0.00     0.167 HD
ATOM     63  C   UNL A   1      42.547  28.469  32.673  1.00  0.00     0.074 A 
ATOM     64  C   UNL A   1      43.198  27.449  31.875  1.00  0.00     0.031 C 
ATOM     65  C   UNL A   1      42.888  28.776  33.948  1.00  0.00     0.037 A 
BRANCH  52  66
ATOM     66  C   UNL A   1      39.574  33.384  36.405  1.00  0.00     0.064 A 
ATOM     67  C   UNL A   1      40.219  34.629  36.491  1.00  0.00     0.173 A 
ATOM     68  C   UNL A   1      38.693  33.035  37.440  1.00  0.00     0.173 A 
ATOM     69  F   UNL A   1      41.081  35.011  35.538  1.00  0.00    -0.203 F 
ATOM     70  C   UNL A   1      40.023  35.466  37.588  1.00  0.00     0.198 A 
ATOM     71  C   UNL A   1      38.471  33.889  38.516  1.00  0.00     0.198 A 
ATOM     72  F   UNL A   1      38.045  31.860  37.407  1.00  0.00    -0.203 F 
ATOM     73  F   UNL A   1      40.700  36.619  37.679  1.00  0.00    -0.200 F 
ATOM     74  C   UNL A   1      39.144  35.098  38.596  1.00  0.00     0.200 A 
ATOM     75  F   UNL A   1      37.611  33.538  39.482  1.00  0.00    -0.200 F 
ATOM     76  F   UNL A   1      38.955  35.905  39.650  1.00  0.00    -0.200 F 
ENDBRANCH  52  66
BRANCH  53  77
ATOM     77  C   UNL A   1      40.982  27.705  28.300  1.00  0.00     0.064 A 
ATOM     78  C   UNL A   1      40.316  26.477  28.178  1.00  0.00     0.173 A 
ATOM     79  C   UNL A   1      41.843  28.085  27.261  1.00  0.00     0.173 A 
ATOM     80  F   UNL A   1      39.496  26.061  29.155  1.00  0.00    -0.203 F 
ATOM     81  C   UNL A   1      40.517  25.655  27.072  1.00  0.00     0.198 A 
ATOM     82  C   UNL A   1      42.020  27.275  26.140  1.00  0.00     0.198 A 
ATOM     83  F   UNL A   1      42.501  29.252  27.324  1.00  0.00    -0.203 F 
ATOM     84  F   UNL A   1      39.900  24.466  27.003  1.00  0.00    -0.200 F 
ATOM     85  C   UNL A   1      41.363  26.057  26.051  1.00  0.00     0.200 A 
ATOM     86  F   UNL A   1      42.826  27.675  25.147  1.00  0.00    -0.200 F 
ATOM     87  F   UNL A   1      41.552  25.268  24.984  1.00  0.00    -0.200 F 
ENDBRANCH  53  77
BRANCH  65  88
ATOM     88  C   UNL A   1      44.000  27.976  34.569  1.00  0.00     0.064 A 
ATOM     89  C   UNL A   1      43.760  26.760  35.224  1.00  0.00     0.173 A 
ATOM     90  C   UNL A   1      45.327  28.430  34.496  1.00  0.00     0.173 A 
ATOM     91  F   UNL A   1      42.509  26.288  35.335  1.00  0.00    -0.203 F 
ATOM     92  C   UNL A   1      44.799  26.049  35.820  1.00  0.00     0.198 A 
ATOM     93  C   UNL A   1      46.368  27.698  35.060  1.00  0.00     0.198 A 
ATOM     94  F   UNL A   1      45.615  29.583  33.874  1.00  0.00    -0.203 F 
ATOM     95  F   UNL A   1      44.535  24.925  36.499  1.00  0.00    -0.200 F 
ATOM     96  C   UNL A   1      46.102  26.515  35.732  1.00  0.00     0.200 A 
ATOM     97  F   UNL A   1      47.628  28.142  34.960  1.00  0.00    -0.200 F 
ATOM     98  F   UNL A   1      47.101  25.830  36.306  1.00  0.00    -0.200 F 
ENDBRANCH  65  88
ENDBRANCH  39  40
ENDBRANCH  31  34
ENDBRANCH  29  30
ENDBRANCH  28  29
ENDBRANCH  27  28
ENDBRANCH  26  27
ENDBRANCH   1  26
TORSDOF 19
ENDMDL
