MODEL 1
REMARK VINA RESULT:     -11.8      0.000      0.000
REMARK SMILES CC(C)Cc1ccc(S(=O)(=O)Nc2cnc(N3CCCC3)c(C(=O)NCCCCCCNC(=O)c3ccc(-c4c5nc(c(-c6c(F)c(F)c(F)c(F)c6F)c6ccc([nH]6)c(-c6c(F)c(F)c(F)c(F)c6F)c6nc(c(-c7c(F)c(F)c(F)c(F)c7F)c7ccc4[nH]7)C=C6)C=C5)cc3)c2)cc1
REMARK SMILES IDX 27 1 26 2 25 3 23 4 24 5 22 7 13 8 14 9 98 10 15 11 16 12
REMARK SMILES IDX 12 13 9 15 10 16 11 17 8 18 5 19 6 20 100 21 7 22 99 23 4 24
REMARK SMILES IDX 2 25 1 26 3 27 17 28 18 29 21 30 19 31 20 32 28 33 29 34
REMARK SMILES IDX 30 35 31 36 32 37 33 38 34 40 35 41 36 42 97 43 37 44 96 45
REMARK SMILES IDX 38 46 39 47 40 48 90 49 41 50 95 51 89 52 91 53 42 54 94 55
REMARK SMILES IDX 88 56 87 57 43 59 75 60 55 61 74 62 56 63 59 64 73 65 92 66
REMARK SMILES IDX 57 67 58 68 72 70 93 71 60 72 44 73 45 74 53 75 46 76 47 77
REMARK SMILES IDX 51 78 54 79 48 80 49 81 52 82 50 83 76 84 77 85 85 86 78 87
REMARK SMILES IDX 79 88 83 89 86 90 80 91 81 92 84 93 82 94 61 95 62 96 70 97
REMARK SMILES IDX 63 98 64 99 68 100 71 101 65 102 66 103 69 104 67 105
REMARK H PARENT 25 6 12 14 32 39 91 58 59 69
REMARK Flexibility Score: inf
ROOT
ATOM      1  C   UNL A   1      38.953  23.203  26.290  1.00  0.00     0.021 C 
ENDROOT
BRANCH   1   2
ATOM      2  C   UNL A   1      37.501  23.626  26.091  1.00  0.00     0.116 C 
BRANCH   2   3
ATOM      3  N   UNL A   1      37.108  23.380  24.718  1.00  0.00    -0.352 N 
ATOM      4  C   UNL A   1      35.962  23.352  23.971  1.00  0.00     0.255 C 
ATOM      5  O   UNL A   1      36.179  22.998  22.812  1.00  0.00    -0.269 OA
ATOM      6  H   UNL A   1      37.894  23.176  24.161  1.00  0.00     0.163 HD
BRANCH   4   7
ATOM      7  C   UNL A   1      34.602  23.789  24.447  1.00  0.00     0.084 A 
ATOM      8  C   UNL A   1      32.942  25.539  24.425  1.00  0.00     0.068 A 
ATOM      9  C   UNL A   1      31.977  24.568  24.607  1.00  0.00     0.140 A 
ATOM     10  C   UNL A   1      34.269  25.148  24.523  1.00  0.00     0.046 A 
ATOM     11  N   UNL A   1      32.258  23.258  24.712  1.00  0.00    -0.236 NA
ATOM     12  C   UNL A   1      33.553  22.851  24.599  1.00  0.00     0.141 A 
BRANCH   8  13
ATOM     13  N   UNL A   1      32.537  26.831  23.986  1.00  0.00    -0.278 N 
ATOM     14  H   UNL A   1      32.830  27.134  23.096  1.00  0.00     0.180 HD
BRANCH  13  15
ATOM     15  S   UNL A   1      31.584  27.871  24.911  1.00  0.00     0.261 S 
ATOM     16  O   UNL A   1      30.893  27.055  25.897  1.00  0.00    -0.201 OA
ATOM     17  O   UNL A   1      30.849  28.662  23.955  1.00  0.00    -0.201 OA
BRANCH  15  18
ATOM     18  C   UNL A   1      32.603  29.013  25.839  1.00  0.00     0.087 A 
ATOM     19  C   UNL A   1      33.890  30.787  27.618  1.00  0.00    -0.048 A 
ATOM     20  C   UNL A   1      32.668  31.134  27.030  1.00  0.00     0.005 A 
ATOM     21  C   UNL A   1      34.490  29.577  27.246  1.00  0.00     0.005 A 
ATOM     22  C   UNL A   1      32.020  30.248  26.160  1.00  0.00     0.022 A 
ATOM     23  C   UNL A   1      33.867  28.708  26.338  1.00  0.00     0.022 A 
BRANCH  19  24
ATOM     24  C   UNL A   1      34.564  31.702  28.621  1.00  0.00     0.038 C 
BRANCH  24  25
ATOM     25  C   UNL A   1      35.463  32.793  27.999  1.00  0.00    -0.013 C 
ATOM     26  C   UNL A   1      34.802  34.171  28.036  1.00  0.00     0.008 C 
ATOM     27  C   UNL A   1      36.802  32.867  28.738  1.00  0.00     0.008 C 
ENDBRANCH  24  25
ENDBRANCH  19  24
ENDBRANCH  15  18
ENDBRANCH  13  15
ENDBRANCH   8  13
BRANCH  12  28
ATOM     28  N   UNL A   1      33.706  21.499  24.574  1.00  0.00    -0.356 N 
ATOM     29  C   UNL A   1      34.602  20.746  25.430  1.00  0.00     0.118 C 
ATOM     30  C   UNL A   1      32.739  20.633  23.920  1.00  0.00     0.118 C 
ATOM     31  C   UNL A   1      34.696  19.427  24.672  1.00  0.00     0.023 C 
ATOM     32  C   UNL A   1      33.261  19.218  24.197  1.00  0.00     0.023 C 
ENDBRANCH  12  28
ENDBRANCH   4   7
ENDBRANCH   2   3
ENDBRANCH   1   2
BRANCH   1  33
ATOM     33  C   UNL A   1      39.177  21.700  26.063  1.00  0.00     0.002 C 
BRANCH  33  34
ATOM     34  C   UNL A   1      40.530  21.165  26.548  1.00  0.00     0.002 C 
BRANCH  34  35
ATOM     35  C   UNL A   1      40.845  19.726  26.131  1.00  0.00     0.021 C 
BRANCH  35  36
ATOM     36  C   UNL A   1      42.217  19.232  26.572  1.00  0.00     0.116 C 
BRANCH  36  37
ATOM     37  N   UNL A   1      43.071  18.905  25.444  1.00  0.00    -0.352 N 
ATOM     38  C   UNL A   1      43.912  19.723  24.736  1.00  0.00     0.251 C 
ATOM     39  H   UNL A   1      43.042  17.967  25.147  1.00  0.00     0.163 HD
ATOM     40  O   UNL A   1      44.449  19.318  23.709  1.00  0.00    -0.269 OA
BRANCH  38  41
ATOM     41  C   UNL A   1      44.154  21.106  25.196  1.00  0.00     0.039 A 
ATOM     42  C   UNL A   1      43.508  22.151  24.531  1.00  0.00     0.014 A 
ATOM     43  C   UNL A   1      45.031  21.377  26.252  1.00  0.00     0.014 A 
ATOM     44  C   UNL A   1      43.719  23.467  24.944  1.00  0.00     0.010 A 
ATOM     45  C   UNL A   1      45.189  22.683  26.705  1.00  0.00     0.010 A 
ATOM     46  C   UNL A   1      44.551  23.741  26.041  1.00  0.00    -0.014 A 
BRANCH  46  47
ATOM     47  C   UNL A   1      44.793  25.136  26.473  1.00  0.00     0.031 A 
ATOM     48  C   UNL A   1      46.162  25.739  26.332  1.00  0.00     0.074 A 
ATOM     49  C   UNL A   1      43.790  25.850  27.016  1.00  0.00     0.049 A 
ATOM     50  N   UNL A   1      46.573  26.943  26.642  1.00  0.00    -0.248 NA
ATOM     51  C   UNL A   1      47.215  24.864  25.793  1.00  0.00     0.031 C 
ATOM     52  C   UNL A   1      42.432  25.356  27.247  1.00  0.00     0.029 A 
ATOM     53  N   UNL A   1      43.757  27.144  27.468  1.00  0.00    -0.354 N 
ATOM     54  C   UNL A   1      47.930  26.964  26.347  1.00  0.00     0.074 A 
ATOM     55  C   UNL A   1      48.285  25.639  25.887  1.00  0.00     0.031 C 
ATOM     56  C   UNL A   1      41.687  26.348  27.762  1.00  0.00     0.029 A 
ATOM     57  C   UNL A   1      42.521  27.536  27.919  1.00  0.00     0.049 A 
ATOM     58  H   UNL A   1      44.543  27.736  27.468  1.00  0.00     0.167 HD
ATOM     59  C   UNL A   1      48.795  28.003  26.427  1.00  0.00     0.037 A 
ATOM     60  C   UNL A   1      42.108  28.727  28.391  1.00  0.00     0.037 A 
ATOM     61  C   UNL A   1      48.432  29.326  26.859  1.00  0.00     0.049 A 
ATOM     62  C   UNL A   1      43.084  29.869  28.459  1.00  0.00     0.074 A 
ATOM     63  C   UNL A   1      49.218  30.462  26.922  1.00  0.00     0.029 A 
ATOM     64  N   UNL A   1      47.167  29.687  27.301  1.00  0.00    -0.354 N 
ATOM     65  N   UNL A   1      44.347  29.898  28.113  1.00  0.00    -0.248 NA
ATOM     66  C   UNL A   1      42.571  31.146  28.974  1.00  0.00     0.031 C 
ATOM     67  C   UNL A   1      48.437  31.505  27.434  1.00  0.00     0.029 A 
ATOM     68  C   UNL A   1      47.155  31.027  27.653  1.00  0.00     0.049 A 
ATOM     69  H   UNL A   1      46.393  29.082  27.356  1.00  0.00     0.167 HD
ATOM     70  C   UNL A   1      44.776  31.198  28.341  1.00  0.00     0.074 A 
ATOM     71  C   UNL A   1      43.632  31.931  28.848  1.00  0.00     0.031 C 
ATOM     72  C   UNL A   1      46.003  31.738  28.146  1.00  0.00     0.037 A 
BRANCH  59  73
ATOM     73  C   UNL A   1      50.219  27.740  26.031  1.00  0.00     0.064 A 
ATOM     74  C   UNL A   1      51.210  27.480  26.990  1.00  0.00     0.173 A 
ATOM     75  C   UNL A   1      50.597  27.745  24.681  1.00  0.00     0.173 A 
ATOM     76  F   UNL A   1      50.902  27.478  28.296  1.00  0.00    -0.203 F 
ATOM     77  C   UNL A   1      52.534  27.271  26.613  1.00  0.00     0.198 A 
ATOM     78  C   UNL A   1      51.916  27.509  24.306  1.00  0.00     0.198 A 
ATOM     79  F   UNL A   1      49.687  27.984  23.724  1.00  0.00    -0.203 F 
ATOM     80  F   UNL A   1      53.473  27.082  27.550  1.00  0.00    -0.200 F 
ATOM     81  C   UNL A   1      52.886  27.281  25.272  1.00  0.00     0.200 A 
ATOM     82  F   UNL A   1      52.255  27.509  23.009  1.00  0.00    -0.200 F 
ATOM     83  F   UNL A   1      54.161  27.083  24.910  1.00  0.00    -0.200 F 
ENDBRANCH  59  73
BRANCH  60  84
ATOM     84  C   UNL A   1      40.686  28.912  28.772  1.00  0.00     0.064 A 
ATOM     85  C   UNL A   1      40.290  28.813  30.112  1.00  0.00     0.173 A 
ATOM     86  C   UNL A   1      39.706  29.217  27.818  1.00  0.00     0.173 A 
ATOM     87  F   UNL A   1      41.192  28.505  31.056  1.00  0.00    -0.203 F 
ATOM     88  C   UNL A   1      38.960  29.000  30.484  1.00  0.00     0.198 A 
ATOM     89  C   UNL A   1      38.380  29.425  28.195  1.00  0.00     0.198 A 
ATOM     90  F   UNL A   1      40.038  29.328  26.524  1.00  0.00    -0.203 F 
ATOM     91  F   UNL A   1      38.602  28.872  31.769  1.00  0.00    -0.200 F 
ATOM     92  C   UNL A   1      38.008  29.313  29.526  1.00  0.00     0.200 A 
ATOM     93  F   UNL A   1      37.463  29.738  27.268  1.00  0.00    -0.200 F 
ATOM     94  F   UNL A   1      36.731  29.503  29.886  1.00  0.00    -0.200 F 
ENDBRANCH  60  84
BRANCH  72  95
ATOM     95  C   UNL A   1      46.165  33.197  28.451  1.00  0.00     0.064 A 
ATOM     96  C   UNL A   1      46.570  33.641  29.717  1.00  0.00     0.173 A 
ATOM     97  C   UNL A   1      45.952  34.158  27.450  1.00  0.00     0.173 A 
ATOM     98  F   UNL A   1      46.772  32.760  30.709  1.00  0.00    -0.203 F 
ATOM     99  C   UNL A   1      46.737  34.999  29.977  1.00  0.00     0.198 A 
ATOM    100  C   UNL A   1      46.142  35.512  27.708  1.00  0.00     0.198 A 
ATOM    101  F   UNL A   1      45.568  33.781  26.222  1.00  0.00    -0.203 F 
ATOM    102  F   UNL A   1      47.086  35.405  31.205  1.00  0.00    -0.200 F 
ATOM    103  C   UNL A   1      46.529  35.931  28.972  1.00  0.00     0.200 A 
ATOM    104  F   UNL A   1      45.951  36.412  26.733  1.00  0.00    -0.200 F 
ATOM    105  F   UNL A   1      46.694  37.237  29.223  1.00  0.00    -0.200 F 
ENDBRANCH  72  95
ENDBRANCH  46  47
ENDBRANCH  38  41
ENDBRANCH  36  37
ENDBRANCH  35  36
ENDBRANCH  34  35
ENDBRANCH  33  34
ENDBRANCH   1  33
TORSDOF 19
ENDMDL
MODEL 2
REMARK VINA RESULT:     -11.7      0.450      7.069
REMARK SMILES CC(C)Cc1ccc(S(=O)(=O)Nc2cnc(N3CCCC3)c(C(=O)NCCCCCCNC(=O)c3ccc(-c4c5nc(c(-c6c(F)c(F)c(F)c(F)c6F)c6ccc([nH]6)c(-c6c(F)c(F)c(F)c(F)c6F)c6nc(c(-c7c(F)c(F)c(F)c(F)c7F)c7ccc4[nH]7)C=C6)C=C5)cc3)c2)cc1
REMARK SMILES IDX 27 1 26 2 25 3 23 4 24 5 22 7 13 8 14 9 98 10 15 11 16 12
REMARK SMILES IDX 12 13 9 15 10 16 11 17 8 18 5 19 6 20 100 21 7 22 99 23 4 24
REMARK SMILES IDX 2 25 1 26 3 27 17 28 18 29 21 30 19 31 20 32 28 33 29 34
REMARK SMILES IDX 30 35 31 36 32 37 33 38 34 40 35 41 36 42 97 43 37 44 96 45
REMARK SMILES IDX 38 46 39 47 40 48 90 49 41 50 95 51 89 52 91 53 42 54 94 55
REMARK SMILES IDX 88 56 87 57 43 59 75 60 55 61 74 62 56 63 59 64 73 65 92 66
REMARK SMILES IDX 57 67 58 68 72 70 93 71 60 72 44 73 45 74 53 75 46 76 47 77
REMARK SMILES IDX 51 78 54 79 48 80 49 81 52 82 50 83 76 84 77 85 85 86 78 87
REMARK SMILES IDX 79 88 83 89 86 90 80 91 81 92 84 93 82 94 61 95 62 96 70 97
REMARK SMILES IDX 63 98 64 99 68 100 71 101 65 102 66 103 69 104 67 105
REMARK H PARENT 25 6 12 14 32 39 91 58 59 69
REMARK Flexibility Score: inf
ROOT
ATOM      1  C   UNL A   1      38.913  23.301  26.260  1.00  0.00     0.021 C 
ENDROOT
BRANCH   1   2
ATOM      2  C   UNL A   1      37.455  23.703  26.064  1.00  0.00     0.116 C 
BRANCH   2   3
ATOM      3  N   UNL A   1      37.070  23.472  24.686  1.00  0.00    -0.352 N 
ATOM      4  C   UNL A   1      35.927  23.443  23.935  1.00  0.00     0.255 C 
ATOM      5  O   UNL A   1      36.150  23.107  22.772  1.00  0.00    -0.269 OA
ATOM      6  H   UNL A   1      37.859  23.283  24.129  1.00  0.00     0.163 HD
BRANCH   4   7
ATOM      7  C   UNL A   1      34.561  23.860  24.411  1.00  0.00     0.084 A 
ATOM      8  C   UNL A   1      32.869  25.579  24.377  1.00  0.00     0.068 A 
ATOM      9  C   UNL A   1      31.922  24.594  24.573  1.00  0.00     0.140 A 
ATOM     10  C   UNL A   1      34.203  25.214  24.474  1.00  0.00     0.046 A 
ATOM     11  N   UNL A   1      32.228  23.291  24.692  1.00  0.00    -0.236 NA
ATOM     12  C   UNL A   1      33.529  22.906  24.578  1.00  0.00     0.141 A 
BRANCH   8  13
ATOM     13  N   UNL A   1      32.439  26.859  23.925  1.00  0.00    -0.278 N 
ATOM     14  H   UNL A   1      32.699  27.145  23.019  1.00  0.00     0.180 HD
BRANCH  13  15
ATOM     15  S   UNL A   1      31.509  27.911  24.860  1.00  0.00     0.261 S 
ATOM     16  O   UNL A   1      30.807  27.103  25.844  1.00  0.00    -0.201 OA
ATOM     17  O   UNL A   1      30.786  28.722  23.912  1.00  0.00    -0.201 OA
BRANCH  15  18
ATOM     18  C   UNL A   1      32.553  29.028  25.791  1.00  0.00     0.087 A 
ATOM     19  C   UNL A   1      33.881  30.768  27.575  1.00  0.00    -0.048 A 
ATOM     20  C   UNL A   1      32.666  31.143  26.990  1.00  0.00     0.005 A 
ATOM     21  C   UNL A   1      34.454  29.546  27.197  1.00  0.00     0.005 A 
ATOM     22  C   UNL A   1      31.998  30.274  26.118  1.00  0.00     0.022 A 
ATOM     23  C   UNL A   1      33.812  28.695  26.286  1.00  0.00     0.022 A 
BRANCH  19  24
ATOM     24  C   UNL A   1      34.575  31.664  28.581  1.00  0.00     0.038 C 
BRANCH  24  25
ATOM     25  C   UNL A   1      35.578  32.667  27.968  1.00  0.00    -0.013 C 
ATOM     26  C   UNL A   1      35.040  34.097  27.983  1.00  0.00     0.008 C 
ATOM     27  C   UNL A   1      36.904  32.630  28.733  1.00  0.00     0.008 C 
ENDBRANCH  24  25
ENDBRANCH  19  24
ENDBRANCH  15  18
ENDBRANCH  13  15
ENDBRANCH   8  13
BRANCH  12  28
ATOM     28  N   UNL A   1      33.706  21.557  24.567  1.00  0.00    -0.356 N 
ATOM     29  C   UNL A   1      34.593  20.825  25.453  1.00  0.00     0.118 C 
ATOM     30  C   UNL A   1      32.773  20.669  23.894  1.00  0.00     0.118 C 
ATOM     31  C   UNL A   1      34.730  19.503  24.708  1.00  0.00     0.023 C 
ATOM     32  C   UNL A   1      33.312  19.265  24.195  1.00  0.00     0.023 C 
ENDBRANCH  12  28
ENDBRANCH   4   7
ENDBRANCH   2   3
ENDBRANCH   1   2
BRANCH   1  33
ATOM     33  C   UNL A   1      39.158  21.802  26.034  1.00  0.00     0.002 C 
BRANCH  33  34
ATOM     34  C   UNL A   1      40.510  21.282  26.536  1.00  0.00     0.002 C 
BRANCH  34  35
ATOM     35  C   UNL A   1      40.833  19.836  26.151  1.00  0.00     0.021 C 
BRANCH  35  36
ATOM     36  C   UNL A   1      42.200  19.353  26.617  1.00  0.00     0.116 C 
BRANCH  36  37
ATOM     37  N   UNL A   1      43.048  18.954  25.507  1.00  0.00    -0.352 N 
ATOM     38  C   UNL A   1      43.926  19.714  24.779  1.00  0.00     0.251 C 
ATOM     39  H   UNL A   1      42.984  18.009  25.242  1.00  0.00     0.163 HD
ATOM     40  O   UNL A   1      44.453  19.253  23.771  1.00  0.00    -0.269 OA
BRANCH  38  41
ATOM     41  C   UNL A   1      44.220  21.100  25.195  1.00  0.00     0.039 A 
ATOM     42  C   UNL A   1      43.553  22.145  24.551  1.00  0.00     0.014 A 
ATOM     43  C   UNL A   1      45.167  21.375  26.189  1.00  0.00     0.014 A 
ATOM     44  C   UNL A   1      43.812  23.464  24.923  1.00  0.00     0.010 A 
ATOM     45  C   UNL A   1      45.376  22.687  26.604  1.00  0.00     0.010 A 
ATOM     46  C   UNL A   1      44.716  23.743  25.960  1.00  0.00    -0.014 A 
BRANCH  46  47
ATOM     47  C   UNL A   1      45.009  25.142  26.348  1.00  0.00     0.031 A 
ATOM     48  C   UNL A   1      43.922  26.006  26.922  1.00  0.00     0.074 A 
ATOM     49  C   UNL A   1      46.245  25.641  26.158  1.00  0.00     0.049 A 
ATOM     50  N   UNL A   1      43.981  27.248  27.331  1.00  0.00    -0.248 NA
ATOM     51  C   UNL A   1      42.587  25.400  27.030  1.00  0.00     0.031 C 
ATOM     52  C   UNL A   1      47.367  24.913  25.565  1.00  0.00     0.029 A 
ATOM     53  N   UNL A   1      46.762  26.877  26.448  1.00  0.00    -0.354 N 
ATOM     54  C   UNL A   1      42.691  27.573  27.731  1.00  0.00     0.074 A 
ATOM     55  C   UNL A   1      41.861  26.419  27.465  1.00  0.00     0.031 C 
ATOM     56  C   UNL A   1      48.453  25.704  25.571  1.00  0.00     0.029 A 
ATOM     57  C   UNL A   1      48.095  26.998  26.143  1.00  0.00     0.049 A 
ATOM     58  H   UNL A   1      46.230  27.608  26.837  1.00  0.00     0.167 HD
ATOM     59  C   UNL A   1      42.246  28.721  28.294  1.00  0.00     0.037 A 
ATOM     60  C   UNL A   1      48.935  28.034  26.324  1.00  0.00     0.037 A 
ATOM     61  C   UNL A   1      43.081  29.857  28.582  1.00  0.00     0.049 A 
ATOM     62  C   UNL A   1      48.421  29.294  26.962  1.00  0.00     0.074 A 
ATOM     63  C   UNL A   1      42.741  31.045  29.202  1.00  0.00     0.029 A 
ATOM     64  N   UNL A   1      44.430  29.939  28.267  1.00  0.00    -0.354 N 
ATOM     65  N   UNL A   1      47.216  29.567  27.401  1.00  0.00    -0.248 NA
ATOM     66  C   UNL A   1      49.388  30.387  27.140  1.00  0.00     0.031 C 
ATOM     67  C   UNL A   1      43.878  31.862  29.234  1.00  0.00     0.029 A 
ATOM     68  C   UNL A   1      44.934  31.166  28.667  1.00  0.00     0.049 A 
ATOM     69  H   UNL A   1      44.951  29.231  27.825  1.00  0.00     0.167 HD
ATOM     70  C   UNL A   1      47.284  30.848  27.930  1.00  0.00     0.074 A 
ATOM     71  C   UNL A   1      48.652  31.296  27.766  1.00  0.00     0.031 C 
ATOM     72  C   UNL A   1      46.302  31.587  28.503  1.00  0.00     0.037 A 
BRANCH  59  73
ATOM     73  C   UNL A   1      40.787  28.794  28.638  1.00  0.00     0.064 A 
ATOM     74  C   UNL A   1      39.830  29.193  27.692  1.00  0.00     0.173 A 
ATOM     75  C   UNL A   1      40.339  28.460  29.924  1.00  0.00     0.173 A 
ATOM     76  F   UNL A   1      40.210  29.537  26.452  1.00  0.00    -0.203 F 
ATOM     77  C   UNL A   1      38.483  29.290  28.032  1.00  0.00     0.198 A 
ATOM     78  C   UNL A   1      38.989  28.531  30.253  1.00  0.00     0.198 A 
ATOM     79  F   UNL A   1      41.212  28.068  30.864  1.00  0.00    -0.203 F 
ATOM     80  F   UNL A   1      37.596  29.729  27.129  1.00  0.00    -0.200 F 
ATOM     81  C   UNL A   1      38.063  28.955  29.310  1.00  0.00     0.200 A 
ATOM     82  F   UNL A   1      38.580  28.199  31.486  1.00  0.00    -0.200 F 
ATOM     83  F   UNL A   1      36.767  29.052  29.638  1.00  0.00    -0.200 F 
ENDBRANCH  59  73
BRANCH  60  84
ATOM     84  C   UNL A   1      50.364  27.893  25.952  1.00  0.00     0.064 A 
ATOM     85  C   UNL A   1      50.764  27.987  24.612  1.00  0.00     0.173 A 
ATOM     86  C   UNL A   1      51.357  27.691  26.920  1.00  0.00     0.173 A 
ATOM     87  F   UNL A   1      49.846  28.163  23.651  1.00  0.00    -0.203 F 
ATOM     88  C   UNL A   1      52.106  27.872  24.253  1.00  0.00     0.198 A 
ATOM     89  C   UNL A   1      52.700  27.597  26.561  1.00  0.00     0.198 A 
ATOM     90  F   UNL A   1      51.023  27.600  28.216  1.00  0.00    -0.203 F 
ATOM     91  F   UNL A   1      52.458  27.938  22.961  1.00  0.00    -0.200 F 
ATOM     92  C   UNL A   1      53.073  27.685  25.228  1.00  0.00     0.200 A 
ATOM     93  F   UNL A   1      53.635  27.427  27.507  1.00  0.00    -0.200 F 
ATOM     94  F   UNL A   1      54.364  27.584  24.882  1.00  0.00    -0.200 F 
ENDBRANCH  60  84
BRANCH  72  95
ATOM     95  C   UNL A   1      46.680  32.941  29.023  1.00  0.00     0.064 A 
ATOM     96  C   UNL A   1      46.581  34.087  28.223  1.00  0.00     0.173 A 
ATOM     97  C   UNL A   1      47.107  33.096  30.351  1.00  0.00     0.173 A 
ATOM     98  F   UNL A   1      46.192  33.986  26.944  1.00  0.00    -0.203 F 
ATOM     99  C   UNL A   1      46.916  35.341  28.729  1.00  0.00     0.198 A 
ATOM    100  C   UNL A   1      47.418  34.353  30.859  1.00  0.00     0.198 A 
ATOM    101  F   UNL A   1      47.213  32.028  31.156  1.00  0.00    -0.203 F 
ATOM    102  F   UNL A   1      46.852  36.419  27.937  1.00  0.00    -0.200 F 
ATOM    103  C   UNL A   1      47.327  35.473  30.047  1.00  0.00     0.200 A 
ATOM    104  F   UNL A   1      47.806  34.481  32.136  1.00  0.00    -0.200 F 
ATOM    105  F   UNL A   1      47.644  36.681  30.533  1.00  0.00    -0.200 F 
ENDBRANCH  72  95
ENDBRANCH  46  47
ENDBRANCH  38  41
ENDBRANCH  36  37
ENDBRANCH  35  36
ENDBRANCH  34  35
ENDBRANCH  33  34
ENDBRANCH   1  33
TORSDOF 19
ENDMDL
MODEL 3
REMARK VINA RESULT:     -11.3      5.670      9.271
REMARK SMILES CC(C)Cc1ccc(S(=O)(=O)Nc2cnc(N3CCCC3)c(C(=O)NCCCCCCNC(=O)c3ccc(-c4c5nc(c(-c6c(F)c(F)c(F)c(F)c6F)c6ccc([nH]6)c(-c6c(F)c(F)c(F)c(F)c6F)c6nc(c(-c7c(F)c(F)c(F)c(F)c7F)c7ccc4[nH]7)C=C6)C=C5)cc3)c2)cc1
REMARK SMILES IDX 27 1 26 2 25 3 23 4 24 5 22 7 13 8 14 9 98 10 15 11 16 12
REMARK SMILES IDX 12 13 9 15 10 16 11 17 8 18 5 19 6 20 100 21 7 22 99 23 4 24
REMARK SMILES IDX 2 25 1 26 3 27 17 28 18 29 21 30 19 31 20 32 28 33 29 34
REMARK SMILES IDX 30 35 31 36 32 37 33 38 34 40 35 41 36 42 97 43 37 44 96 45
REMARK SMILES IDX 38 46 39 47 40 48 90 49 41 50 95 51 89 52 91 53 42 54 94 55
REMARK SMILES IDX 88 56 87 57 43 59 75 60 55 61 74 62 56 63 59 64 73 65 92 66
REMARK SMILES IDX 57 67 58 68 72 70 93 71 60 72 44 73 45 74 53 75 46 76 47 77
REMARK SMILES IDX 51 78 54 79 48 80 49 81 52 82 50 83 76 84 77 85 85 86 78 87
REMARK SMILES IDX 79 88 83 89 86 90 80 91 81 92 84 93 82 94 61 95 62 96 70 97
REMARK SMILES IDX 63 98 64 99 68 100 71 101 65 102 66 103 69 104 67 105
REMARK H PARENT 25 6 12 14 32 39 91 58 59 69
REMARK Flexibility Score: inf
ROOT
ATOM      1  C   UNL A   1      45.212  23.266  28.475  1.00  0.00     0.021 C 
ENDROOT
BRANCH   1   2
ATOM      2  C   UNL A   1      44.027  23.206  29.434  1.00  0.00     0.116 C 
BRANCH   2   3
ATOM      3  N   UNL A   1      43.087  22.201  28.980  1.00  0.00    -0.352 N 
ATOM      4  C   UNL A   1      42.429  21.862  27.829  1.00  0.00     0.255 C 
ATOM      5  O   UNL A   1      41.651  20.925  28.005  1.00  0.00    -0.269 OA
ATOM      6  H   UNL A   1      42.857  21.582  29.709  1.00  0.00     0.163 HD
BRANCH   4   7
ATOM      7  C   UNL A   1      42.675  22.470  26.474  1.00  0.00     0.084 A 
ATOM      8  C   UNL A   1      43.072  24.502  25.235  1.00  0.00     0.068 A 
ATOM      9  C   UNL A   1      43.760  23.751  24.303  1.00  0.00     0.140 A 
ATOM     10  C   UNL A   1      42.384  23.819  26.227  1.00  0.00     0.046 A 
ATOM     11  N   UNL A   1      43.923  22.421  24.404  1.00  0.00    -0.236 NA
ATOM     12  C   UNL A   1      43.423  21.775  25.493  1.00  0.00     0.141 A 
BRANCH   8  13
ATOM     13  N   UNL A   1      43.240  25.915  25.232  1.00  0.00    -0.278 N 
ATOM     14  H   UNL A   1      44.144  26.277  25.081  1.00  0.00     0.180 HD
BRANCH  13  15
ATOM     15  S   UNL A   1      41.974  27.003  25.475  1.00  0.00     0.261 S 
ATOM     16  O   UNL A   1      40.734  26.260  25.314  1.00  0.00    -0.201 OA
ATOM     17  O   UNL A   1      42.277  28.133  24.631  1.00  0.00    -0.201 OA
BRANCH  15  18
ATOM     18  C   UNL A   1      41.972  27.613  27.157  1.00  0.00     0.087 A 
ATOM     19  C   UNL A   1      41.528  28.647  29.747  1.00  0.00    -0.048 A 
ATOM     20  C   UNL A   1      41.382  29.466  28.622  1.00  0.00     0.005 A 
ATOM     21  C   UNL A   1      41.971  27.330  29.562  1.00  0.00     0.005 A 
ATOM     22  C   UNL A   1      41.585  28.950  27.335  1.00  0.00     0.022 A 
ATOM     23  C   UNL A   1      42.223  26.824  28.278  1.00  0.00     0.022 A 
BRANCH  19  24
ATOM     24  C   UNL A   1      41.236  29.169  31.140  1.00  0.00     0.038 C 
BRANCH  24  25
ATOM     25  C   UNL A   1      40.151  28.384  31.910  1.00  0.00    -0.013 C 
ATOM     26  C   UNL A   1      39.790  29.054  33.235  1.00  0.00     0.008 C 
ATOM     27  C   UNL A   1      38.883  28.253  31.061  1.00  0.00     0.008 C 
ENDBRANCH  24  25
ENDBRANCH  19  24
ENDBRANCH  15  18
ENDBRANCH  13  15
ENDBRANCH   8  13
BRANCH  12  28
ATOM     28  N   UNL A   1      43.772  20.462  25.565  1.00  0.00    -0.356 N 
ATOM     29  C   UNL A   1      42.841  19.350  25.548  1.00  0.00     0.118 C 
ATOM     30  C   UNL A   1      45.136  20.020  25.326  1.00  0.00     0.118 C 
ATOM     31  C   UNL A   1      43.709  18.228  26.104  1.00  0.00     0.023 C 
ATOM     32  C   UNL A   1      45.055  18.492  25.437  1.00  0.00     0.023 C 
ENDBRANCH  12  28
ENDBRANCH   4   7
ENDBRANCH   2   3
ENDBRANCH   1   2
BRANCH   1  33
ATOM     33  C   UNL A   1      45.564  24.698  28.045  1.00  0.00     0.002 C 
BRANCH  33  34
ATOM     34  C   UNL A   1      47.061  25.031  28.062  1.00  0.00     0.002 C 
BRANCH  34  35
ATOM     35  C   UNL A   1      47.842  24.568  26.830  1.00  0.00     0.021 C 
BRANCH  35  36
ATOM     36  C   UNL A   1      47.142  24.841  25.505  1.00  0.00     0.116 C 
BRANCH  36  37
ATOM     37  N   UNL A   1      47.854  25.819  24.701  1.00  0.00    -0.352 N 
ATOM     38  C   UNL A   1      47.860  27.185  24.814  1.00  0.00     0.251 C 
ATOM     39  H   UNL A   1      48.408  25.451  23.975  1.00  0.00     0.163 HD
ATOM     40  O   UNL A   1      48.398  27.874  23.953  1.00  0.00    -0.269 OA
BRANCH  38  41
ATOM     41  C   UNL A   1      47.196  27.831  25.965  1.00  0.00     0.039 A 
ATOM     42  C   UNL A   1      47.989  28.294  27.018  1.00  0.00     0.014 A 
ATOM     43  C   UNL A   1      45.803  27.954  26.023  1.00  0.00     0.014 A 
ATOM     44  C   UNL A   1      47.387  28.907  28.117  1.00  0.00     0.010 A 
ATOM     45  C   UNL A   1      45.210  28.624  27.090  1.00  0.00     0.010 A 
ATOM     46  C   UNL A   1      45.996  29.087  28.155  1.00  0.00    -0.014 A 
BRANCH  46  47
ATOM     47  C   UNL A   1      45.350  29.721  29.327  1.00  0.00     0.031 A 
ATOM     48  C   UNL A   1      44.932  31.163  29.267  1.00  0.00     0.074 A 
ATOM     49  C   UNL A   1      45.163  29.006  30.453  1.00  0.00     0.049 A 
ATOM     50  N   UNL A   1      44.345  31.894  30.180  1.00  0.00    -0.248 NA
ATOM     51  C   UNL A   1      45.238  31.885  28.022  1.00  0.00     0.031 C 
ATOM     52  C   UNL A   1      45.569  27.614  30.645  1.00  0.00     0.029 A 
ATOM     53  N   UNL A   1      44.581  29.354  31.644  1.00  0.00    -0.354 N 
ATOM     54  C   UNL A   1      44.223  33.161  29.625  1.00  0.00     0.074 A 
ATOM     55  C   UNL A   1      44.845  33.115  28.320  1.00  0.00     0.031 C 
ATOM     56  C   UNL A   1      45.189  27.213  31.869  1.00  0.00     0.029 A 
ATOM     57  C   UNL A   1      44.536  28.325  32.552  1.00  0.00     0.049 A 
ATOM     58  H   UNL A   1      44.228  30.253  31.831  1.00  0.00     0.167 HD
ATOM     59  C   UNL A   1      43.621  34.257  30.146  1.00  0.00     0.037 A 
ATOM     60  C   UNL A   1      44.011  28.285  33.791  1.00  0.00     0.037 A 
ATOM     61  C   UNL A   1      42.979  34.291  31.433  1.00  0.00     0.049 A 
ATOM     62  C   UNL A   1      43.337  29.510  34.344  1.00  0.00     0.074 A 
ATOM     63  C   UNL A   1      42.292  35.332  32.030  1.00  0.00     0.029 A 
ATOM     64  N   UNL A   1      42.947  33.226  32.322  1.00  0.00    -0.354 N 
ATOM     65  N   UNL A   1      43.165  30.683  33.784  1.00  0.00    -0.248 NA
ATOM     66  C   UNL A   1      42.775  29.401  35.697  1.00  0.00     0.031 C 
ATOM     67  C   UNL A   1      41.871  34.908  33.296  1.00  0.00     0.029 A 
ATOM     68  C   UNL A   1      42.263  33.590  33.470  1.00  0.00     0.049 A 
ATOM     69  H   UNL A   1      43.349  32.343  32.161  1.00  0.00     0.167 HD
ATOM     70  C   UNL A   1      42.454  31.443  34.702  1.00  0.00     0.074 A 
ATOM     71  C   UNL A   1      42.218  30.594  35.853  1.00  0.00     0.031 C 
ATOM     72  C   UNL A   1      42.031  32.726  34.600  1.00  0.00     0.037 A 
BRANCH  59  73
ATOM     73  C   UNL A   1      43.630  35.505  29.312  1.00  0.00     0.064 A 
ATOM     74  C   UNL A   1      44.702  36.409  29.358  1.00  0.00     0.173 A 
ATOM     75  C   UNL A   1      42.558  35.799  28.457  1.00  0.00     0.173 A 
ATOM     76  F   UNL A   1      45.744  36.180  30.171  1.00  0.00    -0.203 F 
ATOM     77  C   UNL A   1      44.683  37.581  28.606  1.00  0.00     0.198 A 
ATOM     78  C   UNL A   1      42.556  36.957  27.685  1.00  0.00     0.198 A 
ATOM     79  F   UNL A   1      41.511  34.965  28.373  1.00  0.00    -0.203 F 
ATOM     80  F   UNL A   1      45.691  38.457  28.709  1.00  0.00    -0.200 F 
ATOM     81  C   UNL A   1      43.613  37.852  27.767  1.00  0.00     0.200 A 
ATOM     82  F   UNL A   1      41.526  37.215  26.867  1.00  0.00    -0.200 F 
ATOM     83  F   UNL A   1      43.595  38.981  27.045  1.00  0.00    -0.200 F 
ENDBRANCH  59  73
BRANCH  60  84
ATOM     84  C   UNL A   1      44.045  27.018  34.561  1.00  0.00     0.064 A 
ATOM     85  C   UNL A   1      42.923  26.180  34.605  1.00  0.00     0.173 A 
ATOM     86  C   UNL A   1      45.199  26.606  35.243  1.00  0.00     0.173 A 
ATOM     87  F   UNL A   1      41.792  26.543  33.982  1.00  0.00    -0.203 F 
ATOM     88  C   UNL A   1      42.949  24.980  35.313  1.00  0.00     0.198 A 
ATOM     89  C   UNL A   1      45.230  25.395  35.933  1.00  0.00     0.198 A 
ATOM     90  F   UNL A   1      46.299  27.372  35.225  1.00  0.00    -0.203 F 
ATOM     91  F   UNL A   1      41.853  24.210  35.362  1.00  0.00    -0.200 F 
ATOM     92  C   UNL A   1      44.104  24.585  35.970  1.00  0.00     0.200 A 
ATOM     93  F   UNL A   1      46.351  25.010  36.558  1.00  0.00    -0.200 F 
ATOM     94  F   UNL A   1      44.131  23.426  36.642  1.00  0.00    -0.200 F 
ENDBRANCH  60  84
BRANCH  72  95
ATOM     95  C   UNL A   1      41.244  33.281  35.749  1.00  0.00     0.064 A 
ATOM     96  C   UNL A   1      41.872  33.917  36.828  1.00  0.00     0.173 A 
ATOM     97  C   UNL A   1      39.842  33.209  35.748  1.00  0.00     0.173 A 
ATOM     98  F   UNL A   1      43.210  33.997  36.880  1.00  0.00    -0.203 F 
ATOM     99  C   UNL A   1      41.124  34.446  37.878  1.00  0.00     0.198 A 
ATOM    100  C   UNL A   1      39.098  33.759  36.787  1.00  0.00     0.198 A 
ATOM    101  F   UNL A   1      39.197  32.613  34.734  1.00  0.00    -0.203 F 
ATOM    102  F   UNL A   1      41.745  35.016  38.919  1.00  0.00    -0.200 F 
ATOM    103  C   UNL A   1      39.739  34.372  37.852  1.00  0.00     0.200 A 
ATOM    104  F   UNL A   1      37.759  33.696  36.757  1.00  0.00    -0.200 F 
ATOM    105  F   UNL A   1      39.021  34.885  38.861  1.00  0.00    -0.200 F 
ENDBRANCH  72  95
ENDBRANCH  46  47
ENDBRANCH  38  41
ENDBRANCH  36  37
ENDBRANCH  35  36
ENDBRANCH  34  35
ENDBRANCH  33  34
ENDBRANCH   1  33
TORSDOF 19
ENDMDL
