MODEL 1
REMARK VINA RESULT:     -11.5      0.000      0.000
REMARK SMILES CC1(C)[C@H](C#N)C(SCC(=O)NCCCCCCNC(=O)c2ccc(-c3c4nc(c(-c5c(F)c(F)c(F)c(F)c5F)c5ccc([nH]5)c(-c5c(F)c(F)c(F)c(F)c5F)c5nc(c(-c6c(F)c(F)c(F)c(F)c6F)c6ccc3[nH]6)C=C5)C=C4)cc2)=NC(=O)[C@@H]1C#N
REMARK SMILES IDX 15 1 14 2 13 3 12 4 10 5 11 6 9 8 8 9 7 10 1 11 2 12 3 13
REMARK SMILES IDX 4 14 88 15 86 16 85 17 87 18 5 19 6 20 89 21 90 22 16 23
REMARK SMILES IDX 17 24 18 25 19 26 20 27 21 29 22 30 23 31 84 32 24 33 83 34
REMARK SMILES IDX 25 35 26 36 27 37 77 38 28 39 82 40 76 41 78 42 29 43 81 44
REMARK SMILES IDX 75 45 74 46 30 48 62 49 42 50 61 51 43 52 46 53 60 54 79 55
REMARK SMILES IDX 44 56 45 57 59 59 80 60 47 61 31 62 32 63 40 64 33 65 34 66
REMARK SMILES IDX 38 67 41 68 35 69 36 70 39 71 37 72 63 73 64 74 72 75 65 76
REMARK SMILES IDX 66 77 70 78 73 79 67 80 68 81 71 82 69 83 48 84 49 85 57 86
REMARK SMILES IDX 50 87 51 88 55 89 58 90 52 91 53 92 56 93 54 94
REMARK H PARENT 12 7 19 28 78 47 46 58
REMARK Flexibility Score: inf
ROOT
ATOM      1  C   UNL A   1      32.248  29.914  27.105  1.00  0.00     0.002 C 
ENDROOT
BRANCH   1   2
ATOM      2  C   UNL A   1      33.658  29.490  26.667  1.00  0.00     0.021 C 
BRANCH   2   3
ATOM      3  C   UNL A   1      33.670  28.268  25.746  1.00  0.00     0.116 C 
BRANCH   3   4
ATOM      4  N   UNL A   1      33.433  28.673  24.375  1.00  0.00    -0.355 N 
ATOM      5  C   UNL A   1      32.343  28.515  23.574  1.00  0.00     0.230 C 
ATOM      6  O   UNL A   1      32.436  28.933  22.417  1.00  0.00    -0.274 OA
ATOM      7  H   UNL A   1      34.188  29.141  23.950  1.00  0.00     0.163 HD
BRANCH   5   8
ATOM      8  C   UNL A   1      31.030  27.985  24.116  1.00  0.00     0.176 C 
BRANCH   8   9
ATOM      9  S   UNL A   1      30.410  26.484  23.325  1.00  0.00    -0.099 SA
BRANCH   9  10
ATOM     10  C   UNL A   1      31.289  25.171  24.110  1.00  0.00     0.095 C 
ATOM     11  C   UNL A   1      32.139  21.772  23.284  1.00  0.00     0.015 C 
ATOM     12  C   UNL A   1      32.804  23.071  23.838  1.00  0.00     0.012 C 
ATOM     13  C   UNL A   1      34.290  22.969  23.379  1.00  0.00     0.015 C 
ATOM     14  C   UNL A   1      32.065  24.277  23.169  1.00  0.00     0.156 C 
ATOM     15  C   UNL A   1      32.674  23.023  25.398  1.00  0.00     0.191 C 
ATOM     16  C   UNL A   1      31.712  23.984  26.066  1.00  0.00     0.264 C 
ATOM     17  N   UNL A   1      31.158  25.022  25.376  1.00  0.00    -0.209 NA
ATOM     18  O   UNL A   1      31.430  23.812  27.250  1.00  0.00    -0.271 OA
BRANCH  14  19
ATOM     19  C   UNL A   1      32.948  25.113  22.325  1.00  0.00     0.073 C 
ATOM     20  N   UNL A   1      33.652  25.778  21.684  1.00  0.00    -0.198 NA
ENDBRANCH  14  19
BRANCH  15  21
ATOM     21  C   UNL A   1      33.954  23.125  26.122  1.00  0.00     0.076 C 
ATOM     22  N   UNL A   1      34.988  23.161  26.653  1.00  0.00    -0.197 NA
ENDBRANCH  15  21
ENDBRANCH   9  10
ENDBRANCH   8   9
ENDBRANCH   5   8
ENDBRANCH   3   4
ENDBRANCH   2   3
ENDBRANCH   1   2
BRANCH   1  23
ATOM     23  C   UNL A   1      31.568  30.930  26.181  1.00  0.00     0.002 C 
BRANCH  23  24
ATOM     24  C   UNL A   1      31.384  32.321  26.791  1.00  0.00     0.021 C 
BRANCH  24  25
ATOM     25  C   UNL A   1      32.680  32.975  27.252  1.00  0.00     0.116 C 
BRANCH  25  26
ATOM     26  N   UNL A   1      32.480  34.362  27.643  1.00  0.00    -0.352 N 
ATOM     27  C   UNL A   1      33.042  35.068  28.676  1.00  0.00     0.251 C 
ATOM     28  H   UNL A   1      31.846  34.868  27.085  1.00  0.00     0.163 HD
ATOM     29  O   UNL A   1      32.592  36.163  28.992  1.00  0.00    -0.269 OA
BRANCH  27  30
ATOM     30  C   UNL A   1      34.183  34.497  29.421  1.00  0.00     0.039 A 
ATOM     31  C   UNL A   1      33.943  33.885  30.653  1.00  0.00     0.014 A 
ATOM     32  C   UNL A   1      35.484  34.572  28.915  1.00  0.00     0.014 A 
ATOM     33  C   UNL A   1      35.001  33.302  31.351  1.00  0.00     0.010 A 
ATOM     34  C   UNL A   1      36.521  33.912  29.569  1.00  0.00     0.010 A 
ATOM     35  C   UNL A   1      36.293  33.277  30.797  1.00  0.00    -0.014 A 
BRANCH  35  36
ATOM     36  C   UNL A   1      37.405  32.583  31.494  1.00  0.00     0.031 A 
ATOM     37  C   UNL A   1      38.100  31.416  30.852  1.00  0.00     0.074 A 
ATOM     38  C   UNL A   1      37.763  32.983  32.730  1.00  0.00     0.049 A 
ATOM     39  N   UNL A   1      39.074  30.672  31.317  1.00  0.00    -0.248 NA
ATOM     40  C   UNL A   1      37.622  31.010  29.521  1.00  0.00     0.031 C 
ATOM     41  C   UNL A   1      37.129  34.067  33.482  1.00  0.00     0.029 A 
ATOM     42  N   UNL A   1      38.742  32.522  33.574  1.00  0.00    -0.354 N 
ATOM     43  C   UNL A   1      39.324  29.720  30.339  1.00  0.00     0.074 A 
ATOM     44  C   UNL A   1      38.351  29.929  29.289  1.00  0.00     0.031 C 
ATOM     45  C   UNL A   1      37.753  34.207  34.662  1.00  0.00     0.029 A 
ATOM     46  C   UNL A   1      38.798  33.194  34.770  1.00  0.00     0.049 A 
ATOM     47  H   UNL A   1      39.347  31.780  33.343  1.00  0.00     0.167 HD
ATOM     48  C   UNL A   1      40.296  28.775  30.304  1.00  0.00     0.037 A 
ATOM     49  C   UNL A   1      39.593  33.008  35.841  1.00  0.00     0.037 A 
ATOM     50  C   UNL A   1      41.258  28.568  31.355  1.00  0.00     0.049 A 
ATOM     51  C   UNL A   1      40.644  31.932  35.793  1.00  0.00     0.074 A 
ATOM     52  C   UNL A   1      42.304  27.664  31.402  1.00  0.00     0.029 A 
ATOM     53  N   UNL A   1      41.284  29.270  32.553  1.00  0.00    -0.354 N 
ATOM     54  N   UNL A   1      40.918  31.082  34.832  1.00  0.00    -0.248 NA
ATOM     55  C   UNL A   1      41.504  31.798  36.975  1.00  0.00     0.031 C 
ATOM     56  C   UNL A   1      42.921  27.770  32.653  1.00  0.00     0.029 A 
ATOM     57  C   UNL A   1      42.310  28.796  33.359  1.00  0.00     0.049 A 
ATOM     58  H   UNL A   1      40.667  29.997  32.797  1.00  0.00     0.167 HD
ATOM     59  C   UNL A   1      41.995  30.331  35.282  1.00  0.00     0.074 A 
ATOM     60  C   UNL A   1      42.340  30.843  36.592  1.00  0.00     0.031 C 
ATOM     61  C   UNL A   1      42.639  29.309  34.666  1.00  0.00     0.037 A 
BRANCH  48  62
ATOM     62  C   UNL A   1      40.357  27.891  29.088  1.00  0.00     0.064 A 
ATOM     63  C   UNL A   1      41.131  28.230  27.967  1.00  0.00     0.173 A 
ATOM     64  C   UNL A   1      39.649  26.680  29.050  1.00  0.00     0.173 A 
ATOM     65  F   UNL A   1      41.821  29.380  27.944  1.00  0.00    -0.203 F 
ATOM     66  C   UNL A   1      41.158  27.414  26.839  1.00  0.00     0.198 A 
ATOM     67  C   UNL A   1      39.711  25.846  27.935  1.00  0.00     0.198 A 
ATOM     68  F   UNL A   1      38.898  26.300  30.095  1.00  0.00    -0.203 F 
ATOM     69  F   UNL A   1      41.849  27.794  25.756  1.00  0.00    -0.200 F 
ATOM     70  C   UNL A   1      40.454  26.219  26.826  1.00  0.00     0.200 A 
ATOM     71  F   UNL A   1      39.043  24.684  27.932  1.00  0.00    -0.200 F 
ATOM     72  F   UNL A   1      40.485  25.434  25.741  1.00  0.00    -0.200 F 
ENDBRANCH  48  62
BRANCH  49  73
ATOM     73  C   UNL A   1      39.426  33.866  37.043  1.00  0.00     0.064 A 
ATOM     74  C   UNL A   1      38.702  33.423  38.160  1.00  0.00     0.173 A 
ATOM     75  C   UNL A   1      39.990  35.150  37.102  1.00  0.00     0.173 A 
ATOM     76  F   UNL A   1      38.128  32.211  38.148  1.00  0.00    -0.203 F 
ATOM     77  C   UNL A   1      38.530  34.239  39.277  1.00  0.00     0.198 A 
ATOM     78  C   UNL A   1      39.848  35.949  38.233  1.00  0.00     0.198 A 
ATOM     79  F   UNL A   1      40.699  35.620  36.064  1.00  0.00    -0.203 F 
ATOM     80  F   UNL A   1      37.791  33.810  40.308  1.00  0.00    -0.200 F 
ATOM     81  C   UNL A   1      39.109  35.498  39.316  1.00  0.00     0.200 A 
ATOM     82  F   UNL A   1      40.428  37.156  38.274  1.00  0.00    -0.200 F 
ATOM     83  F   UNL A   1      38.952  36.278  40.393  1.00  0.00    -0.200 F 
ENDBRANCH  49  73
BRANCH  61  84
ATOM     84  C   UNL A   1      43.807  28.696  35.390  1.00  0.00     0.064 A 
ATOM     85  C   UNL A   1      45.121  29.151  35.197  1.00  0.00     0.173 A 
ATOM     86  C   UNL A   1      43.606  27.652  36.306  1.00  0.00     0.173 A 
ATOM     87  F   UNL A   1      45.373  30.139  34.324  1.00  0.00    -0.203 F 
ATOM     88  C   UNL A   1      46.191  28.555  35.860  1.00  0.00     0.198 A 
ATOM     89  C   UNL A   1      44.674  27.086  36.998  1.00  0.00     0.198 A 
ATOM     90  F   UNL A   1      42.371  27.183  36.538  1.00  0.00    -0.203 F 
ATOM     91  F   UNL A   1      47.444  28.961  35.607  1.00  0.00    -0.200 F 
ATOM     92  C   UNL A   1      45.966  27.530  36.765  1.00  0.00     0.200 A 
ATOM     93  F   UNL A   1      44.450  26.109  37.887  1.00  0.00    -0.200 F 
ATOM     94  F   UNL A   1      46.997  26.960  37.406  1.00  0.00    -0.200 F 
ENDBRANCH  61  84
ENDBRANCH  35  36
ENDBRANCH  27  30
ENDBRANCH  25  26
ENDBRANCH  24  25
ENDBRANCH  23  24
ENDBRANCH   1  23
TORSDOF 17
ENDMDL
MODEL 2
REMARK VINA RESULT:     -11.4      5.685     11.278
REMARK SMILES CC1(C)[C@H](C#N)C(SCC(=O)NCCCCCCNC(=O)c2ccc(-c3c4nc(c(-c5c(F)c(F)c(F)c(F)c5F)c5ccc([nH]5)c(-c5c(F)c(F)c(F)c(F)c5F)c5nc(c(-c6c(F)c(F)c(F)c(F)c6F)c6ccc3[nH]6)C=C5)C=C4)cc2)=NC(=O)[C@@H]1C#N
REMARK SMILES IDX 15 1 14 2 13 3 12 4 10 5 11 6 9 8 8 9 7 10 1 11 2 12 3 13
REMARK SMILES IDX 4 14 88 15 86 16 85 17 87 18 5 19 6 20 89 21 90 22 16 23
REMARK SMILES IDX 17 24 18 25 19 26 20 27 21 29 22 30 23 31 84 32 24 33 83 34
REMARK SMILES IDX 25 35 26 36 27 37 77 38 28 39 82 40 76 41 78 42 29 43 81 44
REMARK SMILES IDX 75 45 74 46 30 48 62 49 42 50 61 51 43 52 46 53 60 54 79 55
REMARK SMILES IDX 44 56 45 57 59 59 80 60 47 61 31 62 32 63 40 64 33 65 34 66
REMARK SMILES IDX 38 67 41 68 35 69 36 70 39 71 37 72 63 73 64 74 72 75 65 76
REMARK SMILES IDX 66 77 70 78 73 79 67 80 68 81 71 82 69 83 48 84 49 85 57 86
REMARK SMILES IDX 50 87 51 88 55 89 58 90 52 91 53 92 56 93 54 94
REMARK H PARENT 12 7 19 28 78 47 46 58
REMARK Flexibility Score: inf
ROOT
ATOM      1  C   UNL A   1      37.287  21.874  24.443  1.00  0.00     0.002 C 
ENDROOT
BRANCH   1   2
ATOM      2  C   UNL A   1      37.217  22.987  25.500  1.00  0.00     0.021 C 
BRANCH   2   3
ATOM      3  C   UNL A   1      35.828  23.615  25.633  1.00  0.00     0.116 C 
BRANCH   3   4
ATOM      4  N   UNL A   1      34.996  22.812  26.506  1.00  0.00    -0.355 N 
ATOM      5  C   UNL A   1      33.961  21.973  26.227  1.00  0.00     0.230 C 
ATOM      6  O   UNL A   1      33.401  21.440  27.189  1.00  0.00    -0.274 OA
ATOM      7  H   UNL A   1      35.217  22.886  27.463  1.00  0.00     0.163 HD
BRANCH   5   8
ATOM      8  C   UNL A   1      33.605  21.597  24.803  1.00  0.00     0.176 C 
BRANCH   8   9
ATOM      9  S   UNL A   1      31.939  22.050  24.270  1.00  0.00    -0.099 SA
BRANCH   9  10
ATOM     10  C   UNL A   1      32.039  23.775  23.914  1.00  0.00     0.095 C 
ATOM     11  C   UNL A   1      29.705  26.507  23.680  1.00  0.00     0.015 C 
ATOM     12  C   UNL A   1      31.082  26.162  24.327  1.00  0.00     0.012 C 
ATOM     13  C   UNL A   1      31.139  27.048  25.608  1.00  0.00     0.015 C 
ATOM     14  C   UNL A   1      31.052  24.636  24.672  1.00  0.00     0.156 C 
ATOM     15  C   UNL A   1      32.188  26.566  23.294  1.00  0.00     0.191 C 
ATOM     16  C   UNL A   1      32.951  25.460  22.594  1.00  0.00     0.264 C 
ATOM     17  N   UNL A   1      32.863  24.164  23.015  1.00  0.00    -0.209 NA
ATOM     18  O   UNL A   1      33.654  25.746  21.627  1.00  0.00    -0.271 OA
BRANCH  14  19
ATOM     19  C   UNL A   1      31.177  24.356  26.119  1.00  0.00     0.073 C 
ATOM     20  N   UNL A   1      31.288  24.116  27.251  1.00  0.00    -0.198 NA
ENDBRANCH  14  19
BRANCH  15  21
ATOM     21  C   UNL A   1      33.188  27.517  23.809  1.00  0.00     0.076 C 
ATOM     22  N   UNL A   1      34.023  28.224  24.205  1.00  0.00    -0.197 NA
ENDBRANCH  15  21
ENDBRANCH   9  10
ENDBRANCH   8   9
ENDBRANCH   5   8
ENDBRANCH   3   4
ENDBRANCH   2   3
ENDBRANCH   1   2
BRANCH   1  23
ATOM     23  C   UNL A   1      36.995  20.466  24.973  1.00  0.00     0.002 C 
BRANCH  23  24
ATOM     24  C   UNL A   1      38.206  19.533  25.001  1.00  0.00     0.021 C 
BRANCH  24  25
ATOM     25  C   UNL A   1      39.349  20.022  25.881  1.00  0.00     0.116 C 
BRANCH  25  26
ATOM     26  N   UNL A   1      40.405  19.029  26.003  1.00  0.00    -0.352 N 
ATOM     27  C   UNL A   1      41.760  19.204  26.124  1.00  0.00     0.251 C 
ATOM     28  H   UNL A   1      40.102  18.091  25.998  1.00  0.00     0.163 HD
ATOM     29  O   UNL A   1      42.520  18.251  25.992  1.00  0.00    -0.269 OA
BRANCH  27  30
ATOM     30  C   UNL A   1      42.306  20.551  26.393  1.00  0.00     0.039 A 
ATOM     31  C   UNL A   1      42.757  21.321  25.319  1.00  0.00     0.014 A 
ATOM     32  C   UNL A   1      42.383  21.049  27.697  1.00  0.00     0.014 A 
ATOM     33  C   UNL A   1      43.235  22.611  25.549  1.00  0.00     0.010 A 
ATOM     34  C   UNL A   1      42.775  22.367  27.913  1.00  0.00     0.010 A 
ATOM     35  C   UNL A   1      43.213  23.159  26.844  1.00  0.00    -0.014 A 
BRANCH  35  36
ATOM     36  C   UNL A   1      43.640  24.562  27.081  1.00  0.00     0.031 A 
ATOM     37  C   UNL A   1      42.655  25.588  27.567  1.00  0.00     0.074 A 
ATOM     38  C   UNL A   1      44.912  24.919  26.820  1.00  0.00     0.049 A 
ATOM     39  N   UNL A   1      42.839  26.863  27.808  1.00  0.00    -0.248 NA
ATOM     40  C   UNL A   1      41.274  25.131  27.785  1.00  0.00     0.031 C 
ATOM     41  C   UNL A   1      45.947  24.028  26.294  1.00  0.00     0.029 A 
ATOM     42  N   UNL A   1      45.550  26.126  26.956  1.00  0.00    -0.354 N 
ATOM     43  C   UNL A   1      41.603  27.354  28.208  1.00  0.00     0.074 A 
ATOM     44  C   UNL A   1      40.662  26.261  28.103  1.00  0.00     0.031 C 
ATOM     45  C   UNL A   1      47.097  24.710  26.179  1.00  0.00     0.029 A 
ATOM     46  C   UNL A   1      46.870  26.095  26.577  1.00  0.00     0.049 A 
ATOM     47  H   UNL A   1      45.105  26.937  27.293  1.00  0.00     0.167 HD
ATOM     48  C   UNL A   1      41.288  28.596  28.651  1.00  0.00     0.037 A 
ATOM     49  C   UNL A   1      47.792  27.077  26.542  1.00  0.00     0.037 A 
ATOM     50  C   UNL A   1      42.229  29.682  28.748  1.00  0.00     0.049 A 
ATOM     51  C   UNL A   1      47.411  28.455  27.008  1.00  0.00     0.074 A 
ATOM     52  C   UNL A   1      42.020  30.967  29.217  1.00  0.00     0.029 A 
ATOM     53  N   UNL A   1      43.560  29.613  28.355  1.00  0.00    -0.354 N 
ATOM     54  N   UNL A   1      46.256  28.891  27.451  1.00  0.00    -0.248 NA
ATOM     55  C   UNL A   1      48.467  29.476  26.979  1.00  0.00     0.031 C 
ATOM     56  C   UNL A   1      43.202  31.695  29.046  1.00  0.00     0.029 A 
ATOM     57  C   UNL A   1      44.174  30.843  28.543  1.00  0.00     0.049 A 
ATOM     58  H   UNL A   1      44.002  28.811  27.996  1.00  0.00     0.167 HD
ATOM     59  C   UNL A   1      46.452  30.226  27.777  1.00  0.00     0.074 A 
ATOM     60  C   UNL A   1      47.843  30.521  27.504  1.00  0.00     0.031 C 
ATOM     61  C   UNL A   1      45.559  31.127  28.259  1.00  0.00     0.037 A 
BRANCH  48  62
ATOM     62  C   UNL A   1      39.861  28.843  29.058  1.00  0.00     0.064 A 
ATOM     63  C   UNL A   1      39.424  28.643  30.377  1.00  0.00     0.173 A 
ATOM     64  C   UNL A   1      38.921  29.303  28.123  1.00  0.00     0.173 A 
ATOM     65  F   UNL A   1      40.277  28.195  31.311  1.00  0.00    -0.203 F 
ATOM     66  C   UNL A   1      38.094  28.852  30.734  1.00  0.00     0.198 A 
ATOM     67  C   UNL A   1      37.600  29.550  28.493  1.00  0.00     0.198 A 
ATOM     68  F   UNL A   1      39.282  29.519  26.849  1.00  0.00    -0.203 F 
ATOM     69  F   UNL A   1      37.688  28.587  31.983  1.00  0.00    -0.200 F 
ATOM     70  C   UNL A   1      37.185  29.312  29.794  1.00  0.00     0.200 A 
ATOM     71  F   UNL A   1      36.727  30.011  27.587  1.00  0.00    -0.200 F 
ATOM     72  F   UNL A   1      35.907  29.515  30.140  1.00  0.00    -0.200 F 
ENDBRANCH  48  62
BRANCH  49  73
ATOM     73  C   UNL A   1      49.165  26.782  26.052  1.00  0.00     0.064 A 
ATOM     74  C   UNL A   1      49.523  27.001  24.713  1.00  0.00     0.173 A 
ATOM     75  C   UNL A   1      50.150  26.279  26.914  1.00  0.00     0.173 A 
ATOM     76  F   UNL A   1      48.613  27.465  23.844  1.00  0.00    -0.203 F 
ATOM     77  C   UNL A   1      50.805  26.704  24.253  1.00  0.00     0.198 A 
ATOM     78  C   UNL A   1      51.441  26.017  26.462  1.00  0.00     0.198 A 
ATOM     79  F   UNL A   1      49.863  26.059  28.207  1.00  0.00    -0.203 F 
ATOM     80  F   UNL A   1      51.104  26.873  22.959  1.00  0.00    -0.200 F 
ATOM     81  C   UNL A   1      51.764  26.220  25.128  1.00  0.00     0.200 A 
ATOM     82  F   UNL A   1      52.370  25.570  27.316  1.00  0.00    -0.200 F 
ATOM     83  F   UNL A   1      52.999  25.944  24.688  1.00  0.00    -0.200 F 
ENDBRANCH  49  73
BRANCH  61  84
ATOM     84  C   UNL A   1      46.070  32.511  28.554  1.00  0.00     0.064 A 
ATOM     85  C   UNL A   1      46.633  32.846  29.794  1.00  0.00     0.173 A 
ATOM     86  C   UNL A   1      46.012  33.512  27.572  1.00  0.00     0.173 A 
ATOM     87  F   UNL A   1      46.703  31.931  30.774  1.00  0.00    -0.203 F 
ATOM     88  C   UNL A   1      47.079  34.140  30.055  1.00  0.00     0.198 A 
ATOM     89  C   UNL A   1      46.497  34.794  27.821  1.00  0.00     0.198 A 
ATOM     90  F   UNL A   1      45.493  33.247  26.363  1.00  0.00    -0.203 F 
ATOM     91  F   UNL A   1      47.550  34.453  31.271  1.00  0.00    -0.200 F 
ATOM     92  C   UNL A   1      47.018  35.109  29.066  1.00  0.00     0.200 A 
ATOM     93  F   UNL A   1      46.455  35.723  26.857  1.00  0.00    -0.200 F 
ATOM     94  F   UNL A   1      47.452  36.353  29.316  1.00  0.00    -0.200 F 
ENDBRANCH  61  84
ENDBRANCH  35  36
ENDBRANCH  27  30
ENDBRANCH  25  26
ENDBRANCH  24  25
ENDBRANCH  23  24
ENDBRANCH   1  23
TORSDOF 17
ENDMDL
MODEL 3
REMARK VINA RESULT:     -11.3      5.538     10.074
REMARK SMILES CC1(C)[C@H](C#N)C(SCC(=O)NCCCCCCNC(=O)c2ccc(-c3c4nc(c(-c5c(F)c(F)c(F)c(F)c5F)c5ccc([nH]5)c(-c5c(F)c(F)c(F)c(F)c5F)c5nc(c(-c6c(F)c(F)c(F)c(F)c6F)c6ccc3[nH]6)C=C5)C=C4)cc2)=NC(=O)[C@@H]1C#N
REMARK SMILES IDX 15 1 14 2 13 3 12 4 10 5 11 6 9 8 8 9 7 10 1 11 2 12 3 13
REMARK SMILES IDX 4 14 88 15 86 16 85 17 87 18 5 19 6 20 89 21 90 22 16 23
REMARK SMILES IDX 17 24 18 25 19 26 20 27 21 29 22 30 23 31 84 32 24 33 83 34
REMARK SMILES IDX 25 35 26 36 27 37 77 38 28 39 82 40 76 41 78 42 29 43 81 44
REMARK SMILES IDX 75 45 74 46 30 48 62 49 42 50 61 51 43 52 46 53 60 54 79 55
REMARK SMILES IDX 44 56 45 57 59 59 80 60 47 61 31 62 32 63 40 64 33 65 34 66
REMARK SMILES IDX 38 67 41 68 35 69 36 70 39 71 37 72 63 73 64 74 72 75 65 76
REMARK SMILES IDX 66 77 70 78 73 79 67 80 68 81 71 82 69 83 48 84 49 85 57 86
REMARK SMILES IDX 50 87 51 88 55 89 58 90 52 91 53 92 56 93 54 94
REMARK H PARENT 12 7 19 28 78 47 46 58
REMARK Flexibility Score: inf
ROOT
ATOM      1  C   UNL A   1      37.206  21.871  24.305  1.00  0.00     0.002 C 
ENDROOT
BRANCH   1   2
ATOM      2  C   UNL A   1      37.257  22.996  25.351  1.00  0.00     0.021 C 
BRANCH   2   3
ATOM      3  C   UNL A   1      35.885  23.590  25.676  1.00  0.00     0.116 C 
BRANCH   3   4
ATOM      4  N   UNL A   1      35.144  22.696  26.541  1.00  0.00    -0.355 N 
ATOM      5  C   UNL A   1      34.140  21.816  26.267  1.00  0.00     0.230 C 
ATOM      6  O   UNL A   1      33.661  21.202  27.223  1.00  0.00    -0.274 OA
ATOM      7  H   UNL A   1      35.411  22.729  27.489  1.00  0.00     0.163 HD
BRANCH   5   8
ATOM      8  C   UNL A   1      33.730  21.500  24.843  1.00  0.00     0.176 C 
BRANCH   8   9
ATOM      9  S   UNL A   1      32.036  21.948  24.402  1.00  0.00    -0.099 SA
BRANCH   9  10
ATOM     10  C   UNL A   1      32.116  23.668  24.016  1.00  0.00     0.095 C 
ATOM     11  C   UNL A   1      29.758  26.377  23.778  1.00  0.00     0.015 C 
ATOM     12  C   UNL A   1      31.149  26.054  24.405  1.00  0.00     0.012 C 
ATOM     13  C   UNL A   1      31.222  26.962  25.670  1.00  0.00     0.015 C 
ATOM     14  C   UNL A   1      31.136  24.534  24.776  1.00  0.00     0.156 C 
ATOM     15  C   UNL A   1      32.233  26.448  23.346  1.00  0.00     0.191 C 
ATOM     16  C   UNL A   1      32.992  25.336  22.650  1.00  0.00     0.264 C 
ATOM     17  N   UNL A   1      32.922  24.047  23.095  1.00  0.00    -0.209 NA
ATOM     18  O   UNL A   1      33.675  25.610  21.666  1.00  0.00    -0.271 OA
BRANCH  14  19
ATOM     19  C   UNL A   1      31.290  24.280  26.226  1.00  0.00     0.073 C 
ATOM     20  N   UNL A   1      31.400  24.058  27.361  1.00  0.00    -0.198 NA
ENDBRANCH  14  19
BRANCH  15  21
ATOM     21  C   UNL A   1      33.235  27.416  23.825  1.00  0.00     0.076 C 
ATOM     22  N   UNL A   1      34.024  28.207  24.146  1.00  0.00    -0.197 NA
ENDBRANCH  15  21
ENDBRANCH   9  10
ENDBRANCH   8   9
ENDBRANCH   5   8
ENDBRANCH   3   4
ENDBRANCH   2   3
ENDBRANCH   1   2
BRANCH   1  23
ATOM     23  C   UNL A   1      37.275  20.454  24.884  1.00  0.00     0.002 C 
BRANCH  23  24
ATOM     24  C   UNL A   1      38.645  19.784  24.764  1.00  0.00     0.021 C 
BRANCH  24  25
ATOM     25  C   UNL A   1      39.490  19.863  26.029  1.00  0.00     0.116 C 
BRANCH  25  26
ATOM     26  N   UNL A   1      40.614  18.941  25.990  1.00  0.00    -0.352 N 
ATOM     27  C   UNL A   1      41.959  19.200  26.065  1.00  0.00     0.251 C 
ATOM     28  H   UNL A   1      40.375  17.990  25.896  1.00  0.00     0.163 HD
ATOM     29  O   UNL A   1      42.772  18.323  25.794  1.00  0.00    -0.269 OA
BRANCH  27  30
ATOM     30  C   UNL A   1      42.429  20.546  26.455  1.00  0.00     0.039 A 
ATOM     31  C   UNL A   1      42.887  21.412  25.461  1.00  0.00     0.014 A 
ATOM     32  C   UNL A   1      42.428  20.949  27.793  1.00  0.00     0.014 A 
ATOM     33  C   UNL A   1      43.293  22.702  25.804  1.00  0.00     0.010 A 
ATOM     34  C   UNL A   1      42.748  22.263  28.121  1.00  0.00     0.010 A 
ATOM     35  C   UNL A   1      43.191  23.152  27.132  1.00  0.00    -0.014 A 
BRANCH  35  36
ATOM     36  C   UNL A   1      43.541  24.550  27.489  1.00  0.00     0.031 A 
ATOM     37  C   UNL A   1      44.976  24.994  27.526  1.00  0.00     0.074 A 
ATOM     38  C   UNL A   1      42.560  25.413  27.820  1.00  0.00     0.049 A 
ATOM     39  N   UNL A   1      45.473  26.166  27.836  1.00  0.00    -0.248 NA
ATOM     40  C   UNL A   1      45.991  23.983  27.196  1.00  0.00     0.031 C 
ATOM     41  C   UNL A   1      41.134  25.087  27.874  1.00  0.00     0.029 A 
ATOM     42  N   UNL A   1      42.612  26.736  28.177  1.00  0.00    -0.354 N 
ATOM     43  C   UNL A   1      46.851  26.032  27.736  1.00  0.00     0.074 A 
ATOM     44  C   UNL A   1      47.116  24.647  27.413  1.00  0.00     0.031 C 
ATOM     45  C   UNL A   1      40.445  26.187  28.216  1.00  0.00     0.029 A 
ATOM     46  C   UNL A   1      41.381  27.281  28.449  1.00  0.00     0.049 A 
ATOM     47  H   UNL A   1      43.452  27.247  28.234  1.00  0.00     0.167 HD
ATOM     48  C   UNL A   1      47.807  26.983  27.873  1.00  0.00     0.037 A 
ATOM     49  C   UNL A   1      41.045  28.521  28.854  1.00  0.00     0.037 A 
ATOM     50  C   UNL A   1      47.537  28.359  28.201  1.00  0.00     0.049 A 
ATOM     51  C   UNL A   1      42.126  29.552  29.030  1.00  0.00     0.074 A 
ATOM     52  C   UNL A   1      48.430  29.408  28.327  1.00  0.00     0.029 A 
ATOM     53  N   UNL A   1      46.276  28.875  28.469  1.00  0.00    -0.354 N 
ATOM     54  N   UNL A   1      43.422  29.431  28.863  1.00  0.00    -0.248 NA
ATOM     55  C   UNL A   1      41.696  30.895  29.439  1.00  0.00     0.031 C 
ATOM     56  C   UNL A   1      47.720  30.542  28.737  1.00  0.00     0.029 A 
ATOM     57  C   UNL A   1      46.373  30.221  28.790  1.00  0.00     0.049 A 
ATOM     58  H   UNL A   1      45.436  28.362  28.436  1.00  0.00     0.167 HD
ATOM     59  C   UNL A   1      43.958  30.685  29.122  1.00  0.00     0.074 A 
ATOM     60  C   UNL A   1      42.844  31.558  29.433  1.00  0.00     0.031 C 
ATOM     61  C   UNL A   1      45.256  31.078  29.105  1.00  0.00     0.037 A 
BRANCH  48  62
ATOM     62  C   UNL A   1      49.237  26.559  27.672  1.00  0.00     0.064 A 
ATOM     63  C   UNL A   1      50.086  26.287  28.756  1.00  0.00     0.173 A 
ATOM     64  C   UNL A   1      49.760  26.404  26.379  1.00  0.00     0.173 A 
ATOM     65  F   UNL A   1      49.642  26.427  30.015  1.00  0.00    -0.203 F 
ATOM     66  C   UNL A   1      51.414  25.919  28.555  1.00  0.00     0.198 A 
ATOM     67  C   UNL A   1      51.079  25.997  26.181  1.00  0.00     0.198 A 
ATOM     68  F   UNL A   1      48.994  26.643  25.304  1.00  0.00    -0.203 F 
ATOM     69  F   UNL A   1      52.222  25.733  29.608  1.00  0.00    -0.200 F 
ATOM     70  C   UNL A   1      51.908  25.768  27.268  1.00  0.00     0.200 A 
ATOM     71  F   UNL A   1      51.548  25.835  24.937  1.00  0.00    -0.200 F 
ATOM     72  F   UNL A   1      53.184  25.411  27.077  1.00  0.00    -0.200 F 
ENDBRANCH  48  62
BRANCH  49  73
ATOM     73  C   UNL A   1      39.618  28.851  29.112  1.00  0.00     0.064 A 
ATOM     74  C   UNL A   1      38.783  29.325  28.090  1.00  0.00     0.173 A 
ATOM     75  C   UNL A   1      39.058  28.695  30.389  1.00  0.00     0.173 A 
ATOM     76  F   UNL A   1      39.274  29.508  26.855  1.00  0.00    -0.203 F 
ATOM     77  C   UNL A   1      37.452  29.653  28.342  1.00  0.00     0.198 A 
ATOM     78  C   UNL A   1      37.718  28.988  30.631  1.00  0.00     0.198 A 
ATOM     79  F   UNL A   1      39.811  28.237  31.402  1.00  0.00    -0.203 F 
ATOM     80  F   UNL A   1      36.691  30.152  27.359  1.00  0.00    -0.200 F 
ATOM     81  C   UNL A   1      36.918  29.477  29.609  1.00  0.00     0.200 A 
ATOM     82  F   UNL A   1      37.203  28.796  31.852  1.00  0.00    -0.200 F 
ATOM     83  F   UNL A   1      35.636  29.782  29.848  1.00  0.00    -0.200 F 
ENDBRANCH  49  73
BRANCH  61  84
ATOM     84  C   UNL A   1      45.540  32.526  29.400  1.00  0.00     0.064 A 
ATOM     85  C   UNL A   1      45.832  32.977  30.696  1.00  0.00     0.173 A 
ATOM     86  C   UNL A   1      45.539  33.474  28.364  1.00  0.00     0.173 A 
ATOM     87  F   UNL A   1      45.835  32.116  31.726  1.00  0.00    -0.203 F 
ATOM     88  C   UNL A   1      46.069  34.325  30.951  1.00  0.00     0.198 A 
ATOM     89  C   UNL A   1      45.818  34.815  28.616  1.00  0.00     0.198 A 
ATOM     90  F   UNL A   1      45.276  33.100  27.103  1.00  0.00    -0.203 F 
ATOM     91  F   UNL A   1      46.277  34.741  32.209  1.00  0.00    -0.200 F 
ATOM     92  C   UNL A   1      46.070  35.241  29.910  1.00  0.00     0.200 A 
ATOM     93  F   UNL A   1      45.837  35.694  27.605  1.00  0.00    -0.200 F 
ATOM     94  F   UNL A   1      46.302  36.538  30.157  1.00  0.00    -0.200 F 
ENDBRANCH  61  84
ENDBRANCH  35  36
ENDBRANCH  27  30
ENDBRANCH  25  26
ENDBRANCH  24  25
ENDBRANCH  23  24
ENDBRANCH   1  23
TORSDOF 17
ENDMDL
