MODEL 1
REMARK VINA RESULT:     -13.7      0.000      0.000
REMARK SMILES O=C(N/N=C\c1ccccc1C(=O)NCCCCCCNC(=O)c1ccc(-c2c3nc(c(-c4c(F)c(F)c(F)c(F)c4F)c4ccc([nH]4)c(-c4c(F)c(F)c(F)c(F)c4F)c4nc(c(-c5c(F)c(F)c(F)c(F)c5F)c5ccc2[nH]5)C=C4)C=C3)cc1)C(=O)N1CCCCC1
REMARK SMILES IDX 17 1 16 2 15 3 14 4 12 5 13 6 11 8 6 9 7 10 8 11 10 12 9 13
REMARK SMILES IDX 5 14 4 15 3 16 1 17 2 18 87 20 88 21 89 22 90 23 94 24 91 25
REMARK SMILES IDX 93 26 92 27 18 28 19 29 20 30 21 31 22 32 23 34 24 35 25 36
REMARK SMILES IDX 86 37 26 38 85 39 27 40 28 41 29 42 79 43 30 44 84 45 78 46
REMARK SMILES IDX 80 47 31 48 83 49 77 50 76 51 32 53 64 54 44 55 63 56 45 57
REMARK SMILES IDX 48 58 62 59 81 60 46 61 47 62 61 64 82 65 49 66 33 67 34 68
REMARK SMILES IDX 42 69 35 70 36 71 40 72 43 73 37 74 38 75 41 76 39 77 65 78
REMARK SMILES IDX 66 79 74 80 67 81 68 82 72 83 75 84 69 85 70 86 73 87 71 88
REMARK SMILES IDX 50 89 51 90 59 91 52 92 53 93 57 94 60 95 54 96 55 97 58 98
REMARK SMILES IDX 56 99
REMARK H PARENT 14 7 3 19 21 33 80 52 48 63
REMARK Flexibility Score: inf
ROOT
ATOM      1  C   UNL A   1      32.955  30.043  25.818  1.00  0.00     0.002 C 
ENDROOT
BRANCH   1   2
ATOM      2  C   UNL A   1      33.146  29.289  24.500  1.00  0.00     0.021 C 
BRANCH   2   3
ATOM      3  C   UNL A   1      33.532  27.834  24.680  1.00  0.00     0.116 C 
BRANCH   3   4
ATOM      4  N   UNL A   1      33.643  27.126  23.438  1.00  0.00    -0.352 N 
ATOM      5  C   UNL A   1      33.608  25.780  23.242  1.00  0.00     0.251 C 
ATOM      6  O   UNL A   1      33.887  25.317  22.141  1.00  0.00    -0.269 OA
ATOM      7  H   UNL A   1      33.758  27.680  22.632  1.00  0.00     0.163 HD
BRANCH   5   8
ATOM      8  C   UNL A   1      33.282  24.850  24.334  1.00  0.00     0.048 A 
ATOM      9  C   UNL A   1      31.927  23.643  24.308  1.00  0.00     0.007 A 
ATOM     10  C   UNL A   1      31.897  22.233  25.504  1.00  0.00     0.010 A 
ATOM     11  C   UNL A   1      33.120  22.173  26.829  1.00  0.00     0.001 A 
ATOM     12  C   UNL A   1      34.562  24.698  25.600  1.00  0.00     0.014 A 
ATOM     13  C   UNL A   1      34.437  23.411  26.912  1.00  0.00     0.001 A 
BRANCH   9  14
ATOM     14  C   UNL A   1      30.985  23.493  23.243  1.00  0.00     0.142 C 
ATOM     15  N   UNL A   1      30.096  24.399  23.122  1.00  0.00    -0.180 NA
BRANCH  15  16
ATOM     16  N   UNL A   1      30.157  25.368  24.068  1.00  0.00    -0.239 N 
ATOM     17  O   UNL A   1      30.367  27.179  25.223  1.00  0.00    -0.262 OA
ATOM     18  C   UNL A   1      30.138  26.773  24.066  1.00  0.00     0.329 C 
ATOM     19  H   UNL A   1      30.235  24.997  24.976  1.00  0.00     0.194 HD
BRANCH  18  20
ATOM     20  C   UNL A   1      29.940  27.998  22.829  1.00  0.00     0.313 C 
ATOM     21  O   UNL A   1      30.748  27.419  22.009  1.00  0.00    -0.263 OA
ATOM     22  N   UNL A   1      28.840  29.656  22.597  1.00  0.00    -0.334 N 
ATOM     23  C   UNL A   1      28.127  30.389  21.220  1.00  0.00     0.120 C 
ATOM     24  C   UNL A   1      28.223  30.814  23.705  1.00  0.00     0.120 C 
ATOM     25  C   UNL A   1      28.552  31.845  20.984  1.00  0.00     0.022 C 
ATOM     26  C   UNL A   1      28.740  32.230  23.418  1.00  0.00     0.022 C 
ATOM     27  C   UNL A   1      28.176  32.764  22.124  1.00  0.00     0.004 C 
ENDBRANCH  18  20
ENDBRANCH  15  16
ENDBRANCH   9  14
ENDBRANCH   5   8
ENDBRANCH   3   4
ENDBRANCH   2   3
ENDBRANCH   1   2
BRANCH   1  28
ATOM     28  C   UNL A   1      31.526  30.515  26.118  1.00  0.00     0.002 C 
BRANCH  28  29
ATOM     29  C   UNL A   1      31.376  31.992  26.500  1.00  0.00     0.021 C 
BRANCH  29  30
ATOM     30  C   UNL A   1      32.582  32.596  27.210  1.00  0.00     0.116 C 
BRANCH  30  31
ATOM     31  N   UNL A   1      32.381  33.996  27.533  1.00  0.00    -0.352 N 
ATOM     32  C   UNL A   1      32.983  34.766  28.489  1.00  0.00     0.251 C 
ATOM     33  H   UNL A   1      31.711  34.462  26.982  1.00  0.00     0.163 HD
ATOM     34  O   UNL A   1      32.543  35.877  28.761  1.00  0.00    -0.269 OA
BRANCH  32  35
ATOM     35  C   UNL A   1      34.161  34.241  29.201  1.00  0.00     0.039 A 
ATOM     36  C   UNL A   1      33.968  33.546  30.395  1.00  0.00     0.014 A 
ATOM     37  C   UNL A   1      35.447  34.439  28.689  1.00  0.00     0.014 A 
ATOM     38  C   UNL A   1      35.068  33.004  31.057  1.00  0.00     0.010 A 
ATOM     39  C   UNL A   1      36.532  33.831  29.307  1.00  0.00     0.010 A 
ATOM     40  C   UNL A   1      36.352  33.116  30.501  1.00  0.00    -0.014 A 
BRANCH  40  41
ATOM     41  C   UNL A   1      37.524  32.488  31.154  1.00  0.00     0.031 A 
ATOM     42  C   UNL A   1      38.245  31.358  30.477  1.00  0.00     0.074 A 
ATOM     43  C   UNL A   1      37.885  32.893  32.385  1.00  0.00     0.049 A 
ATOM     44  N   UNL A   1      39.244  30.635  30.915  1.00  0.00    -0.248 NA
ATOM     45  C   UNL A   1      37.760  30.968  29.144  1.00  0.00     0.031 C 
ATOM     46  C   UNL A   1      37.222  33.946  33.156  1.00  0.00     0.029 A 
ATOM     47  N   UNL A   1      38.891  32.459  33.210  1.00  0.00    -0.354 N 
ATOM     48  C   UNL A   1      39.495  29.700  29.921  1.00  0.00     0.074 A 
ATOM     49  C   UNL A   1      38.508  29.907  28.884  1.00  0.00     0.031 C 
ATOM     50  C   UNL A   1      37.852  34.092  34.332  1.00  0.00     0.029 A 
ATOM     51  C   UNL A   1      38.934  33.115  34.415  1.00  0.00     0.049 A 
ATOM     52  H   UNL A   1      39.524  31.747  32.962  1.00  0.00     0.167 HD
ATOM     53  C   UNL A   1      40.477  28.768  29.871  1.00  0.00     0.037 A 
ATOM     54  C   UNL A   1      39.746  32.938  35.474  1.00  0.00     0.037 A 
ATOM     55  C   UNL A   1      41.464  28.586  30.902  1.00  0.00     0.049 A 
ATOM     56  C   UNL A   1      40.822  31.889  35.398  1.00  0.00     0.074 A 
ATOM     57  C   UNL A   1      42.543  27.722  30.920  1.00  0.00     0.029 A 
ATOM     58  N   UNL A   1      41.484  29.277  32.106  1.00  0.00    -0.354 N 
ATOM     59  N   UNL A   1      41.102  31.062  34.420  1.00  0.00    -0.248 NA
ATOM     60  C   UNL A   1      41.696  31.754  36.569  1.00  0.00     0.031 C 
ATOM     61  C   UNL A   1      43.180  27.844  32.160  1.00  0.00     0.029 A 
ATOM     62  C   UNL A   1      42.537  28.832  32.889  1.00  0.00     0.049 A 
ATOM     63  H   UNL A   1      40.846  29.980  32.364  1.00  0.00     0.167 HD
ATOM     64  C   UNL A   1      42.199  30.325  34.846  1.00  0.00     0.074 A 
ATOM     65  C   UNL A   1      42.542  30.816  36.164  1.00  0.00     0.031 C 
ATOM     66  C   UNL A   1      42.860  29.330  34.203  1.00  0.00     0.037 A 
BRANCH  53  67
ATOM     67  C   UNL A   1      40.521  27.868  28.668  1.00  0.00     0.064 A 
ATOM     68  C   UNL A   1      41.278  28.189  27.530  1.00  0.00     0.173 A 
ATOM     69  C   UNL A   1      39.813  26.657  28.662  1.00  0.00     0.173 A 
ATOM     70  F   UNL A   1      41.965  29.341  27.478  1.00  0.00    -0.203 F 
ATOM     71  C   UNL A   1      41.295  27.350  26.419  1.00  0.00     0.198 A 
ATOM     72  C   UNL A   1      39.860  25.803  27.562  1.00  0.00     0.198 A 
ATOM     73  F   UNL A   1      39.076  26.298  29.723  1.00  0.00    -0.203 F 
ATOM     74  F   UNL A   1      41.976  27.708  25.322  1.00  0.00    -0.200 F 
ATOM     75  C   UNL A   1      40.593  26.155  26.438  1.00  0.00     0.200 A 
ATOM     76  F   UNL A   1      39.192  24.642  27.588  1.00  0.00    -0.200 F 
ATOM     77  F   UNL A   1      40.614  25.346  25.370  1.00  0.00    -0.200 F 
ENDBRANCH  53  67
BRANCH  54  78
ATOM     78  C   UNL A   1      39.576  33.784  36.682  1.00  0.00     0.064 A 
ATOM     79  C   UNL A   1      40.187  35.042  36.774  1.00  0.00     0.173 A 
ATOM     80  C   UNL A   1      38.785  33.363  37.762  1.00  0.00     0.173 A 
ATOM     81  F   UNL A   1      40.966  35.483  35.775  1.00  0.00    -0.203 F 
ATOM     82  C   UNL A   1      40.028  35.839  37.906  1.00  0.00     0.198 A 
ATOM     83  C   UNL A   1      38.603  34.174  38.881  1.00  0.00     0.198 A 
ATOM     84  F   UNL A   1      38.172  32.172  37.721  1.00  0.00    -0.203 F 
ATOM     85  F   UNL A   1      40.657  37.020  37.985  1.00  0.00    -0.200 F 
ATOM     86  C   UNL A   1      39.231  35.408  38.956  1.00  0.00     0.200 A 
ATOM     87  F   UNL A   1      37.816  33.760  39.883  1.00  0.00    -0.200 F 
ATOM     88  F   UNL A   1      39.070  36.179  40.040  1.00  0.00    -0.200 F 
ENDBRANCH  54  78
BRANCH  66  89
ATOM     89  C   UNL A   1      44.038  28.721  34.909  1.00  0.00     0.064 A 
ATOM     90  C   UNL A   1      43.910  27.566  35.693  1.00  0.00     0.173 A 
ATOM     91  C   UNL A   1      45.320  29.274  34.757  1.00  0.00     0.173 A 
ATOM     92  F   UNL A   1      42.705  27.008  35.881  1.00  0.00    -0.203 F 
ATOM     93  C   UNL A   1      45.018  27.001  36.321  1.00  0.00     0.198 A 
ATOM     94  C   UNL A   1      46.429  28.687  35.358  1.00  0.00     0.198 A 
ATOM     95  F   UNL A   1      45.497  30.375  34.012  1.00  0.00    -0.203 F 
ATOM     96  F   UNL A   1      44.863  25.926  37.106  1.00  0.00    -0.200 F 
ATOM     97  C   UNL A   1      46.277  27.556  36.145  1.00  0.00     0.200 A 
ATOM     98  F   UNL A   1      47.646  29.215  35.173  1.00  0.00    -0.200 F 
ATOM     99  F   UNL A   1      47.343  27.004  36.740  1.00  0.00    -0.200 F 
ENDBRANCH  66  89
ENDBRANCH  40  41
ENDBRANCH  32  35
ENDBRANCH  30  31
ENDBRANCH  29  30
ENDBRANCH  28  29
ENDBRANCH   1  28
TORSDOF 16
ENDMDL
MODEL 2
REMARK VINA RESULT:     -13.6      0.460      7.217
REMARK SMILES O=C(N/N=C\c1ccccc1C(=O)NCCCCCCNC(=O)c1ccc(-c2c3nc(c(-c4c(F)c(F)c(F)c(F)c4F)c4ccc([nH]4)c(-c4c(F)c(F)c(F)c(F)c4F)c4nc(c(-c5c(F)c(F)c(F)c(F)c5F)c5ccc2[nH]5)C=C4)C=C3)cc1)C(=O)N1CCCCC1
REMARK SMILES IDX 17 1 16 2 15 3 14 4 12 5 13 6 11 8 6 9 7 10 8 11 10 12 9 13
REMARK SMILES IDX 5 14 4 15 3 16 1 17 2 18 87 20 88 21 89 22 90 23 94 24 91 25
REMARK SMILES IDX 93 26 92 27 18 28 19 29 20 30 21 31 22 32 23 34 24 35 25 36
REMARK SMILES IDX 86 37 26 38 85 39 27 40 28 41 29 42 79 43 30 44 84 45 78 46
REMARK SMILES IDX 80 47 31 48 83 49 77 50 76 51 32 53 64 54 44 55 63 56 45 57
REMARK SMILES IDX 48 58 62 59 81 60 46 61 47 62 61 64 82 65 49 66 33 67 34 68
REMARK SMILES IDX 42 69 35 70 36 71 40 72 43 73 37 74 38 75 41 76 39 77 65 78
REMARK SMILES IDX 66 79 74 80 67 81 68 82 72 83 75 84 69 85 70 86 73 87 71 88
REMARK SMILES IDX 50 89 51 90 59 91 52 92 53 93 57 94 60 95 54 96 55 97 58 98
REMARK SMILES IDX 56 99
REMARK H PARENT 14 7 3 19 21 33 80 52 48 63
REMARK Flexibility Score: inf
ROOT
ATOM      1  C   UNL A   1      32.834  29.916  25.698  1.00  0.00     0.002 C 
ENDROOT
BRANCH   1   2
ATOM      2  C   UNL A   1      33.033  29.228  24.345  1.00  0.00     0.021 C 
BRANCH   2   3
ATOM      3  C   UNL A   1      33.727  27.884  24.441  1.00  0.00     0.116 C 
BRANCH   3   4
ATOM      4  N   UNL A   1      33.726  27.164  23.201  1.00  0.00    -0.352 N 
ATOM      5  C   UNL A   1      33.643  25.817  23.021  1.00  0.00     0.251 C 
ATOM      6  O   UNL A   1      33.827  25.340  21.907  1.00  0.00    -0.269 OA
ATOM      7  H   UNL A   1      33.795  27.708  22.383  1.00  0.00     0.163 HD
BRANCH   5   8
ATOM      8  C   UNL A   1      33.377  24.905  24.143  1.00  0.00     0.048 A 
ATOM      9  C   UNL A   1      32.042  23.677  24.195  1.00  0.00     0.007 A 
ATOM     10  C   UNL A   1      32.083  22.290  25.419  1.00  0.00     0.010 A 
ATOM     11  C   UNL A   1      33.359  22.276  26.694  1.00  0.00     0.001 A 
ATOM     12  C   UNL A   1      34.709  24.798  25.359  1.00  0.00     0.014 A 
ATOM     13  C   UNL A   1      34.657  23.536  26.700  1.00  0.00     0.001 A 
BRANCH   9  14
ATOM     14  C   UNL A   1      31.061  23.490  23.173  1.00  0.00     0.142 C 
ATOM     15  N   UNL A   1      30.128  24.358  23.097  1.00  0.00    -0.180 NA
BRANCH  15  16
ATOM     16  N   UNL A   1      30.190  25.324  24.046  1.00  0.00    -0.239 N 
ATOM     17  O   UNL A   1      30.396  27.132  25.205  1.00  0.00    -0.262 OA
ATOM     18  C   UNL A   1      30.161  26.729  24.049  1.00  0.00     0.329 C 
ATOM     19  H   UNL A   1      30.277  24.950  24.953  1.00  0.00     0.194 HD
BRANCH  18  20
ATOM     20  C   UNL A   1      29.946  27.956  22.817  1.00  0.00     0.313 C 
ATOM     21  O   UNL A   1      30.735  27.374  21.982  1.00  0.00    -0.263 OA
ATOM     22  N   UNL A   1      28.852  29.621  22.609  1.00  0.00    -0.334 N 
ATOM     23  C   UNL A   1      28.117  30.360  21.246  1.00  0.00     0.120 C 
ATOM     24  C   UNL A   1      28.262  30.781  23.729  1.00  0.00     0.120 C 
ATOM     25  C   UNL A   1      28.545  31.814  21.005  1.00  0.00     0.022 C 
ATOM     26  C   UNL A   1      28.781  32.194  23.435  1.00  0.00     0.022 C 
ATOM     27  C   UNL A   1      28.195  32.734  22.152  1.00  0.00     0.004 C 
ENDBRANCH  18  20
ENDBRANCH  15  16
ENDBRANCH   9  14
ENDBRANCH   5   8
ENDBRANCH   3   4
ENDBRANCH   2   3
ENDBRANCH   1   2
BRANCH   1  28
ATOM     28  C   UNL A   1      31.428  30.470  25.967  1.00  0.00     0.002 C 
BRANCH  28  29
ATOM     29  C   UNL A   1      31.357  31.946  26.375  1.00  0.00     0.021 C 
BRANCH  29  30
ATOM     30  C   UNL A   1      32.566  32.455  27.150  1.00  0.00     0.116 C 
BRANCH  30  31
ATOM     31  N   UNL A   1      32.438  33.857  27.504  1.00  0.00    -0.352 N 
ATOM     32  C   UNL A   1      33.084  34.575  28.471  1.00  0.00     0.251 C 
ATOM     33  H   UNL A   1      31.788  34.366  26.967  1.00  0.00     0.163 HD
ATOM     34  O   UNL A   1      32.702  35.701  28.770  1.00  0.00    -0.269 OA
BRANCH  32  35
ATOM     35  C   UNL A   1      34.239  33.977  29.162  1.00  0.00     0.039 A 
ATOM     36  C   UNL A   1      34.006  33.121  30.240  1.00  0.00     0.014 A 
ATOM     37  C   UNL A   1      35.543  34.264  28.748  1.00  0.00     0.014 A 
ATOM     38  C   UNL A   1      35.085  32.513  30.876  1.00  0.00     0.010 A 
ATOM     39  C   UNL A   1      36.611  33.595  29.330  1.00  0.00     0.010 A 
ATOM     40  C   UNL A   1      36.392  32.720  30.405  1.00  0.00    -0.014 A 
BRANCH  40  41
ATOM     41  C   UNL A   1      37.545  32.028  31.025  1.00  0.00     0.031 A 
ATOM     42  C   UNL A   1      38.014  32.428  32.393  1.00  0.00     0.074 A 
ATOM     43  C   UNL A   1      38.206  31.092  30.319  1.00  0.00     0.049 A 
ATOM     44  N   UNL A   1      39.043  31.992  33.075  1.00  0.00    -0.248 NA
ATOM     45  C   UNL A   1      37.244  33.479  33.076  1.00  0.00     0.031 C 
ATOM     46  C   UNL A   1      37.868  30.663  28.961  1.00  0.00     0.029 A 
ATOM     47  N   UNL A   1      39.308  30.340  30.641  1.00  0.00    -0.354 N 
ATOM     48  C   UNL A   1      39.051  32.724  34.253  1.00  0.00     0.074 A 
ATOM     49  C   UNL A   1      37.962  33.672  34.172  1.00  0.00     0.031 C 
ATOM     50  C   UNL A   1      38.730  29.710  28.575  1.00  0.00     0.029 A 
ATOM     51  C   UNL A   1      39.705  29.492  29.638  1.00  0.00     0.049 A 
ATOM     52  H   UNL A   1      39.768  30.403  31.509  1.00  0.00     0.167 HD
ATOM     53  C   UNL A   1      39.880  32.598  35.317  1.00  0.00     0.037 A 
ATOM     54  C   UNL A   1      40.748  28.643  29.579  1.00  0.00     0.037 A 
ATOM     55  C   UNL A   1      40.947  31.636  35.392  1.00  0.00     0.049 A 
ATOM     56  C   UNL A   1      41.661  28.529  30.770  1.00  0.00     0.074 A 
ATOM     57  C   UNL A   1      41.801  31.375  36.450  1.00  0.00     0.029 A 
ATOM     58  N   UNL A   1      41.315  30.782  34.361  1.00  0.00    -0.354 N 
ATOM     59  N   UNL A   1      41.613  29.169  31.913  1.00  0.00    -0.248 NA
ATOM     60  C   UNL A   1      42.768  27.571  30.664  1.00  0.00     0.031 C 
ATOM     61  C   UNL A   1      42.724  30.409  36.037  1.00  0.00     0.029 A 
ATOM     62  C   UNL A   1      42.406  30.019  34.745  1.00  0.00     0.049 A 
ATOM     63  H   UNL A   1      40.866  30.727  33.487  1.00  0.00     0.167 HD
ATOM     64  C   UNL A   1      42.666  28.676  32.672  1.00  0.00     0.074 A 
ATOM     65  C   UNL A   1      43.324  27.670  31.864  1.00  0.00     0.031 C 
ATOM     66  C   UNL A   1      43.052  29.026  33.924  1.00  0.00     0.037 A 
BRANCH  53  67
ATOM     67  C   UNL A   1      39.670  33.530  36.477  1.00  0.00     0.064 A 
ATOM     68  C   UNL A   1      38.838  33.194  37.557  1.00  0.00     0.173 A 
ATOM     69  C   UNL A   1      40.328  34.769  36.519  1.00  0.00     0.173 A 
ATOM     70  F   UNL A   1      38.175  32.027  37.562  1.00  0.00    -0.203 F 
ATOM     71  C   UNL A   1      38.645  34.078  38.616  1.00  0.00     0.198 A 
ATOM     72  C   UNL A   1      40.159  35.635  37.597  1.00  0.00     0.198 A 
ATOM     73  F   UNL A   1      41.137  35.140  35.517  1.00  0.00    -0.203 F 
ATOM     74  F   UNL A   1      37.798  33.759  39.605  1.00  0.00    -0.200 F 
ATOM     75  C   UNL A   1      39.311  35.293  38.639  1.00  0.00     0.200 A 
ATOM     76  F   UNL A   1      40.815  36.803  37.625  1.00  0.00    -0.200 F 
ATOM     77  F   UNL A   1      39.127  36.141  39.661  1.00  0.00    -0.200 F 
ENDBRANCH  53  67
BRANCH  54  78
ATOM     78  C   UNL A   1      40.969  27.831  28.356  1.00  0.00     0.064 A 
ATOM     79  C   UNL A   1      41.805  28.287  27.328  1.00  0.00     0.173 A 
ATOM     80  C   UNL A   1      40.366  26.574  28.197  1.00  0.00     0.173 A 
ATOM     81  F   UNL A   1      42.391  29.489  27.425  1.00  0.00    -0.203 F 
ATOM     82  C   UNL A   1      42.015  27.526  26.179  1.00  0.00     0.198 A 
ATOM     83  C   UNL A   1      40.601  25.801  27.062  1.00  0.00     0.198 A 
ATOM     84  F   UNL A   1      39.565  26.087  29.155  1.00  0.00    -0.203 F 
ATOM     85  F   UNL A   1      42.785  28.004  25.193  1.00  0.00    -0.200 F 
ATOM     86  C   UNL A   1      41.419  26.280  26.050  1.00  0.00     0.200 A 
ATOM     87  F   UNL A   1      40.038  24.590  26.952  1.00  0.00    -0.200 F 
ATOM     88  F   UNL A   1      41.629  25.544  24.951  1.00  0.00    -0.200 F 
ENDBRANCH  54  78
BRANCH  66  89
ATOM     89  C   UNL A   1      44.230  28.299  34.507  1.00  0.00     0.064 A 
ATOM     90  C   UNL A   1      45.532  28.810  34.409  1.00  0.00     0.173 A 
ATOM     91  C   UNL A   1      44.046  27.100  35.214  1.00  0.00     0.173 A 
ATOM     92  F   UNL A   1      45.764  29.944  33.732  1.00  0.00    -0.203 F 
ATOM     93  C   UNL A   1      46.610  28.133  34.977  1.00  0.00     0.198 A 
ATOM     94  C   UNL A   1      45.120  26.446  35.809  1.00  0.00     0.198 A 
ATOM     95  F   UNL A   1      42.819  26.573  35.342  1.00  0.00    -0.203 F 
ATOM     96  F   UNL A   1      47.852  28.615  34.829  1.00  0.00    -0.200 F 
ATOM     97  C   UNL A   1      46.402  26.959  35.684  1.00  0.00     0.200 A 
ATOM     98  F   UNL A   1      44.914  25.320  36.506  1.00  0.00    -0.200 F 
ATOM     99  F   UNL A   1      47.438  26.317  36.240  1.00  0.00    -0.200 F 
ENDBRANCH  66  89
ENDBRANCH  40  41
ENDBRANCH  32  35
ENDBRANCH  30  31
ENDBRANCH  29  30
ENDBRANCH  28  29
ENDBRANCH   1  28
TORSDOF 16
ENDMDL
MODEL 3
REMARK VINA RESULT:     -13.6      1.865      4.621
REMARK SMILES O=C(N/N=C\c1ccccc1C(=O)NCCCCCCNC(=O)c1ccc(-c2c3nc(c(-c4c(F)c(F)c(F)c(F)c4F)c4ccc([nH]4)c(-c4c(F)c(F)c(F)c(F)c4F)c4nc(c(-c5c(F)c(F)c(F)c(F)c5F)c5ccc2[nH]5)C=C4)C=C3)cc1)C(=O)N1CCCCC1
REMARK SMILES IDX 17 1 16 2 15 3 14 4 12 5 13 6 11 8 6 9 7 10 8 11 10 12 9 13
REMARK SMILES IDX 5 14 4 15 3 16 1 17 2 18 87 20 88 21 89 22 90 23 94 24 91 25
REMARK SMILES IDX 93 26 92 27 18 28 19 29 20 30 21 31 22 32 23 34 24 35 25 36
REMARK SMILES IDX 86 37 26 38 85 39 27 40 28 41 29 42 79 43 30 44 84 45 78 46
REMARK SMILES IDX 80 47 31 48 83 49 77 50 76 51 32 53 64 54 44 55 63 56 45 57
REMARK SMILES IDX 48 58 62 59 81 60 46 61 47 62 61 64 82 65 49 66 33 67 34 68
REMARK SMILES IDX 42 69 35 70 36 71 40 72 43 73 37 74 38 75 41 76 39 77 65 78
REMARK SMILES IDX 66 79 74 80 67 81 68 82 72 83 75 84 69 85 70 86 73 87 71 88
REMARK SMILES IDX 50 89 51 90 59 91 52 92 53 93 57 94 60 95 54 96 55 97 58 98
REMARK SMILES IDX 56 99
REMARK H PARENT 14 7 3 19 21 33 80 52 48 63
REMARK Flexibility Score: inf
ROOT
ATOM      1  C   UNL A   1      32.276  29.897  27.112  1.00  0.00     0.002 C 
ENDROOT
BRANCH   1   2
ATOM      2  C   UNL A   1      33.803  29.884  27.014  1.00  0.00     0.021 C 
BRANCH   2   3
ATOM      3  C   UNL A   1      34.355  28.706  26.238  1.00  0.00     0.116 C 
BRANCH   3   4
ATOM      4  N   UNL A   1      34.195  28.844  24.820  1.00  0.00    -0.352 N 
ATOM      5  C   UNL A   1      33.532  28.011  23.972  1.00  0.00     0.251 C 
ATOM      6  O   UNL A   1      33.628  28.174  22.760  1.00  0.00    -0.269 OA
ATOM      7  H   UNL A   1      34.616  29.635  24.412  1.00  0.00     0.163 HD
BRANCH   5   8
ATOM      8  C   UNL A   1      32.727  26.886  24.470  1.00  0.00     0.048 A 
ATOM      9  C   UNL A   1      33.396  25.392  25.254  1.00  0.00     0.007 A 
ATOM     10  C   UNL A   1      32.303  24.280  26.249  1.00  0.00     0.010 A 
ATOM     11  C   UNL A   1      30.525  24.581  26.274  1.00  0.00     0.001 A 
ATOM     12  C   UNL A   1      30.959  27.228  24.611  1.00  0.00     0.014 A 
ATOM     13  C   UNL A   1      29.832  26.027  25.436  1.00  0.00     0.001 A 
BRANCH   9  14
ATOM     14  C   UNL A   1      34.786  25.112  25.430  1.00  0.00     0.142 C 
ATOM     15  N   UNL A   1      35.299  24.220  24.676  1.00  0.00    -0.180 NA
BRANCH  15  16
ATOM     16  N   UNL A   1      34.417  23.632  23.832  1.00  0.00    -0.239 N 
ATOM     17  O   UNL A   1      33.174  22.308  22.665  1.00  0.00    -0.262 OA
ATOM     18  C   UNL A   1      33.816  22.365  23.733  1.00  0.00     0.329 C 
ATOM     19  H   UNL A   1      34.127  24.239  23.114  1.00  0.00     0.194 HD
BRANCH  18  20
ATOM     20  C   UNL A   1      33.844  20.911  24.711  1.00  0.00     0.313 C 
ATOM     21  O   UNL A   1      34.381  21.503  25.722  1.00  0.00    -0.263 OA
ATOM     22  N   UNL A   1      33.223  19.018  24.507  1.00  0.00    -0.334 N 
ATOM     23  C   UNL A   1      32.609  17.874  25.628  1.00  0.00     0.120 C 
ATOM     24  C   UNL A   1      33.054  17.983  23.148  1.00  0.00     0.120 C 
ATOM     25  C   UNL A   1      33.392  16.554  25.681  1.00  0.00     0.022 C 
ATOM     26  C   UNL A   1      33.909  16.714  23.270  1.00  0.00     0.022 C 
ATOM     27  C   UNL A   1      33.391  15.812  24.364  1.00  0.00     0.004 C 
ENDBRANCH  18  20
ENDBRANCH  15  16
ENDBRANCH   9  14
ENDBRANCH   5   8
ENDBRANCH   3   4
ENDBRANCH   2   3
ENDBRANCH   1   2
BRANCH   1  28
ATOM     28  C   UNL A   1      31.550  30.831  26.133  1.00  0.00     0.002 C 
BRANCH  28  29
ATOM     29  C   UNL A   1      31.386  32.284  26.591  1.00  0.00     0.021 C 
BRANCH  29  30
ATOM     30  C   UNL A   1      32.588  32.863  27.328  1.00  0.00     0.116 C 
BRANCH  30  31
ATOM     31  N   UNL A   1      32.407  34.267  27.649  1.00  0.00    -0.352 N 
ATOM     32  C   UNL A   1      33.008  35.024  28.616  1.00  0.00     0.251 C 
ATOM     33  H   UNL A   1      31.755  34.745  27.087  1.00  0.00     0.163 HD
ATOM     34  O   UNL A   1      32.583  36.143  28.882  1.00  0.00    -0.269 OA
BRANCH  32  35
ATOM     35  C   UNL A   1      34.163  34.477  29.347  1.00  0.00     0.039 A 
ATOM     36  C   UNL A   1      33.939  33.796  30.544  1.00  0.00     0.014 A 
ATOM     37  C   UNL A   1      35.460  34.640  28.851  1.00  0.00     0.014 A 
ATOM     38  C   UNL A   1      35.016  33.234  31.224  1.00  0.00     0.010 A 
ATOM     39  C   UNL A   1      36.522  34.012  29.487  1.00  0.00     0.010 A 
ATOM     40  C   UNL A   1      36.310  33.310  30.683  1.00  0.00    -0.014 A 
BRANCH  40  41
ATOM     41  C   UNL A   1      37.458  32.660  31.356  1.00  0.00     0.031 A 
ATOM     42  C   UNL A   1      38.150  31.498  30.706  1.00  0.00     0.074 A 
ATOM     43  C   UNL A   1      37.823  33.076  32.583  1.00  0.00     0.049 A 
ATOM     44  N   UNL A   1      39.125  30.754  31.163  1.00  0.00    -0.248 NA
ATOM     45  C   UNL A   1      37.664  31.099  29.376  1.00  0.00     0.031 C 
ATOM     46  C   UNL A   1      37.185  34.162  33.330  1.00  0.00     0.029 A 
ATOM     47  N   UNL A   1      38.810  32.628  33.423  1.00  0.00    -0.354 N 
ATOM     48  C   UNL A   1      39.354  29.794  30.188  1.00  0.00     0.074 A 
ATOM     49  C   UNL A   1      38.382  30.011  29.140  1.00  0.00     0.031 C 
ATOM     50  C   UNL A   1      37.811  34.310  34.508  1.00  0.00     0.029 A 
ATOM     51  C   UNL A   1      38.863  33.303  34.617  1.00  0.00     0.049 A 
ATOM     52  H   UNL A   1      39.422  31.893  33.192  1.00  0.00     0.167 HD
ATOM     53  C   UNL A   1      40.308  28.832  30.162  1.00  0.00     0.037 A 
ATOM     54  C   UNL A   1      39.662  33.121  35.685  1.00  0.00     0.037 A 
ATOM     55  C   UNL A   1      41.282  28.640  31.203  1.00  0.00     0.049 A 
ATOM     56  C   UNL A   1      40.707  32.040  35.635  1.00  0.00     0.074 A 
ATOM     57  C   UNL A   1      42.336  27.744  31.245  1.00  0.00     0.029 A 
ATOM     58  N   UNL A   1      41.315  29.352  32.395  1.00  0.00    -0.354 N 
ATOM     59  N   UNL A   1      40.969  31.188  34.674  1.00  0.00    -0.248 NA
ATOM     60  C   UNL A   1      41.569  31.900  36.815  1.00  0.00     0.031 C 
ATOM     61  C   UNL A   1      42.967  27.871  32.487  1.00  0.00     0.029 A 
ATOM     62  C   UNL A   1      42.349  28.890  33.194  1.00  0.00     0.049 A 
ATOM     63  H   UNL A   1      40.696  30.078  32.636  1.00  0.00     0.167 HD
ATOM     64  C   UNL A   1      42.041  30.426  35.122  1.00  0.00     0.074 A 
ATOM     65  C   UNL A   1      42.389  30.930  36.433  1.00  0.00     0.031 C 
ATOM     66  C   UNL A   1      42.677  29.401  34.501  1.00  0.00     0.037 A 
BRANCH  53  67
ATOM     67  C   UNL A   1      40.335  27.911  28.975  1.00  0.00     0.064 A 
ATOM     68  C   UNL A   1      41.082  28.206  27.823  1.00  0.00     0.173 A 
ATOM     69  C   UNL A   1      39.619  26.703  28.998  1.00  0.00     0.173 A 
ATOM     70  F   UNL A   1      41.774  29.353  27.743  1.00  0.00    -0.203 F 
ATOM     71  C   UNL A   1      41.081  27.346  26.728  1.00  0.00     0.198 A 
ATOM     72  C   UNL A   1      39.650  25.830  27.914  1.00  0.00     0.198 A 
ATOM     73  F   UNL A   1      38.892  26.369  30.074  1.00  0.00    -0.203 F 
ATOM     74  F   UNL A   1      41.753  27.680  25.618  1.00  0.00    -0.200 F 
ATOM     75  C   UNL A   1      40.373  26.156  26.777  1.00  0.00     0.200 A 
ATOM     76  F   UNL A   1      38.976  24.673  27.969  1.00  0.00    -0.200 F 
ATOM     77  F   UNL A   1      40.377  25.328  25.723  1.00  0.00    -0.200 F 
ENDBRANCH  53  67
BRANCH  54  78
ATOM     78  C   UNL A   1      39.509  33.993  36.877  1.00  0.00     0.064 A 
ATOM     79  C   UNL A   1      38.751  33.580  37.981  1.00  0.00     0.173 A 
ATOM     80  C   UNL A   1      40.132  35.249  36.947  1.00  0.00     0.173 A 
ATOM     81  F   UNL A   1      38.122  32.397  37.956  1.00  0.00    -0.203 F 
ATOM     82  C   UNL A   1      38.607  34.397  39.102  1.00  0.00     0.198 A 
ATOM     83  C   UNL A   1      40.012  36.050  38.080  1.00  0.00     0.198 A 
ATOM     84  F   UNL A   1      40.876  35.687  35.921  1.00  0.00    -0.203 F 
ATOM     85  F   UNL A   1      37.842  33.995  40.126  1.00  0.00    -0.200 F 
ATOM     86  C   UNL A   1      39.243  35.628  39.154  1.00  0.00     0.200 A 
ATOM     87  F   UNL A   1      40.645  37.230  38.132  1.00  0.00    -0.200 F 
ATOM     88  F   UNL A   1      39.114  36.408  40.235  1.00  0.00    -0.200 F 
ENDBRANCH  54  78
BRANCH  66  89
ATOM     89  C   UNL A   1      43.831  28.771  35.226  1.00  0.00     0.064 A 
ATOM     90  C   UNL A   1      45.150  29.204  35.029  1.00  0.00     0.173 A 
ATOM     91  C   UNL A   1      43.608  27.752  36.167  1.00  0.00     0.173 A 
ATOM     92  F   UNL A   1      45.418  30.164  34.131  1.00  0.00    -0.203 F 
ATOM     93  C   UNL A   1      46.206  28.623  35.728  1.00  0.00     0.198 A 
ATOM     94  C   UNL A   1      44.661  27.199  36.887  1.00  0.00     0.198 A 
ATOM     95  F   UNL A   1      42.364  27.306  36.398  1.00  0.00    -0.203 F 
ATOM     96  F   UNL A   1      47.463  29.019  35.487  1.00  0.00    -0.200 F 
ATOM     97  C   UNL A   1      45.960  27.628  36.663  1.00  0.00     0.200 A 
ATOM     98  F   UNL A   1      44.419  26.250  37.802  1.00  0.00    -0.200 F 
ATOM     99  F   UNL A   1      46.976  27.080  37.343  1.00  0.00    -0.200 F 
ENDBRANCH  66  89
ENDBRANCH  40  41
ENDBRANCH  32  35
ENDBRANCH  30  31
ENDBRANCH  29  30
ENDBRANCH  28  29
ENDBRANCH   1  28
TORSDOF 16
ENDMDL
