MODEL 1
REMARK VINA RESULT:     -12.8      0.000      0.000
REMARK SMILES Nc1ccc2[nH]cc(C(=O)NCCCCCCNC(=O)c3ccc(-c4c5nc(c(-c6c(F)c(F)c(F)c(F)c6F)c6ccc([nH]6)c(-c6c(F)c(F)c(F)c(F)c6F)c6nc(c(-c7c(F)c(F)c(F)c(F)c7F)c7ccc4[nH]7)C=C6)C=C5)cc3)c2c1
REMARK SMILES IDX 15 1 14 2 13 3 12 4 11 5 9 6 10 7 8 9 2 10 3 11 85 12 4 13
REMARK SMILES IDX 84 14 5 15 6 16 7 17 1 19 16 22 17 23 18 24 19 25 20 27
REMARK SMILES IDX 21 28 22 29 83 30 23 31 82 32 24 33 25 34 26 35 76 36 27 37
REMARK SMILES IDX 81 38 75 39 77 40 28 41 80 42 74 43 73 44 29 46 61 47 41 48
REMARK SMILES IDX 60 49 42 50 45 51 59 52 78 53 43 54 44 55 58 57 79 58 46 59
REMARK SMILES IDX 30 60 31 61 39 62 32 63 33 64 37 65 40 66 34 67 35 68 38 69
REMARK SMILES IDX 36 70 62 71 63 72 71 73 64 74 65 75 69 76 72 77 66 78 67 79
REMARK SMILES IDX 70 80 68 81 47 82 48 83 56 84 49 85 50 86 54 87 57 88 51 89
REMARK SMILES IDX 52 90 55 91 53 92
REMARK H PARENT 11 8 6 18 1 20 1 21 18 26 77 45 45 56
REMARK Flexibility Score: inf
ROOT
ATOM      1  C   UNL A   1      32.265  28.061  26.206  1.00  0.00     0.002 C 
ENDROOT
BRANCH   1   2
ATOM      2  C   UNL A   1      32.032  26.639  26.729  1.00  0.00     0.002 C 
BRANCH   2   3
ATOM      3  C   UNL A   1      32.868  25.525  26.105  1.00  0.00     0.021 C 
BRANCH   3   4
ATOM      4  C   UNL A   1      34.004  25.950  25.190  1.00  0.00     0.116 C 
BRANCH   4   5
ATOM      5  N   UNL A   1      33.967  25.439  23.847  1.00  0.00    -0.352 N 
ATOM      6  C   UNL A   1      33.359  25.962  22.726  1.00  0.00     0.253 C 
ATOM      7  O   UNL A   1      33.498  25.313  21.683  1.00  0.00    -0.269 OA
ATOM      8  H   UNL A   1      34.447  24.592  23.706  1.00  0.00     0.163 HD
BRANCH   6   9
ATOM      9  C   UNL A   1      32.502  27.160  22.758  1.00  0.00     0.065 A 
ATOM     10  C   UNL A   1      28.714  27.142  23.501  1.00  0.00     0.032 A 
ATOM     11  C   UNL A   1      28.492  28.454  23.102  1.00  0.00     0.027 A 
ATOM     12  C   UNL A   1      30.032  26.682  23.618  1.00  0.00     0.036 A 
ATOM     13  C   UNL A   1      29.551  29.292  22.742  1.00  0.00     0.029 A 
ATOM     14  C   UNL A   1      31.116  27.422  23.084  1.00  0.00     0.014 A 
ATOM     15  C   UNL A   1      30.839  28.743  22.716  1.00  0.00     0.046 A 
ATOM     16  N   UNL A   1      32.031  29.328  22.376  1.00  0.00    -0.360 N 
ATOM     17  C   UNL A   1      33.025  28.395  22.386  1.00  0.00     0.097 A 
ATOM     18  H   UNL A   1      32.151  30.280  22.156  1.00  0.00     0.166 HD
BRANCH  10  19
ATOM     19  N   UNL A   1      27.654  26.328  23.880  1.00  0.00    -0.399 N 
ATOM     20  H   UNL A   1      27.120  26.554  24.676  1.00  0.00     0.156 HD
ATOM     21  H   UNL A   1      27.436  25.526  23.352  1.00  0.00     0.156 HD
ENDBRANCH  10  19
ENDBRANCH   6   9
ENDBRANCH   4   5
ENDBRANCH   3   4
ENDBRANCH   2   3
ENDBRANCH   1   2
BRANCH   1  22
ATOM     22  C   UNL A   1      32.420  29.176  27.249  1.00  0.00     0.021 C 
BRANCH  22  23
ATOM     23  C   UNL A   1      33.452  30.256  26.925  1.00  0.00     0.116 C 
BRANCH  23  24
ATOM     24  N   UNL A   1      33.697  31.198  27.995  1.00  0.00    -0.352 N 
ATOM     25  C   UNL A   1      34.788  31.585  28.717  1.00  0.00     0.251 C 
ATOM     26  H   UNL A   1      32.881  31.675  28.267  1.00  0.00     0.163 HD
ATOM     27  O   UNL A   1      34.621  32.533  29.490  1.00  0.00    -0.269 OA
BRANCH  25  28
ATOM     28  C   UNL A   1      36.111  30.911  28.695  1.00  0.00     0.039 A 
ATOM     29  C   UNL A   1      36.339  29.569  28.389  1.00  0.00     0.014 A 
ATOM     30  C   UNL A   1      37.206  31.712  29.071  1.00  0.00     0.014 A 
ATOM     31  C   UNL A   1      37.598  29.011  28.578  1.00  0.00     0.010 A 
ATOM     32  C   UNL A   1      38.471  31.167  29.235  1.00  0.00     0.010 A 
ATOM     33  C   UNL A   1      38.649  29.801  29.046  1.00  0.00    -0.014 A 
BRANCH  33  34
ATOM     34  C   UNL A   1      39.950  29.170  29.241  1.00  0.00     0.031 A 
ATOM     35  C   UNL A   1      40.316  28.912  30.665  1.00  0.00     0.074 A 
ATOM     36  C   UNL A   1      40.706  28.747  28.206  1.00  0.00     0.049 A 
ATOM     37  N   UNL A   1      41.370  29.299  31.311  1.00  0.00    -0.248 NA
ATOM     38  C   UNL A   1      39.330  28.208  31.503  1.00  0.00     0.031 C 
ATOM     39  C   UNL A   1      40.346  28.698  26.786  1.00  0.00     0.029 A 
ATOM     40  N   UNL A   1      41.938  28.168  28.224  1.00  0.00    -0.354 N 
ATOM     41  C   UNL A   1      41.254  28.765  32.594  1.00  0.00     0.074 A 
ATOM     42  C   UNL A   1      39.933  28.203  32.692  1.00  0.00     0.031 C 
ATOM     43  C   UNL A   1      41.228  27.913  26.127  1.00  0.00     0.029 A 
ATOM     44  C   UNL A   1      42.281  27.518  27.045  1.00  0.00     0.049 A 
ATOM     45  H   UNL A   1      42.536  28.206  29.005  1.00  0.00     0.167 HD
ATOM     46  C   UNL A   1      42.320  28.655  33.433  1.00  0.00     0.037 A 
ATOM     47  C   UNL A   1      43.313  26.655  26.871  1.00  0.00     0.037 A 
ATOM     48  C   UNL A   1      43.398  29.520  33.047  1.00  0.00     0.049 A 
ATOM     49  C   UNL A   1      44.272  26.881  27.980  1.00  0.00     0.074 A 
ATOM     50  C   UNL A   1      43.568  30.889  32.985  1.00  0.00     0.029 A 
ATOM     51  N   UNL A   1      44.429  28.983  32.322  1.00  0.00    -0.354 N 
ATOM     52  N   UNL A   1      44.983  27.964  28.124  1.00  0.00    -0.248 NA
ATOM     53  C   UNL A   1      44.120  26.067  29.177  1.00  0.00     0.031 C 
ATOM     54  C   UNL A   1      44.392  31.107  31.844  1.00  0.00     0.029 A 
ATOM     55  C   UNL A   1      44.715  29.860  31.309  1.00  0.00     0.049 A 
ATOM     56  H   UNL A   1      44.880  28.125  32.497  1.00  0.00     0.167 HD
ATOM     57  C   UNL A   1      45.008  28.188  29.492  1.00  0.00     0.074 A 
ATOM     58  C   UNL A   1      44.538  26.943  30.092  1.00  0.00     0.031 C 
ATOM     59  C   UNL A   1      45.138  29.450  29.992  1.00  0.00     0.037 A 
BRANCH  46  60
ATOM     60  C   UNL A   1      42.504  27.530  34.416  1.00  0.00     0.064 A 
ATOM     61  C   UNL A   1      43.036  26.299  33.988  1.00  0.00     0.173 A 
ATOM     62  C   UNL A   1      41.904  27.527  35.694  1.00  0.00     0.173 A 
ATOM     63  F   UNL A   1      43.596  26.181  32.774  1.00  0.00    -0.203 F 
ATOM     64  C   UNL A   1      42.930  25.141  34.765  1.00  0.00     0.198 A 
ATOM     65  C   UNL A   1      41.846  26.383  36.487  1.00  0.00     0.198 A 
ATOM     66  F   UNL A   1      41.255  28.597  36.169  1.00  0.00    -0.203 F 
ATOM     67  F   UNL A   1      43.352  23.967  34.274  1.00  0.00    -0.200 F 
ATOM     68  C   UNL A   1      42.334  25.185  36.013  1.00  0.00     0.200 A 
ATOM     69  F   UNL A   1      41.241  26.441  37.682  1.00  0.00    -0.200 F 
ATOM     70  F   UNL A   1      42.184  24.067  36.736  1.00  0.00    -0.200 F 
ENDBRANCH  46  60
BRANCH  47  71
ATOM     71  C   UNL A   1      43.351  25.424  26.041  1.00  0.00     0.064 A 
ATOM     72  C   UNL A   1      44.458  25.140  25.223  1.00  0.00     0.173 A 
ATOM     73  C   UNL A   1      42.448  24.364  26.258  1.00  0.00     0.173 A 
ATOM     74  F   UNL A   1      45.390  26.078  25.000  1.00  0.00    -0.203 F 
ATOM     75  C   UNL A   1      44.668  23.864  24.687  1.00  0.00     0.198 A 
ATOM     76  C   UNL A   1      42.654  23.094  25.714  1.00  0.00     0.198 A 
ATOM     77  F   UNL A   1      41.402  24.506  27.083  1.00  0.00    -0.203 F 
ATOM     78  F   UNL A   1      45.774  23.614  23.971  1.00  0.00    -0.200 F 
ATOM     79  C   UNL A   1      43.773  22.840  24.943  1.00  0.00     0.200 A 
ATOM     80  F   UNL A   1      41.798  22.103  26.000  1.00  0.00    -0.200 F 
ATOM     81  F   UNL A   1      44.007  21.602  24.487  1.00  0.00    -0.200 F 
ENDBRANCH  47  71
BRANCH  59  82
ATOM     82  C   UNL A   1      45.514  30.548  29.035  1.00  0.00     0.064 A 
ATOM     83  C   UNL A   1      46.840  30.867  28.690  1.00  0.00     0.173 A 
ATOM     84  C   UNL A   1      44.491  31.184  28.320  1.00  0.00     0.173 A 
ATOM     85  F   UNL A   1      47.872  30.230  29.258  1.00  0.00    -0.203 F 
ATOM     86  C   UNL A   1      47.123  31.803  27.698  1.00  0.00     0.198 A 
ATOM     87  C   UNL A   1      44.778  32.091  27.304  1.00  0.00     0.198 A 
ATOM     88  F   UNL A   1      43.209  30.878  28.568  1.00  0.00    -0.203 F 
ATOM     89  F   UNL A   1      48.396  32.091  27.389  1.00  0.00    -0.200 F 
ATOM     90  C   UNL A   1      46.092  32.407  26.998  1.00  0.00     0.200 A 
ATOM     91  F   UNL A   1      43.778  32.633  26.595  1.00  0.00    -0.200 F 
ATOM     92  F   UNL A   1      46.363  33.267  26.008  1.00  0.00    -0.200 F 
ENDBRANCH  59  82
ENDBRANCH  33  34
ENDBRANCH  25  28
ENDBRANCH  23  24
ENDBRANCH  22  23
ENDBRANCH   1  22
TORSDOF 14
ENDMDL
MODEL 2
REMARK VINA RESULT:     -12.7      3.943      9.224
REMARK SMILES Nc1ccc2[nH]cc(C(=O)NCCCCCCNC(=O)c3ccc(-c4c5nc(c(-c6c(F)c(F)c(F)c(F)c6F)c6ccc([nH]6)c(-c6c(F)c(F)c(F)c(F)c6F)c6nc(c(-c7c(F)c(F)c(F)c(F)c7F)c7ccc4[nH]7)C=C6)C=C5)cc3)c2c1
REMARK SMILES IDX 15 1 14 2 13 3 12 4 11 5 9 6 10 7 8 9 2 10 3 11 85 12 4 13
REMARK SMILES IDX 84 14 5 15 6 16 7 17 1 19 16 22 17 23 18 24 19 25 20 27
REMARK SMILES IDX 21 28 22 29 83 30 23 31 82 32 24 33 25 34 26 35 76 36 27 37
REMARK SMILES IDX 81 38 75 39 77 40 28 41 80 42 74 43 73 44 29 46 61 47 41 48
REMARK SMILES IDX 60 49 42 50 45 51 59 52 78 53 43 54 44 55 58 57 79 58 46 59
REMARK SMILES IDX 30 60 31 61 39 62 32 63 33 64 37 65 40 66 34 67 35 68 38 69
REMARK SMILES IDX 36 70 62 71 63 72 71 73 64 74 65 75 69 76 72 77 66 78 67 79
REMARK SMILES IDX 70 80 68 81 47 82 48 83 56 84 49 85 50 86 54 87 57 88 51 89
REMARK SMILES IDX 52 90 55 91 53 92
REMARK H PARENT 11 8 6 18 1 20 1 21 18 26 77 45 45 56
REMARK Flexibility Score: inf
ROOT
ATOM      1  C   UNL A   1      37.852  20.473  24.943  1.00  0.00     0.002 C 
ENDROOT
BRANCH   1   2
ATOM      2  C   UNL A   1      36.319  20.474  24.938  1.00  0.00     0.002 C 
BRANCH   2   3
ATOM      3  C   UNL A   1      35.623  21.618  25.670  1.00  0.00     0.021 C 
BRANCH   3   4
ATOM      4  C   UNL A   1      34.990  22.698  24.809  1.00  0.00     0.116 C 
BRANCH   4   5
ATOM      5  N   UNL A   1      33.674  23.132  25.194  1.00  0.00    -0.352 N 
ATOM      6  C   UNL A   1      32.448  22.567  24.917  1.00  0.00     0.253 C 
ATOM      7  O   UNL A   1      31.465  23.150  25.388  1.00  0.00    -0.269 OA
ATOM      8  H   UNL A   1      33.644  23.952  25.736  1.00  0.00     0.163 HD
BRANCH   6   9
ATOM      9  C   UNL A   1      32.278  21.403  24.029  1.00  0.00     0.065 A 
ATOM     10  C   UNL A   1      33.122  17.759  24.984  1.00  0.00     0.032 A 
ATOM     11  C   UNL A   1      33.022  17.255  23.693  1.00  0.00     0.027 A 
ATOM     12  C   UNL A   1      32.699  19.070  25.235  1.00  0.00     0.036 A 
ATOM     13  C   UNL A   1      32.585  18.055  22.634  1.00  0.00     0.029 A 
ATOM     14  C   UNL A   1      32.436  19.971  24.172  1.00  0.00     0.014 A 
ATOM     15  C   UNL A   1      32.328  19.405  22.898  1.00  0.00     0.046 A 
ATOM     16  N   UNL A   1      31.922  20.400  22.046  1.00  0.00    -0.360 N 
ATOM     17  C   UNL A   1      31.900  21.593  22.704  1.00  0.00     0.097 A 
ATOM     18  H   UNL A   1      31.684  20.272  21.100  1.00  0.00     0.166 HD
BRANCH  10  19
ATOM     19  N   UNL A   1      33.535  16.946  26.032  1.00  0.00    -0.399 N 
ATOM     20  H   UNL A   1      34.248  17.250  26.640  1.00  0.00     0.156 HD
ATOM     21  H   UNL A   1      33.116  16.065  26.165  1.00  0.00     0.156 HD
ENDBRANCH  10  19
ENDBRANCH   6   9
ENDBRANCH   4   5
ENDBRANCH   3   4
ENDBRANCH   2   3
ENDBRANCH   1   2
BRANCH   1  22
ATOM     22  C   UNL A   1      38.552  21.637  25.658  1.00  0.00     0.021 C 
BRANCH  22  23
ATOM     23  C   UNL A   1      39.851  21.291  26.387  1.00  0.00     0.116 C 
BRANCH  23  24
ATOM     24  N   UNL A   1      41.057  21.691  25.695  1.00  0.00    -0.352 N 
ATOM     25  C   UNL A   1      41.891  22.769  25.744  1.00  0.00     0.251 C 
ATOM     26  H   UNL A   1      41.345  21.026  25.031  1.00  0.00     0.163 HD
ATOM     27  O   UNL A   1      42.917  22.695  25.062  1.00  0.00    -0.269 OA
BRANCH  25  28
ATOM     28  C   UNL A   1      41.619  24.029  26.482  1.00  0.00     0.039 A 
ATOM     29  C   UNL A   1      40.769  25.053  26.064  1.00  0.00     0.014 A 
ATOM     30  C   UNL A   1      42.337  24.195  27.681  1.00  0.00     0.014 A 
ATOM     31  C   UNL A   1      40.735  26.260  26.752  1.00  0.00     0.010 A 
ATOM     32  C   UNL A   1      42.286  25.388  28.388  1.00  0.00     0.010 A 
ATOM     33  C   UNL A   1      41.530  26.441  27.885  1.00  0.00    -0.014 A 
BRANCH  33  34
ATOM     34  C   UNL A   1      41.471  27.729  28.568  1.00  0.00     0.031 A 
ATOM     35  C   UNL A   1      42.603  28.654  28.264  1.00  0.00     0.074 A 
ATOM     36  C   UNL A   1      40.413  28.095  29.321  1.00  0.00     0.049 A 
ATOM     37  N   UNL A   1      43.421  29.227  29.089  1.00  0.00    -0.248 NA
ATOM     38  C   UNL A   1      42.920  28.896  26.846  1.00  0.00     0.031 C 
ATOM     39  C   UNL A   1      39.133  27.398  29.480  1.00  0.00     0.029 A 
ATOM     40  N   UNL A   1      40.222  29.240  30.033  1.00  0.00    -0.354 N 
ATOM     41  C   UNL A   1      44.264  30.018  28.309  1.00  0.00     0.074 A 
ATOM     42  C   UNL A   1      43.988  29.689  26.935  1.00  0.00     0.031 C 
ATOM     43  C   UNL A   1      38.231  28.238  30.035  1.00  0.00     0.029 A 
ATOM     44  C   UNL A   1      38.900  29.477  30.390  1.00  0.00     0.049 A 
ATOM     45  H   UNL A   1      40.957  29.849  30.274  1.00  0.00     0.167 HD
ATOM     46  C   UNL A   1      45.006  31.028  28.839  1.00  0.00     0.037 A 
ATOM     47  C   UNL A   1      38.389  30.640  30.867  1.00  0.00     0.037 A 
ATOM     48  C   UNL A   1      45.167  30.890  30.257  1.00  0.00     0.049 A 
ATOM     49  C   UNL A   1      39.524  31.444  31.382  1.00  0.00     0.074 A 
ATOM     50  C   UNL A   1      45.798  29.976  31.077  1.00  0.00     0.029 A 
ATOM     51  N   UNL A   1      44.338  31.614  31.074  1.00  0.00    -0.354 N 
ATOM     52  N   UNL A   1      40.228  31.129  32.433  1.00  0.00    -0.248 NA
ATOM     53  C   UNL A   1      40.152  32.385  30.466  1.00  0.00     0.031 C 
ATOM     54  C   UNL A   1      44.968  29.879  32.230  1.00  0.00     0.029 A 
ATOM     55  C   UNL A   1      43.910  30.773  32.068  1.00  0.00     0.049 A 
ATOM     56  H   UNL A   1      44.096  32.562  30.967  1.00  0.00     0.167 HD
ATOM     57  C   UNL A   1      41.528  31.485  32.104  1.00  0.00     0.074 A 
ATOM     58  C   UNL A   1      41.405  32.332  30.922  1.00  0.00     0.031 C 
ATOM     59  C   UNL A   1      42.592  30.831  32.652  1.00  0.00     0.037 A 
BRANCH  46  60
ATOM     60  C   UNL A   1      45.316  32.312  28.116  1.00  0.00     0.064 A 
ATOM     61  C   UNL A   1      44.291  33.241  27.857  1.00  0.00     0.173 A 
ATOM     62  C   UNL A   1      46.524  32.521  27.415  1.00  0.00     0.173 A 
ATOM     63  F   UNL A   1      43.090  33.114  28.441  1.00  0.00    -0.203 F 
ATOM     64  C   UNL A   1      44.452  34.275  26.928  1.00  0.00     0.198 A 
ATOM     65  C   UNL A   1      46.697  33.582  26.529  1.00  0.00     0.198 A 
ATOM     66  F   UNL A   1      47.535  31.645  27.477  1.00  0.00    -0.203 F 
ATOM     67  F   UNL A   1      43.415  35.071  26.631  1.00  0.00    -0.200 F 
ATOM     68  C   UNL A   1      45.654  34.443  26.265  1.00  0.00     0.200 A 
ATOM     69  F   UNL A   1      47.862  33.711  25.877  1.00  0.00    -0.200 F 
ATOM     70  F   UNL A   1      45.793  35.399  25.337  1.00  0.00    -0.200 F 
ENDBRANCH  46  60
BRANCH  47  71
ATOM     71  C   UNL A   1      37.065  31.247  30.580  1.00  0.00     0.064 A 
ATOM     72  C   UNL A   1      36.150  31.504  31.616  1.00  0.00     0.173 A 
ATOM     73  C   UNL A   1      36.790  31.858  29.340  1.00  0.00     0.173 A 
ATOM     74  F   UNL A   1      36.358  30.997  32.840  1.00  0.00    -0.203 F 
ATOM     75  C   UNL A   1      35.050  32.349  31.432  1.00  0.00     0.198 A 
ATOM     76  C   UNL A   1      35.687  32.694  29.156  1.00  0.00     0.198 A 
ATOM     77  F   UNL A   1      37.639  31.742  28.310  1.00  0.00    -0.203 F 
ATOM     78  F   UNL A   1      34.240  32.627  32.465  1.00  0.00    -0.200 F 
ATOM     79  C   UNL A   1      34.827  32.953  30.206  1.00  0.00     0.200 A 
ATOM     80  F   UNL A   1      35.503  33.300  27.975  1.00  0.00    -0.200 F 
ATOM     81  F   UNL A   1      33.813  33.816  30.048  1.00  0.00    -0.200 F 
ENDBRANCH  47  71
BRANCH  59  82
ATOM     82  C   UNL A   1      42.326  29.904  33.806  1.00  0.00     0.064 A 
ATOM     83  C   UNL A   1      41.910  28.570  33.659  1.00  0.00     0.173 A 
ATOM     84  C   UNL A   1      42.667  30.335  35.095  1.00  0.00     0.173 A 
ATOM     85  F   UNL A   1      41.661  28.054  32.449  1.00  0.00    -0.203 F 
ATOM     86  C   UNL A   1      41.808  27.719  34.758  1.00  0.00     0.198 A 
ATOM     87  C   UNL A   1      42.600  29.472  36.185  1.00  0.00     0.198 A 
ATOM     88  F   UNL A   1      43.124  31.582  35.288  1.00  0.00    -0.203 F 
ATOM     89  F   UNL A   1      41.406  26.450  34.591  1.00  0.00    -0.200 F 
ATOM     90  C   UNL A   1      42.164  28.168  36.019  1.00  0.00     0.200 A 
ATOM     91  F   UNL A   1      42.996  29.896  37.394  1.00  0.00    -0.200 F 
ATOM     92  F   UNL A   1      42.119  27.335  37.068  1.00  0.00    -0.200 F 
ENDBRANCH  59  82
ENDBRANCH  33  34
ENDBRANCH  25  28
ENDBRANCH  23  24
ENDBRANCH  22  23
ENDBRANCH   1  22
TORSDOF 14
ENDMDL
MODEL 3
REMARK VINA RESULT:     -12.6      1.451      2.304
REMARK SMILES Nc1ccc2[nH]cc(C(=O)NCCCCCCNC(=O)c3ccc(-c4c5nc(c(-c6c(F)c(F)c(F)c(F)c6F)c6ccc([nH]6)c(-c6c(F)c(F)c(F)c(F)c6F)c6nc(c(-c7c(F)c(F)c(F)c(F)c7F)c7ccc4[nH]7)C=C6)C=C5)cc3)c2c1
REMARK SMILES IDX 15 1 14 2 13 3 12 4 11 5 9 6 10 7 8 9 2 10 3 11 85 12 4 13
REMARK SMILES IDX 84 14 5 15 6 16 7 17 1 19 16 22 17 23 18 24 19 25 20 27
REMARK SMILES IDX 21 28 22 29 83 30 23 31 82 32 24 33 25 34 26 35 76 36 27 37
REMARK SMILES IDX 81 38 75 39 77 40 28 41 80 42 74 43 73 44 29 46 61 47 41 48
REMARK SMILES IDX 60 49 42 50 45 51 59 52 78 53 43 54 44 55 58 57 79 58 46 59
REMARK SMILES IDX 30 60 31 61 39 62 32 63 33 64 37 65 40 66 34 67 35 68 38 69
REMARK SMILES IDX 36 70 62 71 63 72 71 73 64 74 65 75 69 76 72 77 66 78 67 79
REMARK SMILES IDX 70 80 68 81 47 82 48 83 56 84 49 85 50 86 54 87 57 88 51 89
REMARK SMILES IDX 52 90 55 91 53 92
REMARK H PARENT 11 8 6 18 1 20 1 21 18 26 77 45 45 56
REMARK Flexibility Score: inf
ROOT
ATOM      1  C   UNL A   1      34.837  30.168  27.419  1.00  0.00     0.002 C 
ENDROOT
BRANCH   1   2
ATOM      2  C   UNL A   1      34.271  28.888  26.792  1.00  0.00     0.002 C 
BRANCH   2   3
ATOM      3  C   UNL A   1      32.880  28.451  27.242  1.00  0.00     0.021 C 
BRANCH   3   4
ATOM      4  C   UNL A   1      31.886  28.095  26.149  1.00  0.00     0.116 C 
BRANCH   4   5
ATOM      5  N   UNL A   1      32.330  27.140  25.170  1.00  0.00    -0.352 N 
ATOM      6  C   UNL A   1      31.668  26.640  24.069  1.00  0.00     0.253 C 
ATOM      7  O   UNL A   1      32.298  25.827  23.383  1.00  0.00    -0.269 OA
ATOM      8  H   UNL A   1      33.241  26.792  25.305  1.00  0.00     0.163 HD
BRANCH   6   9
ATOM      9  C   UNL A   1      30.261  26.951  23.764  1.00  0.00     0.065 A 
ATOM     10  C   UNL A   1      29.007  30.312  22.337  1.00  0.00     0.032 A 
ATOM     11  C   UNL A   1      27.659  30.058  22.559  1.00  0.00     0.027 A 
ATOM     12  C   UNL A   1      29.930  29.274  22.511  1.00  0.00     0.036 A 
ATOM     13  C   UNL A   1      27.222  28.816  23.027  1.00  0.00     0.029 A 
ATOM     14  C   UNL A   1      29.565  28.070  23.163  1.00  0.00     0.014 A 
ATOM     15  C   UNL A   1      28.194  27.859  23.343  1.00  0.00     0.046 A 
ATOM     16  N   UNL A   1      28.041  26.590  23.841  1.00  0.00    -0.360 N 
ATOM     17  C   UNL A   1      29.262  26.045  24.105  1.00  0.00     0.097 A 
ATOM     18  H   UNL A   1      27.178  26.141  23.986  1.00  0.00     0.166 HD
BRANCH  10  19
ATOM     19  N   UNL A   1      29.424  31.544  21.848  1.00  0.00    -0.399 N 
ATOM     20  H   UNL A   1      28.891  32.007  21.161  1.00  0.00     0.156 HD
ATOM     21  H   UNL A   1      30.253  31.953  22.188  1.00  0.00     0.156 HD
ENDBRANCH  10  19
ENDBRANCH   6   9
ENDBRANCH   4   5
ENDBRANCH   3   4
ENDBRANCH   2   3
ENDBRANCH   1   2
BRANCH   1  22
ATOM     22  C   UNL A   1      33.839  31.282  27.761  1.00  0.00     0.021 C 
BRANCH  22  23
ATOM     23  C   UNL A   1      34.417  32.499  28.485  1.00  0.00     0.116 C 
BRANCH  23  24
ATOM     24  N   UNL A   1      34.409  32.404  29.929  1.00  0.00    -0.352 N 
ATOM     25  C   UNL A   1      35.263  31.917  30.874  1.00  0.00     0.251 C 
ATOM     26  H   UNL A   1      33.590  32.780  30.323  1.00  0.00     0.163 HD
ATOM     27  O   UNL A   1      34.952  32.129  32.049  1.00  0.00    -0.269 OA
BRANCH  25  28
ATOM     28  C   UNL A   1      36.474  31.103  30.595  1.00  0.00     0.039 A 
ATOM     29  C   UNL A   1      36.545  29.710  30.626  1.00  0.00     0.014 A 
ATOM     30  C   UNL A   1      37.647  31.834  30.331  1.00  0.00     0.014 A 
ATOM     31  C   UNL A   1      37.775  29.069  30.525  1.00  0.00     0.010 A 
ATOM     32  C   UNL A   1      38.874  31.198  30.201  1.00  0.00     0.010 A 
ATOM     33  C   UNL A   1      38.941  29.818  30.361  1.00  0.00    -0.014 A 
BRANCH  33  34
ATOM     34  C   UNL A   1      40.210  29.103  30.271  1.00  0.00     0.031 A 
ATOM     35  C   UNL A   1      40.925  28.928  31.570  1.00  0.00     0.074 A 
ATOM     36  C   UNL A   1      40.640  28.544  29.121  1.00  0.00     0.049 A 
ATOM     37  N   UNL A   1      42.132  29.280  31.881  1.00  0.00    -0.248 NA
ATOM     38  C   UNL A   1      40.158  28.371  32.698  1.00  0.00     0.031 C 
ATOM     39  C   UNL A   1      39.915  28.413  27.854  1.00  0.00     0.029 A 
ATOM     40  N   UNL A   1      41.800  27.873  28.875  1.00  0.00    -0.354 N 
ATOM     41  C   UNL A   1      42.331  28.858  33.195  1.00  0.00     0.074 A 
ATOM     42  C   UNL A   1      41.053  28.411  33.685  1.00  0.00     0.031 C 
ATOM     43  C   UNL A   1      40.546  27.513  27.067  1.00  0.00     0.029 A 
ATOM     44  C   UNL A   1      41.781  27.109  27.715  1.00  0.00     0.049 A 
ATOM     45  H   UNL A   1      42.584  27.925  29.467  1.00  0.00     0.167 HD
ATOM     46  C   UNL A   1      43.573  28.730  33.736  1.00  0.00     0.037 A 
ATOM     47  C   UNL A   1      42.681  26.157  27.362  1.00  0.00     0.037 A 
ATOM     48  C   UNL A   1      44.557  29.475  33.004  1.00  0.00     0.049 A 
ATOM     49  C   UNL A   1      43.910  26.391  28.159  1.00  0.00     0.074 A 
ATOM     50  C   UNL A   1      44.780  30.817  32.770  1.00  0.00     0.029 A 
ATOM     51  N   UNL A   1      45.328  28.804  32.092  1.00  0.00    -0.354 N 
ATOM     52  N   UNL A   1      44.693  27.423  28.010  1.00  0.00    -0.248 NA
ATOM     53  C   UNL A   1      44.035  25.687  29.426  1.00  0.00     0.031 C 
ATOM     54  C   UNL A   1      45.283  30.881  31.440  1.00  0.00     0.029 A 
ATOM     55  C   UNL A   1      45.384  29.575  30.960  1.00  0.00     0.049 A 
ATOM     56  H   UNL A   1      45.760  27.930  32.225  1.00  0.00     0.167 HD
ATOM     57  C   UNL A   1      45.092  27.749  29.297  1.00  0.00     0.074 A 
ATOM     58  C   UNL A   1      44.729  26.596  30.114  1.00  0.00     0.031 C 
ATOM     59  C   UNL A   1      45.419  29.032  29.624  1.00  0.00     0.037 A 
BRANCH  46  60
ATOM     60  C   UNL A   1      43.948  27.673  34.741  1.00  0.00     0.064 A 
ATOM     61  C   UNL A   1      43.840  26.311  34.405  1.00  0.00     0.173 A 
ATOM     62  C   UNL A   1      44.128  27.954  36.113  1.00  0.00     0.173 A 
ATOM     63  F   UNL A   1      43.629  25.935  33.134  1.00  0.00    -0.203 F 
ATOM     64  C   UNL A   1      43.863  25.308  35.380  1.00  0.00     0.198 A 
ATOM     65  C   UNL A   1      44.202  26.950  37.075  1.00  0.00     0.198 A 
ATOM     66  F   UNL A   1      44.125  29.208  36.581  1.00  0.00    -0.203 F 
ATOM     67  F   UNL A   1      43.647  24.032  35.029  1.00  0.00    -0.200 F 
ATOM     68  C   UNL A   1      44.043  25.629  36.713  1.00  0.00     0.200 A 
ATOM     69  F   UNL A   1      44.351  27.283  38.365  1.00  0.00    -0.200 F 
ATOM     70  F   UNL A   1      44.013  24.676  37.654  1.00  0.00    -0.200 F 
ENDBRANCH  46  60
BRANCH  47  71
ATOM     71  C   UNL A   1      42.429  24.865  26.673  1.00  0.00     0.064 A 
ATOM     72  C   UNL A   1      43.135  24.522  25.506  1.00  0.00     0.173 A 
ATOM     73  C   UNL A   1      41.719  23.823  27.300  1.00  0.00     0.173 A 
ATOM     74  F   UNL A   1      43.873  25.443  24.869  1.00  0.00    -0.203 F 
ATOM     75  C   UNL A   1      43.158  23.210  25.020  1.00  0.00     0.198 A 
ATOM     76  C   UNL A   1      41.735  22.516  26.809  1.00  0.00     0.198 A 
ATOM     77  F   UNL A   1      41.077  24.026  28.459  1.00  0.00    -0.203 F 
ATOM     78  F   UNL A   1      43.901  22.908  23.946  1.00  0.00    -0.200 F 
ATOM     79  C   UNL A   1      42.469  22.206  25.679  1.00  0.00     0.200 A 
ATOM     80  F   UNL A   1      41.093  21.548  27.477  1.00  0.00    -0.200 F 
ATOM     81  F   UNL A   1      42.545  20.937  25.254  1.00  0.00    -0.200 F 
ENDBRANCH  47  71
BRANCH  59  82
ATOM     82  C   UNL A   1      45.589  30.020  28.502  1.00  0.00     0.064 A 
ATOM     83  C   UNL A   1      44.534  30.767  27.950  1.00  0.00     0.173 A 
ATOM     84  C   UNL A   1      46.890  30.337  28.089  1.00  0.00     0.173 A 
ATOM     85  F   UNL A   1      43.273  30.591  28.365  1.00  0.00    -0.203 F 
ATOM     86  C   UNL A   1      44.771  31.763  27.004  1.00  0.00     0.198 A 
ATOM     87  C   UNL A   1      47.126  31.358  27.173  1.00  0.00     0.198 A 
ATOM     88  F   UNL A   1      47.939  29.695  28.623  1.00  0.00    -0.203 F 
ATOM     89  F   UNL A   1      43.747  32.461  26.492  1.00  0.00    -0.200 F 
ATOM     90  C   UNL A   1      46.068  32.065  26.625  1.00  0.00     0.200 A 
ATOM     91  F   UNL A   1      48.385  31.681  26.848  1.00  0.00    -0.200 F 
ATOM     92  F   UNL A   1      46.302  33.059  25.757  1.00  0.00    -0.200 F 
ENDBRANCH  59  82
ENDBRANCH  33  34
ENDBRANCH  25  28
ENDBRANCH  23  24
ENDBRANCH  22  23
ENDBRANCH   1  22
TORSDOF 14
ENDMDL
