MODEL 1
REMARK VINA RESULT:     -11.4      0.000      0.000
REMARK SMILES CCC(CC)[C@H](C(=O)NCCCCCCNC(=O)c1ccc(-c2c3nc(c(-c4c(F)c(F)c(F)c(F)c4F)c4ccc([nH]4)c(-c4c(F)c(F)c(F)c(F)c4F)c4nc(c(-c5c(F)c(F)c(F)c(F)c5F)c5ccc2[nH]5)C=C4)C=C3)cc1)c1ccc(OC(F)F)cc1
REMARK SMILES IDX 12 1 11 2 10 3 9 4 7 5 8 6 6 8 3 9 2 10 1 11 4 12 5 13 82 14
REMARK SMILES IDX 83 15 91 16 84 17 90 18 85 19 86 20 87 21 88 22 89 23 13 24
REMARK SMILES IDX 14 25 15 26 16 27 17 28 18 30 19 31 20 32 81 33 21 34 80 35
REMARK SMILES IDX 22 36 23 37 24 38 74 39 25 40 79 41 73 42 75 43 26 44 78 45
REMARK SMILES IDX 72 46 71 47 27 49 59 50 39 51 58 52 40 53 43 54 57 55 76 56
REMARK SMILES IDX 41 57 42 58 56 60 77 61 44 62 28 63 29 64 37 65 30 66 31 67
REMARK SMILES IDX 35 68 38 69 32 70 33 71 36 72 34 73 60 74 61 75 69 76 62 77
REMARK SMILES IDX 63 78 67 79 70 80 64 81 65 82 68 83 66 84 45 85 46 86 54 87
REMARK SMILES IDX 47 88 48 89 52 90 55 91 49 92 50 93 53 94 51 95
REMARK H PARENT 9 7 16 29 75 48 43 59
REMARK Flexibility Score: inf
ROOT
ATOM      1  C   UNL A   1      32.205  29.633  26.903  1.00  0.00     0.002 C 
ENDROOT
BRANCH   1   2
ATOM      2  C   UNL A   1      33.321  28.810  26.243  1.00  0.00     0.021 C 
BRANCH   2   3
ATOM      3  C   UNL A   1      33.252  27.313  26.521  1.00  0.00     0.116 C 
BRANCH   3   4
ATOM      4  N   UNL A   1      31.883  26.891  26.726  1.00  0.00    -0.356 N 
ATOM      5  C   UNL A   1      30.949  26.459  25.836  1.00  0.00     0.227 C 
ATOM      6  O   UNL A   1      29.949  25.932  26.329  1.00  0.00    -0.274 OA
ATOM      7  H   UNL A   1      31.579  26.921  27.662  1.00  0.00     0.163 HD
BRANCH   5   8
ATOM      8  C   UNL A   1      31.221  26.530  24.317  1.00  0.00     0.111 C 
BRANCH   8   9
ATOM      9  C   UNL A   1      31.355  25.039  23.735  1.00  0.00     0.005 C 
BRANCH   9  10
ATOM     10  C   UNL A   1      31.688  24.974  22.212  1.00  0.00     0.001 C 
ATOM     11  C   UNL A   1      33.045  25.544  21.814  1.00  0.00     0.004 C 
ENDBRANCH   9  10
BRANCH   9  12
ATOM     12  C   UNL A   1      32.243  24.040  24.517  1.00  0.00     0.001 C 
ATOM     13  C   UNL A   1      31.770  22.593  24.495  1.00  0.00     0.004 C 
ENDBRANCH   9  12
ENDBRANCH   8   9
BRANCH   8  14
ATOM     14  C   UNL A   1      30.342  27.549  23.563  1.00  0.00    -0.035 A 
ATOM     15  C   UNL A   1      28.949  27.378  23.505  1.00  0.00     0.008 A 
ATOM     16  C   UNL A   1      30.855  28.674  22.899  1.00  0.00     0.008 A 
ATOM     17  C   UNL A   1      28.110  28.399  23.041  1.00  0.00     0.047 A 
ATOM     18  C   UNL A   1      30.020  29.674  22.386  1.00  0.00     0.047 A 
ATOM     19  C   UNL A   1      28.642  29.578  22.523  1.00  0.00     0.126 A 
BRANCH  19  20
ATOM     20  O   UNL A   1      27.729  30.539  22.201  1.00  0.00    -0.435 OA
BRANCH  20  21
ATOM     21  C   UNL A   1      27.725  31.738  22.969  1.00  0.00     0.542 C 
ATOM     22  F   UNL A   1      28.177  31.510  24.227  1.00  0.00    -0.167 F 
ATOM     23  F   UNL A   1      28.535  32.652  22.383  1.00  0.00    -0.167 F 
ENDBRANCH  20  21
ENDBRANCH  19  20
ENDBRANCH   8  14
ENDBRANCH   5   8
ENDBRANCH   3   4
ENDBRANCH   2   3
ENDBRANCH   1   2
BRANCH   1  24
ATOM     24  C   UNL A   1      31.657  30.788  26.059  1.00  0.00     0.002 C 
BRANCH  24  25
ATOM     25  C   UNL A   1      31.383  32.079  26.829  1.00  0.00     0.021 C 
BRANCH  25  26
ATOM     26  C   UNL A   1      32.629  32.804  27.328  1.00  0.00     0.116 C 
BRANCH  26  27
ATOM     27  N   UNL A   1      32.379  34.204  27.629  1.00  0.00    -0.352 N 
ATOM     28  C   UNL A   1      32.982  35.007  28.564  1.00  0.00     0.251 C 
ATOM     29  H   UNL A   1      31.681  34.636  27.086  1.00  0.00     0.163 HD
ATOM     30  O   UNL A   1      32.549  36.132  28.796  1.00  0.00    -0.269 OA
BRANCH  28  31
ATOM     31  C   UNL A   1      34.142  34.493  29.321  1.00  0.00     0.039 A 
ATOM     32  C   UNL A   1      33.919  33.884  30.558  1.00  0.00     0.014 A 
ATOM     33  C   UNL A   1      35.434  34.574  28.793  1.00  0.00     0.014 A 
ATOM     34  C   UNL A   1      34.985  33.284  31.231  1.00  0.00     0.010 A 
ATOM     35  C   UNL A   1      36.480  33.914  29.430  1.00  0.00     0.010 A 
ATOM     36  C   UNL A   1      36.263  33.252  30.648  1.00  0.00    -0.014 A 
BRANCH  36  37
ATOM     37  C   UNL A   1      37.372  32.491  31.278  1.00  0.00     0.031 A 
ATOM     38  C   UNL A   1      37.886  32.877  32.635  1.00  0.00     0.074 A 
ATOM     39  C   UNL A   1      37.963  31.496  30.588  1.00  0.00     0.049 A 
ATOM     40  N   UNL A   1      38.890  32.378  33.312  1.00  0.00    -0.248 NA
ATOM     41  C   UNL A   1      37.195  33.985  33.314  1.00  0.00     0.031 C 
ATOM     42  C   UNL A   1      37.584  31.060  29.242  1.00  0.00     0.029 A 
ATOM     43  N   UNL A   1      39.016  30.679  30.915  1.00  0.00    -0.354 N 
ATOM     44  C   UNL A   1      38.956  33.112  34.487  1.00  0.00     0.074 A 
ATOM     45  C   UNL A   1      37.925  34.125  34.411  1.00  0.00     0.031 C 
ATOM     46  C   UNL A   1      38.377  30.045  28.868  1.00  0.00     0.029 A 
ATOM     47  C   UNL A   1      39.351  29.787  29.925  1.00  0.00     0.049 A 
ATOM     48  H   UNL A   1      39.487  30.727  31.779  1.00  0.00     0.167 HD
ATOM     49  C   UNL A   1      39.787  32.942  35.543  1.00  0.00     0.037 A 
ATOM     50  C   UNL A   1      40.341  28.876  29.867  1.00  0.00     0.037 A 
ATOM     51  C   UNL A   1      40.803  31.923  35.618  1.00  0.00     0.049 A 
ATOM     52  C   UNL A   1      41.271  28.731  31.041  1.00  0.00     0.074 A 
ATOM     53  C   UNL A   1      41.652  31.628  36.670  1.00  0.00     0.029 A 
ATOM     54  N   UNL A   1      41.112  31.038  34.595  1.00  0.00    -0.354 N 
ATOM     55  N   UNL A   1      41.273  29.379  32.181  1.00  0.00    -0.248 NA
ATOM     56  C   UNL A   1      42.336  27.726  30.921  1.00  0.00     0.031 C 
ATOM     57  C   UNL A   1      42.515  30.606  36.263  1.00  0.00     0.029 A 
ATOM     58  C   UNL A   1      42.165  30.222  34.978  1.00  0.00     0.049 A 
ATOM     59  H   UNL A   1      40.652  30.997  33.725  1.00  0.00     0.167 HD
ATOM     60  C   UNL A   1      42.320  28.847  32.920  1.00  0.00     0.074 A 
ATOM     61  C   UNL A   1      42.918  27.807  32.109  1.00  0.00     0.031 C 
ATOM     62  C   UNL A   1      42.751  29.192  34.159  1.00  0.00     0.037 A 
BRANCH  49  63
ATOM     63  C   UNL A   1      39.640  33.880  36.706  1.00  0.00     0.064 A 
ATOM     64  C   UNL A   1      38.855  33.550  37.823  1.00  0.00     0.173 A 
ATOM     65  C   UNL A   1      40.333  35.099  36.730  1.00  0.00     0.173 A 
ATOM     66  F   UNL A   1      38.164  32.401  37.847  1.00  0.00    -0.203 F 
ATOM     67  C   UNL A   1      38.751  34.418  38.907  1.00  0.00     0.198 A 
ATOM     68  C   UNL A   1      40.252  35.950  37.830  1.00  0.00     0.198 A 
ATOM     69  F   UNL A   1      41.103  35.461  35.692  1.00  0.00    -0.203 F 
ATOM     70  F   UNL A   1      37.961  34.103  39.942  1.00  0.00    -0.200 F 
ATOM     71  C   UNL A   1      39.456  35.612  38.913  1.00  0.00     0.200 A 
ATOM     72  F   UNL A   1      40.946  37.097  37.840  1.00  0.00    -0.200 F 
ATOM     73  F   UNL A   1      39.364  36.441  39.963  1.00  0.00    -0.200 F 
ENDBRANCH  49  63
BRANCH  50  74
ATOM     74  C   UNL A   1      40.504  28.028  28.656  1.00  0.00     0.064 A 
ATOM     75  C   UNL A   1      41.282  28.459  27.573  1.00  0.00     0.173 A 
ATOM     76  C   UNL A   1      39.874  26.778  28.551  1.00  0.00     0.173 A 
ATOM     77  F   UNL A   1      41.886  29.655  27.617  1.00  0.00    -0.203 F 
ATOM     78  C   UNL A   1      41.405  27.684  26.421  1.00  0.00     0.198 A 
ATOM     79  C   UNL A   1      40.025  25.989  27.413  1.00  0.00     0.198 A 
ATOM     80  F   UNL A   1      39.122  26.317  29.561  1.00  0.00    -0.203 F 
ATOM     81  F   UNL A   1      42.111  28.143  25.380  1.00  0.00    -0.200 F 
ATOM     82  C   UNL A   1      40.782  26.447  26.345  1.00  0.00     0.200 A 
ATOM     83  F   UNL A   1      39.434  24.788  27.350  1.00  0.00    -0.200 F 
ATOM     84  F   UNL A   1      40.902  25.700  25.239  1.00  0.00    -0.200 F 
ENDBRANCH  50  74
BRANCH  62  85
ATOM     85  C   UNL A   1      43.913  28.425  34.722  1.00  0.00     0.064 A 
ATOM     86  C   UNL A   1      45.238  28.836  34.510  1.00  0.00     0.173 A 
ATOM     87  C   UNL A   1      43.698  27.289  35.518  1.00  0.00     0.173 A 
ATOM     88  F   UNL A   1      45.497  29.905  33.743  1.00  0.00    -0.203 F 
ATOM     89  C   UNL A   1      46.303  28.124  35.054  1.00  0.00     0.198 A 
ATOM     90  C   UNL A   1      44.765  26.600  36.088  1.00  0.00     0.198 A 
ATOM     91  F   UNL A   1      42.450  26.857  35.758  1.00  0.00    -0.203 F 
ATOM     92  F   UNL A   1      47.562  28.507  34.796  1.00  0.00    -0.200 F 
ATOM     93  C   UNL A   1      46.067  27.013  35.849  1.00  0.00     0.200 A 
ATOM     94  F   UNL A   1      44.532  25.536  36.869  1.00  0.00    -0.200 F 
ATOM     95  F   UNL A   1      47.093  26.336  36.380  1.00  0.00    -0.200 F 
ENDBRANCH  62  85
ENDBRANCH  36  37
ENDBRANCH  28  31
ENDBRANCH  26  27
ENDBRANCH  25  26
ENDBRANCH  24  25
ENDBRANCH   1  24
TORSDOF 19
ENDMDL
MODEL 2
REMARK VINA RESULT:     -11.2      2.617      8.396
REMARK SMILES CCC(CC)[C@H](C(=O)NCCCCCCNC(=O)c1ccc(-c2c3nc(c(-c4c(F)c(F)c(F)c(F)c4F)c4ccc([nH]4)c(-c4c(F)c(F)c(F)c(F)c4F)c4nc(c(-c5c(F)c(F)c(F)c(F)c5F)c5ccc2[nH]5)C=C4)C=C3)cc1)c1ccc(OC(F)F)cc1
REMARK SMILES IDX 12 1 11 2 10 3 9 4 7 5 8 6 6 8 3 9 2 10 1 11 4 12 5 13 82 14
REMARK SMILES IDX 83 15 91 16 84 17 90 18 85 19 86 20 87 21 88 22 89 23 13 24
REMARK SMILES IDX 14 25 15 26 16 27 17 28 18 30 19 31 20 32 81 33 21 34 80 35
REMARK SMILES IDX 22 36 23 37 24 38 74 39 25 40 79 41 73 42 75 43 26 44 78 45
REMARK SMILES IDX 72 46 71 47 27 49 59 50 39 51 58 52 40 53 43 54 57 55 76 56
REMARK SMILES IDX 41 57 42 58 56 60 77 61 44 62 28 63 29 64 37 65 30 66 31 67
REMARK SMILES IDX 35 68 38 69 32 70 33 71 36 72 34 73 60 74 61 75 69 76 62 77
REMARK SMILES IDX 63 78 67 79 70 80 64 81 65 82 68 83 66 84 45 85 46 86 54 87
REMARK SMILES IDX 47 88 48 89 52 90 55 91 49 92 50 93 53 94 51 95
REMARK H PARENT 9 7 16 29 75 48 43 59
REMARK Flexibility Score: inf
ROOT
ATOM      1  C   UNL A   1      32.358  29.823  25.314  1.00  0.00     0.002 C 
ENDROOT
BRANCH   1   2
ATOM      2  C   UNL A   1      32.070  28.350  24.989  1.00  0.00     0.021 C 
BRANCH   2   3
ATOM      3  C   UNL A   1      33.308  27.466  24.911  1.00  0.00     0.116 C 
BRANCH   3   4
ATOM      4  N   UNL A   1      33.610  27.123  23.538  1.00  0.00    -0.356 N 
ATOM      5  C   UNL A   1      33.596  25.918  22.905  1.00  0.00     0.227 C 
ATOM      6  O   UNL A   1      33.658  25.965  21.674  1.00  0.00    -0.274 OA
ATOM      7  H   UNL A   1      33.867  27.885  22.970  1.00  0.00     0.163 HD
BRANCH   5   8
ATOM      8  C   UNL A   1      33.391  24.613  23.705  1.00  0.00     0.111 C 
BRANCH   8   9
ATOM      9  C   UNL A   1      32.191  23.774  23.046  1.00  0.00     0.005 C 
BRANCH   9  10
ATOM     10  C   UNL A   1      32.541  22.284  22.745  1.00  0.00     0.001 C 
ATOM     11  C   UNL A   1      32.419  21.331  23.930  1.00  0.00     0.004 C 
ENDBRANCH   9  10
BRANCH   9  12
ATOM     12  C   UNL A   1      30.797  23.869  23.715  1.00  0.00     0.001 C 
ATOM     13  C   UNL A   1      30.808  23.962  25.235  1.00  0.00     0.004 C 
ENDBRANCH   9  12
ENDBRANCH   8   9
BRANCH   8  14
ATOM     14  C   UNL A   1      34.699  23.882  24.072  1.00  0.00    -0.035 A 
ATOM     15  C   UNL A   1      35.079  23.743  25.417  1.00  0.00     0.008 A 
ATOM     16  C   UNL A   1      35.571  23.330  23.123  1.00  0.00     0.008 A 
ATOM     17  C   UNL A   1      36.122  22.886  25.793  1.00  0.00     0.047 A 
ATOM     18  C   UNL A   1      36.648  22.515  23.493  1.00  0.00     0.047 A 
ATOM     19  C   UNL A   1      36.882  22.226  24.830  1.00  0.00     0.126 A 
BRANCH  19  20
ATOM     20  O   UNL A   1      37.798  21.339  25.316  1.00  0.00    -0.435 OA
BRANCH  20  21
ATOM     21  C   UNL A   1      37.796  20.020  24.784  1.00  0.00     0.542 C 
ATOM     22  F   UNL A   1      38.743  19.253  25.379  1.00  0.00    -0.167 F 
ATOM     23  F   UNL A   1      36.587  19.448  24.998  1.00  0.00    -0.167 F 
ENDBRANCH  20  21
ENDBRANCH  19  20
ENDBRANCH   8  14
ENDBRANCH   5   8
ENDBRANCH   3   4
ENDBRANCH   2   3
ENDBRANCH   1   2
BRANCH   1  24
ATOM     24  C   UNL A   1      31.952  30.276  26.720  1.00  0.00     0.002 C 
BRANCH  24  25
ATOM     25  C   UNL A   1      31.675  31.772  26.865  1.00  0.00     0.021 C 
BRANCH  25  26
ATOM     26  C   UNL A   1      32.874  32.605  27.301  1.00  0.00     0.116 C 
BRANCH  26  27
ATOM     27  N   UNL A   1      32.522  33.986  27.590  1.00  0.00    -0.352 N 
ATOM     28  C   UNL A   1      33.045  34.832  28.535  1.00  0.00     0.251 C 
ATOM     29  H   UNL A   1      31.809  34.367  27.028  1.00  0.00     0.163 HD
ATOM     30  O   UNL A   1      32.530  35.924  28.751  1.00  0.00    -0.269 OA
BRANCH  28  31
ATOM     31  C   UNL A   1      34.218  34.401  29.322  1.00  0.00     0.039 A 
ATOM     32  C   UNL A   1      34.010  33.794  30.562  1.00  0.00     0.014 A 
ATOM     33  C   UNL A   1      35.514  34.559  28.820  1.00  0.00     0.014 A 
ATOM     34  C   UNL A   1      35.097  33.270  31.263  1.00  0.00     0.010 A 
ATOM     35  C   UNL A   1      36.587  33.975  29.485  1.00  0.00     0.010 A 
ATOM     36  C   UNL A   1      36.387  33.314  30.707  1.00  0.00    -0.014 A 
BRANCH  36  37
ATOM     37  C   UNL A   1      37.528  32.633  31.369  1.00  0.00     0.031 A 
ATOM     38  C   UNL A   1      38.211  31.471  30.706  1.00  0.00     0.074 A 
ATOM     39  C   UNL A   1      37.899  33.020  32.605  1.00  0.00     0.049 A 
ATOM     40  N   UNL A   1      39.173  30.709  31.159  1.00  0.00    -0.248 NA
ATOM     41  C   UNL A   1      37.734  31.103  29.363  1.00  0.00     0.031 C 
ATOM     42  C   UNL A   1      37.282  34.105  33.372  1.00  0.00     0.029 A 
ATOM     43  N   UNL A   1      38.875  32.539  33.441  1.00  0.00    -0.354 N 
ATOM     44  C   UNL A   1      39.411  29.769  30.166  1.00  0.00     0.074 A 
ATOM     45  C   UNL A   1      38.459  30.024  29.107  1.00  0.00     0.031 C 
ATOM     46  C   UNL A   1      37.905  34.218  34.554  1.00  0.00     0.029 A 
ATOM     47  C   UNL A   1      38.934  33.187  34.651  1.00  0.00     0.049 A 
ATOM     48  H   UNL A   1      39.477  31.798  33.197  1.00  0.00     0.167 HD
ATOM     49  C   UNL A   1      40.355  28.798  30.132  1.00  0.00     0.037 A 
ATOM     50  C   UNL A   1      39.718  32.966  35.724  1.00  0.00     0.037 A 
ATOM     51  C   UNL A   1      41.309  28.559  31.185  1.00  0.00     0.049 A 
ATOM     52  C   UNL A   1      40.735  31.859  35.672  1.00  0.00     0.074 A 
ATOM     53  C   UNL A   1      42.344  27.641  31.217  1.00  0.00     0.029 A 
ATOM     54  N   UNL A   1      41.338  29.236  32.395  1.00  0.00    -0.354 N 
ATOM     55  N   UNL A   1      41.004  31.027  34.694  1.00  0.00    -0.248 NA
ATOM     56  C   UNL A   1      41.558  31.659  36.873  1.00  0.00     0.031 C 
ATOM     57  C   UNL A   1      42.961  27.721  32.469  1.00  0.00     0.029 A 
ATOM     58  C   UNL A   1      42.349  28.730  33.196  1.00  0.00     0.049 A 
ATOM     59  H   UNL A   1      40.729  29.968  32.648  1.00  0.00     0.167 HD
ATOM     60  C   UNL A   1      42.039  30.223  35.152  1.00  0.00     0.074 A 
ATOM     61  C   UNL A   1      42.365  30.681  36.487  1.00  0.00     0.031 C 
ATOM     62  C   UNL A   1      42.661  29.195  34.524  1.00  0.00     0.037 A 
BRANCH  49  63
ATOM     63  C   UNL A   1      40.403  27.913  28.920  1.00  0.00     0.064 A 
ATOM     64  C   UNL A   1      39.654  26.728  28.843  1.00  0.00     0.173 A 
ATOM     65  C   UNL A   1      41.166  28.279  27.801  1.00  0.00     0.173 A 
ATOM     66  F   UNL A   1      38.915  26.327  29.888  1.00  0.00    -0.203 F 
ATOM     67  C   UNL A   1      39.687  25.932  27.701  1.00  0.00     0.198 A 
ATOM     68  C   UNL A   1      41.172  27.497  26.649  1.00  0.00     0.198 A 
ATOM     69  F   UNL A   1      41.896  29.405  27.819  1.00  0.00    -0.203 F 
ATOM     70  F   UNL A   1      38.999  24.783  27.667  1.00  0.00    -0.200 F 
ATOM     71  C   UNL A   1      40.439  26.322  26.602  1.00  0.00     0.200 A 
ATOM     72  F   UNL A   1      41.887  27.883  25.583  1.00  0.00    -0.200 F 
ATOM     73  F   UNL A   1      40.460  25.561  25.499  1.00  0.00    -0.200 F 
ENDBRANCH  49  63
BRANCH  50  74
ATOM     74  C   UNL A   1      39.575  33.813  36.939  1.00  0.00     0.064 A 
ATOM     75  C   UNL A   1      38.759  33.412  38.005  1.00  0.00     0.173 A 
ATOM     76  C   UNL A   1      40.237  35.045  37.051  1.00  0.00     0.173 A 
ATOM     77  F   UNL A   1      38.088  32.253  37.936  1.00  0.00    -0.203 F 
ATOM     78  C   UNL A   1      38.592  34.221  39.128  1.00  0.00     0.198 A 
ATOM     79  C   UNL A   1      40.096  35.837  38.188  1.00  0.00     0.198 A 
ATOM     80  F   UNL A   1      41.034  35.474  36.061  1.00  0.00    -0.203 F 
ATOM     81  F   UNL A   1      37.765  33.837  40.110  1.00  0.00    -0.200 F 
ATOM     82  C   UNL A   1      39.266  35.430  39.222  1.00  0.00     0.200 A 
ATOM     83  F   UNL A   1      40.761  36.997  38.281  1.00  0.00    -0.200 F 
ATOM     84  F   UNL A   1      39.107  36.206  40.302  1.00  0.00    -0.200 F 
ENDBRANCH  50  74
BRANCH  62  85
ATOM     85  C   UNL A   1      43.771  28.507  35.265  1.00  0.00     0.064 A 
ATOM     86  C   UNL A   1      43.530  27.389  36.078  1.00  0.00     0.173 A 
ATOM     87  C   UNL A   1      45.097  28.944  35.127  1.00  0.00     0.173 A 
ATOM     88  F   UNL A   1      42.278  26.941  36.255  1.00  0.00    -0.203 F 
ATOM     89  C   UNL A   1      44.572  26.750  36.744  1.00  0.00     0.198 A 
ATOM     90  C   UNL A   1      46.141  28.282  35.768  1.00  0.00     0.198 A 
ATOM     91  F   UNL A   1      45.384  30.004  34.356  1.00  0.00    -0.203 F 
ATOM     92  F   UNL A   1      44.311  25.715  37.554  1.00  0.00    -0.200 F 
ATOM     93  C   UNL A   1      45.877  27.191  36.583  1.00  0.00     0.200 A 
ATOM     94  F   UNL A   1      47.403  28.700  35.597  1.00  0.00    -0.200 F 
ATOM     95  F   UNL A   1      46.880  26.569  37.216  1.00  0.00    -0.200 F 
ENDBRANCH  62  85
ENDBRANCH  36  37
ENDBRANCH  28  31
ENDBRANCH  26  27
ENDBRANCH  25  26
ENDBRANCH  24  25
ENDBRANCH   1  24
TORSDOF 19
ENDMDL
MODEL 3
REMARK VINA RESULT:     -11.1      2.647      4.479
REMARK SMILES CCC(CC)[C@H](C(=O)NCCCCCCNC(=O)c1ccc(-c2c3nc(c(-c4c(F)c(F)c(F)c(F)c4F)c4ccc([nH]4)c(-c4c(F)c(F)c(F)c(F)c4F)c4nc(c(-c5c(F)c(F)c(F)c(F)c5F)c5ccc2[nH]5)C=C4)C=C3)cc1)c1ccc(OC(F)F)cc1
REMARK SMILES IDX 12 1 11 2 10 3 9 4 7 5 8 6 6 8 3 9 2 10 1 11 4 12 5 13 82 14
REMARK SMILES IDX 83 15 91 16 84 17 90 18 85 19 86 20 87 21 88 22 89 23 13 24
REMARK SMILES IDX 14 25 15 26 16 27 17 28 18 30 19 31 20 32 81 33 21 34 80 35
REMARK SMILES IDX 22 36 23 37 24 38 74 39 25 40 79 41 73 42 75 43 26 44 78 45
REMARK SMILES IDX 72 46 71 47 27 49 59 50 39 51 58 52 40 53 43 54 57 55 76 56
REMARK SMILES IDX 41 57 42 58 56 60 77 61 44 62 28 63 29 64 37 65 30 66 31 67
REMARK SMILES IDX 35 68 38 69 32 70 33 71 36 72 34 73 60 74 61 75 69 76 62 77
REMARK SMILES IDX 63 78 67 79 70 80 64 81 65 82 68 83 66 84 45 85 46 86 54 87
REMARK SMILES IDX 47 88 48 89 52 90 55 91 49 92 50 93 53 94 51 95
REMARK H PARENT 9 7 16 29 75 48 43 59
REMARK Flexibility Score: inf
ROOT
ATOM      1  C   UNL A   1      32.270  29.797  25.355  1.00  0.00     0.002 C 
ENDROOT
BRANCH   1   2
ATOM      2  C   UNL A   1      32.027  28.308  25.070  1.00  0.00     0.021 C 
BRANCH   2   3
ATOM      3  C   UNL A   1      33.281  27.443  25.106  1.00  0.00     0.116 C 
BRANCH   3   4
ATOM      4  N   UNL A   1      33.664  27.036  23.771  1.00  0.00    -0.356 N 
ATOM      5  C   UNL A   1      33.752  25.796  23.217  1.00  0.00     0.227 C 
ATOM      6  O   UNL A   1      33.865  25.770  21.989  1.00  0.00    -0.274 OA
ATOM      7  H   UNL A   1      33.898  27.777  23.165  1.00  0.00     0.163 HD
BRANCH   5   8
ATOM      8  C   UNL A   1      33.593  24.533  24.091  1.00  0.00     0.111 C 
BRANCH   8   9
ATOM      9  C   UNL A   1      32.314  23.701  23.588  1.00  0.00     0.005 C 
BRANCH   9  10
ATOM     10  C   UNL A   1      32.635  22.240  23.145  1.00  0.00     0.001 C 
ATOM     11  C   UNL A   1      32.305  21.159  24.168  1.00  0.00     0.004 C 
ENDBRANCH   9  10
BRANCH   9  12
ATOM     12  C   UNL A   1      31.048  23.722  24.480  1.00  0.00     0.001 C 
ATOM     13  C   UNL A   1      31.222  24.377  25.843  1.00  0.00     0.004 C 
ENDBRANCH   9  12
ENDBRANCH   8   9
BRANCH   8  14
ATOM     14  C   UNL A   1      34.911  23.781  24.365  1.00  0.00    -0.035 A 
ATOM     15  C   UNL A   1      35.335  23.551  25.685  1.00  0.00     0.008 A 
ATOM     16  C   UNL A   1      35.753  23.297  23.353  1.00  0.00     0.008 A 
ATOM     17  C   UNL A   1      36.389  22.672  25.967  1.00  0.00     0.047 A 
ATOM     18  C   UNL A   1      36.841  22.460  23.632  1.00  0.00     0.047 A 
ATOM     19  C   UNL A   1      37.118  22.081  24.937  1.00  0.00     0.126 A 
BRANCH  19  20
ATOM     20  O   UNL A   1      38.049  21.164  25.332  1.00  0.00    -0.435 OA
BRANCH  20  21
ATOM     21  C   UNL A   1      37.990  19.865  24.756  1.00  0.00     0.542 C 
ATOM     22  F   UNL A   1      38.859  19.022  25.368  1.00  0.00    -0.167 F 
ATOM     23  F   UNL A   1      36.739  19.364  24.897  1.00  0.00    -0.167 F 
ENDBRANCH  20  21
ENDBRANCH  19  20
ENDBRANCH   8  14
ENDBRANCH   5   8
ENDBRANCH   3   4
ENDBRANCH   2   3
ENDBRANCH   1   2
BRANCH   1  24
ATOM     24  C   UNL A   1      31.846  30.275  26.747  1.00  0.00     0.002 C 
BRANCH  24  25
ATOM     25  C   UNL A   1      31.599  31.779  26.868  1.00  0.00     0.021 C 
BRANCH  25  26
ATOM     26  C   UNL A   1      32.838  32.606  27.194  1.00  0.00     0.116 C 
BRANCH  26  27
ATOM     27  N   UNL A   1      32.514  33.970  27.581  1.00  0.00    -0.352 N 
ATOM     28  C   UNL A   1      33.055  34.735  28.583  1.00  0.00     0.251 C 
ATOM     29  H   UNL A   1      31.809  34.405  27.050  1.00  0.00     0.163 HD
ATOM     30  O   UNL A   1      32.563  35.820  28.877  1.00  0.00    -0.269 OA
BRANCH  28  31
ATOM     31  C   UNL A   1      34.220  34.225  29.335  1.00  0.00     0.039 A 
ATOM     32  C   UNL A   1      33.997  33.464  30.484  1.00  0.00     0.014 A 
ATOM     33  C   UNL A   1      35.523  34.463  28.885  1.00  0.00     0.014 A 
ATOM     34  C   UNL A   1      35.078  32.871  31.138  1.00  0.00     0.010 A 
ATOM     35  C   UNL A   1      36.591  33.815  29.495  1.00  0.00     0.010 A 
ATOM     36  C   UNL A   1      36.378  33.002  30.620  1.00  0.00    -0.014 A 
BRANCH  36  37
ATOM     37  C   UNL A   1      37.517  32.259  31.216  1.00  0.00     0.031 A 
ATOM     38  C   UNL A   1      38.056  32.642  32.564  1.00  0.00     0.074 A 
ATOM     39  C   UNL A   1      38.112  31.283  30.502  1.00  0.00     0.049 A 
ATOM     40  N   UNL A   1      39.085  32.158  33.211  1.00  0.00    -0.248 NA
ATOM     41  C   UNL A   1      37.357  33.728  33.270  1.00  0.00     0.031 C 
ATOM     42  C   UNL A   1      37.710  30.852  29.161  1.00  0.00     0.029 A 
ATOM     43  N   UNL A   1      39.190  30.486  30.796  1.00  0.00    -0.354 N 
ATOM     44  C   UNL A   1      39.164  32.883  34.393  1.00  0.00     0.074 A 
ATOM     45  C   UNL A   1      38.110  33.874  34.351  1.00  0.00     0.031 C 
ATOM     46  C   UNL A   1      38.516  29.858  28.758  1.00  0.00     0.029 A 
ATOM     47  C   UNL A   1      39.520  29.611  29.788  1.00  0.00     0.049 A 
ATOM     48  H   UNL A   1      39.680  30.535  31.648  1.00  0.00     0.167 HD
ATOM     49  C   UNL A   1      40.023  32.720  35.427  1.00  0.00     0.037 A 
ATOM     50  C   UNL A   1      40.527  28.722  29.698  1.00  0.00     0.037 A 
ATOM     51  C   UNL A   1      41.061  31.722  35.467  1.00  0.00     0.049 A 
ATOM     52  C   UNL A   1      41.488  28.585  30.848  1.00  0.00     0.074 A 
ATOM     53  C   UNL A   1      41.941  31.435  36.496  1.00  0.00     0.029 A 
ATOM     54  N   UNL A   1      41.365  30.854  34.428  1.00  0.00    -0.354 N 
ATOM     55  N   UNL A   1      41.503  29.222  31.994  1.00  0.00    -0.248 NA
ATOM     56  C   UNL A   1      42.571  27.604  30.693  1.00  0.00     0.031 C 
ATOM     57  C   UNL A   1      42.816  30.436  36.058  1.00  0.00     0.029 A 
ATOM     58  C   UNL A   1      42.444  30.057  34.778  1.00  0.00     0.049 A 
ATOM     59  H   UNL A   1      40.886  30.811  33.569  1.00  0.00     0.167 HD
ATOM     60  C   UNL A   1      42.579  28.705  32.703  1.00  0.00     0.074 A 
ATOM     61  C   UNL A   1      43.179  27.686  31.867  1.00  0.00     0.031 C 
ATOM     62  C   UNL A   1      43.031  29.047  33.935  1.00  0.00     0.037 A 
BRANCH  49  63
ATOM     63  C   UNL A   1      39.884  33.643  36.603  1.00  0.00     0.064 A 
ATOM     64  C   UNL A   1      40.543  34.882  36.648  1.00  0.00     0.173 A 
ATOM     65  C   UNL A   1      39.042  33.309  37.674  1.00  0.00     0.173 A 
ATOM     66  F   UNL A   1      41.367  35.245  35.655  1.00  0.00    -0.203 F 
ATOM     67  C   UNL A   1      40.381  35.740  37.733  1.00  0.00     0.198 A 
ATOM     68  C   UNL A   1      38.858  34.183  38.742  1.00  0.00     0.198 A 
ATOM     69  F   UNL A   1      38.383  32.140  37.678  1.00  0.00    -0.203 F 
ATOM     70  F   UNL A   1      41.054  36.897  37.776  1.00  0.00    -0.200 F 
ATOM     71  C   UNL A   1      39.533  35.394  38.774  1.00  0.00     0.200 A 
ATOM     72  F   UNL A   1      38.026  33.854  39.741  1.00  0.00    -0.200 F 
ATOM     73  F   UNL A   1      39.370  36.225  39.813  1.00  0.00    -0.200 F 
ENDBRANCH  49  63
BRANCH  50  74
ATOM     74  C   UNL A   1      40.679  27.889  28.475  1.00  0.00     0.064 A 
ATOM     75  C   UNL A   1      40.077  26.627  28.382  1.00  0.00     0.173 A 
ATOM     76  C   UNL A   1      41.440  28.331  27.382  1.00  0.00     0.173 A 
ATOM     77  F   UNL A   1      39.357  26.152  29.409  1.00  0.00    -0.203 F 
ATOM     78  C   UNL A   1      40.249  25.828  27.253  1.00  0.00     0.198 A 
ATOM     79  C   UNL A   1      41.584  27.545  26.241  1.00  0.00     0.198 A 
ATOM     80  F   UNL A   1      42.034  29.533  27.417  1.00  0.00    -0.203 F 
ATOM     81  F   UNL A   1      39.706  24.604  27.213  1.00  0.00    -0.200 F 
ATOM     82  C   UNL A   1      40.997  26.290  26.181  1.00  0.00     0.200 A 
ATOM     83  F   UNL A   1      42.295  28.002  25.200  1.00  0.00    -0.200 F 
ATOM     84  F   UNL A   1      41.161  25.523  25.094  1.00  0.00    -0.200 F 
ENDBRANCH  50  74
BRANCH  62  85
ATOM     85  C   UNL A   1      44.222  28.300  34.462  1.00  0.00     0.064 A 
ATOM     86  C   UNL A   1      45.528  28.787  34.300  1.00  0.00     0.173 A 
ATOM     87  C   UNL A   1      44.053  27.103  35.175  1.00  0.00     0.173 A 
ATOM     88  F   UNL A   1      45.745  29.918  33.612  1.00  0.00    -0.203 F 
ATOM     89  C   UNL A   1      46.621  28.091  34.810  1.00  0.00     0.198 A 
ATOM     90  C   UNL A   1      45.145  26.428  35.714  1.00  0.00     0.198 A 
ATOM     91  F   UNL A   1      42.825  26.596  35.365  1.00  0.00    -0.203 F 
ATOM     92  F   UNL A   1      47.862  28.551  34.599  1.00  0.00    -0.200 F 
ATOM     93  C   UNL A   1      46.429  26.918  35.523  1.00  0.00     0.200 A 
ATOM     94  F   UNL A   1      44.955  25.302  36.416  1.00  0.00    -0.200 F 
ATOM     95  F   UNL A   1      47.480  26.256  36.023  1.00  0.00    -0.200 F 
ENDBRANCH  62  85
ENDBRANCH  36  37
ENDBRANCH  28  31
ENDBRANCH  26  27
ENDBRANCH  25  26
ENDBRANCH  24  25
ENDBRANCH   1  24
TORSDOF 19
ENDMDL
