MODEL 1
REMARK VINA RESULT:     -12.0      0.000      0.000
REMARK SMILES COc1cc(Cl)c2c(c1)C=C(C(=O)NCCCCCCNC(=O)c1ccc(-c3c4nc(c(-c5c(F)c(F)c(F)c(F)c5F)c5ccc([nH]5)c(-c5c(F)c(F)c(F)c(F)c5F)c5nc(c(-c6c(F)c(F)c(F)c(F)c6F)c6ccc3[nH]6)C=C5)C=C4)cc1)[C@@H](C(F)(F)F)O2
REMARK SMILES IDX 18 1 17 2 16 3 15 4 14 5 12 6 13 7 11 9 3 10 4 11 9 12 5 13
REMARK SMILES IDX 8 14 6 15 7 16 10 17 92 18 87 19 2 20 1 21 88 22 89 23 90 24
REMARK SMILES IDX 91 25 19 26 20 27 21 28 22 29 23 31 24 32 25 33 86 34 26 35
REMARK SMILES IDX 85 36 27 37 28 38 29 39 79 40 30 41 84 42 78 43 80 44 31 45
REMARK SMILES IDX 83 46 77 47 76 48 32 50 64 51 44 52 63 53 45 54 48 55 62 56
REMARK SMILES IDX 81 57 46 58 47 59 61 61 82 62 49 63 33 64 34 65 42 66 35 67
REMARK SMILES IDX 36 68 40 69 43 70 37 71 38 72 41 73 39 74 65 75 66 76 74 77
REMARK SMILES IDX 67 78 68 79 72 80 75 81 69 82 70 83 73 84 71 85 50 86 51 87
REMARK SMILES IDX 59 88 52 89 53 90 57 91 60 92 54 93 55 94 58 95 56 96
REMARK H PARENT 14 8 21 30 80 49 48 60
REMARK Flexibility Score: inf
ROOT
ATOM      1  C   UNL A   1      33.045  28.781  24.512  1.00  0.00     0.002 C 
ENDROOT
BRANCH   1   2
ATOM      2  C   UNL A   1      31.560  29.032  24.215  1.00  0.00     0.002 C 
BRANCH   2   3
ATOM      3  C   UNL A   1      31.119  28.734  22.779  1.00  0.00     0.021 C 
BRANCH   3   4
ATOM      4  C   UNL A   1      30.764  27.272  22.531  1.00  0.00     0.116 C 
BRANCH   4   5
ATOM      5  N   UNL A   1      31.666  26.651  21.580  1.00  0.00    -0.352 N 
ATOM      6  C   UNL A   1      32.614  25.687  21.597  1.00  0.00     0.251 C 
ATOM      7  O   UNL A   1      33.141  25.453  20.504  1.00  0.00    -0.270 OA
ATOM      8  H   UNL A   1      31.560  27.035  20.679  1.00  0.00     0.163 HD
BRANCH   6   9
ATOM      9  C   UNL A   1      33.047  24.917  22.803  1.00  0.00     0.067 C 
ATOM     10  C   UNL A   1      36.562  22.345  24.922  1.00  0.00     0.121 A 
ATOM     11  C   UNL A   1      35.801  22.236  26.083  1.00  0.00     0.070 A 
ATOM     12  C   UNL A   1      36.083  23.093  23.843  1.00  0.00     0.058 A 
ATOM     13  C   UNL A   1      34.549  22.848  26.148  1.00  0.00     0.087 A 
ATOM     14  C   UNL A   1      34.822  23.697  23.900  1.00  0.00     0.022 A 
ATOM     15  Cl  UNL A   1      33.634  22.696  27.607  1.00  0.00    -0.080 Cl
ATOM     16  C   UNL A   1      34.050  23.565  25.054  1.00  0.00     0.146 A 
ATOM     17  C   UNL A   1      34.322  24.487  22.783  1.00  0.00     0.025 C 
ATOM     18  O   UNL A   1      32.830  24.163  25.179  1.00  0.00    -0.474 OA
ATOM     19  C   UNL A   1      32.155  24.577  23.962  1.00  0.00     0.314 C 
BRANCH  10  20
ATOM     20  O   UNL A   1      37.806  21.802  24.749  1.00  0.00    -0.497 OA
ATOM     21  C   UNL A   1      38.663  21.873  25.885  1.00  0.00     0.278 C 
ENDBRANCH  10  20
BRANCH  19  22
ATOM     22  C   UNL A   1      31.080  23.533  23.608  1.00  0.00     0.429 C 
ATOM     23  F   UNL A   1      30.655  22.891  24.725  1.00  0.00    -0.167 F 
ATOM     24  F   UNL A   1      29.979  24.086  23.048  1.00  0.00    -0.167 F 
ATOM     25  F   UNL A   1      31.535  22.596  22.747  1.00  0.00    -0.167 F 
ENDBRANCH  19  22
ENDBRANCH   6   9
ENDBRANCH   4   5
ENDBRANCH   3   4
ENDBRANCH   2   3
ENDBRANCH   1   2
BRANCH   1  26
ATOM     26  C   UNL A   1      33.334  27.672  25.527  1.00  0.00     0.021 C 
BRANCH  26  27
ATOM     27  C   UNL A   1      33.845  28.168  26.875  1.00  0.00     0.116 C 
BRANCH  27  28
ATOM     28  N   UNL A   1      33.639  29.597  27.035  1.00  0.00    -0.352 N 
ATOM     29  C   UNL A   1      34.424  30.507  27.694  1.00  0.00     0.251 C 
ATOM     30  H   UNL A   1      32.827  29.961  26.615  1.00  0.00     0.163 HD
ATOM     31  O   UNL A   1      34.018  31.640  27.924  1.00  0.00    -0.269 OA
BRANCH  29  32
ATOM     32  C   UNL A   1      35.772  30.104  28.134  1.00  0.00     0.039 A 
ATOM     33  C   UNL A   1      35.953  29.649  29.442  1.00  0.00     0.014 A 
ATOM     34  C   UNL A   1      36.854  30.186  27.251  1.00  0.00     0.014 A 
ATOM     35  C   UNL A   1      37.220  29.238  29.857  1.00  0.00     0.010 A 
ATOM     36  C   UNL A   1      38.105  29.730  27.649  1.00  0.00     0.010 A 
ATOM     37  C   UNL A   1      38.300  29.267  28.960  1.00  0.00    -0.014 A 
BRANCH  37  38
ATOM     38  C   UNL A   1      39.658  28.868  29.393  1.00  0.00     0.031 A 
ATOM     39  C   UNL A   1      40.415  29.746  30.345  1.00  0.00     0.074 A 
ATOM     40  C   UNL A   1      40.216  27.744  28.907  1.00  0.00     0.049 A 
ATOM     41  N   UNL A   1      41.625  29.601  30.821  1.00  0.00    -0.248 NA
ATOM     42  C   UNL A   1      39.726  30.959  30.814  1.00  0.00     0.031 C 
ATOM     43  C   UNL A   1      39.580  26.828  27.960  1.00  0.00     0.029 A 
ATOM     44  N   UNL A   1      41.448  27.187  29.138  1.00  0.00    -0.354 N 
ATOM     45  C   UNL A   1      41.838  30.697  31.645  1.00  0.00     0.074 A 
ATOM     46  C   UNL A   1      40.659  31.531  31.561  1.00  0.00     0.031 C 
ATOM     47  C   UNL A   1      40.421  25.811  27.706  1.00  0.00     0.029 A 
ATOM     48  C   UNL A   1      41.661  26.020  28.448  1.00  0.00     0.049 A 
ATOM     49  H   UNL A   1      42.115  27.587  29.742  1.00  0.00     0.167 HD
ATOM     50  C   UNL A   1      42.910  30.967  32.424  1.00  0.00     0.037 A 
ATOM     51  C   UNL A   1      42.739  25.212  28.423  1.00  0.00     0.037 A 
ATOM     52  C   UNL A   1      44.075  30.129  32.513  1.00  0.00     0.049 A 
ATOM     53  C   UNL A   1      43.937  25.560  29.264  1.00  0.00     0.074 A 
ATOM     54  C   UNL A   1      45.201  30.298  33.299  1.00  0.00     0.029 A 
ATOM     55  N   UNL A   1      44.263  28.962  31.785  1.00  0.00    -0.354 N 
ATOM     56  N   UNL A   1      44.108  26.570  30.080  1.00  0.00    -0.248 NA
ATOM     57  C   UNL A   1      45.089  24.650  29.185  1.00  0.00     0.031 C 
ATOM     58  C   UNL A   1      46.088  29.255  33.019  1.00  0.00     0.029 A 
ATOM     59  C   UNL A   1      45.497  28.412  32.090  1.00  0.00     0.049 A 
ATOM     60  H   UNL A   1      43.616  28.583  31.149  1.00  0.00     0.167 HD
ATOM     61  C   UNL A   1      45.374  26.409  30.628  1.00  0.00     0.074 A 
ATOM     62  C   UNL A   1      45.922  25.194  30.062  1.00  0.00     0.031 C 
ATOM     63  C   UNL A   1      46.022  27.197  31.521  1.00  0.00     0.037 A 
BRANCH  50  64
ATOM     64  C   UNL A   1      42.866  32.212  33.258  1.00  0.00     0.064 A 
ATOM     65  C   UNL A   1      42.349  32.197  34.562  1.00  0.00     0.173 A 
ATOM     66  C   UNL A   1      43.389  33.419  32.772  1.00  0.00     0.173 A 
ATOM     67  F   UNL A   1      41.824  31.071  35.068  1.00  0.00    -0.203 F 
ATOM     68  C   UNL A   1      42.341  33.351  35.343  1.00  0.00     0.198 A 
ATOM     69  C   UNL A   1      43.405  34.563  33.564  1.00  0.00     0.198 A 
ATOM     70  F   UNL A   1      43.898  33.485  31.531  1.00  0.00    -0.203 F 
ATOM     71  F   UNL A   1      41.809  33.322  36.572  1.00  0.00    -0.200 F 
ATOM     72  C   UNL A   1      42.878  34.530  34.847  1.00  0.00     0.200 A 
ATOM     73  F   UNL A   1      43.933  35.699  33.088  1.00  0.00    -0.200 F 
ATOM     74  F   UNL A   1      42.881  35.635  35.604  1.00  0.00    -0.200 F 
ENDBRANCH  50  64
BRANCH  51  75
ATOM     75  C   UNL A   1      42.715  23.977  27.598  1.00  0.00     0.064 A 
ATOM     76  C   UNL A   1      42.344  22.748  28.161  1.00  0.00     0.173 A 
ATOM     77  C   UNL A   1      43.049  23.997  26.236  1.00  0.00     0.173 A 
ATOM     78  F   UNL A   1      42.037  22.676  29.464  1.00  0.00    -0.203 F 
ATOM     79  C   UNL A   1      42.315  21.584  27.395  1.00  0.00     0.198 A 
ATOM     80  C   UNL A   1      42.996  22.838  25.465  1.00  0.00     0.198 A 
ATOM     81  F   UNL A   1      43.408  25.149  25.650  1.00  0.00    -0.203 F 
ATOM     82  F   UNL A   1      41.987  20.417  27.966  1.00  0.00    -0.200 F 
ATOM     83  C   UNL A   1      42.635  21.631  26.046  1.00  0.00     0.200 A 
ATOM     84  F   UNL A   1      43.294  22.889  24.161  1.00  0.00    -0.200 F 
ATOM     85  F   UNL A   1      42.599  20.513  25.309  1.00  0.00    -0.200 F 
ENDBRANCH  51  75
BRANCH  63  86
ATOM     86  C   UNL A   1      47.391  26.769  31.960  1.00  0.00     0.064 A 
ATOM     87  C   UNL A   1      48.546  27.278  31.352  1.00  0.00     0.173 A 
ATOM     88  C   UNL A   1      47.548  25.905  33.055  1.00  0.00     0.173 A 
ATOM     89  F   UNL A   1      48.447  28.097  30.293  1.00  0.00    -0.203 F 
ATOM     90  C   UNL A   1      49.811  26.929  31.817  1.00  0.00     0.198 A 
ATOM     91  C   UNL A   1      48.812  25.581  33.535  1.00  0.00     0.198 A 
ATOM     92  F   UNL A   1      46.472  25.398  33.677  1.00  0.00    -0.203 F 
ATOM     93  F   UNL A   1      50.903  27.404  31.203  1.00  0.00    -0.200 F 
ATOM     94  C   UNL A   1      49.943  26.091  32.914  1.00  0.00     0.200 A 
ATOM     95  F   UNL A   1      48.938  24.783  34.605  1.00  0.00    -0.200 F 
ATOM     96  F   UNL A   1      51.161  25.772  33.373  1.00  0.00    -0.200 F 
ENDBRANCH  63  86
ENDBRANCH  37  38
ENDBRANCH  29  32
ENDBRANCH  27  28
ENDBRANCH  26  27
ENDBRANCH   1  26
TORSDOF 15
ENDMDL
MODEL 2
REMARK VINA RESULT:     -11.9      3.151      8.291
REMARK SMILES COc1cc(Cl)c2c(c1)C=C(C(=O)NCCCCCCNC(=O)c1ccc(-c3c4nc(c(-c5c(F)c(F)c(F)c(F)c5F)c5ccc([nH]5)c(-c5c(F)c(F)c(F)c(F)c5F)c5nc(c(-c6c(F)c(F)c(F)c(F)c6F)c6ccc3[nH]6)C=C5)C=C4)cc1)[C@@H](C(F)(F)F)O2
REMARK SMILES IDX 18 1 17 2 16 3 15 4 14 5 12 6 13 7 11 9 3 10 4 11 9 12 5 13
REMARK SMILES IDX 8 14 6 15 7 16 10 17 92 18 87 19 2 20 1 21 88 22 89 23 90 24
REMARK SMILES IDX 91 25 19 26 20 27 21 28 22 29 23 31 24 32 25 33 86 34 26 35
REMARK SMILES IDX 85 36 27 37 28 38 29 39 79 40 30 41 84 42 78 43 80 44 31 45
REMARK SMILES IDX 83 46 77 47 76 48 32 50 64 51 44 52 63 53 45 54 48 55 62 56
REMARK SMILES IDX 81 57 46 58 47 59 61 61 82 62 49 63 33 64 34 65 42 66 35 67
REMARK SMILES IDX 36 68 40 69 43 70 37 71 38 72 41 73 39 74 65 75 66 76 74 77
REMARK SMILES IDX 67 78 68 79 72 80 75 81 69 82 70 83 73 84 71 85 50 86 51 87
REMARK SMILES IDX 59 88 52 89 53 90 57 91 60 92 54 93 55 94 58 95 56 96
REMARK H PARENT 14 8 21 30 80 49 48 60
REMARK Flexibility Score: inf
ROOT
ATOM      1  C   UNL A   1      31.412  30.831  26.021  1.00  0.00     0.002 C 
ENDROOT
BRANCH   1   2
ATOM      2  C   UNL A   1      32.313  29.924  26.871  1.00  0.00     0.002 C 
BRANCH   2   3
ATOM      3  C   UNL A   1      31.633  28.679  27.447  1.00  0.00     0.021 C 
BRANCH   3   4
ATOM      4  C   UNL A   1      32.188  27.365  26.908  1.00  0.00     0.116 C 
BRANCH   4   5
ATOM      5  N   UNL A   1      32.819  27.536  25.613  1.00  0.00    -0.352 N 
ATOM      6  C   UNL A   1      33.348  26.741  24.655  1.00  0.00     0.251 C 
ATOM      7  O   UNL A   1      33.775  27.336  23.660  1.00  0.00    -0.270 OA
ATOM      8  H   UNL A   1      32.880  28.488  25.365  1.00  0.00     0.163 HD
BRANCH   6   9
ATOM      9  C   UNL A   1      33.443  25.252  24.719  1.00  0.00     0.067 C 
ATOM     10  C   UNL A   1      36.350  21.384  24.947  1.00  0.00     0.121 A 
ATOM     11  C   UNL A   1      35.244  20.542  25.050  1.00  0.00     0.070 A 
ATOM     12  C   UNL A   1      36.168  22.769  24.901  1.00  0.00     0.058 A 
ATOM     13  C   UNL A   1      33.961  21.088  25.073  1.00  0.00     0.087 A 
ATOM     14  C   UNL A   1      34.882  23.318  24.910  1.00  0.00     0.022 A 
ATOM     15  Cl  UNL A   1      32.612  20.014  25.206  1.00  0.00    -0.080 Cl
ATOM     16  C   UNL A   1      33.775  22.472  24.987  1.00  0.00     0.146 A 
ATOM     17  C   UNL A   1      34.687  24.762  24.873  1.00  0.00     0.025 C 
ATOM     18  O   UNL A   1      32.500  22.956  25.037  1.00  0.00    -0.474 OA
ATOM     19  C   UNL A   1      32.276  24.316  24.582  1.00  0.00     0.314 C 
BRANCH  10  20
ATOM     20  O   UNL A   1      37.652  20.963  24.931  1.00  0.00    -0.497 OA
ATOM     21  C   UNL A   1      38.560  21.770  25.676  1.00  0.00     0.278 C 
ENDBRANCH  10  20
BRANCH  19  22
ATOM     22  C   UNL A   1      31.702  24.277  23.155  1.00  0.00     0.429 C 
ATOM     23  F   UNL A   1      31.149  23.066  22.898  1.00  0.00    -0.167 F 
ATOM     24  F   UNL A   1      30.721  25.188  22.961  1.00  0.00    -0.167 F 
ATOM     25  F   UNL A   1      32.645  24.503  22.213  1.00  0.00    -0.167 F 
ENDBRANCH  19  22
ENDBRANCH   6   9
ENDBRANCH   4   5
ENDBRANCH   3   4
ENDBRANCH   2   3
ENDBRANCH   1   2
BRANCH   1  26
ATOM     26  C   UNL A   1      31.300  32.282  26.500  1.00  0.00     0.021 C 
BRANCH  26  27
ATOM     27  C   UNL A   1      32.539  32.806  27.218  1.00  0.00     0.116 C 
BRANCH  27  28
ATOM     28  N   UNL A   1      32.387  34.197  27.606  1.00  0.00    -0.352 N 
ATOM     29  C   UNL A   1      33.013  34.877  28.617  1.00  0.00     0.251 C 
ATOM     30  H   UNL A   1      31.748  34.722  27.072  1.00  0.00     0.163 HD
ATOM     31  O   UNL A   1      32.631  35.991  28.959  1.00  0.00    -0.269 OA
BRANCH  29  32
ATOM     32  C   UNL A   1      34.158  34.250  29.301  1.00  0.00     0.039 A 
ATOM     33  C   UNL A   1      35.449  34.493  28.828  1.00  0.00     0.014 A 
ATOM     34  C   UNL A   1      33.948  33.416  30.405  1.00  0.00     0.014 A 
ATOM     35  C   UNL A   1      36.540  33.927  29.488  1.00  0.00     0.010 A 
ATOM     36  C   UNL A   1      35.038  32.893  31.091  1.00  0.00     0.010 A 
ATOM     37  C   UNL A   1      36.341  33.133  30.628  1.00  0.00    -0.014 A 
BRANCH  37  38
ATOM     38  C   UNL A   1      37.484  32.495  31.320  1.00  0.00     0.031 A 
ATOM     39  C   UNL A   1      38.215  31.369  30.651  1.00  0.00     0.074 A 
ATOM     40  C   UNL A   1      37.838  32.905  32.551  1.00  0.00     0.049 A 
ATOM     41  N   UNL A   1      39.215  30.652  31.094  1.00  0.00    -0.248 NA
ATOM     42  C   UNL A   1      37.748  30.985  29.308  1.00  0.00     0.031 C 
ATOM     43  C   UNL A   1      37.186  33.976  33.305  1.00  0.00     0.029 A 
ATOM     44  N   UNL A   1      38.831  32.463  33.388  1.00  0.00    -0.354 N 
ATOM     45  C   UNL A   1      39.498  29.741  30.087  1.00  0.00     0.074 A 
ATOM     46  C   UNL A   1      38.530  29.951  29.034  1.00  0.00     0.031 C 
ATOM     47  C   UNL A   1      37.808  34.120  34.487  1.00  0.00     0.029 A 
ATOM     48  C   UNL A   1      38.883  33.136  34.583  1.00  0.00     0.049 A 
ATOM     49  H   UNL A   1      39.448  31.733  33.153  1.00  0.00     0.167 HD
ATOM     50  C   UNL A   1      40.497  28.829  30.034  1.00  0.00     0.037 A 
ATOM     51  C   UNL A   1      39.708  32.973  35.635  1.00  0.00     0.037 A 
ATOM     52  C   UNL A   1      41.465  28.631  31.080  1.00  0.00     0.049 A 
ATOM     53  C   UNL A   1      40.781  31.921  35.570  1.00  0.00     0.074 A 
ATOM     54  C   UNL A   1      42.536  27.756  31.108  1.00  0.00     0.029 A 
ATOM     55  N   UNL A   1      41.475  29.320  32.284  1.00  0.00    -0.354 N 
ATOM     56  N   UNL A   1      41.074  31.099  34.593  1.00  0.00    -0.248 NA
ATOM     57  C   UNL A   1      41.643  31.778  36.753  1.00  0.00     0.031 C 
ATOM     58  C   UNL A   1      43.172  27.887  32.346  1.00  0.00     0.029 A 
ATOM     59  C   UNL A   1      42.523  28.874  33.072  1.00  0.00     0.049 A 
ATOM     60  H   UNL A   1      40.834  30.021  32.540  1.00  0.00     0.167 HD
ATOM     61  C   UNL A   1      42.165  30.358  35.030  1.00  0.00     0.074 A 
ATOM     62  C   UNL A   1      42.490  30.837  36.357  1.00  0.00     0.031 C 
ATOM     63  C   UNL A   1      42.835  29.370  34.388  1.00  0.00     0.037 A 
BRANCH  50  64
ATOM     64  C   UNL A   1      40.604  27.988  28.798  1.00  0.00     0.064 A 
ATOM     65  C   UNL A   1      39.889  26.788  28.670  1.00  0.00     0.173 A 
ATOM     66  C   UNL A   1      41.386  28.407  27.712  1.00  0.00     0.173 A 
ATOM     67  F   UNL A   1      39.138  26.337  29.687  1.00  0.00    -0.203 F 
ATOM     68  C   UNL A   1      39.967  26.028  27.506  1.00  0.00     0.198 A 
ATOM     69  C   UNL A   1      41.441  27.658  26.539  1.00  0.00     0.198 A 
ATOM     70  F   UNL A   1      42.087  29.549  27.784  1.00  0.00    -0.203 F 
ATOM     71  F   UNL A   1      39.305  24.867  27.420  1.00  0.00    -0.200 F 
ATOM     72  C   UNL A   1      40.735  26.469  26.438  1.00  0.00     0.200 A 
ATOM     73  F   UNL A   1      42.174  28.091  25.505  1.00  0.00    -0.200 F 
ATOM     74  F   UNL A   1      40.799  25.743  25.314  1.00  0.00    -0.200 F 
ENDBRANCH  50  64
BRANCH  51  75
ATOM     75  C   UNL A   1      39.572  33.854  36.823  1.00  0.00     0.064 A 
ATOM     76  C   UNL A   1      40.219  35.096  36.871  1.00  0.00     0.173 A 
ATOM     77  C   UNL A   1      38.786  33.485  37.925  1.00  0.00     0.173 A 
ATOM     78  F   UNL A   1      40.998  35.483  35.849  1.00  0.00    -0.203 F 
ATOM     79  C   UNL A   1      40.094  35.932  37.979  1.00  0.00     0.198 A 
ATOM     80  C   UNL A   1      38.643  34.331  39.022  1.00  0.00     0.198 A 
ATOM     81  F   UNL A   1      38.144  32.307  37.927  1.00  0.00    -0.203 F 
ATOM     82  F   UNL A   1      40.751  37.100  38.011  1.00  0.00    -0.200 F 
ATOM     83  C   UNL A   1      39.301  35.552  39.051  1.00  0.00     0.200 A 
ATOM     84  F   UNL A   1      37.866  33.966  40.051  1.00  0.00    -0.200 F 
ATOM     85  F   UNL A   1      39.175  36.359  40.113  1.00  0.00    -0.200 F 
ENDBRANCH  51  75
BRANCH  63  86
ATOM     86  C   UNL A   1      44.000  28.746  35.098  1.00  0.00     0.064 A 
ATOM     87  C   UNL A   1      45.289  29.286  35.001  1.00  0.00     0.173 A 
ATOM     88  C   UNL A   1      43.808  27.648  35.951  1.00  0.00     0.173 A 
ATOM     89  F   UNL A   1      45.525  30.328  34.189  1.00  0.00    -0.203 F 
ATOM     90  C   UNL A   1      46.348  28.743  35.724  1.00  0.00     0.198 A 
ATOM     91  C   UNL A   1      44.861  27.126  36.693  1.00  0.00     0.198 A 
ATOM     92  F   UNL A   1      42.590  27.101  36.084  1.00  0.00    -0.203 F 
ATOM     93  F   UNL A   1      47.579  29.257  35.595  1.00  0.00    -0.200 F 
ATOM     94  C   UNL A   1      46.131  27.671  36.577  1.00  0.00     0.200 A 
ATOM     95  F   UNL A   1      44.647  26.100  37.529  1.00  0.00    -0.200 F 
ATOM     96  F   UNL A   1      47.146  27.162  37.288  1.00  0.00    -0.200 F 
ENDBRANCH  63  86
ENDBRANCH  37  38
ENDBRANCH  29  32
ENDBRANCH  27  28
ENDBRANCH  26  27
ENDBRANCH   1  26
TORSDOF 15
ENDMDL
MODEL 3
REMARK VINA RESULT:     -11.9      3.216      8.548
REMARK SMILES COc1cc(Cl)c2c(c1)C=C(C(=O)NCCCCCCNC(=O)c1ccc(-c3c4nc(c(-c5c(F)c(F)c(F)c(F)c5F)c5ccc([nH]5)c(-c5c(F)c(F)c(F)c(F)c5F)c5nc(c(-c6c(F)c(F)c(F)c(F)c6F)c6ccc3[nH]6)C=C5)C=C4)cc1)[C@@H](C(F)(F)F)O2
REMARK SMILES IDX 18 1 17 2 16 3 15 4 14 5 12 6 13 7 11 9 3 10 4 11 9 12 5 13
REMARK SMILES IDX 8 14 6 15 7 16 10 17 92 18 87 19 2 20 1 21 88 22 89 23 90 24
REMARK SMILES IDX 91 25 19 26 20 27 21 28 22 29 23 31 24 32 25 33 86 34 26 35
REMARK SMILES IDX 85 36 27 37 28 38 29 39 79 40 30 41 84 42 78 43 80 44 31 45
REMARK SMILES IDX 83 46 77 47 76 48 32 50 64 51 44 52 63 53 45 54 48 55 62 56
REMARK SMILES IDX 81 57 46 58 47 59 61 61 82 62 49 63 33 64 34 65 42 66 35 67
REMARK SMILES IDX 36 68 40 69 43 70 37 71 38 72 41 73 39 74 65 75 66 76 74 77
REMARK SMILES IDX 67 78 68 79 72 80 75 81 69 82 70 83 73 84 71 85 50 86 51 87
REMARK SMILES IDX 59 88 52 89 53 90 57 91 60 92 54 93 55 94 58 95 56 96
REMARK H PARENT 14 8 21 30 80 49 48 60
REMARK Flexibility Score: inf
ROOT
ATOM      1  C   UNL A   1      35.628  22.199  24.211  1.00  0.00     0.002 C 
ENDROOT
BRANCH   1   2
ATOM      2  C   UNL A   1      34.844  21.120  24.973  1.00  0.00     0.002 C 
BRANCH   2   3
ATOM      3  C   UNL A   1      33.396  21.481  25.316  1.00  0.00     0.021 C 
BRANCH   3   4
ATOM      4  C   UNL A   1      33.183  21.866  26.776  1.00  0.00     0.116 C 
BRANCH   4   5
ATOM      5  N   UNL A   1      31.850  22.392  27.006  1.00  0.00    -0.352 N 
ATOM      6  C   UNL A   1      31.163  23.517  26.704  1.00  0.00     0.251 C 
ATOM      7  O   UNL A   1      29.992  23.535  27.097  1.00  0.00    -0.270 OA
ATOM      8  H   UNL A   1      31.297  21.760  27.521  1.00  0.00     0.163 HD
BRANCH   6   9
ATOM      9  C   UNL A   1      31.707  24.691  25.958  1.00  0.00     0.067 C 
ATOM     10  C   UNL A   1      32.797  29.410  26.064  1.00  0.00     0.121 A 
ATOM     11  C   UNL A   1      33.332  29.329  24.780  1.00  0.00     0.070 A 
ATOM     12  C   UNL A   1      32.317  28.257  26.692  1.00  0.00     0.058 A 
ATOM     13  C   UNL A   1      33.353  28.102  24.117  1.00  0.00     0.087 A 
ATOM     14  C   UNL A   1      32.326  27.028  26.024  1.00  0.00     0.022 A 
ATOM     15  Cl  UNL A   1      34.029  28.038  22.526  1.00  0.00    -0.080 Cl
ATOM     16  C   UNL A   1      32.838  26.954  24.729  1.00  0.00     0.146 A 
ATOM     17  C   UNL A   1      31.837  25.821  26.678  1.00  0.00     0.025 C 
ATOM     18  O   UNL A   1      32.904  25.774  24.045  1.00  0.00    -0.474 OA
ATOM     19  C   UNL A   1      32.058  24.685  24.497  1.00  0.00     0.314 C 
BRANCH  10  20
ATOM     20  O   UNL A   1      32.737  30.553  26.814  1.00  0.00    -0.497 OA
ATOM     21  C   UNL A   1      33.909  30.847  27.569  1.00  0.00     0.278 C 
ENDBRANCH  10  20
BRANCH  19  22
ATOM     22  C   UNL A   1      30.823  24.600  23.583  1.00  0.00     0.429 C 
ATOM     23  F   UNL A   1      29.776  25.263  24.135  1.00  0.00    -0.167 F 
ATOM     24  F   UNL A   1      31.030  25.163  22.371  1.00  0.00    -0.167 F 
ATOM     25  F   UNL A   1      30.428  23.326  23.366  1.00  0.00    -0.167 F 
ENDBRANCH  19  22
ENDBRANCH   6   9
ENDBRANCH   4   5
ENDBRANCH   3   4
ENDBRANCH   2   3
ENDBRANCH   1   2
BRANCH   1  26
ATOM     26  C   UNL A   1      35.642  23.584  24.862  1.00  0.00     0.021 C 
BRANCH  26  27
ATOM     27  C   UNL A   1      36.498  23.682  26.120  1.00  0.00     0.116 C 
BRANCH  27  28
ATOM     28  N   UNL A   1      37.567  22.698  26.119  1.00  0.00    -0.352 N 
ATOM     29  C   UNL A   1      38.901  22.883  26.372  1.00  0.00     0.251 C 
ATOM     30  H   UNL A   1      37.298  21.775  25.908  1.00  0.00     0.163 HD
ATOM     31  O   UNL A   1      39.717  22.000  26.131  1.00  0.00    -0.269 OA
BRANCH  29  32
ATOM     32  C   UNL A   1      39.352  24.168  26.938  1.00  0.00     0.039 A 
ATOM     33  C   UNL A   1      40.001  25.084  26.109  1.00  0.00     0.014 A 
ATOM     34  C   UNL A   1      39.134  24.456  28.289  1.00  0.00     0.014 A 
ATOM     35  C   UNL A   1      40.405  26.315  26.629  1.00  0.00     0.010 A 
ATOM     36  C   UNL A   1      39.492  25.701  28.795  1.00  0.00     0.010 A 
ATOM     37  C   UNL A   1      40.142  26.633  27.972  1.00  0.00    -0.014 A 
BRANCH  37  38
ATOM     38  C   UNL A   1      40.594  27.919  28.549  1.00  0.00     0.031 A 
ATOM     39  C   UNL A   1      42.046  28.113  28.871  1.00  0.00     0.074 A 
ATOM     40  C   UNL A   1      39.699  28.889  28.813  1.00  0.00     0.049 A 
ATOM     41  N   UNL A   1      42.644  29.143  29.412  1.00  0.00    -0.248 NA
ATOM     42  C   UNL A   1      42.947  26.992  28.556  1.00  0.00     0.031 C 
ATOM     43  C   UNL A   1      38.261  28.801  28.562  1.00  0.00     0.029 A 
ATOM     44  N   UNL A   1      39.868  30.136  29.358  1.00  0.00    -0.354 N 
ATOM     45  C   UNL A   1      43.984  28.797  29.497  1.00  0.00     0.074 A 
ATOM     46  C   UNL A   1      44.108  27.441  29.009  1.00  0.00     0.031 C 
ATOM     47  C   UNL A   1      37.681  29.954  28.935  1.00  0.00     0.029 A 
ATOM     48  C   UNL A   1      38.701  30.848  29.475  1.00  0.00     0.049 A 
ATOM     49  H   UNL A   1      40.745  30.487  29.637  1.00  0.00     0.167 HD
ATOM     50  C   UNL A   1      45.024  29.554  29.918  1.00  0.00     0.037 A 
ATOM     51  C   UNL A   1      38.485  32.084  29.964  1.00  0.00     0.037 A 
ATOM     52  C   UNL A   1      44.897  30.906  30.392  1.00  0.00     0.049 A 
ATOM     53  C   UNL A   1      39.652  32.889  30.469  1.00  0.00     0.074 A 
ATOM     54  C   UNL A   1      45.894  31.769  30.810  1.00  0.00     0.029 A 
ATOM     55  N   UNL A   1      43.695  31.588  30.513  1.00  0.00    -0.354 N 
ATOM     56  N   UNL A   1      40.923  32.572  30.498  1.00  0.00    -0.248 NA
ATOM     57  C   UNL A   1      39.354  34.225  31.006  1.00  0.00     0.031 C 
ATOM     58  C   UNL A   1      45.292  32.962  31.222  1.00  0.00     0.029 A 
ATOM     59  C   UNL A   1      43.924  32.857  31.019  1.00  0.00     0.049 A 
ATOM     60  H   UNL A   1      42.813  31.225  30.275  1.00  0.00     0.167 HD
ATOM     61  C   UNL A   1      41.580  33.674  31.030  1.00  0.00     0.074 A 
ATOM     62  C   UNL A   1      40.567  34.673  31.300  1.00  0.00     0.031 C 
ATOM     63  C   UNL A   1      42.903  33.840  31.274  1.00  0.00     0.037 A 
BRANCH  50  64
ATOM     64  C   UNL A   1      46.392  28.944  29.868  1.00  0.00     0.064 A 
ATOM     65  C   UNL A   1      46.917  28.241  30.964  1.00  0.00     0.173 A 
ATOM     66  C   UNL A   1      47.166  29.014  28.701  1.00  0.00     0.173 A 
ATOM     67  F   UNL A   1      46.221  28.157  32.108  1.00  0.00    -0.203 F 
ATOM     68  C   UNL A   1      48.175  27.649  30.899  1.00  0.00     0.198 A 
ATOM     69  C   UNL A   1      48.412  28.398  28.630  1.00  0.00     0.198 A 
ATOM     70  F   UNL A   1      46.708  29.672  27.624  1.00  0.00    -0.203 F 
ATOM     71  F   UNL A   1      48.672  27.016  31.970  1.00  0.00    -0.200 F 
ATOM     72  C   UNL A   1      48.917  27.719  29.729  1.00  0.00     0.200 A 
ATOM     73  F   UNL A   1      49.124  28.457  27.496  1.00  0.00    -0.200 F 
ATOM     74  F   UNL A   1      50.122  27.137  29.664  1.00  0.00    -0.200 F 
ENDBRANCH  50  64
BRANCH  51  75
ATOM     75  C   UNL A   1      37.110  32.647  29.964  1.00  0.00     0.064 A 
ATOM     76  C   UNL A   1      36.657  33.426  28.890  1.00  0.00     0.173 A 
ATOM     77  C   UNL A   1      36.221  32.412  31.022  1.00  0.00     0.173 A 
ATOM     78  F   UNL A   1      37.479  33.695  27.866  1.00  0.00    -0.203 F 
ATOM     79  C   UNL A   1      35.368  33.955  28.879  1.00  0.00     0.198 A 
ATOM     80  C   UNL A   1      34.924  32.922  30.999  1.00  0.00     0.198 A 
ATOM     81  F   UNL A   1      36.606  31.671  32.072  1.00  0.00    -0.203 F 
ATOM     82  F   UNL A   1      34.971  34.723  27.855  1.00  0.00    -0.200 F 
ATOM     83  C   UNL A   1      34.500  33.698  29.930  1.00  0.00     0.200 A 
ATOM     84  F   UNL A   1      34.085  32.661  32.010  1.00  0.00    -0.200 F 
ATOM     85  F   UNL A   1      33.259  34.201  29.914  1.00  0.00    -0.200 F 
ENDBRANCH  51  75
BRANCH  63  86
ATOM     86  C   UNL A   1      43.344  35.156  31.845  1.00  0.00     0.064 A 
ATOM     87  C   UNL A   1      43.688  36.233  31.018  1.00  0.00     0.173 A 
ATOM     88  C   UNL A   1      43.339  35.364  33.232  1.00  0.00     0.173 A 
ATOM     89  F   UNL A   1      43.718  36.079  29.685  1.00  0.00    -0.203 F 
ATOM     90  C   UNL A   1      44.023  37.471  31.561  1.00  0.00     0.198 A 
ATOM     91  C   UNL A   1      43.647  36.610  33.770  1.00  0.00     0.198 A 
ATOM     92  F   UNL A   1      43.009  34.366  34.066  1.00  0.00    -0.203 F 
ATOM     93  F   UNL A   1      44.376  38.481  30.753  1.00  0.00    -0.200 F 
ATOM     94  C   UNL A   1      43.991  37.661  32.934  1.00  0.00     0.200 A 
ATOM     95  F   UNL A   1      43.602  36.796  35.096  1.00  0.00    -0.200 F 
ATOM     96  F   UNL A   1      44.295  38.859  33.453  1.00  0.00    -0.200 F 
ENDBRANCH  63  86
ENDBRANCH  37  38
ENDBRANCH  29  32
ENDBRANCH  27  28
ENDBRANCH  26  27
ENDBRANCH   1  26
TORSDOF 15
ENDMDL
