MODEL 1
REMARK VINA RESULT:     -10.8      0.000      0.000
REMARK SMILES CC(C)(Br)[C@H](Br)C(=O)NCCCCCCNC(=O)c1ccc(-c2c3nc(c(-c4c(F)c(F)c(F)c(F)c4F)c4ccc([nH]4)c(-c4c(F)c(F)c(F)c(F)c4F)c4nc(c(-c5c(F)c(F)c(F)c(F)c5F)c5ccc2[nH]5)C=C4)C=C3)cc1
REMARK SMILES IDX 13 1 12 2 11 3 10 4 9 5 7 6 8 7 5 9 6 10 2 11 1 12 3 13 4 14
REMARK SMILES IDX 14 15 15 16 16 17 17 18 18 20 19 21 20 22 81 23 21 24 80 25
REMARK SMILES IDX 22 26 23 27 24 28 74 29 25 30 79 31 73 32 75 33 26 34 78 35
REMARK SMILES IDX 72 36 71 37 27 39 59 40 39 41 58 42 40 43 43 44 57 45 76 46
REMARK SMILES IDX 41 47 42 48 56 50 77 51 44 52 28 53 29 54 37 55 30 56 31 57
REMARK SMILES IDX 35 58 38 59 32 60 33 61 36 62 34 63 60 64 61 65 69 66 62 67
REMARK SMILES IDX 63 68 67 69 70 70 64 71 65 72 68 73 66 74 45 75 46 76 54 77
REMARK SMILES IDX 47 78 48 79 52 80 55 81 49 82 50 83 53 84 51 85
REMARK H PARENT 9 8 16 19 75 38 43 49
REMARK Flexibility Score: inf
ROOT
ATOM      1  C   UNL A   1      31.509  30.775  26.010  1.00  0.00     0.002 C 
ENDROOT
BRANCH   1   2
ATOM      2  C   UNL A   1      32.776  30.075  26.518  1.00  0.00     0.002 C 
BRANCH   2   3
ATOM      3  C   UNL A   1      32.573  28.658  27.068  1.00  0.00     0.021 C 
BRANCH   3   4
ATOM      4  C   UNL A   1      31.519  27.845  26.327  1.00  0.00     0.116 C 
BRANCH   4   5
ATOM      5  N   UNL A   1      31.301  26.541  26.926  1.00  0.00    -0.355 N 
ATOM      6  C   UNL A   1      31.447  25.290  26.411  1.00  0.00     0.235 C 
ATOM      7  O   UNL A   1      31.326  24.345  27.199  1.00  0.00    -0.274 OA
ATOM      8  H   UNL A   1      30.997  26.566  27.862  1.00  0.00     0.163 HD
BRANCH   6   9
ATOM      9  C   UNL A   1      31.768  25.013  24.946  1.00  0.00     0.162 C 
ATOM     10  Br  UNL A   1      30.305  25.720  23.837  1.00  0.00    -0.077 Br
BRANCH   9  11
ATOM     11  C   UNL A   1      33.211  25.212  24.425  1.00  0.00     0.042 C 
ATOM     12  C   UNL A   1      34.280  25.402  25.511  1.00  0.00     0.025 C 
ATOM     13  C   UNL A   1      33.239  26.435  23.484  1.00  0.00     0.025 C 
ATOM     14  Br  UNL A   1      33.887  23.726  23.293  1.00  0.00    -0.084 Br
ENDBRANCH   9  11
ENDBRANCH   6   9
ENDBRANCH   4   5
ENDBRANCH   3   4
ENDBRANCH   2   3
ENDBRANCH   1   2
BRANCH   1  15
ATOM     15  C   UNL A   1      31.348  32.237  26.436  1.00  0.00     0.021 C 
BRANCH  15  16
ATOM     16  C   UNL A   1      32.445  32.763  27.351  1.00  0.00     0.116 C 
BRANCH  16  17
ATOM     17  N   UNL A   1      32.300  34.181  27.628  1.00  0.00    -0.352 N 
ATOM     18  C   UNL A   1      32.957  34.964  28.541  1.00  0.00     0.251 C 
ATOM     19  H   UNL A   1      31.630  34.650  27.079  1.00  0.00     0.163 HD
ATOM     20  O   UNL A   1      32.574  36.113  28.756  1.00  0.00    -0.269 OA
BRANCH  18  21
ATOM     21  C   UNL A   1      34.112  34.425  29.287  1.00  0.00     0.039 A 
ATOM     22  C   UNL A   1      33.884  33.803  30.517  1.00  0.00     0.014 A 
ATOM     23  C   UNL A   1      35.414  34.537  28.788  1.00  0.00     0.014 A 
ATOM     24  C   UNL A   1      34.952  33.243  31.217  1.00  0.00     0.010 A 
ATOM     25  C   UNL A   1      36.466  33.910  29.449  1.00  0.00     0.010 A 
ATOM     26  C   UNL A   1      36.248  33.259  30.671  1.00  0.00    -0.014 A 
BRANCH  26  27
ATOM     27  C   UNL A   1      37.371  32.580  31.364  1.00  0.00     0.031 A 
ATOM     28  C   UNL A   1      38.084  31.426  30.719  1.00  0.00     0.074 A 
ATOM     29  C   UNL A   1      37.716  32.978  32.604  1.00  0.00     0.049 A 
ATOM     30  N   UNL A   1      39.078  30.708  31.176  1.00  0.00    -0.248 NA
ATOM     31  C   UNL A   1      37.601  31.007  29.395  1.00  0.00     0.031 C 
ATOM     32  C   UNL A   1      37.063  34.050  33.357  1.00  0.00     0.029 A 
ATOM     33  N   UNL A   1      38.699  32.529  33.449  1.00  0.00    -0.354 N 
ATOM     34  C   UNL A   1      39.332  29.749  30.203  1.00  0.00     0.074 A 
ATOM     35  C   UNL A   1      38.350  29.940  29.158  1.00  0.00     0.031 C 
ATOM     36  C   UNL A   1      37.686  34.201  34.536  1.00  0.00     0.029 A 
ATOM     37  C   UNL A   1      38.755  33.211  34.639  1.00  0.00     0.049 A 
ATOM     38  H   UNL A   1      39.306  31.788  33.224  1.00  0.00     0.167 HD
ATOM     39  C   UNL A   1      40.311  28.813  30.175  1.00  0.00     0.037 A 
ATOM     40  C   UNL A   1      39.573  33.056  35.696  1.00  0.00     0.037 A 
ATOM     41  C   UNL A   1      41.292  28.635  31.214  1.00  0.00     0.049 A 
ATOM     42  C   UNL A   1      40.641  31.998  35.647  1.00  0.00     0.074 A 
ATOM     43  C   UNL A   1      42.364  27.761  31.250  1.00  0.00     0.029 A 
ATOM     44  N   UNL A   1      41.313  29.341  32.410  1.00  0.00    -0.354 N 
ATOM     45  N   UNL A   1      40.926  31.154  34.685  1.00  0.00    -0.248 NA
ATOM     46  C   UNL A   1      41.504  31.877  36.829  1.00  0.00     0.031 C 
ATOM     47  C   UNL A   1      42.996  27.893  32.492  1.00  0.00     0.029 A 
ATOM     48  C   UNL A   1      42.358  28.895  33.205  1.00  0.00     0.049 A 
ATOM     49  H   UNL A   1      40.679  30.052  32.656  1.00  0.00     0.167 HD
ATOM     50  C   UNL A   1      42.016  30.419  35.134  1.00  0.00     0.074 A 
ATOM     51  C   UNL A   1      42.352  30.932  36.446  1.00  0.00     0.031 C 
ATOM     52  C   UNL A   1      42.676  29.409  34.514  1.00  0.00     0.037 A 
BRANCH  39  53
ATOM     53  C   UNL A   1      40.359  27.899  28.981  1.00  0.00     0.064 A 
ATOM     54  C   UNL A   1      39.638  26.695  28.940  1.00  0.00     0.173 A 
ATOM     55  C   UNL A   1      41.121  28.242  27.854  1.00  0.00     0.173 A 
ATOM     56  F   UNL A   1      38.900  26.314  29.993  1.00  0.00    -0.203 F 
ATOM     57  C   UNL A   1      39.711  25.851  27.834  1.00  0.00     0.198 A 
ATOM     58  C   UNL A   1      41.163  27.412  26.735  1.00  0.00     0.198 A 
ATOM     59  F   UNL A   1      41.824  29.384  27.833  1.00  0.00    -0.203 F 
ATOM     60  F   UNL A   1      39.062  24.678  27.845  1.00  0.00    -0.200 F 
ATOM     61  C   UNL A   1      40.467  26.214  26.731  1.00  0.00     0.200 A 
ATOM     62  F   UNL A   1      41.883  27.772  25.663  1.00  0.00    -0.200 F 
ATOM     63  F   UNL A   1      40.533  25.402  25.666  1.00  0.00    -0.200 F 
ENDBRANCH  39  53
BRANCH  40  64
ATOM     64  C   UNL A   1      39.435  33.950  36.875  1.00  0.00     0.064 A 
ATOM     65  C   UNL A   1      38.678  33.561  37.988  1.00  0.00     0.173 A 
ATOM     66  C   UNL A   1      40.066  35.203  36.920  1.00  0.00     0.173 A 
ATOM     67  F   UNL A   1      38.040  32.381  37.984  1.00  0.00    -0.203 F 
ATOM     68  C   UNL A   1      38.541  34.396  39.095  1.00  0.00     0.198 A 
ATOM     69  C   UNL A   1      39.953  36.025  38.041  1.00  0.00     0.198 A 
ATOM     70  F   UNL A   1      40.807  35.621  35.884  1.00  0.00    -0.203 F 
ATOM     71  F   UNL A   1      37.777  34.017  40.128  1.00  0.00    -0.200 F 
ATOM     72  C   UNL A   1      39.186  35.624  39.124  1.00  0.00     0.200 A 
ATOM     73  F   UNL A   1      40.590  37.203  38.070  1.00  0.00    -0.200 F 
ATOM     74  F   UNL A   1      39.063  36.423  40.192  1.00  0.00    -0.200 F 
ENDBRANCH  40  64
BRANCH  52  75
ATOM     75  C   UNL A   1      43.846  28.809  35.242  1.00  0.00     0.064 A 
ATOM     76  C   UNL A   1      43.697  27.707  36.097  1.00  0.00     0.173 A 
ATOM     77  C   UNL A   1      45.138  29.326  35.062  1.00  0.00     0.173 A 
ATOM     78  F   UNL A   1      42.481  27.183  36.318  1.00  0.00    -0.203 F 
ATOM     79  C   UNL A   1      44.789  27.168  36.771  1.00  0.00     0.198 A 
ATOM     80  C   UNL A   1      46.234  28.763  35.709  1.00  0.00     0.198 A 
ATOM     81  F   UNL A   1      45.340  30.374  34.248  1.00  0.00    -0.203 F 
ATOM     82  F   UNL A   1      44.612  26.154  37.630  1.00  0.00    -0.200 F 
ATOM     83  C   UNL A   1      46.058  27.693  36.571  1.00  0.00     0.200 A 
ATOM     84  F   UNL A   1      47.461  29.260  35.501  1.00  0.00    -0.200 F 
ATOM     85  F   UNL A   1      47.110  27.170  37.216  1.00  0.00    -0.200 F 
ENDBRANCH  52  75
ENDBRANCH  26  27
ENDBRANCH  18  21
ENDBRANCH  16  17
ENDBRANCH  15  16
ENDBRANCH   1  15
TORSDOF 14
ENDMDL
MODEL 2
REMARK VINA RESULT:     -10.8      0.671      1.529
REMARK SMILES CC(C)(Br)[C@H](Br)C(=O)NCCCCCCNC(=O)c1ccc(-c2c3nc(c(-c4c(F)c(F)c(F)c(F)c4F)c4ccc([nH]4)c(-c4c(F)c(F)c(F)c(F)c4F)c4nc(c(-c5c(F)c(F)c(F)c(F)c5F)c5ccc2[nH]5)C=C4)C=C3)cc1
REMARK SMILES IDX 13 1 12 2 11 3 10 4 9 5 7 6 8 7 5 9 6 10 2 11 1 12 3 13 4 14
REMARK SMILES IDX 14 15 15 16 16 17 17 18 18 20 19 21 20 22 81 23 21 24 80 25
REMARK SMILES IDX 22 26 23 27 24 28 74 29 25 30 79 31 73 32 75 33 26 34 78 35
REMARK SMILES IDX 72 36 71 37 27 39 59 40 39 41 58 42 40 43 43 44 57 45 76 46
REMARK SMILES IDX 41 47 42 48 56 50 77 51 44 52 28 53 29 54 37 55 30 56 31 57
REMARK SMILES IDX 35 58 38 59 32 60 33 61 36 62 34 63 60 64 61 65 69 66 62 67
REMARK SMILES IDX 63 68 67 69 70 70 64 71 65 72 68 73 66 74 45 75 46 76 54 77
REMARK SMILES IDX 47 78 48 79 52 80 55 81 49 82 50 83 53 84 51 85
REMARK H PARENT 9 8 16 19 75 38 43 49
REMARK Flexibility Score: inf
ROOT
ATOM      1  C   UNL A   1      31.593  30.493  26.015  1.00  0.00     0.002 C 
ENDROOT
BRANCH   1   2
ATOM      2  C   UNL A   1      32.178  29.524  27.050  1.00  0.00     0.002 C 
BRANCH   2   3
ATOM      3  C   UNL A   1      32.579  28.146  26.512  1.00  0.00     0.021 C 
BRANCH   3   4
ATOM      4  C   UNL A   1      31.438  27.372  25.862  1.00  0.00     0.116 C 
BRANCH   4   5
ATOM      5  N   UNL A   1      31.128  26.142  26.568  1.00  0.00    -0.355 N 
ATOM      6  C   UNL A   1      31.628  24.884  26.424  1.00  0.00     0.235 C 
ATOM      7  O   UNL A   1      31.279  24.047  27.265  1.00  0.00    -0.274 OA
ATOM      8  H   UNL A   1      30.442  26.233  27.267  1.00  0.00     0.163 HD
BRANCH   6   9
ATOM      9  C   UNL A   1      32.592  24.481  25.314  1.00  0.00     0.162 C 
ATOM     10  Br  UNL A   1      34.250  23.812  26.133  1.00  0.00    -0.077 Br
BRANCH   9  11
ATOM     11  C   UNL A   1      32.061  23.727  24.071  1.00  0.00     0.042 C 
ATOM     12  C   UNL A   1      30.639  24.104  23.634  1.00  0.00     0.025 C 
ATOM     13  C   UNL A   1      32.108  22.210  24.349  1.00  0.00     0.025 C 
ATOM     14  Br  UNL A   1      33.175  23.947  22.441  1.00  0.00    -0.084 Br
ENDBRANCH   9  11
ENDBRANCH   6   9
ENDBRANCH   4   5
ENDBRANCH   3   4
ENDBRANCH   2   3
ENDBRANCH   1   2
BRANCH   1  15
ATOM     15  C   UNL A   1      31.397  31.933  26.497  1.00  0.00     0.021 C 
BRANCH  15  16
ATOM     16  C   UNL A   1      32.595  32.536  27.219  1.00  0.00     0.116 C 
BRANCH  16  17
ATOM     17  N   UNL A   1      32.396  33.938  27.542  1.00  0.00    -0.352 N 
ATOM     18  C   UNL A   1      33.012  34.711  28.491  1.00  0.00     0.251 C 
ATOM     19  H   UNL A   1      31.720  34.403  26.997  1.00  0.00     0.163 HD
ATOM     20  O   UNL A   1      32.586  35.838  28.738  1.00  0.00    -0.269 OA
BRANCH  18  21
ATOM     21  C   UNL A   1      34.172  34.186  29.239  1.00  0.00     0.039 A 
ATOM     22  C   UNL A   1      33.940  33.402  30.371  1.00  0.00     0.014 A 
ATOM     23  C   UNL A   1      35.482  34.468  28.837  1.00  0.00     0.014 A 
ATOM     24  C   UNL A   1      35.018  32.854  31.066  1.00  0.00     0.010 A 
ATOM     25  C   UNL A   1      36.552  33.857  29.483  1.00  0.00     0.010 A 
ATOM     26  C   UNL A   1      36.333  33.047  30.606  1.00  0.00    -0.014 A 
BRANCH  26  27
ATOM     27  C   UNL A   1      37.477  32.387  31.283  1.00  0.00     0.031 A 
ATOM     28  C   UNL A   1      38.205  31.250  30.624  1.00  0.00     0.074 A 
ATOM     29  C   UNL A   1      37.828  32.786  32.521  1.00  0.00     0.049 A 
ATOM     30  N   UNL A   1      39.219  30.550  31.066  1.00  0.00    -0.248 NA
ATOM     31  C   UNL A   1      37.715  30.828  29.303  1.00  0.00     0.031 C 
ATOM     32  C   UNL A   1      37.163  33.841  33.286  1.00  0.00     0.029 A 
ATOM     33  N   UNL A   1      38.829  32.352  33.352  1.00  0.00    -0.354 N 
ATOM     34  C   UNL A   1      39.481  29.601  30.086  1.00  0.00     0.074 A 
ATOM     35  C   UNL A   1      38.483  29.778  29.052  1.00  0.00     0.031 C 
ATOM     36  C   UNL A   1      37.795  33.998  34.459  1.00  0.00     0.029 A 
ATOM     37  C   UNL A   1      38.885  33.029  34.545  1.00  0.00     0.049 A 
ATOM     38  H   UNL A   1      39.448  31.624  33.117  1.00  0.00     0.167 HD
ATOM     39  C   UNL A   1      40.477  28.685  30.041  1.00  0.00     0.037 A 
ATOM     40  C   UNL A   1      39.719  32.886  35.592  1.00  0.00     0.037 A 
ATOM     41  C   UNL A   1      41.474  28.522  31.068  1.00  0.00     0.049 A 
ATOM     42  C   UNL A   1      40.806  31.849  35.525  1.00  0.00     0.074 A 
ATOM     43  C   UNL A   1      42.563  27.669  31.088  1.00  0.00     0.029 A 
ATOM     44  N   UNL A   1      41.494  29.222  32.267  1.00  0.00    -0.354 N 
ATOM     45  N   UNL A   1      41.098  31.015  34.556  1.00  0.00    -0.248 NA
ATOM     46  C   UNL A   1      41.685  31.739  36.697  1.00  0.00     0.031 C 
ATOM     47  C   UNL A   1      43.206  27.807  32.323  1.00  0.00     0.029 A 
ATOM     48  C   UNL A   1      42.557  28.793  33.048  1.00  0.00     0.049 A 
ATOM     49  H   UNL A   1      40.849  29.919  32.525  1.00  0.00     0.167 HD
ATOM     50  C   UNL A   1      42.206  30.300  34.989  1.00  0.00     0.074 A 
ATOM     51  C   UNL A   1      42.547  30.813  36.300  1.00  0.00     0.031 C 
ATOM     52  C   UNL A   1      42.880  29.307  34.357  1.00  0.00     0.037 A 
BRANCH  39  53
ATOM     53  C   UNL A   1      40.530  27.778  28.842  1.00  0.00     0.064 A 
ATOM     54  C   UNL A   1      41.350  28.060  27.737  1.00  0.00     0.173 A 
ATOM     55  C   UNL A   1      39.768  26.601  28.806  1.00  0.00     0.173 A 
ATOM     56  F   UNL A   1      42.094  29.176  27.715  1.00  0.00    -0.203 F 
ATOM     57  C   UNL A   1      41.372  27.219  26.627  1.00  0.00     0.198 A 
ATOM     58  C   UNL A   1      39.820  25.745  27.709  1.00  0.00     0.198 A 
ATOM     59  F   UNL A   1      38.973  26.277  29.837  1.00  0.00    -0.203 F 
ATOM     60  F   UNL A   1      42.115  27.543  25.559  1.00  0.00    -0.200 F 
ATOM     61  C   UNL A   1      40.612  26.060  26.616  1.00  0.00     0.200 A 
ATOM     62  F   UNL A   1      39.096  24.616  27.707  1.00  0.00    -0.200 F 
ATOM     63  F   UNL A   1      40.637  25.250  25.548  1.00  0.00    -0.200 F 
ENDBRANCH  39  53
BRANCH  40  64
ATOM     64  C   UNL A   1      39.576  33.771  36.777  1.00  0.00     0.064 A 
ATOM     65  C   UNL A   1      38.806  33.378  37.880  1.00  0.00     0.173 A 
ATOM     66  C   UNL A   1      40.215  35.019  36.838  1.00  0.00     0.173 A 
ATOM     67  F   UNL A   1      38.160  32.203  37.860  1.00  0.00    -0.203 F 
ATOM     68  C   UNL A   1      38.665  34.205  38.992  1.00  0.00     0.198 A 
ATOM     69  C   UNL A   1      40.098  35.832  37.964  1.00  0.00     0.198 A 
ATOM     70  F   UNL A   1      40.969  35.440  35.812  1.00  0.00    -0.203 F 
ATOM     71  F   UNL A   1      37.890  33.823  40.015  1.00  0.00    -0.200 F 
ATOM     72  C   UNL A   1      39.318  35.428  39.037  1.00  0.00     0.200 A 
ATOM     73  F   UNL A   1      40.743  37.005  38.009  1.00  0.00    -0.200 F 
ATOM     74  F   UNL A   1      39.191  36.219  40.111  1.00  0.00    -0.200 F 
ENDBRANCH  40  64
BRANCH  52  75
ATOM     75  C   UNL A   1      44.070  28.726  35.068  1.00  0.00     0.064 A 
ATOM     76  C   UNL A   1      43.961  27.588  35.881  1.00  0.00     0.173 A 
ATOM     77  C   UNL A   1      45.341  29.301  34.915  1.00  0.00     0.173 A 
ATOM     78  F   UNL A   1      42.766  27.008  36.074  1.00  0.00    -0.203 F 
ATOM     79  C   UNL A   1      45.071  27.068  36.540  1.00  0.00     0.198 A 
ATOM     80  C   UNL A   1      46.455  28.758  35.546  1.00  0.00     0.198 A 
ATOM     81  F   UNL A   1      45.504  30.386  34.142  1.00  0.00    -0.203 F 
ATOM     82  F   UNL A   1      44.930  26.016  37.359  1.00  0.00    -0.200 F 
ATOM     83  C   UNL A   1      46.319  27.650  36.367  1.00  0.00     0.200 A 
ATOM     84  F   UNL A   1      47.662  29.311  35.364  1.00  0.00    -0.200 F 
ATOM     85  F   UNL A   1      47.388  27.145  36.998  1.00  0.00    -0.200 F 
ENDBRANCH  52  75
ENDBRANCH  26  27
ENDBRANCH  18  21
ENDBRANCH  16  17
ENDBRANCH  15  16
ENDBRANCH   1  15
TORSDOF 14
ENDMDL
MODEL 3
REMARK VINA RESULT:     -10.8      1.030      7.930
REMARK SMILES CC(C)(Br)[C@H](Br)C(=O)NCCCCCCNC(=O)c1ccc(-c2c3nc(c(-c4c(F)c(F)c(F)c(F)c4F)c4ccc([nH]4)c(-c4c(F)c(F)c(F)c(F)c4F)c4nc(c(-c5c(F)c(F)c(F)c(F)c5F)c5ccc2[nH]5)C=C4)C=C3)cc1
REMARK SMILES IDX 13 1 12 2 11 3 10 4 9 5 7 6 8 7 5 9 6 10 2 11 1 12 3 13 4 14
REMARK SMILES IDX 14 15 15 16 16 17 17 18 18 20 19 21 20 22 81 23 21 24 80 25
REMARK SMILES IDX 22 26 23 27 24 28 74 29 25 30 79 31 73 32 75 33 26 34 78 35
REMARK SMILES IDX 72 36 71 37 27 39 59 40 39 41 58 42 40 43 43 44 57 45 76 46
REMARK SMILES IDX 41 47 42 48 56 50 77 51 44 52 28 53 29 54 37 55 30 56 31 57
REMARK SMILES IDX 35 58 38 59 32 60 33 61 36 62 34 63 60 64 61 65 69 66 62 67
REMARK SMILES IDX 63 68 67 69 70 70 64 71 65 72 68 73 66 74 45 75 46 76 54 77
REMARK SMILES IDX 47 78 48 79 52 80 55 81 49 82 50 83 53 84 51 85
REMARK H PARENT 9 8 16 19 75 38 43 49
REMARK Flexibility Score: inf
ROOT
ATOM      1  C   UNL A   1      31.666  30.265  26.184  1.00  0.00     0.002 C 
ENDROOT
BRANCH   1   2
ATOM      2  C   UNL A   1      31.824  29.198  27.275  1.00  0.00     0.002 C 
BRANCH   2   3
ATOM      3  C   UNL A   1      32.384  27.851  26.805  1.00  0.00     0.021 C 
BRANCH   3   4
ATOM      4  C   UNL A   1      31.423  27.038  25.947  1.00  0.00     0.116 C 
BRANCH   4   5
ATOM      5  N   UNL A   1      31.030  25.792  26.580  1.00  0.00    -0.355 N 
ATOM      6  C   UNL A   1      31.630  24.570  26.586  1.00  0.00     0.235 C 
ATOM      7  O   UNL A   1      31.142  23.714  27.333  1.00  0.00    -0.274 OA
ATOM      8  H   UNL A   1      30.190  25.839  27.091  1.00  0.00     0.163 HD
BRANCH   6   9
ATOM      9  C   UNL A   1      32.859  24.229  25.750  1.00  0.00     0.162 C 
ATOM     10  Br  UNL A   1      34.066  23.116  26.832  1.00  0.00    -0.077 Br
BRANCH   9  11
ATOM     11  C   UNL A   1      32.693  23.852  24.258  1.00  0.00     0.042 C 
ATOM     12  C   UNL A   1      33.172  22.443  23.882  1.00  0.00     0.025 C 
ATOM     13  C   UNL A   1      33.455  24.880  23.395  1.00  0.00     0.025 C 
ATOM     14  Br  UNL A   1      30.826  23.958  23.588  1.00  0.00    -0.084 Br
ENDBRANCH   9  11
ENDBRANCH   6   9
ENDBRANCH   4   5
ENDBRANCH   3   4
ENDBRANCH   2   3
ENDBRANCH   1   2
BRANCH   1  15
ATOM     15  C   UNL A   1      31.464  31.697  26.686  1.00  0.00     0.021 C 
BRANCH  15  16
ATOM     16  C   UNL A   1      32.749  32.472  26.947  1.00  0.00     0.116 C 
BRANCH  16  17
ATOM     17  N   UNL A   1      32.493  33.822  27.418  1.00  0.00    -0.352 N 
ATOM     18  C   UNL A   1      33.068  34.509  28.455  1.00  0.00     0.251 C 
ATOM     19  H   UNL A   1      31.805  34.318  26.918  1.00  0.00     0.163 HD
ATOM     20  O   UNL A   1      32.596  35.585  28.817  1.00  0.00    -0.269 OA
BRANCH  18  21
ATOM     21  C   UNL A   1      34.240  33.948  29.158  1.00  0.00     0.039 A 
ATOM     22  C   UNL A   1      34.042  32.901  30.060  1.00  0.00     0.014 A 
ATOM     23  C   UNL A   1      35.526  34.455  28.941  1.00  0.00     0.014 A 
ATOM     24  C   UNL A   1      35.139  32.322  30.699  1.00  0.00     0.010 A 
ATOM     25  C   UNL A   1      36.625  33.826  29.518  1.00  0.00     0.010 A 
ATOM     26  C   UNL A   1      36.444  32.756  30.406  1.00  0.00    -0.014 A 
BRANCH  26  27
ATOM     27  C   UNL A   1      37.620  32.081  31.008  1.00  0.00     0.031 A 
ATOM     28  C   UNL A   1      38.098  32.456  32.382  1.00  0.00     0.074 A 
ATOM     29  C   UNL A   1      38.289  31.158  30.290  1.00  0.00     0.049 A 
ATOM     30  N   UNL A   1      39.111  31.982  33.064  1.00  0.00    -0.248 NA
ATOM     31  C   UNL A   1      37.358  33.523  33.072  1.00  0.00     0.031 C 
ATOM     32  C   UNL A   1      37.954  30.748  28.925  1.00  0.00     0.029 A 
ATOM     33  N   UNL A   1      39.387  30.399  30.605  1.00  0.00    -0.354 N 
ATOM     34  C   UNL A   1      39.133  32.696  34.255  1.00  0.00     0.074 A 
ATOM     35  C   UNL A   1      38.070  33.676  34.178  1.00  0.00     0.031 C 
ATOM     36  C   UNL A   1      38.805  29.787  28.534  1.00  0.00     0.029 A 
ATOM     37  C   UNL A   1      39.768  29.541  29.604  1.00  0.00     0.049 A 
ATOM     38  H   UNL A   1      39.857  30.464  31.468  1.00  0.00     0.167 HD
ATOM     39  C   UNL A   1      39.949  32.533  35.323  1.00  0.00     0.037 A 
ATOM     40  C   UNL A   1      40.781  28.656  29.551  1.00  0.00     0.037 A 
ATOM     41  C   UNL A   1      40.998  31.548  35.398  1.00  0.00     0.049 A 
ATOM     42  C   UNL A   1      41.684  28.505  30.744  1.00  0.00     0.074 A 
ATOM     43  C   UNL A   1      41.836  31.256  36.459  1.00  0.00     0.029 A 
ATOM     44  N   UNL A   1      41.360  30.700  34.360  1.00  0.00    -0.354 N 
ATOM     45  N   UNL A   1      41.642  29.126  31.898  1.00  0.00    -0.248 NA
ATOM     46  C   UNL A   1      42.771  27.524  30.628  1.00  0.00     0.031 C 
ATOM     47  C   UNL A   1      42.745  30.277  36.044  1.00  0.00     0.029 A 
ATOM     48  C   UNL A   1      42.434  29.911  34.745  1.00  0.00     0.049 A 
ATOM     49  H   UNL A   1      40.920  30.664  33.480  1.00  0.00     0.167 HD
ATOM     50  C   UNL A   1      42.679  28.595  32.655  1.00  0.00     0.074 A 
ATOM     51  C   UNL A   1      43.318  27.586  31.834  1.00  0.00     0.031 C 
ATOM     52  C   UNL A   1      43.066  28.916  33.914  1.00  0.00     0.037 A 
BRANCH  39  53
ATOM     53  C   UNL A   1      39.744  33.450  36.498  1.00  0.00     0.064 A 
ATOM     54  C   UNL A   1      40.381  34.698  36.583  1.00  0.00     0.173 A 
ATOM     55  C   UNL A   1      38.883  33.084  37.544  1.00  0.00     0.173 A 
ATOM     56  F   UNL A   1      41.222  35.094  35.615  1.00  0.00    -0.203 F 
ATOM     57  C   UNL A   1      40.196  35.526  37.687  1.00  0.00     0.198 A 
ATOM     58  C   UNL A   1      38.672  33.931  38.630  1.00  0.00     0.198 A 
ATOM     59  F   UNL A   1      38.241  31.907  37.513  1.00  0.00    -0.203 F 
ATOM     60  F   UNL A   1      40.864  36.684  37.773  1.00  0.00    -0.200 F 
ATOM     61  C   UNL A   1      39.337  35.144  38.706  1.00  0.00     0.200 A 
ATOM     62  F   UNL A   1      37.829  33.567  39.607  1.00  0.00    -0.200 F 
ATOM     63  F   UNL A   1      39.156  35.944  39.767  1.00  0.00    -0.200 F 
ENDBRANCH  39  53
BRANCH  40  64
ATOM     64  C   UNL A   1      40.971  27.821  28.337  1.00  0.00     0.064 A 
ATOM     65  C   UNL A   1      41.771  28.266  27.276  1.00  0.00     0.173 A 
ATOM     66  C   UNL A   1      40.368  26.560  28.215  1.00  0.00     0.173 A 
ATOM     67  F   UNL A   1      42.352  29.474  27.337  1.00  0.00    -0.203 F 
ATOM     68  C   UNL A   1      41.951  27.490  26.133  1.00  0.00     0.198 A 
ATOM     69  C   UNL A   1      40.573  25.771  27.084  1.00  0.00     0.198 A 
ATOM     70  F   UNL A   1      39.597  26.085  29.204  1.00  0.00    -0.203 F 
ATOM     71  F   UNL A   1      42.688  27.957  25.117  1.00  0.00    -0.200 F 
ATOM     72  C   UNL A   1      41.358  26.240  26.041  1.00  0.00     0.200 A 
ATOM     73  F   UNL A   1      40.011  24.558  27.007  1.00  0.00    -0.200 F 
ATOM     74  F   UNL A   1      41.538  25.489  24.946  1.00  0.00    -0.200 F 
ENDBRANCH  40  64
BRANCH  52  75
ATOM     75  C   UNL A   1      44.223  28.148  34.491  1.00  0.00     0.064 A 
ATOM     76  C   UNL A   1      45.541  28.617  34.392  1.00  0.00     0.173 A 
ATOM     77  C   UNL A   1      44.007  26.941  35.174  1.00  0.00     0.173 A 
ATOM     78  F   UNL A   1      45.806  29.757  33.737  1.00  0.00    -0.203 F 
ATOM     79  C   UNL A   1      46.603  27.889  34.924  1.00  0.00     0.198 A 
ATOM     80  C   UNL A   1      45.066  26.235  35.735  1.00  0.00     0.198 A 
ATOM     81  F   UNL A   1      42.765  26.451  35.305  1.00  0.00    -0.203 F 
ATOM     82  F   UNL A   1      47.860  28.327  34.764  1.00  0.00    -0.200 F 
ATOM     83  C   UNL A   1      46.363  26.702  35.601  1.00  0.00     0.200 A 
ATOM     84  F   UNL A   1      44.830  25.097  36.403  1.00  0.00    -0.200 F 
ATOM     85  F   UNL A   1      47.385  26.005  36.117  1.00  0.00    -0.200 F 
ENDBRANCH  52  75
ENDBRANCH  26  27
ENDBRANCH  18  21
ENDBRANCH  16  17
ENDBRANCH  15  16
ENDBRANCH   1  15
TORSDOF 14
ENDMDL
