MODEL 1
REMARK VINA RESULT:     -13.6      0.000      0.000
REMARK SMILES O=C(NCCCCCCNC(=O)[C@H](NC(=O)[C@H]1CC[C@@H](CNC(=O)[C@@H]2Cc3ccccc3C[NH2+]2)CC1)c1ccccc1)c1ccc(-c2c3nc(c(-c4c(F)c(F)c(F)c(F)c4F)c4ccc([nH]4)c(-c4c(F)c(F)c(F)c(F)c4F)c4nc(c(-c5c(F)c(F)c(F)c(F)c5F)c5ccc2[nH]5)C=C4)C=C3)cc1
REMARK SMILES IDX 8 1 7 2 6 3 5 4 4 5 3 6 1 7 2 8 43 10 44 11 105 12 45 13
REMARK SMILES IDX 104 14 46 15 47 16 48 17 98 18 49 19 103 20 97 21 99 22
REMARK SMILES IDX 50 23 102 24 96 25 95 26 51 28 83 29 63 30 82 31 64 32 67 33
REMARK SMILES IDX 81 34 100 35 65 36 66 37 80 39 101 40 68 41 52 42 53 43
REMARK SMILES IDX 61 44 54 45 55 46 59 47 62 48 56 49 57 50 60 51 58 52 84 53
REMARK SMILES IDX 85 54 93 55 86 56 87 57 91 58 94 59 88 60 89 61 92 62 90 63
REMARK SMILES IDX 69 64 70 65 78 66 71 67 72 68 76 69 79 70 73 71 74 72 77 73
REMARK SMILES IDX 75 74 9 75 10 76 11 77 12 79 13 80 37 81 38 82 42 83 39 84
REMARK SMILES IDX 41 85 40 86 14 87 15 88 16 90 17 91 36 92 18 93 35 94 19 95
REMARK SMILES IDX 20 96 21 97 22 98 23 99 24 101 25 102 26 103 34 104 27 105
REMARK SMILES IDX 33 106 28 109 32 110 29 111 31 112 30 113
REMARK H PARENT 3 9 99 27 67 38 10 78 14 89 22 100 34 107 34 108
REMARK Flexibility Score: inf
ROOT
ATOM      1  C   UNL A   1      33.832  29.290  26.576  1.00  0.00     0.021 C 
ENDROOT
BRANCH   1   2
ATOM      2  C   UNL A   1      33.257  30.467  27.366  1.00  0.00     0.002 C 
BRANCH   2   3
ATOM      3  C   UNL A   1      31.846  30.893  26.945  1.00  0.00     0.002 C 
BRANCH   3   4
ATOM      4  C   UNL A   1      31.621  32.403  26.864  1.00  0.00     0.021 C 
BRANCH   4   5
ATOM      5  C   UNL A   1      32.818  33.246  27.280  1.00  0.00     0.116 C 
BRANCH   5   6
ATOM      6  N   UNL A   1      32.436  34.546  27.796  1.00  0.00    -0.352 N 
ATOM      7  O   UNL A   1      32.507  36.258  29.273  1.00  0.00    -0.269 OA
ATOM      8  C   UNL A   1      32.984  35.214  28.863  1.00  0.00     0.251 C 
ATOM      9  H   UNL A   1      31.700  35.002  27.327  1.00  0.00     0.163 HD
BRANCH   8  10
ATOM     10  C   UNL A   1      34.163  34.616  29.519  1.00  0.00     0.039 A 
ATOM     11  C   UNL A   1      34.031  33.990  30.762  1.00  0.00     0.014 A 
ATOM     12  C   UNL A   1      35.405  34.712  28.892  1.00  0.00     0.014 A 
ATOM     13  C   UNL A   1      35.161  33.522  31.417  1.00  0.00     0.010 A 
ATOM     14  C   UNL A   1      36.529  34.174  29.517  1.00  0.00     0.010 A 
ATOM     15  C   UNL A   1      36.412  33.573  30.780  1.00  0.00    -0.014 A 
BRANCH  15  16
ATOM     16  C   UNL A   1      37.556  32.845  31.375  1.00  0.00     0.031 A 
ATOM     17  C   UNL A   1      38.179  31.668  30.691  1.00  0.00     0.074 A 
ATOM     18  C   UNL A   1      37.997  33.262  32.579  1.00  0.00     0.049 A 
ATOM     19  N   UNL A   1      39.145  30.893  31.113  1.00  0.00    -0.248 NA
ATOM     20  C   UNL A   1      37.649  31.302  29.369  1.00  0.00     0.031 C 
ATOM     21  C   UNL A   1      37.434  34.385  33.336  1.00  0.00     0.029 A 
ATOM     22  N   UNL A   1      39.005  32.796  33.380  1.00  0.00    -0.354 N 
ATOM     23  C   UNL A   1      39.327  29.937  30.125  1.00  0.00     0.074 A 
ATOM     24  C   UNL A   1      38.365  30.220  29.080  1.00  0.00     0.031 C 
ATOM     25  C   UNL A   1      38.116  34.532  34.480  1.00  0.00     0.029 A 
ATOM     26  C   UNL A   1      39.113  33.474  34.569  1.00  0.00     0.049 A 
ATOM     27  H   UNL A   1      39.595  32.048  33.128  1.00  0.00     0.167 HD
ATOM     28  C   UNL A   1      40.221  28.920  30.103  1.00  0.00     0.037 A 
ATOM     29  C   UNL A   1      39.899  33.243  35.636  1.00  0.00     0.037 A 
ATOM     30  C   UNL A   1      41.187  28.670  31.143  1.00  0.00     0.049 A 
ATOM     31  C   UNL A   1      40.856  32.088  35.586  1.00  0.00     0.074 A 
ATOM     32  C   UNL A   1      42.193  27.721  31.173  1.00  0.00     0.029 A 
ATOM     33  N   UNL A   1      41.255  29.364  32.343  1.00  0.00    -0.354 N 
ATOM     34  N   UNL A   1      41.070  31.236  34.612  1.00  0.00    -0.248 NA
ATOM     35  C   UNL A   1      41.672  31.855  36.783  1.00  0.00     0.031 C 
ATOM     36  C   UNL A   1      42.833  27.801  32.415  1.00  0.00     0.029 A 
ATOM     37  C   UNL A   1      42.258  28.834  33.139  1.00  0.00     0.049 A 
ATOM     38  H   UNL A   1      40.677  30.122  32.591  1.00  0.00     0.167 HD
ATOM     39  C   UNL A   1      42.047  30.370  35.077  1.00  0.00     0.074 A 
ATOM     40  C   UNL A   1      42.408  30.820  36.406  1.00  0.00     0.031 C 
ATOM     41  C   UNL A   1      42.590  29.292  34.462  1.00  0.00     0.037 A 
BRANCH  28  42
ATOM     42  C   UNL A   1      40.204  27.980  28.934  1.00  0.00     0.064 A 
ATOM     43  C   UNL A   1      40.947  28.233  27.773  1.00  0.00     0.173 A 
ATOM     44  C   UNL A   1      39.521  26.757  29.025  1.00  0.00     0.173 A 
ATOM     45  F   UNL A   1      41.612  29.389  27.634  1.00  0.00    -0.203 F 
ATOM     46  C   UNL A   1      41.005  27.295  26.743  1.00  0.00     0.198 A 
ATOM     47  C   UNL A   1      39.599  25.814  28.003  1.00  0.00     0.198 A 
ATOM     48  F   UNL A   1      38.802  26.464  30.118  1.00  0.00    -0.203 F 
ATOM     49  F   UNL A   1      41.709  27.564  25.634  1.00  0.00    -0.200 F 
ATOM     50  C   UNL A   1      40.341  26.083  26.864  1.00  0.00     0.200 A 
ATOM     51  F   UNL A   1      38.967  24.638  28.128  1.00  0.00    -0.200 F 
ATOM     52  F   UNL A   1      40.417  25.174  25.882  1.00  0.00    -0.200 F 
ENDBRANCH  28  42
BRANCH  29  53
ATOM     53  C   UNL A   1      39.776  34.093  36.847  1.00  0.00     0.064 A 
ATOM     54  C   UNL A   1      40.484  35.296  36.963  1.00  0.00     0.173 A 
ATOM     55  C   UNL A   1      38.948  33.716  37.917  1.00  0.00     0.173 A 
ATOM     56  F   UNL A   1      41.299  35.690  35.974  1.00  0.00    -0.203 F 
ATOM     57  C   UNL A   1      40.391  36.076  38.114  1.00  0.00     0.198 A 
ATOM     58  C   UNL A   1      38.830  34.513  39.052  1.00  0.00     0.198 A 
ATOM     59  F   UNL A   1      38.244  32.577  37.852  1.00  0.00    -0.203 F 
ATOM     60  F   UNL A   1      41.120  37.194  38.221  1.00  0.00    -0.200 F 
ATOM     61  C   UNL A   1      39.560  35.687  39.154  1.00  0.00     0.200 A 
ATOM     62  F   UNL A   1      38.010  34.143  40.045  1.00  0.00    -0.200 F 
ATOM     63  F   UNL A   1      39.469  36.440  40.259  1.00  0.00    -0.200 F 
ENDBRANCH  29  53
BRANCH  41  64
ATOM     64  C   UNL A   1      43.629  28.529  35.229  1.00  0.00     0.064 A 
ATOM     65  C   UNL A   1      44.995  28.817  35.087  1.00  0.00     0.173 A 
ATOM     66  C   UNL A   1      43.257  27.522  36.130  1.00  0.00     0.173 A 
ATOM     67  F   UNL A   1      45.400  29.757  34.220  1.00  0.00    -0.203 F 
ATOM     68  C   UNL A   1      45.952  28.107  35.804  1.00  0.00     0.198 A 
ATOM     69  C   UNL A   1      44.214  26.834  36.869  1.00  0.00     0.198 A 
ATOM     70  F   UNL A   1      41.963  27.212  36.302  1.00  0.00    -0.203 F 
ATOM     71  F   UNL A   1      47.253  28.364  35.617  1.00  0.00    -0.200 F 
ATOM     72  C   UNL A   1      45.561  27.122  36.699  1.00  0.00     0.200 A 
ATOM     73  F   UNL A   1      43.835  25.891  37.742  1.00  0.00    -0.200 F 
ATOM     74  F   UNL A   1      46.484  26.444  37.395  1.00  0.00    -0.200 F 
ENDBRANCH  41  64
ENDBRANCH  15  16
ENDBRANCH   8  10
ENDBRANCH   5   6
ENDBRANCH   4   5
ENDBRANCH   3   4
ENDBRANCH   2   3
ENDBRANCH   1   2
BRANCH   1  75
ATOM     75  C   UNL A   1      32.781  28.574  25.752  1.00  0.00     0.116 C 
BRANCH  75  76
ATOM     76  N   UNL A   1      32.913  28.943  24.355  1.00  0.00    -0.354 N 
ATOM     77  C   UNL A   1      31.903  29.161  23.451  1.00  0.00     0.247 C 
ATOM     78  H   UNL A   1      33.831  29.049  24.017  1.00  0.00     0.163 HD
ATOM     79  O   UNL A   1      32.210  29.458  22.294  1.00  0.00    -0.272 OA
BRANCH  77  80
ATOM     80  C   UNL A   1      30.443  28.874  23.868  1.00  0.00     0.202 C 
BRANCH  80  81
ATOM     81  C   UNL A   1      29.529  29.946  23.206  1.00  0.00    -0.016 A 
ATOM     82  C   UNL A   1      29.240  31.175  23.856  1.00  0.00     0.006 A 
ATOM     83  C   UNL A   1      28.954  29.753  21.943  1.00  0.00     0.006 A 
ATOM     84  C   UNL A   1      28.519  32.197  23.242  1.00  0.00     0.000 A 
ATOM     85  C   UNL A   1      28.202  30.771  21.335  1.00  0.00     0.000 A 
ATOM     86  C   UNL A   1      28.004  31.997  21.974  1.00  0.00     0.000 A 
ENDBRANCH  80  81
BRANCH  80  87
ATOM     87  N   UNL A   1      29.978  27.480  23.576  1.00  0.00    -0.340 N 
ATOM     88  C   UNL A   1      30.603  26.271  23.762  1.00  0.00     0.224 C 
ATOM     89  H   UNL A   1      29.076  27.420  23.187  1.00  0.00     0.164 HD
ATOM     90  O   UNL A   1      29.945  25.434  24.394  1.00  0.00    -0.275 OA
BRANCH  88  91
ATOM     91  C   UNL A   1      31.888  25.813  23.011  1.00  0.00     0.078 C 
ATOM     92  C   UNL A   1      33.134  25.670  23.856  1.00  0.00     0.014 C 
ATOM     93  C   UNL A   1      31.638  24.526  22.190  1.00  0.00     0.014 C 
ATOM     94  C   UNL A   1      34.360  25.090  23.184  1.00  0.00     0.006 C 
ATOM     95  C   UNL A   1      32.907  23.909  21.575  1.00  0.00     0.006 C 
ATOM     96  C   UNL A   1      34.068  23.738  22.565  1.00  0.00     0.008 C 
BRANCH  96  97
ATOM     97  C   UNL A   1      33.810  22.682  23.654  1.00  0.00     0.119 C 
BRANCH  97  98
ATOM     98  N   UNL A   1      34.455  23.064  24.892  1.00  0.00    -0.351 N 
ATOM     99  C   UNL A   1      34.655  22.313  26.012  1.00  0.00     0.278 C 
ATOM    100  H   UNL A   1      34.795  23.987  24.930  1.00  0.00     0.163 HD
ATOM    101  O   UNL A   1      35.190  22.849  26.988  1.00  0.00    -0.268 OA
BRANCH  99 102
ATOM    102  C   UNL A   1      34.259  20.824  26.034  1.00  0.00     0.277 C 
ATOM    103  C   UNL A   1      34.922  20.083  24.851  1.00  0.00     0.111 C 
ATOM    104  N   UNL A   1      32.770  20.753  26.113  1.00  0.00    -0.332 N 
ATOM    105  C   UNL A   1      34.339  18.696  24.743  1.00  0.00    -0.033 A 
ATOM    106  C   UNL A   1      32.166  19.848  25.135  1.00  0.00     0.298 C 
ATOM    107  H   UNL A   1      32.395  21.689  25.958  1.00  0.00     0.347 HD
ATOM    108  H   UNL A   1      32.540  20.386  27.037  1.00  0.00     0.347 HD
ATOM    109  C   UNL A   1      35.104  17.562  24.460  1.00  0.00     0.004 A 
ATOM    110  C   UNL A   1      32.952  18.578  24.942  1.00  0.00     0.010 A 
ATOM    111  C   UNL A   1      34.490  16.308  24.417  1.00  0.00     0.000 A 
ATOM    112  C   UNL A   1      32.345  17.321  24.894  1.00  0.00     0.010 A 
ATOM    113  C   UNL A   1      33.117  16.187  24.643  1.00  0.00     0.001 A 
ENDBRANCH  99 102
ENDBRANCH  97  98
ENDBRANCH  96  97
ENDBRANCH  88  91
ENDBRANCH  80  87
ENDBRANCH  77  80
ENDBRANCH  75  76
ENDBRANCH   1  75
TORSDOF 19
ENDMDL
MODEL 2
REMARK VINA RESULT:     -13.3      2.652      7.907
REMARK SMILES O=C(NCCCCCCNC(=O)[C@H](NC(=O)[C@H]1CC[C@@H](CNC(=O)[C@@H]2Cc3ccccc3C[NH2+]2)CC1)c1ccccc1)c1ccc(-c2c3nc(c(-c4c(F)c(F)c(F)c(F)c4F)c4ccc([nH]4)c(-c4c(F)c(F)c(F)c(F)c4F)c4nc(c(-c5c(F)c(F)c(F)c(F)c5F)c5ccc2[nH]5)C=C4)C=C3)cc1
REMARK SMILES IDX 8 1 7 2 6 3 5 4 4 5 3 6 1 7 2 8 43 10 44 11 105 12 45 13
REMARK SMILES IDX 104 14 46 15 47 16 48 17 98 18 49 19 103 20 97 21 99 22
REMARK SMILES IDX 50 23 102 24 96 25 95 26 51 28 83 29 63 30 82 31 64 32 67 33
REMARK SMILES IDX 81 34 100 35 65 36 66 37 80 39 101 40 68 41 52 42 53 43
REMARK SMILES IDX 61 44 54 45 55 46 59 47 62 48 56 49 57 50 60 51 58 52 84 53
REMARK SMILES IDX 85 54 93 55 86 56 87 57 91 58 94 59 88 60 89 61 92 62 90 63
REMARK SMILES IDX 69 64 70 65 78 66 71 67 72 68 76 69 79 70 73 71 74 72 77 73
REMARK SMILES IDX 75 74 9 75 10 76 11 77 12 79 13 80 37 81 38 82 42 83 39 84
REMARK SMILES IDX 41 85 40 86 14 87 15 88 16 90 17 91 36 92 18 93 35 94 19 95
REMARK SMILES IDX 20 96 21 97 22 98 23 99 24 101 25 102 26 103 34 104 27 105
REMARK SMILES IDX 33 106 28 109 32 110 29 111 31 112 30 113
REMARK H PARENT 3 9 99 27 67 38 10 78 14 89 22 100 34 107 34 108
REMARK Flexibility Score: inf
ROOT
ATOM      1  C   UNL A   1      34.694  30.252  27.260  1.00  0.00     0.021 C 
ENDROOT
BRANCH   1   2
ATOM      2  C   UNL A   1      33.682  31.316  27.692  1.00  0.00     0.002 C 
BRANCH   2   3
ATOM      3  C   UNL A   1      34.295  32.674  28.051  1.00  0.00     0.002 C 
BRANCH   3   4
ATOM      4  C   UNL A   1      33.312  33.844  28.070  1.00  0.00     0.021 C 
BRANCH   4   5
ATOM      5  C   UNL A   1      33.822  35.090  28.779  1.00  0.00     0.116 C 
BRANCH   5   6
ATOM      6  N   UNL A   1      32.886  35.600  29.762  1.00  0.00    -0.352 N 
ATOM      7  O   UNL A   1      32.021  35.808  31.842  1.00  0.00    -0.269 OA
ATOM      8  C   UNL A   1      32.926  35.422  31.122  1.00  0.00     0.251 C 
ATOM      9  H   UNL A   1      32.135  36.133  29.414  1.00  0.00     0.163 HD
BRANCH   8  10
ATOM     10  C   UNL A   1      34.096  34.726  31.693  1.00  0.00     0.039 A 
ATOM     11  C   UNL A   1      34.029  33.359  31.976  1.00  0.00     0.014 A 
ATOM     12  C   UNL A   1      35.251  35.460  31.967  1.00  0.00     0.014 A 
ATOM     13  C   UNL A   1      35.096  32.736  32.607  1.00  0.00     0.010 A 
ATOM     14  C   UNL A   1      36.351  34.817  32.530  1.00  0.00     0.010 A 
ATOM     15  C   UNL A   1      36.281  33.451  32.849  1.00  0.00    -0.014 A 
BRANCH  15  16
ATOM     16  C   UNL A   1      37.492  32.718  33.283  1.00  0.00     0.031 A 
ATOM     17  C   UNL A   1      38.157  33.005  34.593  1.00  0.00     0.074 A 
ATOM     18  C   UNL A   1      37.997  31.800  32.435  1.00  0.00     0.049 A 
ATOM     19  N   UNL A   1      39.254  32.490  35.085  1.00  0.00    -0.248 NA
ATOM     20  C   UNL A   1      37.519  34.004  35.465  1.00  0.00     0.031 C 
ATOM     21  C   UNL A   1      37.433  31.470  31.122  1.00  0.00     0.029 A 
ATOM     22  N   UNL A   1      39.092  30.985  32.538  1.00  0.00    -0.354 N 
ATOM     23  C   UNL A   1      39.453  33.112  36.308  1.00  0.00     0.074 A 
ATOM     24  C   UNL A   1      38.367  34.053  36.486  1.00  0.00     0.031 C 
ATOM     25  C   UNL A   1      38.175  30.511  30.551  1.00  0.00     0.029 A 
ATOM     26  C   UNL A   1      39.301  30.210  31.423  1.00  0.00     0.049 A 
ATOM     27  H   UNL A   1      39.674  30.956  33.333  1.00  0.00     0.167 HD
ATOM     28  C   UNL A   1      40.456  32.906  37.194  1.00  0.00     0.037 A 
ATOM     29  C   UNL A   1      40.314  29.379  31.117  1.00  0.00     0.037 A 
ATOM     30  C   UNL A   1      41.516  31.947  37.008  1.00  0.00     0.049 A 
ATOM     31  C   UNL A   1      41.423  29.200  32.112  1.00  0.00     0.074 A 
ATOM     32  C   UNL A   1      42.527  31.601  37.886  1.00  0.00     0.029 A 
ATOM     33  N   UNL A   1      41.707  31.193  35.860  1.00  0.00    -0.354 N 
ATOM     34  N   UNL A   1      41.559  29.739  33.299  1.00  0.00    -0.248 NA
ATOM     35  C   UNL A   1      42.521  28.309  31.722  1.00  0.00     0.031 C 
ATOM     36  C   UNL A   1      43.366  30.681  37.247  1.00  0.00     0.029 A 
ATOM     37  C   UNL A   1      42.848  30.416  35.989  1.00  0.00     0.049 A 
ATOM     38  H   UNL A   1      41.120  31.207  35.070  1.00  0.00     0.167 HD
ATOM     39  C   UNL A   1      42.755  29.249  33.800  1.00  0.00     0.074 A 
ATOM     40  C   UNL A   1      43.287  28.344  32.803  1.00  0.00     0.031 C 
ATOM     41  C   UNL A   1      43.363  29.531  34.978  1.00  0.00     0.037 A 
BRANCH  28  42
ATOM     42  C   UNL A   1      40.484  33.734  38.446  1.00  0.00     0.064 A 
ATOM     43  C   UNL A   1      39.752  33.374  39.584  1.00  0.00     0.173 A 
ATOM     44  C   UNL A   1      41.343  34.840  38.538  1.00  0.00     0.173 A 
ATOM     45  F   UNL A   1      38.911  32.329  39.547  1.00  0.00    -0.203 F 
ATOM     46  C   UNL A   1      39.876  34.095  40.772  1.00  0.00     0.198 A 
ATOM     47  C   UNL A   1      41.481  35.544  39.731  1.00  0.00     0.198 A 
ATOM     48  F   UNL A   1      42.072  35.221  37.478  1.00  0.00    -0.203 F 
ATOM     49  F   UNL A   1      39.154  33.743  41.845  1.00  0.00    -0.200 F 
ATOM     50  C   UNL A   1      40.749  35.171  40.847  1.00  0.00     0.200 A 
ATOM     51  F   UNL A   1      42.335  36.575  39.806  1.00  0.00    -0.200 F 
ATOM     52  F   UNL A   1      40.883  35.848  41.996  1.00  0.00    -0.200 F 
ENDBRANCH  28  42
BRANCH  29  53
ATOM     53  C   UNL A   1      40.342  28.699  29.797  1.00  0.00     0.064 A 
ATOM     54  C   UNL A   1      39.562  27.561  29.551  1.00  0.00     0.173 A 
ATOM     55  C   UNL A   1      41.155  29.171  28.755  1.00  0.00     0.173 A 
ATOM     56  F   UNL A   1      38.781  27.064  30.521  1.00  0.00    -0.203 F 
ATOM     57  C   UNL A   1      39.615  26.906  28.323  1.00  0.00     0.198 A 
ATOM     58  C   UNL A   1      41.180  28.535  27.516  1.00  0.00     0.198 A 
ATOM     59  F   UNL A   1      41.915  30.260  28.936  1.00  0.00    -0.203 F 
ATOM     60  F   UNL A   1      38.899  25.790  28.132  1.00  0.00    -0.200 F 
ATOM     61  C   UNL A   1      40.419  27.397  27.305  1.00  0.00     0.200 A 
ATOM     62  F   UNL A   1      41.944  29.026  26.530  1.00  0.00    -0.200 F 
ATOM     63  F   UNL A   1      40.465  26.768  26.124  1.00  0.00    -0.200 F 
ENDBRANCH  29  53
BRANCH  41  64
ATOM     64  C   UNL A   1      44.673  28.851  35.242  1.00  0.00     0.064 A 
ATOM     65  C   UNL A   1      44.729  27.604  35.882  1.00  0.00     0.173 A 
ATOM     66  C   UNL A   1      45.878  29.436  34.829  1.00  0.00     0.173 A 
ATOM     67  F   UNL A   1      43.604  27.016  36.314  1.00  0.00    -0.203 F 
ATOM     68  C   UNL A   1      45.949  26.979  36.119  1.00  0.00     0.198 A 
ATOM     69  C   UNL A   1      47.094  28.794  35.041  1.00  0.00     0.198 A 
ATOM     70  F   UNL A   1      45.876  30.627  34.211  1.00  0.00    -0.203 F 
ATOM     71  F   UNL A   1      45.984  25.811  36.776  1.00  0.00    -0.200 F 
ATOM     72  C   UNL A   1      47.129  27.569  35.693  1.00  0.00     0.200 A 
ATOM     73  F   UNL A   1      48.233  29.360  34.618  1.00  0.00    -0.200 F 
ATOM     74  F   UNL A   1      48.302  26.962  35.916  1.00  0.00    -0.200 F 
ENDBRANCH  41  64
ENDBRANCH  15  16
ENDBRANCH   8  10
ENDBRANCH   5   6
ENDBRANCH   4   5
ENDBRANCH   3   4
ENDBRANCH   2   3
ENDBRANCH   1   2
BRANCH   1  75
ATOM     75  C   UNL A   1      34.039  29.075  26.566  1.00  0.00     0.116 C 
BRANCH  75  76
ATOM     76  N   UNL A   1      33.954  29.329  25.140  1.00  0.00    -0.354 N 
ATOM     77  C   UNL A   1      33.713  28.415  24.144  1.00  0.00     0.247 C 
ATOM     78  H   UNL A   1      34.083  30.261  24.854  1.00  0.00     0.163 HD
ATOM     79  O   UNL A   1      33.687  28.817  22.978  1.00  0.00    -0.272 OA
BRANCH  77  80
ATOM     80  C   UNL A   1      33.644  26.913  24.498  1.00  0.00     0.202 C 
BRANCH  80  81
ATOM     81  C   UNL A   1      32.149  26.526  24.691  1.00  0.00    -0.016 A 
ATOM     82  C   UNL A   1      31.696  25.892  25.877  1.00  0.00     0.006 A 
ATOM     83  C   UNL A   1      31.183  26.790  23.711  1.00  0.00     0.006 A 
ATOM     84  C   UNL A   1      30.349  25.636  26.125  1.00  0.00     0.000 A 
ATOM     85  C   UNL A   1      29.828  26.506  23.948  1.00  0.00     0.000 A 
ATOM     86  C   UNL A   1      29.410  25.952  25.159  1.00  0.00     0.000 A 
ENDBRANCH  80  81
BRANCH  80  87
ATOM     87  N   UNL A   1      34.336  26.013  23.521  1.00  0.00    -0.340 N 
ATOM     88  C   UNL A   1      34.140  24.685  23.233  1.00  0.00     0.224 C 
ATOM     89  H   UNL A   1      35.051  26.446  22.999  1.00  0.00     0.164 HD
ATOM     90  O   UNL A   1      33.975  24.429  22.032  1.00  0.00    -0.275 OA
BRANCH  88  91
ATOM     91  C   UNL A   1      34.401  23.515  24.227  1.00  0.00     0.078 C 
ATOM     92  C   UNL A   1      35.180  22.341  23.678  1.00  0.00     0.014 C 
ATOM     93  C   UNL A   1      35.035  24.018  25.545  1.00  0.00     0.014 C 
ATOM     94  C   UNL A   1      35.573  21.255  24.657  1.00  0.00     0.006 C 
ATOM     95  C   UNL A   1      35.494  22.898  26.497  1.00  0.00     0.006 C 
ATOM     96  C   UNL A   1      36.353  21.816  25.828  1.00  0.00     0.008 C 
BRANCH  96  97
ATOM     97  C   UNL A   1      37.739  22.310  25.375  1.00  0.00     0.119 C 
BRANCH  97  98
ATOM     98  N   UNL A   1      38.410  22.997  26.458  1.00  0.00    -0.351 N 
ATOM     99  C   UNL A   1      39.696  22.856  26.886  1.00  0.00     0.278 C 
ATOM    100  H   UNL A   1      37.865  23.652  26.952  1.00  0.00     0.163 HD
ATOM    101  O   UNL A   1      40.061  23.508  27.869  1.00  0.00    -0.268 OA
BRANCH  99 102
ATOM    102  C   UNL A   1      40.674  21.936  26.127  1.00  0.00     0.277 C 
ATOM    103  C   UNL A   1      41.178  20.813  27.062  1.00  0.00     0.111 C 
ATOM    104  N   UNL A   1      41.718  22.803  25.505  1.00  0.00    -0.332 N 
ATOM    105  C   UNL A   1      42.306  20.074  26.388  1.00  0.00    -0.033 A 
ATOM    106  C   UNL A   1      43.088  22.351  25.751  1.00  0.00     0.298 C 
ATOM    107  H   UNL A   1      41.618  23.746  25.880  1.00  0.00     0.347 HD
ATOM    108  H   UNL A   1      41.571  22.764  24.496  1.00  0.00     0.347 HD
ATOM    109  C   UNL A   1      42.453  18.686  26.440  1.00  0.00     0.004 A 
ATOM    110  C   UNL A   1      43.237  20.855  25.681  1.00  0.00     0.010 A 
ATOM    111  C   UNL A   1      43.507  18.077  25.754  1.00  0.00     0.000 A 
ATOM    112  C   UNL A   1      44.290  20.238  25.000  1.00  0.00     0.010 A 
ATOM    113  C   UNL A   1      44.416  18.849  25.028  1.00  0.00     0.001 A 
ENDBRANCH  99 102
ENDBRANCH  97  98
ENDBRANCH  96  97
ENDBRANCH  88  91
ENDBRANCH  80  87
ENDBRANCH  77  80
ENDBRANCH  75  76
ENDBRANCH   1  75
TORSDOF 19
ENDMDL
MODEL 3
REMARK VINA RESULT:     -13.2      5.751     12.175
REMARK SMILES O=C(NCCCCCCNC(=O)[C@H](NC(=O)[C@H]1CC[C@@H](CNC(=O)[C@@H]2Cc3ccccc3C[NH2+]2)CC1)c1ccccc1)c1ccc(-c2c3nc(c(-c4c(F)c(F)c(F)c(F)c4F)c4ccc([nH]4)c(-c4c(F)c(F)c(F)c(F)c4F)c4nc(c(-c5c(F)c(F)c(F)c(F)c5F)c5ccc2[nH]5)C=C4)C=C3)cc1
REMARK SMILES IDX 8 1 7 2 6 3 5 4 4 5 3 6 1 7 2 8 43 10 44 11 105 12 45 13
REMARK SMILES IDX 104 14 46 15 47 16 48 17 98 18 49 19 103 20 97 21 99 22
REMARK SMILES IDX 50 23 102 24 96 25 95 26 51 28 83 29 63 30 82 31 64 32 67 33
REMARK SMILES IDX 81 34 100 35 65 36 66 37 80 39 101 40 68 41 52 42 53 43
REMARK SMILES IDX 61 44 54 45 55 46 59 47 62 48 56 49 57 50 60 51 58 52 84 53
REMARK SMILES IDX 85 54 93 55 86 56 87 57 91 58 94 59 88 60 89 61 92 62 90 63
REMARK SMILES IDX 69 64 70 65 78 66 71 67 72 68 76 69 79 70 73 71 74 72 77 73
REMARK SMILES IDX 75 74 9 75 10 76 11 77 12 79 13 80 37 81 38 82 42 83 39 84
REMARK SMILES IDX 41 85 40 86 14 87 15 88 16 90 17 91 36 92 18 93 35 94 19 95
REMARK SMILES IDX 20 96 21 97 22 98 23 99 24 101 25 102 26 103 34 104 27 105
REMARK SMILES IDX 33 106 28 109 32 110 29 111 31 112 30 113
REMARK H PARENT 3 9 99 27 67 38 10 78 14 89 22 100 34 107 34 108
REMARK Flexibility Score: inf
ROOT
ATOM      1  C   UNL A   1      39.495  34.587  29.728  1.00  0.00     0.021 C 
ENDROOT
BRANCH   1   2
ATOM      2  C   UNL A   1      38.372  33.765  29.093  1.00  0.00     0.002 C 
BRANCH   2   3
ATOM      3  C   UNL A   1      37.163  33.522  30.002  1.00  0.00     0.002 C 
BRANCH   3   4
ATOM      4  C   UNL A   1      35.816  33.439  29.284  1.00  0.00     0.021 C 
BRANCH   4   5
ATOM      5  C   UNL A   1      34.880  32.363  29.813  1.00  0.00     0.116 C 
BRANCH   5   6
ATOM      6  N   UNL A   1      34.223  31.620  28.754  1.00  0.00    -0.352 N 
ATOM      7  O   UNL A   1      34.137  30.122  27.061  1.00  0.00    -0.269 OA
ATOM      8  C   UNL A   1      34.750  30.601  28.000  1.00  0.00     0.251 C 
ATOM      9  H   UNL A   1      33.295  31.876  28.553  1.00  0.00     0.163 HD
BRANCH   8  10
ATOM     10  C   UNL A   1      36.098  30.110  28.347  1.00  0.00     0.039 A 
ATOM     11  C   UNL A   1      37.154  30.266  27.445  1.00  0.00     0.014 A 
ATOM     12  C   UNL A   1      36.289  29.471  29.573  1.00  0.00     0.014 A 
ATOM     13  C   UNL A   1      38.393  29.712  27.737  1.00  0.00     0.010 A 
ATOM     14  C   UNL A   1      37.553  28.981  29.898  1.00  0.00     0.010 A 
ATOM     15  C   UNL A   1      38.611  29.103  28.983  1.00  0.00    -0.014 A 
BRANCH  15  16
ATOM     16  C   UNL A   1      39.992  28.748  29.381  1.00  0.00     0.031 A 
ATOM     17  C   UNL A   1      40.844  29.683  30.183  1.00  0.00     0.074 A 
ATOM     18  C   UNL A   1      40.472  27.560  28.963  1.00  0.00     0.049 A 
ATOM     19  N   UNL A   1      42.089  29.540  30.557  1.00  0.00    -0.248 NA
ATOM     20  C   UNL A   1      40.228  30.947  30.617  1.00  0.00     0.031 C 
ATOM     21  C   UNL A   1      39.725  26.591  28.154  1.00  0.00     0.029 A 
ATOM     22  N   UNL A   1      41.690  26.963  29.150  1.00  0.00    -0.354 N 
ATOM     23  C   UNL A   1      42.415  30.697  31.249  1.00  0.00     0.074 A 
ATOM     24  C   UNL A   1      41.240  31.542  31.239  1.00  0.00     0.031 C 
ATOM     25  C   UNL A   1      40.494  25.517  27.930  1.00  0.00     0.029 A 
ATOM     26  C   UNL A   1      41.805  25.750  28.517  1.00  0.00     0.049 A 
ATOM     27  H   UNL A   1      42.413  27.365  29.686  1.00  0.00     0.167 HD
ATOM     28  C   UNL A   1      43.594  31.013  31.836  1.00  0.00     0.037 A 
ATOM     29  C   UNL A   1      42.866  24.933  28.386  1.00  0.00     0.037 A 
ATOM     30  C   UNL A   1      44.746  30.147  31.854  1.00  0.00     0.049 A 
ATOM     31  C   UNL A   1      44.164  25.332  29.025  1.00  0.00     0.074 A 
ATOM     32  C   UNL A   1      45.956  30.337  32.498  1.00  0.00     0.029 A 
ATOM     33  N   UNL A   1      44.834  28.934  31.187  1.00  0.00    -0.354 N 
ATOM     34  N   UNL A   1      44.437  26.395  29.741  1.00  0.00    -0.248 NA
ATOM     35  C   UNL A   1      45.301  24.425  28.830  1.00  0.00     0.031 C 
ATOM     36  C   UNL A   1      46.798  29.269  32.172  1.00  0.00     0.029 A 
ATOM     37  C   UNL A   1      46.095  28.387  31.366  1.00  0.00     0.049 A 
ATOM     38  H   UNL A   1      44.109  28.522  30.664  1.00  0.00     0.167 HD
ATOM     39  C   UNL A   1      45.775  26.284  30.086  1.00  0.00     0.074 A 
ATOM     40  C   UNL A   1      46.248  25.033  29.530  1.00  0.00     0.031 C 
ATOM     41  C   UNL A   1      46.546  27.146  30.792  1.00  0.00     0.037 A 
BRANCH  28  42
ATOM     42  C   UNL A   1      43.725  32.353  32.499  1.00  0.00     0.064 A 
ATOM     43  C   UNL A   1      44.232  33.467  31.817  1.00  0.00     0.173 A 
ATOM     44  C   UNL A   1      43.234  32.545  33.800  1.00  0.00     0.173 A 
ATOM     45  F   UNL A   1      44.719  33.336  30.574  1.00  0.00    -0.203 F 
ATOM     46  C   UNL A   1      44.244  34.726  32.415  1.00  0.00     0.198 A 
ATOM     47  C   UNL A   1      43.229  33.808  34.386  1.00  0.00     0.198 A 
ATOM     48  F   UNL A   1      42.733  31.511  34.492  1.00  0.00    -0.203 F 
ATOM     49  F   UNL A   1      44.748  35.776  31.751  1.00  0.00    -0.200 F 
ATOM     50  C   UNL A   1      43.733  34.897  33.693  1.00  0.00     0.200 A 
ATOM     51  F   UNL A   1      42.722  33.973  35.616  1.00  0.00    -0.200 F 
ATOM     52  F   UNL A   1      43.725  36.113  34.257  1.00  0.00    -0.200 F 
ENDBRANCH  28  42
BRANCH  29  53
ATOM     53  C   UNL A   1      42.750  23.690  27.582  1.00  0.00     0.064 A 
ATOM     54  C   UNL A   1      42.296  22.495  28.155  1.00  0.00     0.173 A 
ATOM     55  C   UNL A   1      43.096  23.672  26.221  1.00  0.00     0.173 A 
ATOM     56  F   UNL A   1      41.968  22.460  29.455  1.00  0.00    -0.203 F 
ATOM     57  C   UNL A   1      42.219  21.323  27.406  1.00  0.00     0.198 A 
ATOM     58  C   UNL A   1      42.985  22.507  25.466  1.00  0.00     0.198 A 
ATOM     59  F   UNL A   1      43.530  24.790  25.623  1.00  0.00    -0.203 F 
ATOM     60  F   UNL A   1      41.832  20.183  27.993  1.00  0.00    -0.200 F 
ATOM     61  C   UNL A   1      42.558  21.332  26.061  1.00  0.00     0.200 A 
ATOM     62  F   UNL A   1      43.295  22.526  24.162  1.00  0.00    -0.200 F 
ATOM     63  F   UNL A   1      42.479  20.204  25.342  1.00  0.00    -0.200 F 
ENDBRANCH  29  53
BRANCH  41  64
ATOM     64  C   UNL A   1      47.980  26.758  30.996  1.00  0.00     0.064 A 
ATOM     65  C   UNL A   1      48.993  27.252  30.159  1.00  0.00     0.173 A 
ATOM     66  C   UNL A   1      48.348  25.910  32.050  1.00  0.00     0.173 A 
ATOM     67  F   UNL A   1      48.686  28.048  29.125  1.00  0.00    -0.203 F 
ATOM     68  C   UNL A   1      50.321  26.889  30.359  1.00  0.00     0.198 A 
ATOM     69  C   UNL A   1      49.681  25.574  32.265  1.00  0.00     0.198 A 
ATOM     70  F   UNL A   1      47.416  25.415  32.878  1.00  0.00    -0.203 F 
ATOM     71  F   UNL A   1      51.267  27.331  29.519  1.00  0.00    -0.200 F 
ATOM     72  C   UNL A   1      50.665  26.058  31.414  1.00  0.00     0.200 A 
ATOM     73  F   UNL A   1      50.014  24.781  33.292  1.00  0.00    -0.200 F 
ATOM     74  F   UNL A   1      51.946  25.716  31.609  1.00  0.00    -0.200 F 
ENDBRANCH  41  64
ENDBRANCH  15  16
ENDBRANCH   8  10
ENDBRANCH   5   6
ENDBRANCH   4   5
ENDBRANCH   3   4
ENDBRANCH   2   3
ENDBRANCH   1   2
BRANCH   1  75
ATOM     75  C   UNL A   1      40.338  35.312  28.698  1.00  0.00     0.116 C 
BRANCH  75  76
ATOM     76  N   UNL A   1      41.692  35.473  29.192  1.00  0.00    -0.354 N 
ATOM     77  C   UNL A   1      42.768  35.996  28.520  1.00  0.00     0.247 C 
ATOM     78  H   UNL A   1      41.859  35.172  30.114  1.00  0.00     0.163 HD
ATOM     79  O   UNL A   1      43.854  36.042  29.103  1.00  0.00    -0.272 OA
BRANCH  77  80
ATOM     80  C   UNL A   1      42.622  36.355  27.024  1.00  0.00     0.202 C 
BRANCH  80  81
ATOM     81  C   UNL A   1      42.685  37.904  26.886  1.00  0.00    -0.016 A 
ATOM     82  C   UNL A   1      43.925  38.595  26.876  1.00  0.00     0.006 A 
ATOM     83  C   UNL A   1      41.529  38.685  26.762  1.00  0.00     0.006 A 
ATOM     84  C   UNL A   1      44.018  39.966  26.643  1.00  0.00     0.000 A 
ATOM     85  C   UNL A   1      41.621  40.071  26.556  1.00  0.00     0.000 A 
ATOM     86  C   UNL A   1      42.862  40.705  26.474  1.00  0.00     0.000 A 
ENDBRANCH  80  81
BRANCH  80  87
ATOM     87  N   UNL A   1      43.602  35.669  26.123  1.00  0.00    -0.340 N 
ATOM     88  C   UNL A   1      43.759  34.338  25.819  1.00  0.00     0.224 C 
ATOM     89  H   UNL A   1      44.240  36.270  25.675  1.00  0.00     0.164 HD
ATOM     90  O   UNL A   1      43.779  34.078  24.608  1.00  0.00    -0.275 OA
BRANCH  88  91
ATOM     91  C   UNL A   1      44.193  33.242  26.836  1.00  0.00     0.078 C 
ATOM     92  C   UNL A   1      43.799  31.824  26.489  1.00  0.00     0.014 C 
ATOM     93  C   UNL A   1      45.705  33.324  27.151  1.00  0.00     0.014 C 
ATOM     94  C   UNL A   1      44.329  30.723  27.382  1.00  0.00     0.006 C 
ATOM     95  C   UNL A   1      46.241  32.156  28.000  1.00  0.00     0.006 C 
ATOM     96  C   UNL A   1      45.839  30.767  27.485  1.00  0.00     0.008 C 
BRANCH  96  97
ATOM     97  C   UNL A   1      46.490  30.387  26.142  1.00  0.00     0.119 C 
BRANCH  97  98
ATOM     98  N   UNL A   1      45.826  29.236  25.566  1.00  0.00    -0.351 N 
ATOM     99  C   UNL A   1      46.303  27.968  25.416  1.00  0.00     0.278 C 
ATOM    100  H   UNL A   1      44.910  29.391  25.240  1.00  0.00     0.163 HD
ATOM    101  O   UNL A   1      45.586  27.138  24.850  1.00  0.00    -0.268 OA
BRANCH  99 102
ATOM    102  C   UNL A   1      47.684  27.582  25.981  1.00  0.00     0.277 C 
ATOM    103  C   UNL A   1      48.710  27.457  24.833  1.00  0.00     0.111 C 
ATOM    104  N   UNL A   1      47.499  26.376  26.842  1.00  0.00    -0.332 N 
ATOM    105  C   UNL A   1      49.983  26.848  25.366  1.00  0.00    -0.033 A 
ATOM    106  C   UNL A   1      48.445  25.296  26.563  1.00  0.00     0.298 C 
ATOM    107  H   UNL A   1      46.554  26.020  26.697  1.00  0.00     0.347 HD
ATOM    108  H   UNL A   1      47.663  26.672  27.804  1.00  0.00     0.347 HD
ATOM    109  C   UNL A   1      51.256  27.283  24.994  1.00  0.00     0.004 A 
ATOM    110  C   UNL A   1      49.839  25.792  26.283  1.00  0.00     0.010 A 
ATOM    111  C   UNL A   1      52.384  26.690  25.566  1.00  0.00     0.000 A 
ATOM    112  C   UNL A   1      50.972  25.201  26.848  1.00  0.00     0.010 A 
ATOM    113  C   UNL A   1      52.242  25.659  26.498  1.00  0.00     0.001 A 
ENDBRANCH  99 102
ENDBRANCH  97  98
ENDBRANCH  96  97
ENDBRANCH  88  91
ENDBRANCH  80  87
ENDBRANCH  77  80
ENDBRANCH  75  76
ENDBRANCH   1  75
TORSDOF 19
ENDMDL
