MODEL 1
REMARK VINA RESULT:     -12.1      0.000      0.000
REMARK SMILES COC(=O)c1ccc(Cl)c(-c2ccc(C(=O)NCCCCCCNC(=O)c3ccc(-c4c5nc(c(-c6c(F)c(F)c(F)c(F)c6F)c6ccc([nH]6)c(-c6c(F)c(F)c(F)c(F)c6F)c6nc(c(-c7c(F)c(F)c(F)c(F)c7F)c7ccc4[nH]7)C=C6)C=C5)cc3)nc2)c1
REMARK SMILES IDX 20 1 19 2 18 3 17 4 15 5 16 6 14 8 11 9 12 10 91 11 13 12
REMARK SMILES IDX 90 13 10 14 5 15 6 16 92 17 7 18 8 19 9 20 3 21 4 22 2 23
REMARK SMILES IDX 1 24 21 25 22 26 23 27 24 28 25 29 26 31 27 32 28 33 89 34
REMARK SMILES IDX 29 35 88 36 30 37 31 38 32 39 82 40 33 41 87 42 81 43 83 44
REMARK SMILES IDX 34 45 86 46 80 47 79 48 35 50 67 51 47 52 66 53 48 54 51 55
REMARK SMILES IDX 65 56 84 57 49 58 50 59 64 61 85 62 52 63 36 64 37 65 45 66
REMARK SMILES IDX 38 67 39 68 43 69 46 70 40 71 41 72 44 73 42 74 68 75 69 76
REMARK SMILES IDX 77 77 70 78 71 79 75 80 78 81 72 82 73 83 76 84 74 85 53 86
REMARK SMILES IDX 54 87 62 88 55 89 56 90 60 91 63 92 57 93 58 94 61 95 59 96
REMARK H PARENT 17 7 24 30 83 49 51 60
REMARK Flexibility Score: inf
ROOT
ATOM      1  C   UNL A   1      31.096  29.122  24.428  1.00  0.00     0.002 C 
ENDROOT
BRANCH   1   2
ATOM      2  C   UNL A   1      30.536  27.703  24.245  1.00  0.00     0.021 C 
BRANCH   2   3
ATOM      3  C   UNL A   1      30.654  27.202  22.804  1.00  0.00     0.116 C 
BRANCH   3   4
ATOM      4  N   UNL A   1      31.907  27.637  22.228  1.00  0.00    -0.351 N 
ATOM      5  C   UNL A   1      33.184  27.131  22.212  1.00  0.00     0.269 C 
ATOM      6  O   UNL A   1      34.017  27.819  21.614  1.00  0.00    -0.268 OA
ATOM      7  H   UNL A   1      31.827  28.487  21.736  1.00  0.00     0.163 HD
BRANCH   5   8
ATOM      8  C   UNL A   1      33.600  25.821  22.833  1.00  0.00     0.128 A 
ATOM      9  C   UNL A   1      34.245  23.278  23.757  1.00  0.00     0.002 A 
ATOM     10  C   UNL A   1      34.289  24.374  24.619  1.00  0.00     0.013 A 
ATOM     11  C   UNL A   1      33.904  23.544  22.436  1.00  0.00     0.120 A 
ATOM     12  C   UNL A   1      34.004  25.656  24.149  1.00  0.00     0.035 A 
ATOM     13  N   UNL A   1      33.569  24.768  21.969  1.00  0.00    -0.250 NA
BRANCH   9  14
ATOM     14  C   UNL A   1      34.620  21.944  24.227  1.00  0.00     0.003 A 
ATOM     15  C   UNL A   1      33.949  19.631  24.631  1.00  0.00     0.060 A 
ATOM     16  C   UNL A   1      35.264  19.289  24.952  1.00  0.00     0.017 A 
ATOM     17  C   UNL A   1      33.632  20.945  24.264  1.00  0.00     0.026 A 
ATOM     18  C   UNL A   1      36.256  20.272  24.928  1.00  0.00     0.022 A 
ATOM     19  C   UNL A   1      35.937  21.589  24.578  1.00  0.00     0.048 A 
ATOM     20  Cl  UNL A   1      37.221  22.750  24.592  1.00  0.00    -0.084 Cl
BRANCH  15  21
ATOM     21  C   UNL A   1      32.851  18.639  24.643  1.00  0.00     0.337 C 
ATOM     22  O   UNL A   1      32.144  18.431  25.610  1.00  0.00    -0.246 OA
BRANCH  21  23
ATOM     23  O   UNL A   1      32.851  17.961  23.469  1.00  0.00    -0.465 OA
ATOM     24  C   UNL A   1      33.624  16.762  23.507  1.00  0.00     0.282 C 
ENDBRANCH  21  23
ENDBRANCH  15  21
ENDBRANCH   9  14
ENDBRANCH   5   8
ENDBRANCH   3   4
ENDBRANCH   2   3
ENDBRANCH   1   2
BRANCH   1  25
ATOM     25  C   UNL A   1      31.883  29.334  25.730  1.00  0.00     0.002 C 
BRANCH  25  26
ATOM     26  C   UNL A   1      32.921  28.250  26.030  1.00  0.00     0.021 C 
BRANCH  26  27
ATOM     27  C   UNL A   1      33.842  28.587  27.196  1.00  0.00     0.116 C 
BRANCH  27  28
ATOM     28  N   UNL A   1      33.757  29.996  27.546  1.00  0.00    -0.352 N 
ATOM     29  C   UNL A   1      34.625  30.762  28.280  1.00  0.00     0.251 C 
ATOM     30  H   UNL A   1      32.961  30.468  27.208  1.00  0.00     0.163 HD
ATOM     31  O   UNL A   1      34.275  31.856  28.711  1.00  0.00    -0.269 OA
BRANCH  29  32
ATOM     32  C   UNL A   1      35.986  30.260  28.554  1.00  0.00     0.039 A 
ATOM     33  C   UNL A   1      36.963  30.376  27.563  1.00  0.00     0.014 A 
ATOM     34  C   UNL A   1      36.288  29.661  29.779  1.00  0.00     0.014 A 
ATOM     35  C   UNL A   1      38.260  29.933  27.822  1.00  0.00     0.010 A 
ATOM     36  C   UNL A   1      37.598  29.294  30.064  1.00  0.00     0.010 A 
ATOM     37  C   UNL A   1      38.594  29.417  29.086  1.00  0.00    -0.014 A 
BRANCH  37  38
ATOM     38  C   UNL A   1      39.983  28.996  29.398  1.00  0.00     0.031 A 
ATOM     39  C   UNL A   1      40.885  29.898  30.191  1.00  0.00     0.074 A 
ATOM     40  C   UNL A   1      40.444  27.826  28.916  1.00  0.00     0.049 A 
ATOM     41  N   UNL A   1      42.144  29.737  30.511  1.00  0.00    -0.248 NA
ATOM     42  C   UNL A   1      40.305  31.165  30.667  1.00  0.00     0.031 C 
ATOM     43  C   UNL A   1      39.676  26.887  28.097  1.00  0.00     0.029 A 
ATOM     44  N   UNL A   1      41.675  27.229  29.038  1.00  0.00    -0.354 N 
ATOM     45  C   UNL A   1      42.506  30.880  31.212  1.00  0.00     0.074 A 
ATOM     46  C   UNL A   1      41.354  31.754  31.221  1.00  0.00     0.031 C 
ATOM     47  C   UNL A   1      40.444  25.823  27.810  1.00  0.00     0.029 A 
ATOM     48  C   UNL A   1      41.769  26.025  28.384  1.00  0.00     0.049 A 
ATOM     49  H   UNL A   1      42.418  27.627  29.545  1.00  0.00     0.167 HD
ATOM     50  C   UNL A   1      43.686  31.162  31.813  1.00  0.00     0.037 A 
ATOM     51  C   UNL A   1      42.814  25.184  28.254  1.00  0.00     0.037 A 
ATOM     52  C   UNL A   1      44.822  30.279  31.816  1.00  0.00     0.049 A 
ATOM     53  C   UNL A   1      44.119  25.534  28.917  1.00  0.00     0.074 A 
ATOM     54  C   UNL A   1      46.043  30.446  32.445  1.00  0.00     0.029 A 
ATOM     55  N   UNL A   1      44.877  29.061  31.153  1.00  0.00    -0.354 N 
ATOM     56  N   UNL A   1      44.427  26.584  29.639  1.00  0.00    -0.248 NA
ATOM     57  C   UNL A   1      45.221  24.577  28.752  1.00  0.00     0.031 C 
ATOM     58  C   UNL A   1      46.859  29.360  32.113  1.00  0.00     0.029 A 
ATOM     59  C   UNL A   1      46.123  28.482  31.333  1.00  0.00     0.049 A 
ATOM     60  H   UNL A   1      44.141  28.667  30.632  1.00  0.00     0.167 HD
ATOM     61  C   UNL A   1      45.743  26.399  30.042  1.00  0.00     0.074 A 
ATOM     62  C   UNL A   1      46.170  25.127  29.498  1.00  0.00     0.031 C 
ATOM     63  C   UNL A   1      46.528  27.208  30.793  1.00  0.00     0.037 A 
BRANCH  50  64
ATOM     64  C   UNL A   1      43.813  32.481  32.520  1.00  0.00     0.064 A 
ATOM     65  C   UNL A   1      43.460  32.634  33.870  1.00  0.00     0.173 A 
ATOM     66  C   UNL A   1      44.345  33.597  31.854  1.00  0.00     0.173 A 
ATOM     67  F   UNL A   1      42.935  31.603  34.550  1.00  0.00    -0.203 F 
ATOM     68  C   UNL A   1      43.610  33.857  34.518  1.00  0.00     0.198 A 
ATOM     69  C   UNL A   1      44.527  34.809  32.515  1.00  0.00     0.198 A 
ATOM     70  F   UNL A   1      44.706  33.507  30.565  1.00  0.00    -0.203 F 
ATOM     71  F   UNL A   1      43.221  33.989  35.793  1.00  0.00    -0.200 F 
ATOM     72  C   UNL A   1      44.153  34.940  33.843  1.00  0.00     0.200 A 
ATOM     73  F   UNL A   1      45.066  35.850  31.865  1.00  0.00    -0.200 F 
ATOM     74  F   UNL A   1      44.310  36.113  34.473  1.00  0.00    -0.200 F 
ENDBRANCH  50  64
BRANCH  51  75
ATOM     75  C   UNL A   1      42.669  23.927  27.473  1.00  0.00     0.064 A 
ATOM     76  C   UNL A   1      42.211  22.748  28.078  1.00  0.00     0.173 A 
ATOM     77  C   UNL A   1      43.007  23.870  26.112  1.00  0.00     0.173 A 
ATOM     78  F   UNL A   1      41.892  22.746  29.382  1.00  0.00    -0.203 F 
ATOM     79  C   UNL A   1      42.128  21.555  27.363  1.00  0.00     0.198 A 
ATOM     80  C   UNL A   1      42.891  22.685  25.389  1.00  0.00     0.198 A 
ATOM     81  F   UNL A   1      43.443  24.970  25.481  1.00  0.00    -0.203 F 
ATOM     82  F   UNL A   1      41.747  20.430  27.984  1.00  0.00    -0.200 F 
ATOM     83  C   UNL A   1      42.464  21.525  26.019  1.00  0.00     0.200 A 
ATOM     84  F   UNL A   1      43.199  22.665  24.086  1.00  0.00    -0.200 F 
ATOM     85  F   UNL A   1      42.386  20.377  25.331  1.00  0.00    -0.200 F 
ENDBRANCH  51  75
BRANCH  63  86
ATOM     86  C   UNL A   1      47.915  26.724  31.111  1.00  0.00     0.064 A 
ATOM     87  C   UNL A   1      48.178  25.906  32.219  1.00  0.00     0.173 A 
ATOM     88  C   UNL A   1      48.989  27.052  30.268  1.00  0.00     0.173 A 
ATOM     89  F   UNL A   1      47.189  25.575  33.064  1.00  0.00    -0.203 F 
ATOM     90  C   UNL A   1      49.469  25.461  32.490  1.00  0.00     0.198 A 
ATOM     91  C   UNL A   1      50.271  26.575  30.522  1.00  0.00     0.198 A 
ATOM     92  F   UNL A   1      48.791  27.824  29.189  1.00  0.00    -0.203 F 
ATOM     93  F   UNL A   1      49.705  24.727  33.586  1.00  0.00    -0.200 F 
ATOM     94  C   UNL A   1      50.512  25.788  31.636  1.00  0.00     0.200 A 
ATOM     95  F   UNL A   1      51.274  26.877  29.685  1.00  0.00    -0.200 F 
ATOM     96  F   UNL A   1      51.753  25.350  31.894  1.00  0.00    -0.200 F 
ENDBRANCH  63  86
ENDBRANCH  37  38
ENDBRANCH  29  32
ENDBRANCH  27  28
ENDBRANCH  26  27
ENDBRANCH  25  26
ENDBRANCH   1  25
TORSDOF 16
ENDMDL
MODEL 2
REMARK VINA RESULT:     -12.0      3.621      8.495
REMARK SMILES COC(=O)c1ccc(Cl)c(-c2ccc(C(=O)NCCCCCCNC(=O)c3ccc(-c4c5nc(c(-c6c(F)c(F)c(F)c(F)c6F)c6ccc([nH]6)c(-c6c(F)c(F)c(F)c(F)c6F)c6nc(c(-c7c(F)c(F)c(F)c(F)c7F)c7ccc4[nH]7)C=C6)C=C5)cc3)nc2)c1
REMARK SMILES IDX 20 1 19 2 18 3 17 4 15 5 16 6 14 8 11 9 12 10 91 11 13 12
REMARK SMILES IDX 90 13 10 14 5 15 6 16 92 17 7 18 8 19 9 20 3 21 4 22 2 23
REMARK SMILES IDX 1 24 21 25 22 26 23 27 24 28 25 29 26 31 27 32 28 33 89 34
REMARK SMILES IDX 29 35 88 36 30 37 31 38 32 39 82 40 33 41 87 42 81 43 83 44
REMARK SMILES IDX 34 45 86 46 80 47 79 48 35 50 67 51 47 52 66 53 48 54 51 55
REMARK SMILES IDX 65 56 84 57 49 58 50 59 64 61 85 62 52 63 36 64 37 65 45 66
REMARK SMILES IDX 38 67 39 68 43 69 46 70 40 71 41 72 44 73 42 74 68 75 69 76
REMARK SMILES IDX 77 77 70 78 71 79 75 80 78 81 72 82 73 83 76 84 74 85 53 86
REMARK SMILES IDX 54 87 62 88 55 89 56 90 60 91 63 92 57 93 58 94 61 95 59 96
REMARK H PARENT 17 7 24 30 83 49 51 60
REMARK Flexibility Score: inf
ROOT
ATOM      1  C   UNL A   1      32.191  30.087  25.484  1.00  0.00     0.002 C 
ENDROOT
BRANCH   1   2
ATOM      2  C   UNL A   1      31.721  28.679  25.089  1.00  0.00     0.021 C 
BRANCH   2   3
ATOM      3  C   UNL A   1      31.094  28.634  23.693  1.00  0.00     0.116 C 
BRANCH   3   4
ATOM      4  N   UNL A   1      29.859  27.883  23.728  1.00  0.00    -0.351 N 
ATOM      5  C   UNL A   1      29.544  26.561  23.936  1.00  0.00     0.269 C 
ATOM      6  O   UNL A   1      28.342  26.288  23.868  1.00  0.00    -0.268 OA
ATOM      7  H   UNL A   1      29.066  28.444  23.566  1.00  0.00     0.163 HD
BRANCH   5   8
ATOM      8  C   UNL A   1      30.542  25.478  24.260  1.00  0.00     0.128 A 
ATOM      9  C   UNL A   1      32.339  23.382  24.598  1.00  0.00     0.002 A 
ATOM     10  C   UNL A   1      31.837  24.065  25.705  1.00  0.00     0.013 A 
ATOM     11  C   UNL A   1      31.922  23.834  23.352  1.00  0.00     0.120 A 
ATOM     12  C   UNL A   1      30.966  25.142  25.537  1.00  0.00     0.035 A 
ATOM     13  N   UNL A   1      31.036  24.837  23.164  1.00  0.00    -0.250 NA
BRANCH   9  14
ATOM     14  C   UNL A   1      33.314  22.304  24.767  1.00  0.00     0.003 A 
ATOM     15  C   UNL A   1      33.770  19.905  24.725  1.00  0.00     0.060 A 
ATOM     16  C   UNL A   1      35.135  20.146  24.903  1.00  0.00     0.017 A 
ATOM     17  C   UNL A   1      32.870  20.975  24.650  1.00  0.00     0.026 A 
ATOM     18  C   UNL A   1      35.591  21.460  25.029  1.00  0.00     0.022 A 
ATOM     19  C   UNL A   1      34.689  22.529  24.971  1.00  0.00     0.048 A 
ATOM     20  Cl  UNL A   1      35.334  24.125  25.156  1.00  0.00    -0.084 Cl
BRANCH  15  21
ATOM     21  C   UNL A   1      33.222  18.538  24.591  1.00  0.00     0.337 C 
ATOM     22  O   UNL A   1      32.054  18.260  24.781  1.00  0.00    -0.246 OA
BRANCH  21  23
ATOM     23  O   UNL A   1      34.236  17.675  24.335  1.00  0.00    -0.465 OA
ATOM     24  C   UNL A   1      33.891  16.658  23.395  1.00  0.00     0.282 C 
ENDBRANCH  21  23
ENDBRANCH  15  21
ENDBRANCH   9  14
ENDBRANCH   5   8
ENDBRANCH   3   4
ENDBRANCH   2   3
ENDBRANCH   1   2
BRANCH   1  25
ATOM     25  C   UNL A   1      31.416  30.714  26.652  1.00  0.00     0.002 C 
BRANCH  25  26
ATOM     26  C   UNL A   1      31.416  32.244  26.667  1.00  0.00     0.021 C 
BRANCH  26  27
ATOM     27  C   UNL A   1      32.699  32.853  27.220  1.00  0.00     0.116 C 
BRANCH  27  28
ATOM     28  N   UNL A   1      32.502  34.243  27.601  1.00  0.00    -0.352 N 
ATOM     29  C   UNL A   1      33.045  34.941  28.648  1.00  0.00     0.251 C 
ATOM     30  H   UNL A   1      31.892  34.757  27.023  1.00  0.00     0.163 HD
ATOM     31  O   UNL A   1      32.570  36.021  28.987  1.00  0.00    -0.269 OA
BRANCH  29  32
ATOM     32  C   UNL A   1      34.204  34.384  29.372  1.00  0.00     0.039 A 
ATOM     33  C   UNL A   1      33.988  33.688  30.564  1.00  0.00     0.014 A 
ATOM     34  C   UNL A   1      35.501  34.565  28.884  1.00  0.00     0.014 A 
ATOM     35  C   UNL A   1      35.074  33.132  31.241  1.00  0.00     0.010 A 
ATOM     36  C   UNL A   1      36.570  33.942  29.516  1.00  0.00     0.010 A 
ATOM     37  C   UNL A   1      36.369  33.228  30.705  1.00  0.00    -0.014 A 
BRANCH  37  38
ATOM     38  C   UNL A   1      37.527  32.591  31.382  1.00  0.00     0.031 A 
ATOM     39  C   UNL A   1      38.246  31.446  30.727  1.00  0.00     0.074 A 
ATOM     40  C   UNL A   1      37.889  33.010  32.609  1.00  0.00     0.049 A 
ATOM     41  N   UNL A   1      39.235  30.720  31.184  1.00  0.00    -0.248 NA
ATOM     42  C   UNL A   1      37.776  31.042  29.392  1.00  0.00     0.031 C 
ATOM     43  C   UNL A   1      37.237  34.082  33.364  1.00  0.00     0.029 A 
ATOM     44  N   UNL A   1      38.889  32.578  33.445  1.00  0.00    -0.354 N 
ATOM     45  C   UNL A   1      39.496  29.774  30.202  1.00  0.00     0.074 A 
ATOM     46  C   UNL A   1      38.526  29.977  29.150  1.00  0.00     0.031 C 
ATOM     47  C   UNL A   1      37.868  34.240  34.538  1.00  0.00     0.029 A 
ATOM     48  C   UNL A   1      38.937  33.253  34.640  1.00  0.00     0.049 A 
ATOM     49  H   UNL A   1      39.511  31.854  33.209  1.00  0.00     0.167 HD
ATOM     50  C   UNL A   1      40.473  28.837  30.172  1.00  0.00     0.037 A 
ATOM     51  C   UNL A   1      39.747  33.085  35.703  1.00  0.00     0.037 A 
ATOM     52  C   UNL A   1      41.448  28.654  31.214  1.00  0.00     0.049 A 
ATOM     53  C   UNL A   1      40.812  32.021  35.649  1.00  0.00     0.074 A 
ATOM     54  C   UNL A   1      42.514  27.772  31.253  1.00  0.00     0.029 A 
ATOM     55  N   UNL A   1      41.473  29.364  32.406  1.00  0.00    -0.354 N 
ATOM     56  N   UNL A   1      41.095  31.181  34.684  1.00  0.00    -0.248 NA
ATOM     57  C   UNL A   1      41.673  31.888  36.831  1.00  0.00     0.031 C 
ATOM     58  C   UNL A   1      43.147  27.905  32.493  1.00  0.00     0.029 A 
ATOM     59  C   UNL A   1      42.518  28.918  33.200  1.00  0.00     0.049 A 
ATOM     60  H   UNL A   1      40.843  30.079  32.652  1.00  0.00     0.167 HD
ATOM     61  C   UNL A   1      42.185  30.444  35.126  1.00  0.00     0.074 A 
ATOM     62  C   UNL A   1      42.523  30.949  36.440  1.00  0.00     0.031 C 
ATOM     63  C   UNL A   1      42.848  29.440  34.502  1.00  0.00     0.037 A 
BRANCH  50  64
ATOM     64  C   UNL A   1      40.540  27.935  28.973  1.00  0.00     0.064 A 
ATOM     65  C   UNL A   1      39.779  26.759  28.889  1.00  0.00     0.173 A 
ATOM     66  C   UNL A   1      41.335  28.277  27.868  1.00  0.00     0.173 A 
ATOM     67  F   UNL A   1      39.010  26.378  29.922  1.00  0.00    -0.203 F 
ATOM     68  C   UNL A   1      39.830  25.947  27.759  1.00  0.00     0.198 A 
ATOM     69  C   UNL A   1      41.358  27.482  26.725  1.00  0.00     0.198 A 
ATOM     70  F   UNL A   1      42.079  29.393  27.890  1.00  0.00    -0.203 F 
ATOM     71  F   UNL A   1      39.131  24.805  27.723  1.00  0.00    -0.200 F 
ATOM     72  C   UNL A   1      40.612  26.315  26.674  1.00  0.00     0.200 A 
ATOM     73  F   UNL A   1      42.102  27.848  25.672  1.00  0.00    -0.200 F 
ATOM     74  F   UNL A   1      40.650  25.541  25.581  1.00  0.00    -0.200 F 
ENDBRANCH  50  64
BRANCH  51  75
ATOM     75  C   UNL A   1      39.591  33.946  36.906  1.00  0.00     0.064 A 
ATOM     76  C   UNL A   1      38.838  33.519  38.009  1.00  0.00     0.173 A 
ATOM     77  C   UNL A   1      40.171  35.222  36.969  1.00  0.00     0.173 A 
ATOM     78  F   UNL A   1      38.249  32.314  37.990  1.00  0.00    -0.203 F 
ATOM     79  C   UNL A   1      38.644  34.346  39.113  1.00  0.00     0.198 A 
ATOM     80  C   UNL A   1      40.004  36.035  38.088  1.00  0.00     0.198 A 
ATOM     81  F   UNL A   1      40.908  35.678  35.945  1.00  0.00    -0.203 F 
ATOM     82  F   UNL A   1      37.867  33.935  40.125  1.00  0.00    -0.200 F 
ATOM     83  C   UNL A   1      39.230  35.601  39.153  1.00  0.00     0.200 A 
ATOM     84  F   UNL A   1      40.588  37.240  38.130  1.00  0.00    -0.200 F 
ATOM     85  F   UNL A   1      39.041  36.398  40.215  1.00  0.00    -0.200 F 
ENDBRANCH  51  75
BRANCH  63  86
ATOM     86  C   UNL A   1      44.033  28.849  35.211  1.00  0.00     0.064 A 
ATOM     87  C   UNL A   1      45.336  29.322  34.997  1.00  0.00     0.173 A 
ATOM     88  C   UNL A   1      43.855  27.820  36.150  1.00  0.00     0.173 A 
ATOM     89  F   UNL A   1      45.563  30.294  34.100  1.00  0.00    -0.203 F 
ATOM     90  C   UNL A   1      46.420  28.766  35.672  1.00  0.00     0.198 A 
ATOM     91  C   UNL A   1      44.936  27.292  36.850  1.00  0.00     0.198 A 
ATOM     92  F   UNL A   1      42.629  27.337  36.400  1.00  0.00    -0.203 F 
ATOM     93  F   UNL A   1      47.661  29.196  35.410  1.00  0.00    -0.200 F 
ATOM     94  C   UNL A   1      46.217  27.758  36.604  1.00  0.00     0.200 A 
ATOM     95  F   UNL A   1      44.736  26.332  37.763  1.00  0.00    -0.200 F 
ATOM     96  F   UNL A   1      47.261  27.232  37.260  1.00  0.00    -0.200 F 
ENDBRANCH  63  86
ENDBRANCH  37  38
ENDBRANCH  29  32
ENDBRANCH  27  28
ENDBRANCH  26  27
ENDBRANCH  25  26
ENDBRANCH   1  25
TORSDOF 16
ENDMDL
MODEL 3
REMARK VINA RESULT:     -12.0      0.284      1.592
REMARK SMILES COC(=O)c1ccc(Cl)c(-c2ccc(C(=O)NCCCCCCNC(=O)c3ccc(-c4c5nc(c(-c6c(F)c(F)c(F)c(F)c6F)c6ccc([nH]6)c(-c6c(F)c(F)c(F)c(F)c6F)c6nc(c(-c7c(F)c(F)c(F)c(F)c7F)c7ccc4[nH]7)C=C6)C=C5)cc3)nc2)c1
REMARK SMILES IDX 20 1 19 2 18 3 17 4 15 5 16 6 14 8 11 9 12 10 91 11 13 12
REMARK SMILES IDX 90 13 10 14 5 15 6 16 92 17 7 18 8 19 9 20 3 21 4 22 2 23
REMARK SMILES IDX 1 24 21 25 22 26 23 27 24 28 25 29 26 31 27 32 28 33 89 34
REMARK SMILES IDX 29 35 88 36 30 37 31 38 32 39 82 40 33 41 87 42 81 43 83 44
REMARK SMILES IDX 34 45 86 46 80 47 79 48 35 50 67 51 47 52 66 53 48 54 51 55
REMARK SMILES IDX 65 56 84 57 49 58 50 59 64 61 85 62 52 63 36 64 37 65 45 66
REMARK SMILES IDX 38 67 39 68 43 69 46 70 40 71 41 72 44 73 42 74 68 75 69 76
REMARK SMILES IDX 77 77 70 78 71 79 75 80 78 81 72 82 73 83 76 84 74 85 53 86
REMARK SMILES IDX 54 87 62 88 55 89 56 90 60 91 63 92 57 93 58 94 61 95 59 96
REMARK H PARENT 17 7 24 30 83 49 51 60
REMARK Flexibility Score: inf
ROOT
ATOM      1  C   UNL A   1      31.086  29.139  24.556  1.00  0.00     0.002 C 
ENDROOT
BRANCH   1   2
ATOM      2  C   UNL A   1      30.604  27.710  24.265  1.00  0.00     0.021 C 
BRANCH   2   3
ATOM      3  C   UNL A   1      30.692  27.346  22.781  1.00  0.00     0.116 C 
BRANCH   3   4
ATOM      4  N   UNL A   1      31.940  27.821  22.226  1.00  0.00    -0.351 N 
ATOM      5  C   UNL A   1      33.234  27.359  22.239  1.00  0.00     0.269 C 
ATOM      6  O   UNL A   1      34.055  28.071  21.653  1.00  0.00    -0.268 OA
ATOM      7  H   UNL A   1      31.841  28.665  21.728  1.00  0.00     0.163 HD
BRANCH   5   8
ATOM      8  C   UNL A   1      33.682  26.067  22.876  1.00  0.00     0.128 A 
ATOM      9  C   UNL A   1      34.400  23.553  23.824  1.00  0.00     0.002 A 
ATOM     10  C   UNL A   1      34.364  24.648  24.687  1.00  0.00     0.013 A 
ATOM     11  C   UNL A   1      34.099  23.806  22.491  1.00  0.00     0.120 A 
ATOM     12  C   UNL A   1      34.042  25.918  24.206  1.00  0.00     0.035 A 
ATOM     13  N   UNL A   1      33.730  25.015  22.011  1.00  0.00    -0.250 NA
BRANCH   9  14
ATOM     14  C   UNL A   1      34.814  22.235  24.309  1.00  0.00     0.003 A 
ATOM     15  C   UNL A   1      34.215  19.905  24.723  1.00  0.00     0.060 A 
ATOM     16  C   UNL A   1      35.538  19.609  25.062  1.00  0.00     0.017 A 
ATOM     17  C   UNL A   1      33.859  21.204  24.342  1.00  0.00     0.026 A 
ATOM     18  C   UNL A   1      36.497  20.624  25.042  1.00  0.00     0.022 A 
ATOM     19  C   UNL A   1      36.137  21.927  24.678  1.00  0.00     0.048 A 
ATOM     20  Cl  UNL A   1      37.382  23.131  24.698  1.00  0.00    -0.084 Cl
BRANCH  15  21
ATOM     21  C   UNL A   1      33.151  18.876  24.730  1.00  0.00     0.337 C 
ATOM     22  O   UNL A   1      32.030  19.073  25.155  1.00  0.00    -0.246 OA
BRANCH  21  23
ATOM     23  O   UNL A   1      33.667  17.700  24.296  1.00  0.00    -0.465 OA
ATOM     24  C   UNL A   1      33.119  17.267  23.051  1.00  0.00     0.282 C 
ENDBRANCH  21  23
ENDBRANCH  15  21
ENDBRANCH   9  14
ENDBRANCH   5   8
ENDBRANCH   3   4
ENDBRANCH   2   3
ENDBRANCH   1   2
BRANCH   1  25
ATOM     25  C   UNL A   1      31.854  29.296  25.877  1.00  0.00     0.002 C 
BRANCH  25  26
ATOM     26  C   UNL A   1      33.124  28.449  25.980  1.00  0.00     0.021 C 
BRANCH  26  27
ATOM     27  C   UNL A   1      33.916  28.683  27.261  1.00  0.00     0.116 C 
BRANCH  27  28
ATOM     28  N   UNL A   1      33.832  30.070  27.688  1.00  0.00    -0.352 N 
ATOM     29  C   UNL A   1      34.706  30.796  28.455  1.00  0.00     0.251 C 
ATOM     30  H   UNL A   1      33.033  30.558  27.384  1.00  0.00     0.163 HD
ATOM     31  O   UNL A   1      34.358  31.865  28.949  1.00  0.00    -0.269 OA
BRANCH  29  32
ATOM     32  C   UNL A   1      36.070  30.284  28.688  1.00  0.00     0.039 A 
ATOM     33  C   UNL A   1      37.023  30.407  27.675  1.00  0.00     0.014 A 
ATOM     34  C   UNL A   1      36.399  29.666  29.898  1.00  0.00     0.014 A 
ATOM     35  C   UNL A   1      38.323  29.953  27.896  1.00  0.00     0.010 A 
ATOM     36  C   UNL A   1      37.713  29.288  30.145  1.00  0.00     0.010 A 
ATOM     37  C   UNL A   1      38.686  29.419  29.144  1.00  0.00    -0.014 A 
BRANCH  37  38
ATOM     38  C   UNL A   1      40.079  28.985  29.416  1.00  0.00     0.031 A 
ATOM     39  C   UNL A   1      41.017  29.888  30.166  1.00  0.00     0.074 A 
ATOM     40  C   UNL A   1      40.511  27.803  28.937  1.00  0.00     0.049 A 
ATOM     41  N   UNL A   1      42.285  29.717  30.446  1.00  0.00    -0.248 NA
ATOM     42  C   UNL A   1      40.468  31.169  30.642  1.00  0.00     0.031 C 
ATOM     43  C   UNL A   1      39.705  26.862  28.157  1.00  0.00     0.029 A 
ATOM     44  N   UNL A   1      41.738  27.194  29.026  1.00  0.00    -0.354 N 
ATOM     45  C   UNL A   1      42.683  30.865  31.117  1.00  0.00     0.074 A 
ATOM     46  C   UNL A   1      41.542  31.753  31.152  1.00  0.00     0.031 C 
ATOM     47  C   UNL A   1      40.450  25.785  27.860  1.00  0.00     0.029 A 
ATOM     48  C   UNL A   1      41.797  25.980  28.387  1.00  0.00     0.049 A 
ATOM     49  H   UNL A   1      42.502  27.590  29.502  1.00  0.00     0.167 HD
ATOM     50  C   UNL A   1      43.885  31.142  31.675  1.00  0.00     0.037 A 
ATOM     51  C   UNL A   1      42.826  25.125  28.235  1.00  0.00     0.037 A 
ATOM     52  C   UNL A   1      45.010  30.245  31.653  1.00  0.00     0.049 A 
ATOM     53  C   UNL A   1      44.158  25.468  28.849  1.00  0.00     0.074 A 
ATOM     54  C   UNL A   1      46.254  30.407  32.239  1.00  0.00     0.029 A 
ATOM     55  N   UNL A   1      45.030  29.017  31.006  1.00  0.00    -0.354 N 
ATOM     56  N   UNL A   1      44.501  26.525  29.545  1.00  0.00    -0.248 NA
ATOM     57  C   UNL A   1      45.243  24.496  28.661  1.00  0.00     0.031 C 
ATOM     58  C   UNL A   1      47.045  29.306  31.895  1.00  0.00     0.029 A 
ATOM     59  C   UNL A   1      46.274  28.426  31.153  1.00  0.00     0.049 A 
ATOM     60  H   UNL A   1      44.272  28.625  30.516  1.00  0.00     0.167 HD
ATOM     61  C   UNL A   1      45.827  26.330  29.906  1.00  0.00     0.074 A 
ATOM     62  C   UNL A   1      46.221  25.045  29.367  1.00  0.00     0.031 C 
ATOM     63  C   UNL A   1      46.647  27.141  30.619  1.00  0.00     0.037 A 
BRANCH  50  64
ATOM     64  C   UNL A   1      44.050  32.469  32.358  1.00  0.00     0.064 A 
ATOM     65  C   UNL A   1      44.494  33.607  31.666  1.00  0.00     0.173 A 
ATOM     66  C   UNL A   1      43.709  32.620  33.712  1.00  0.00     0.173 A 
ATOM     67  F   UNL A   1      44.845  33.517  30.374  1.00  0.00    -0.203 F 
ATOM     68  C   UNL A   1      44.615  34.837  32.308  1.00  0.00     0.198 A 
ATOM     69  C   UNL A   1      43.798  33.859  34.341  1.00  0.00     0.198 A 
ATOM     70  F   UNL A   1      43.273  31.568  34.420  1.00  0.00    -0.203 F 
ATOM     71  F   UNL A   1      45.086  35.897  31.638  1.00  0.00    -0.200 F 
ATOM     72  C   UNL A   1      44.257  34.964  33.641  1.00  0.00     0.200 A 
ATOM     73  F   UNL A   1      43.437  33.982  35.626  1.00  0.00    -0.200 F 
ATOM     74  F   UNL A   1      44.361  36.151  34.254  1.00  0.00    -0.200 F 
ENDBRANCH  50  64
BRANCH  51  75
ATOM     75  C   UNL A   1      42.641  23.858  27.477  1.00  0.00     0.064 A 
ATOM     76  C   UNL A   1      42.156  22.703  28.107  1.00  0.00     0.173 A 
ATOM     77  C   UNL A   1      42.967  23.768  26.115  1.00  0.00     0.173 A 
ATOM     78  F   UNL A   1      41.848  22.733  29.412  1.00  0.00    -0.203 F 
ATOM     79  C   UNL A   1      42.036  21.500  27.414  1.00  0.00     0.198 A 
ATOM     80  C   UNL A   1      42.813  22.573  25.415  1.00  0.00     0.198 A 
ATOM     81  F   UNL A   1      43.428  24.844  25.461  1.00  0.00    -0.203 F 
ATOM     82  F   UNL A   1      41.628  20.397  28.058  1.00  0.00    -0.200 F 
ATOM     83  C   UNL A   1      42.360  21.438  26.068  1.00  0.00     0.200 A 
ATOM     84  F   UNL A   1      43.111  22.523  24.109  1.00  0.00    -0.200 F 
ATOM     85  F   UNL A   1      42.246  20.280  25.402  1.00  0.00    -0.200 F 
ENDBRANCH  51  75
BRANCH  63  86
ATOM     86  C   UNL A   1      48.037  26.644  30.898  1.00  0.00     0.064 A 
ATOM     87  C   UNL A   1      49.119  26.964  30.064  1.00  0.00     0.173 A 
ATOM     88  C   UNL A   1      48.296  25.870  32.041  1.00  0.00     0.173 A 
ATOM     89  F   UNL A   1      48.923  27.689  28.952  1.00  0.00    -0.203 F 
ATOM     90  C   UNL A   1      50.401  26.501  30.346  1.00  0.00     0.198 A 
ATOM     91  C   UNL A   1      49.586  25.440  32.339  1.00  0.00     0.198 A 
ATOM     92  F   UNL A   1      47.299  25.543  32.877  1.00  0.00    -0.203 F 
ATOM     93  F   UNL A   1      51.408  26.773  29.505  1.00  0.00    -0.200 F 
ATOM     94  C   UNL A   1      50.635  25.748  31.487  1.00  0.00     0.200 A 
ATOM     95  F   UNL A   1      49.812  24.729  33.451  1.00  0.00    -0.200 F 
ATOM     96  F   UNL A   1      51.873  25.312  31.762  1.00  0.00    -0.200 F 
ENDBRANCH  63  86
ENDBRANCH  37  38
ENDBRANCH  29  32
ENDBRANCH  27  28
ENDBRANCH  26  27
ENDBRANCH  25  26
ENDBRANCH   1  25
TORSDOF 16
ENDMDL
