MODEL 1
REMARK VINA RESULT:     -12.0      0.000      0.000
REMARK SMILES C[NH2+][C@@]1(C(=O)NCCCCCCNC(=O)c2ccc(-c3c4nc(c(-c5c(F)c(F)c(F)c(F)c5F)c5ccc([nH]5)c(-c5c(F)c(F)c(F)c(F)c5F)c5nc(c(-c6c(F)c(F)c(F)c(F)c6F)c6ccc3[nH]6)C=C5)C=C4)cc2)CCC[C@H](Oc2cccc(OC)c2)C1
REMARK SMILES IDX 9 1 8 2 7 3 6 4 4 5 5 6 3 8 79 9 92 10 80 11 82 12 81 13
REMARK SMILES IDX 2 14 1 15 83 18 84 19 85 20 91 21 86 22 88 23 87 24 89 25
REMARK SMILES IDX 90 26 10 27 11 28 12 29 13 30 14 31 15 33 16 34 17 35 78 36
REMARK SMILES IDX 18 37 77 38 19 39 20 40 21 41 71 42 22 43 76 44 70 45 72 46
REMARK SMILES IDX 23 47 75 48 69 49 68 50 24 52 56 53 36 54 55 55 37 56 40 57
REMARK SMILES IDX 54 58 73 59 38 60 39 61 53 63 74 64 41 65 25 66 26 67 34 68
REMARK SMILES IDX 27 69 28 70 32 71 35 72 29 73 30 74 33 75 31 76 57 77 58 78
REMARK SMILES IDX 66 79 59 80 60 81 64 82 67 83 61 84 62 85 65 86 63 87 42 88
REMARK SMILES IDX 43 89 51 90 44 91 45 92 49 93 52 94 46 95 47 96 50 97 48 98
REMARK H PARENT 6 7 2 16 2 17 13 32 72 51 40 62
REMARK Flexibility Score: inf
ROOT
ATOM      1  C   UNL A   1      31.798  29.239  25.738  1.00  0.00     0.002 C 
ENDROOT
BRANCH   1   2
ATOM      2  C   UNL A   1      32.728  29.374  24.533  1.00  0.00     0.021 C 
BRANCH   2   3
ATOM      3  C   UNL A   1      33.966  28.476  24.442  1.00  0.00     0.116 C 
BRANCH   3   4
ATOM      4  N   UNL A   1      33.834  27.538  23.324  1.00  0.00    -0.351 N 
ATOM      5  C   UNL A   1      33.615  26.210  23.145  1.00  0.00     0.281 C 
ATOM      6  O   UNL A   1      33.822  25.848  21.973  1.00  0.00    -0.268 OA
ATOM      7  H   UNL A   1      33.932  28.000  22.461  1.00  0.00     0.163 HD
BRANCH   5   8
ATOM      8  C   UNL A   1      33.062  25.155  24.206  1.00  0.00     0.178 C 
ATOM      9  C   UNL A   1      32.942  23.722  23.660  1.00  0.00     0.079 C 
ATOM     10  C   UNL A   1      31.750  25.585  24.898  1.00  0.00     0.124 C 
ATOM     11  C   UNL A   1      31.530  23.226  23.353  1.00  0.00     0.011 C 
ATOM     12  C   UNL A   1      30.510  25.548  24.009  1.00  0.00     0.180 C 
ATOM     13  C   UNL A   1      30.419  24.258  23.186  1.00  0.00     0.046 C 
BRANCH   8  14
ATOM     14  N   UNL A   1      34.160  25.012  25.249  1.00  0.00    -0.336 N 
ATOM     15  C   UNL A   1      35.218  24.046  24.955  1.00  0.00     0.331 C 
ATOM     16  H   UNL A   1      34.599  25.926  25.366  1.00  0.00     0.346 HD
ATOM     17  H   UNL A   1      33.696  24.657  26.085  1.00  0.00     0.346 HD
ENDBRANCH   8  14
BRANCH  12  18
ATOM     18  O   UNL A   1      30.582  26.739  23.218  1.00  0.00    -0.490 OA
BRANCH  18  19
ATOM     19  C   UNL A   1      29.564  27.650  23.191  1.00  0.00     0.123 A 
ATOM     20  C   UNL A   1      28.251  27.423  23.595  1.00  0.00     0.047 A 
ATOM     21  C   UNL A   1      29.891  28.852  22.544  1.00  0.00     0.092 A 
ATOM     22  C   UNL A   1      27.261  28.362  23.295  1.00  0.00     0.008 A 
ATOM     23  C   UNL A   1      28.900  29.773  22.219  1.00  0.00     0.122 A 
ATOM     24  C   UNL A   1      27.585  29.531  22.604  1.00  0.00     0.046 A 
BRANCH  23  25
ATOM     25  O   UNL A   1      29.144  30.950  21.570  1.00  0.00    -0.497 OA
ATOM     26  C   UNL A   1      28.002  31.472  20.891  1.00  0.00     0.278 C 
ENDBRANCH  23  25
ENDBRANCH  18  19
ENDBRANCH  12  18
ENDBRANCH   5   8
ENDBRANCH   3   4
ENDBRANCH   2   3
ENDBRANCH   1   2
BRANCH   1  27
ATOM     27  C   UNL A   1      32.085  30.130  26.942  1.00  0.00     0.002 C 
BRANCH  27  28
ATOM     28  C   UNL A   1      31.771  31.626  26.822  1.00  0.00     0.021 C 
BRANCH  28  29
ATOM     29  C   UNL A   1      32.810  32.681  27.229  1.00  0.00     0.116 C 
BRANCH  29  30
ATOM     30  N   UNL A   1      32.329  33.999  27.592  1.00  0.00    -0.352 N 
ATOM     31  C   UNL A   1      32.905  34.894  28.477  1.00  0.00     0.251 C 
ATOM     32  H   UNL A   1      31.495  34.292  27.159  1.00  0.00     0.163 HD
ATOM     33  O   UNL A   1      32.434  36.003  28.648  1.00  0.00    -0.269 OA
BRANCH  31  34
ATOM     34  C   UNL A   1      34.089  34.469  29.264  1.00  0.00     0.039 A 
ATOM     35  C   UNL A   1      33.889  33.885  30.517  1.00  0.00     0.014 A 
ATOM     36  C   UNL A   1      35.382  34.614  28.758  1.00  0.00     0.014 A 
ATOM     37  C   UNL A   1      34.980  33.365  31.223  1.00  0.00     0.010 A 
ATOM     38  C   UNL A   1      36.468  34.065  29.447  1.00  0.00     0.010 A 
ATOM     39  C   UNL A   1      36.274  33.411  30.674  1.00  0.00    -0.014 A 
BRANCH  39  40
ATOM     40  C   UNL A   1      37.406  32.703  31.332  1.00  0.00     0.031 A 
ATOM     41  C   UNL A   1      38.088  31.537  30.675  1.00  0.00     0.074 A 
ATOM     42  C   UNL A   1      37.781  33.078  32.572  1.00  0.00     0.049 A 
ATOM     43  N   UNL A   1      39.080  30.803  31.117  1.00  0.00    -0.248 NA
ATOM     44  C   UNL A   1      37.577  31.128  29.359  1.00  0.00     0.031 C 
ATOM     45  C   UNL A   1      37.160  34.149  33.351  1.00  0.00     0.029 A 
ATOM     46  N   UNL A   1      38.765  32.593  33.399  1.00  0.00    -0.354 N 
ATOM     47  C   UNL A   1      39.309  29.844  30.140  1.00  0.00     0.074 A 
ATOM     48  C   UNL A   1      38.323  30.062  29.101  1.00  0.00     0.031 C 
ATOM     49  C   UNL A   1      37.788  34.254  34.534  1.00  0.00     0.029 A 
ATOM     50  C   UNL A   1      38.839  33.244  34.607  1.00  0.00     0.049 A 
ATOM     51  H   UNL A   1      39.360  31.849  33.151  1.00  0.00     0.167 HD
ATOM     52  C   UNL A   1      40.264  28.883  30.102  1.00  0.00     0.037 A 
ATOM     53  C   UNL A   1      39.663  33.054  35.657  1.00  0.00     0.037 A 
ATOM     54  C   UNL A   1      41.257  28.674  31.126  1.00  0.00     0.049 A 
ATOM     55  C   UNL A   1      40.724  31.990  35.583  1.00  0.00     0.074 A 
ATOM     56  C   UNL A   1      42.307  27.771  31.140  1.00  0.00     0.029 A 
ATOM     57  N   UNL A   1      41.318  29.372  32.324  1.00  0.00    -0.354 N 
ATOM     58  N   UNL A   1      40.989  31.152  34.612  1.00  0.00    -0.248 NA
ATOM     59  C   UNL A   1      41.610  31.856  36.749  1.00  0.00     0.031 C 
ATOM     60  C   UNL A   1      42.977  27.893  32.362  1.00  0.00     0.029 A 
ATOM     61  C   UNL A   1      42.373  28.904  33.092  1.00  0.00     0.049 A 
ATOM     62  H   UNL A   1      40.703  30.093  32.589  1.00  0.00     0.167 HD
ATOM     63  C   UNL A   1      42.083  30.410  35.036  1.00  0.00     0.074 A 
ATOM     64  C   UNL A   1      42.443  30.907  36.348  1.00  0.00     0.031 C 
ATOM     65  C   UNL A   1      42.729  29.406  34.394  1.00  0.00     0.037 A 
BRANCH  52  66
ATOM     66  C   UNL A   1      40.293  27.978  28.904  1.00  0.00     0.064 A 
ATOM     67  C   UNL A   1      41.054  28.293  27.768  1.00  0.00     0.173 A 
ATOM     68  C   UNL A   1      39.595  26.761  28.911  1.00  0.00     0.173 A 
ATOM     69  F   UNL A   1      41.736  29.447  27.709  1.00  0.00    -0.203 F 
ATOM     70  C   UNL A   1      41.092  27.435  26.672  1.00  0.00     0.198 A 
ATOM     71  C   UNL A   1      39.658  25.893  27.824  1.00  0.00     0.198 A 
ATOM     72  F   UNL A   1      38.862  26.408  29.978  1.00  0.00    -0.203 F 
ATOM     73  F   UNL A   1      41.791  27.775  25.580  1.00  0.00    -0.200 F 
ATOM     74  C   UNL A   1      40.400  26.234  26.702  1.00  0.00     0.200 A 
ATOM     75  F   UNL A   1      39.000  24.726  27.861  1.00  0.00    -0.200 F 
ATOM     76  F   UNL A   1      40.443  25.406  25.650  1.00  0.00    -0.200 F 
ENDBRANCH  52  66
BRANCH  53  77
ATOM     77  C   UNL A   1      39.538  33.917  36.859  1.00  0.00     0.064 A 
ATOM     78  C   UNL A   1      40.194  35.154  36.925  1.00  0.00     0.173 A 
ATOM     79  C   UNL A   1      38.764  33.527  37.961  1.00  0.00     0.173 A 
ATOM     80  F   UNL A   1      40.963  35.560  35.904  1.00  0.00    -0.203 F 
ATOM     81  C   UNL A   1      40.095  35.962  38.056  1.00  0.00     0.198 A 
ATOM     82  C   UNL A   1      38.644  34.348  39.081  1.00  0.00     0.198 A 
ATOM     83  F   UNL A   1      38.112  32.356  37.944  1.00  0.00    -0.203 F 
ATOM     84  F   UNL A   1      40.765  37.120  38.110  1.00  0.00    -0.200 F 
ATOM     85  C   UNL A   1      39.315  35.561  39.130  1.00  0.00     0.200 A 
ATOM     86  F   UNL A   1      37.880  33.964  40.112  1.00  0.00    -0.200 F 
ATOM     87  F   UNL A   1      39.216  36.340  40.216  1.00  0.00    -0.200 F 
ENDBRANCH  53  77
BRANCH  65  88
ATOM     88  C   UNL A   1      43.911  28.794  35.086  1.00  0.00     0.064 A 
ATOM     89  C   UNL A   1      45.209  29.296  34.909  1.00  0.00     0.173 A 
ATOM     90  C   UNL A   1      43.739  27.716  35.967  1.00  0.00     0.173 A 
ATOM     91  F   UNL A   1      45.428  30.315  34.065  1.00  0.00    -0.203 F 
ATOM     92  C   UNL A   1      46.293  28.729  35.573  1.00  0.00     0.198 A 
ATOM     93  C   UNL A   1      44.822  27.167  36.649  1.00  0.00     0.198 A 
ATOM     94  F   UNL A   1      42.519  27.200  36.175  1.00  0.00    -0.203 F 
ATOM     95  F   UNL A   1      47.530  29.199  35.356  1.00  0.00    -0.200 F 
ATOM     96  C   UNL A   1      46.098  27.670  36.448  1.00  0.00     0.200 A 
ATOM     97  F   UNL A   1      44.631  26.151  37.502  1.00  0.00    -0.200 F 
ATOM     98  F   UNL A   1      47.143  27.129  37.090  1.00  0.00    -0.200 F 
ENDBRANCH  65  88
ENDBRANCH  39  40
ENDBRANCH  31  34
ENDBRANCH  29  30
ENDBRANCH  28  29
ENDBRANCH  27  28
ENDBRANCH   1  27
TORSDOF 17
ENDMDL
MODEL 2
REMARK VINA RESULT:     -12.0      1.015      7.351
REMARK SMILES C[NH2+][C@@]1(C(=O)NCCCCCCNC(=O)c2ccc(-c3c4nc(c(-c5c(F)c(F)c(F)c(F)c5F)c5ccc([nH]5)c(-c5c(F)c(F)c(F)c(F)c5F)c5nc(c(-c6c(F)c(F)c(F)c(F)c6F)c6ccc3[nH]6)C=C5)C=C4)cc2)CCC[C@H](Oc2cccc(OC)c2)C1
REMARK SMILES IDX 9 1 8 2 7 3 6 4 4 5 5 6 3 8 79 9 92 10 80 11 82 12 81 13
REMARK SMILES IDX 2 14 1 15 83 18 84 19 85 20 91 21 86 22 88 23 87 24 89 25
REMARK SMILES IDX 90 26 10 27 11 28 12 29 13 30 14 31 15 33 16 34 17 35 78 36
REMARK SMILES IDX 18 37 77 38 19 39 20 40 21 41 71 42 22 43 76 44 70 45 72 46
REMARK SMILES IDX 23 47 75 48 69 49 68 50 24 52 56 53 36 54 55 55 37 56 40 57
REMARK SMILES IDX 54 58 73 59 38 60 39 61 53 63 74 64 41 65 25 66 26 67 34 68
REMARK SMILES IDX 27 69 28 70 32 71 35 72 29 73 30 74 33 75 31 76 57 77 58 78
REMARK SMILES IDX 66 79 59 80 60 81 64 82 67 83 61 84 62 85 65 86 63 87 42 88
REMARK SMILES IDX 43 89 51 90 44 91 45 92 49 93 52 94 46 95 47 96 50 97 48 98
REMARK H PARENT 6 7 2 16 2 17 13 32 72 51 40 62
REMARK Flexibility Score: inf
ROOT
ATOM      1  C   UNL A   1      34.264  29.659  26.993  1.00  0.00     0.002 C 
ENDROOT
BRANCH   1   2
ATOM      2  C   UNL A   1      32.822  29.253  26.695  1.00  0.00     0.021 C 
BRANCH   2   3
ATOM      3  C   UNL A   1      32.179  29.697  25.377  1.00  0.00     0.116 C 
BRANCH   3   4
ATOM      4  N   UNL A   1      33.069  29.404  24.251  1.00  0.00    -0.351 N 
ATOM      5  C   UNL A   1      33.622  28.311  23.664  1.00  0.00     0.281 C 
ATOM      6  O   UNL A   1      34.516  28.610  22.852  1.00  0.00    -0.268 OA
ATOM      7  H   UNL A   1      33.344  30.229  23.792  1.00  0.00     0.163 HD
BRANCH   5   8
ATOM      8  C   UNL A   1      33.197  26.783  23.836  1.00  0.00     0.178 C 
ATOM      9  C   UNL A   1      33.908  25.822  22.868  1.00  0.00     0.079 C 
ATOM     10  C   UNL A   1      31.670  26.548  23.813  1.00  0.00     0.124 C 
ATOM     11  C   UNL A   1      33.074  25.284  21.707  1.00  0.00     0.011 C 
ATOM     12  C   UNL A   1      31.012  26.720  22.447  1.00  0.00     0.180 C 
ATOM     13  C   UNL A   1      31.795  26.024  21.328  1.00  0.00     0.046 C 
BRANCH   8  14
ATOM     14  N   UNL A   1      33.754  26.354  25.185  1.00  0.00    -0.336 N 
ATOM     15  C   UNL A   1      32.843  25.621  26.063  1.00  0.00     0.331 C 
ATOM     16  H   UNL A   1      34.564  25.759  25.012  1.00  0.00     0.346 HD
ATOM     17  H   UNL A   1      33.966  27.222  25.679  1.00  0.00     0.346 HD
ENDBRANCH   8  14
BRANCH  12  18
ATOM     18  O   UNL A   1      30.880  28.135  22.271  1.00  0.00    -0.490 OA
BRANCH  18  19
ATOM     19  C   UNL A   1      29.731  28.799  22.593  1.00  0.00     0.123 A 
ATOM     20  C   UNL A   1      28.569  28.224  23.103  1.00  0.00     0.047 A 
ATOM     21  C   UNL A   1      29.724  30.148  22.207  1.00  0.00     0.092 A 
ATOM     22  C   UNL A   1      27.393  28.976  23.164  1.00  0.00     0.008 A 
ATOM     23  C   UNL A   1      28.545  30.887  22.240  1.00  0.00     0.122 A 
ATOM     24  C   UNL A   1      27.381  30.302  22.728  1.00  0.00     0.046 A 
BRANCH  23  25
ATOM     25  O   UNL A   1      28.462  32.196  21.858  1.00  0.00    -0.497 OA
ATOM     26  C   UNL A   1      28.023  32.367  20.510  1.00  0.00     0.278 C 
ENDBRANCH  23  25
ENDBRANCH  18  19
ENDBRANCH  12  18
ENDBRANCH   5   8
ENDBRANCH   3   4
ENDBRANCH   2   3
ENDBRANCH   1   2
BRANCH   1  27
ATOM     27  C   UNL A   1      34.475  30.909  27.842  1.00  0.00     0.002 C 
BRANCH  27  28
ATOM     28  C   UNL A   1      33.290  31.863  28.024  1.00  0.00     0.021 C 
BRANCH  28  29
ATOM     29  C   UNL A   1      33.136  33.103  27.133  1.00  0.00     0.116 C 
BRANCH  29  30
ATOM     30  N   UNL A   1      32.554  34.293  27.723  1.00  0.00    -0.352 N 
ATOM     31  C   UNL A   1      33.050  35.043  28.774  1.00  0.00     0.251 C 
ATOM     32  H   UNL A   1      31.707  34.603  27.328  1.00  0.00     0.163 HD
ATOM     33  O   UNL A   1      32.496  36.064  29.137  1.00  0.00    -0.269 OA
BRANCH  31  34
ATOM     34  C   UNL A   1      34.251  34.561  29.502  1.00  0.00     0.039 A 
ATOM     35  C   UNL A   1      34.086  33.982  30.762  1.00  0.00     0.014 A 
ATOM     36  C   UNL A   1      35.523  34.649  28.932  1.00  0.00     0.014 A 
ATOM     37  C   UNL A   1      35.186  33.410  31.412  1.00  0.00     0.010 A 
ATOM     38  C   UNL A   1      36.614  34.048  29.566  1.00  0.00     0.010 A 
ATOM     39  C   UNL A   1      36.451  33.399  30.800  1.00  0.00    -0.014 A 
BRANCH  39  40
ATOM     40  C   UNL A   1      37.581  32.637  31.400  1.00  0.00     0.031 A 
ATOM     41  C   UNL A   1      38.134  32.991  32.751  1.00  0.00     0.074 A 
ATOM     42  C   UNL A   1      38.159  31.651  30.684  1.00  0.00     0.049 A 
ATOM     43  N   UNL A   1      39.122  32.438  33.411  1.00  0.00    -0.248 NA
ATOM     44  C   UNL A   1      37.512  34.128  33.443  1.00  0.00     0.031 C 
ATOM     45  C   UNL A   1      37.765  31.249  29.334  1.00  0.00     0.029 A 
ATOM     46  N   UNL A   1      39.208  30.816  30.986  1.00  0.00    -0.354 N 
ATOM     47  C   UNL A   1      39.244  33.159  34.590  1.00  0.00     0.074 A 
ATOM     48  C   UNL A   1      38.257  34.219  34.536  1.00  0.00     0.031 C 
ATOM     49  C   UNL A   1      38.547  30.234  28.931  1.00  0.00     0.029 A 
ATOM     50  C   UNL A   1      39.513  29.929  29.982  1.00  0.00     0.049 A 
ATOM     51  H   UNL A   1      39.696  30.851  31.840  1.00  0.00     0.167 HD
ATOM     52  C   UNL A   1      40.086  32.947  35.631  1.00  0.00     0.037 A 
ATOM     53  C   UNL A   1      40.460  28.973  29.915  1.00  0.00     0.037 A 
ATOM     54  C   UNL A   1      41.057  31.883  35.695  1.00  0.00     0.049 A 
ATOM     55  C   UNL A   1      41.372  28.748  31.089  1.00  0.00     0.074 A 
ATOM     56  C   UNL A   1      41.903  31.549  36.740  1.00  0.00     0.029 A 
ATOM     57  N   UNL A   1      41.318  30.987  34.670  1.00  0.00    -0.354 N 
ATOM     58  N   UNL A   1      41.413  29.379  32.237  1.00  0.00    -0.248 NA
ATOM     59  C   UNL A   1      42.363  27.669  30.963  1.00  0.00     0.031 C 
ATOM     60  C   UNL A   1      42.706  30.478  36.331  1.00  0.00     0.029 A 
ATOM     61  C   UNL A   1      42.327  30.114  35.049  1.00  0.00     0.049 A 
ATOM     62  H   UNL A   1      40.854  30.971  33.802  1.00  0.00     0.167 HD
ATOM     63  C   UNL A   1      42.411  28.760  32.977  1.00  0.00     0.074 A 
ATOM     64  C   UNL A   1      42.942  27.693  32.154  1.00  0.00     0.031 C 
ATOM     65  C   UNL A   1      42.847  29.052  34.227  1.00  0.00     0.037 A 
BRANCH  52  66
ATOM     66  C   UNL A   1      39.993  33.883  36.801  1.00  0.00     0.064 A 
ATOM     67  C   UNL A   1      40.702  35.094  36.827  1.00  0.00     0.173 A 
ATOM     68  C   UNL A   1      39.150  33.593  37.884  1.00  0.00     0.173 A 
ATOM     69  F   UNL A   1      41.525  35.416  35.818  1.00  0.00    -0.203 F 
ATOM     70  C   UNL A   1      40.590  35.966  37.907  1.00  0.00     0.198 A 
ATOM     71  C   UNL A   1      39.020  34.480  38.949  1.00  0.00     0.198 A 
ATOM     72  F   UNL A   1      38.441  32.454  37.903  1.00  0.00    -0.203 F 
ATOM     73  F   UNL A   1      41.309  37.097  37.930  1.00  0.00    -0.200 F 
ATOM     74  C   UNL A   1      39.746  35.662  38.964  1.00  0.00     0.200 A 
ATOM     75  F   UNL A   1      38.192  34.192  39.963  1.00  0.00    -0.200 F 
ATOM     76  F   UNL A   1      39.634  36.505  39.999  1.00  0.00    -0.200 F 
ENDBRANCH  52  66
BRANCH  53  77
ATOM     77  C   UNL A   1      40.571  28.129  28.698  1.00  0.00     0.064 A 
ATOM     78  C   UNL A   1      39.888  26.908  28.606  1.00  0.00     0.173 A 
ATOM     79  C   UNL A   1      41.357  28.522  27.605  1.00  0.00     0.173 A 
ATOM     80  F   UNL A   1      39.141  26.480  29.634  1.00  0.00    -0.203 F 
ATOM     81  C   UNL A   1      40.000  26.103  27.474  1.00  0.00     0.198 A 
ATOM     82  C   UNL A   1      41.448  27.729  26.463  1.00  0.00     0.198 A 
ATOM     83  F   UNL A   1      42.025  29.684  27.641  1.00  0.00    -0.203 F 
ATOM     84  F   UNL A   1      39.370  24.922  27.429  1.00  0.00    -0.200 F 
ATOM     85  C   UNL A   1      40.775  26.517  26.401  1.00  0.00     0.200 A 
ATOM     86  F   UNL A   1      42.187  28.138  25.423  1.00  0.00    -0.200 F 
ATOM     87  F   UNL A   1      40.879  25.746  25.311  1.00  0.00    -0.200 F 
ENDBRANCH  53  77
BRANCH  65  88
ATOM     88  C   UNL A   1      43.935  28.189  34.796  1.00  0.00     0.064 A 
ATOM     89  C   UNL A   1      43.647  27.003  35.488  1.00  0.00     0.173 A 
ATOM     90  C   UNL A   1      45.283  28.532  34.615  1.00  0.00     0.173 A 
ATOM     91  F   UNL A   1      42.374  26.640  35.703  1.00  0.00    -0.203 F 
ATOM     92  C   UNL A   1      44.668  26.204  35.995  1.00  0.00     0.198 A 
ATOM     93  C   UNL A   1      46.302  27.717  35.100  1.00  0.00     0.198 A 
ATOM     94  F   UNL A   1      45.613  29.654  33.957  1.00  0.00    -0.203 F 
ATOM     95  F   UNL A   1      44.368  25.097  36.689  1.00  0.00    -0.200 F 
ATOM     96  C   UNL A   1      45.995  26.558  35.794  1.00  0.00     0.200 A 
ATOM     97  F   UNL A   1      47.583  28.055  34.896  1.00  0.00    -0.200 F 
ATOM     98  F   UNL A   1      46.976  25.783  36.278  1.00  0.00    -0.200 F 
ENDBRANCH  65  88
ENDBRANCH  39  40
ENDBRANCH  31  34
ENDBRANCH  29  30
ENDBRANCH  28  29
ENDBRANCH  27  28
ENDBRANCH   1  27
TORSDOF 17
ENDMDL
MODEL 3
REMARK VINA RESULT:     -11.9      0.953      2.322
REMARK SMILES C[NH2+][C@@]1(C(=O)NCCCCCCNC(=O)c2ccc(-c3c4nc(c(-c5c(F)c(F)c(F)c(F)c5F)c5ccc([nH]5)c(-c5c(F)c(F)c(F)c(F)c5F)c5nc(c(-c6c(F)c(F)c(F)c(F)c6F)c6ccc3[nH]6)C=C5)C=C4)cc2)CCC[C@H](Oc2cccc(OC)c2)C1
REMARK SMILES IDX 9 1 8 2 7 3 6 4 4 5 5 6 3 8 79 9 92 10 80 11 82 12 81 13
REMARK SMILES IDX 2 14 1 15 83 18 84 19 85 20 91 21 86 22 88 23 87 24 89 25
REMARK SMILES IDX 90 26 10 27 11 28 12 29 13 30 14 31 15 33 16 34 17 35 78 36
REMARK SMILES IDX 18 37 77 38 19 39 20 40 21 41 71 42 22 43 76 44 70 45 72 46
REMARK SMILES IDX 23 47 75 48 69 49 68 50 24 52 56 53 36 54 55 55 37 56 40 57
REMARK SMILES IDX 54 58 73 59 38 60 39 61 53 63 74 64 41 65 25 66 26 67 34 68
REMARK SMILES IDX 27 69 28 70 32 71 35 72 29 73 30 74 33 75 31 76 57 77 58 78
REMARK SMILES IDX 66 79 59 80 60 81 64 82 67 83 61 84 62 85 65 86 63 87 42 88
REMARK SMILES IDX 43 89 51 90 44 91 45 92 49 93 52 94 46 95 47 96 50 97 48 98
REMARK H PARENT 6 7 2 16 2 17 13 32 72 51 40 62
REMARK Flexibility Score: inf
ROOT
ATOM      1  C   UNL A   1      33.550  29.840  26.512  1.00  0.00     0.002 C 
ENDROOT
BRANCH   1   2
ATOM      2  C   UNL A   1      33.956  28.406  26.848  1.00  0.00     0.021 C 
BRANCH   2   3
ATOM      3  C   UNL A   1      33.533  27.271  25.908  1.00  0.00     0.116 C 
BRANCH   3   4
ATOM      4  N   UNL A   1      32.327  26.613  26.415  1.00  0.00    -0.351 N 
ATOM      5  C   UNL A   1      31.353  25.792  25.941  1.00  0.00     0.281 C 
ATOM      6  O   UNL A   1      30.393  25.692  26.726  1.00  0.00    -0.268 OA
ATOM      7  H   UNL A   1      32.180  26.825  27.364  1.00  0.00     0.163 HD
BRANCH   5   8
ATOM      8  C   UNL A   1      31.366  24.927  24.601  1.00  0.00     0.178 C 
ATOM      9  C   UNL A   1      32.773  24.530  24.125  1.00  0.00     0.079 C 
ATOM     10  C   UNL A   1      30.554  25.546  23.442  1.00  0.00     0.124 C 
ATOM     11  C   UNL A   1      33.320  25.283  22.913  1.00  0.00     0.011 C 
ATOM     12  C   UNL A   1      31.177  26.787  22.810  1.00  0.00     0.180 C 
ATOM     13  C   UNL A   1      32.675  26.612  22.534  1.00  0.00     0.046 C 
BRANCH   8  14
ATOM     14  N   UNL A   1      30.761  23.582  24.979  1.00  0.00    -0.336 N 
ATOM     15  C   UNL A   1      31.621  22.669  25.730  1.00  0.00     0.331 C 
ATOM     16  H   UNL A   1      29.932  23.763  25.545  1.00  0.00     0.346 HD
ATOM     17  H   UNL A   1      30.574  23.111  24.094  1.00  0.00     0.346 HD
ENDBRANCH   8  14
BRANCH  12  18
ATOM     18  O   UNL A   1      30.872  27.859  23.708  1.00  0.00    -0.490 OA
BRANCH  18  19
ATOM     19  C   UNL A   1      29.724  28.591  23.594  1.00  0.00     0.123 A 
ATOM     20  C   UNL A   1      28.489  28.115  23.164  1.00  0.00     0.047 A 
ATOM     21  C   UNL A   1      29.905  29.968  23.792  1.00  0.00     0.092 A 
ATOM     22  C   UNL A   1      27.463  29.016  22.869  1.00  0.00     0.008 A 
ATOM     23  C   UNL A   1      28.892  30.868  23.470  1.00  0.00     0.122 A 
ATOM     24  C   UNL A   1      27.667  30.389  23.017  1.00  0.00     0.046 A 
BRANCH  23  25
ATOM     25  O   UNL A   1      29.008  32.221  23.615  1.00  0.00    -0.497 OA
ATOM     26  C   UNL A   1      28.683  32.950  22.431  1.00  0.00     0.278 C 
ENDBRANCH  23  25
ENDBRANCH  18  19
ENDBRANCH  12  18
ENDBRANCH   5   8
ENDBRANCH   3   4
ENDBRANCH   2   3
ENDBRANCH   1   2
BRANCH   1  27
ATOM     27  C   UNL A   1      32.106  30.240  26.798  1.00  0.00     0.002 C 
BRANCH  27  28
ATOM     28  C   UNL A   1      31.772  31.735  26.854  1.00  0.00     0.021 C 
BRANCH  28  29
ATOM     29  C   UNL A   1      32.820  32.757  27.316  1.00  0.00     0.116 C 
BRANCH  29  30
ATOM     30  N   UNL A   1      32.360  34.085  27.673  1.00  0.00    -0.352 N 
ATOM     31  C   UNL A   1      32.959  34.981  28.541  1.00  0.00     0.251 C 
ATOM     32  H   UNL A   1      31.524  34.383  27.248  1.00  0.00     0.163 HD
ATOM     33  O   UNL A   1      32.505  36.097  28.708  1.00  0.00    -0.269 OA
BRANCH  31  34
ATOM     34  C   UNL A   1      34.149  34.549  29.316  1.00  0.00     0.039 A 
ATOM     35  C   UNL A   1      33.972  34.107  30.629  1.00  0.00     0.014 A 
ATOM     36  C   UNL A   1      35.423  34.548  28.743  1.00  0.00     0.014 A 
ATOM     37  C   UNL A   1      35.058  33.580  31.337  1.00  0.00     0.010 A 
ATOM     38  C   UNL A   1      36.500  33.991  29.438  1.00  0.00     0.010 A 
ATOM     39  C   UNL A   1      36.323  33.476  30.732  1.00  0.00    -0.014 A 
BRANCH  39  40
ATOM     40  C   UNL A   1      37.435  32.755  31.409  1.00  0.00     0.031 A 
ATOM     41  C   UNL A   1      38.106  31.573  30.769  1.00  0.00     0.074 A 
ATOM     42  C   UNL A   1      37.800  33.132  32.652  1.00  0.00     0.049 A 
ATOM     43  N   UNL A   1      39.079  30.825  31.230  1.00  0.00    -0.248 NA
ATOM     44  C   UNL A   1      37.605  31.162  29.450  1.00  0.00     0.031 C 
ATOM     45  C   UNL A   1      37.186  34.219  33.415  1.00  0.00     0.029 A 
ATOM     46  N   UNL A   1      38.765  32.638  33.495  1.00  0.00    -0.354 N 
ATOM     47  C   UNL A   1      39.305  29.856  30.263  1.00  0.00     0.074 A 
ATOM     48  C   UNL A   1      38.336  30.082  29.209  1.00  0.00     0.031 C 
ATOM     49  C   UNL A   1      37.801  34.323  34.605  1.00  0.00     0.029 A 
ATOM     50  C   UNL A   1      38.835  33.296  34.699  1.00  0.00     0.049 A 
ATOM     51  H   UNL A   1      39.350  31.882  33.260  1.00  0.00     0.167 HD
ATOM     52  C   UNL A   1      40.245  28.879  30.244  1.00  0.00     0.037 A 
ATOM     53  C   UNL A   1      39.641  33.100  35.761  1.00  0.00     0.037 A 
ATOM     54  C   UNL A   1      41.221  28.661  31.283  1.00  0.00     0.049 A 
ATOM     55  C   UNL A   1      40.686  32.019  35.709  1.00  0.00     0.074 A 
ATOM     56  C   UNL A   1      42.256  27.741  31.316  1.00  0.00     0.029 A 
ATOM     57  N   UNL A   1      41.278  29.366  32.476  1.00  0.00    -0.354 N 
ATOM     58  N   UNL A   1      40.949  31.169  34.747  1.00  0.00    -0.248 NA
ATOM     59  C   UNL A   1      41.554  31.878  36.887  1.00  0.00     0.031 C 
ATOM     60  C   UNL A   1      42.912  27.861  32.547  1.00  0.00     0.029 A 
ATOM     61  C   UNL A   1      42.315  28.887  33.261  1.00  0.00     0.049 A 
ATOM     62  H   UNL A   1      40.672  30.100  32.728  1.00  0.00     0.167 HD
ATOM     63  C   UNL A   1      42.025  30.412  35.191  1.00  0.00     0.074 A 
ATOM     64  C   UNL A   1      42.376  30.913  36.503  1.00  0.00     0.031 C 
ATOM     65  C   UNL A   1      42.662  29.393  34.564  1.00  0.00     0.037 A 
BRANCH  52  66
ATOM     66  C   UNL A   1      40.274  27.965  29.053  1.00  0.00     0.064 A 
ATOM     67  C   UNL A   1      39.549  26.763  29.036  1.00  0.00     0.173 A 
ATOM     68  C   UNL A   1      40.990  28.317  27.899  1.00  0.00     0.173 A 
ATOM     69  F   UNL A   1      38.851  26.380  30.115  1.00  0.00    -0.203 F 
ATOM     70  C   UNL A   1      39.564  25.935  27.916  1.00  0.00     0.198 A 
ATOM     71  C   UNL A   1      40.980  27.499  26.773  1.00  0.00     0.198 A 
ATOM     72  F   UNL A   1      41.690  29.461  27.860  1.00  0.00    -0.203 F 
ATOM     73  F   UNL A   1      38.899  24.771  27.937  1.00  0.00    -0.200 F 
ATOM     74  C   UNL A   1      40.274  26.305  26.784  1.00  0.00     0.200 A 
ATOM     75  F   UNL A   1      41.655  27.865  25.674  1.00  0.00    -0.200 F 
ATOM     76  F   UNL A   1      40.282  25.511  25.706  1.00  0.00    -0.200 F 
ENDBRANCH  52  66
BRANCH  53  77
ATOM     77  C   UNL A   1      39.515  33.974  36.954  1.00  0.00     0.064 A 
ATOM     78  C   UNL A   1      38.759  33.571  38.064  1.00  0.00     0.173 A 
ATOM     79  C   UNL A   1      40.146  35.225  37.013  1.00  0.00     0.173 A 
ATOM     80  F   UNL A   1      38.120  32.392  38.045  1.00  0.00    -0.203 F 
ATOM     81  C   UNL A   1      38.623  34.393  39.180  1.00  0.00     0.198 A 
ATOM     82  C   UNL A   1      40.031  36.036  38.141  1.00  0.00     0.198 A 
ATOM     83  F   UNL A   1      40.886  35.654  35.981  1.00  0.00    -0.203 F 
ATOM     84  F   UNL A   1      37.860  34.001  40.209  1.00  0.00    -0.200 F 
ATOM     85  C   UNL A   1      39.264  35.622  39.220  1.00  0.00     0.200 A 
ATOM     86  F   UNL A   1      40.662  37.217  38.182  1.00  0.00    -0.200 F 
ATOM     87  F   UNL A   1      39.137  36.411  40.296  1.00  0.00    -0.200 F 
ENDBRANCH  53  77
BRANCH  65  88
ATOM     88  C   UNL A   1      43.825  28.767  35.275  1.00  0.00     0.064 A 
ATOM     89  C   UNL A   1      43.657  27.678  36.144  1.00  0.00     0.173 A 
ATOM     90  C   UNL A   1      45.129  29.235  35.056  1.00  0.00     0.173 A 
ATOM     91  F   UNL A   1      42.428  27.204  36.400  1.00  0.00    -0.203 F 
ATOM     92  C   UNL A   1      44.748  27.095  36.783  1.00  0.00     0.198 A 
ATOM     93  C   UNL A   1      46.222  28.634  35.676  1.00  0.00     0.198 A 
ATOM     94  F   UNL A   1      45.347  30.271  34.231  1.00  0.00    -0.203 F 
ATOM     95  F   UNL A   1      44.559  26.083  37.641  1.00  0.00    -0.200 F 
ATOM     96  C   UNL A   1      46.030  27.569  36.542  1.00  0.00     0.200 A 
ATOM     97  F   UNL A   1      47.460  29.085  35.434  1.00  0.00    -0.200 F 
ATOM     98  F   UNL A   1      47.080  27.002  37.154  1.00  0.00    -0.200 F 
ENDBRANCH  65  88
ENDBRANCH  39  40
ENDBRANCH  31  34
ENDBRANCH  29  30
ENDBRANCH  28  29
ENDBRANCH  27  28
ENDBRANCH   1  27
TORSDOF 17
ENDMDL
