MODEL 1
REMARK VINA RESULT:     -12.5      0.000      0.000
REMARK SMILES O=C(NCCCCCCNC(=O)c1c(F)cccc1N1CC[C@@H]([NH+]2CCCCC2)C1)c1ccc(-c2c3nc(c(-c4c(F)c(F)c(F)c(F)c4F)c4ccc([nH]4)c(-c4c(F)c(F)c(F)c(F)c4F)c4nc(c(-c5c(F)c(F)c(F)c(F)c5F)c5ccc2[nH]5)C=C4)C=C3)cc1
REMARK SMILES IDX 6 1 5 2 4 3 3 4 1 5 2 6 31 8 32 9 93 10 33 11 92 12 34 13
REMARK SMILES IDX 35 14 36 15 86 16 37 17 91 18 85 19 87 20 38 21 90 22 84 23
REMARK SMILES IDX 83 24 39 26 71 27 51 28 70 29 52 30 55 31 69 32 88 33 53 34
REMARK SMILES IDX 54 35 68 37 89 38 56 39 40 40 41 41 49 42 42 43 43 44 47 45
REMARK SMILES IDX 50 46 44 47 45 48 48 49 46 50 72 51 73 52 81 53 74 54 75 55
REMARK SMILES IDX 79 56 82 57 76 58 77 59 80 60 78 61 57 62 58 63 66 64 59 65
REMARK SMILES IDX 60 66 64 67 67 68 61 69 62 70 65 71 63 72 7 73 8 74 9 75
REMARK SMILES IDX 10 76 11 77 12 79 13 80 14 81 19 82 15 83 16 84 18 85 17 86
REMARK SMILES IDX 20 87 21 88 30 89 22 90 23 91 24 92 25 93 29 94 26 96 28 97
REMARK SMILES IDX 27 98
REMARK H PARENT 3 7 87 25 55 36 10 78 24 95
REMARK Flexibility Score: inf
ROOT
ATOM      1  C   UNL A   1      31.475  30.852  26.053  1.00  0.00     0.002 C 
ENDROOT
BRANCH   1   2
ATOM      2  C   UNL A   1      31.357  32.305  26.508  1.00  0.00     0.021 C 
BRANCH   2   3
ATOM      3  C   UNL A   1      32.572  32.859  27.240  1.00  0.00     0.116 C 
BRANCH   3   4
ATOM      4  N   UNL A   1      32.386  34.230  27.687  1.00  0.00    -0.352 N 
ATOM      5  O   UNL A   1      32.658  36.038  29.012  1.00  0.00    -0.269 OA
ATOM      6  C   UNL A   1      33.048  34.924  28.670  1.00  0.00     0.251 C 
ATOM      7  H   UNL A   1      31.683  34.734  27.217  1.00  0.00     0.163 HD
BRANCH   6   8
ATOM      8  C   UNL A   1      34.219  34.320  29.342  1.00  0.00     0.039 A 
ATOM      9  C   UNL A   1      35.517  34.612  28.916  1.00  0.00     0.014 A 
ATOM     10  C   UNL A   1      34.015  33.453  30.419  1.00  0.00     0.014 A 
ATOM     11  C   UNL A   1      36.596  33.926  29.463  1.00  0.00     0.010 A 
ATOM     12  C   UNL A   1      35.109  32.832  31.029  1.00  0.00     0.010 A 
ATOM     13  C   UNL A   1      36.405  33.038  30.535  1.00  0.00    -0.014 A 
BRANCH  13  14
ATOM     14  C   UNL A   1      37.584  32.384  31.158  1.00  0.00     0.031 A 
ATOM     15  C   UNL A   1      38.048  32.761  32.535  1.00  0.00     0.074 A 
ATOM     16  C   UNL A   1      38.220  31.414  30.474  1.00  0.00     0.049 A 
ATOM     17  N   UNL A   1      39.048  32.276  33.230  1.00  0.00    -0.248 NA
ATOM     18  C   UNL A   1      37.302  33.825  33.223  1.00  0.00     0.031 C 
ATOM     19  C   UNL A   1      37.860  30.964  29.129  1.00  0.00     0.029 A 
ATOM     20  N   UNL A   1      39.285  30.619  30.817  1.00  0.00    -0.354 N 
ATOM     21  C   UNL A   1      39.057  32.979  34.427  1.00  0.00     0.074 A 
ATOM     22  C   UNL A   1      37.986  33.950  34.352  1.00  0.00     0.031 C 
ATOM     23  C   UNL A   1      38.652  29.941  28.780  1.00  0.00     0.029 A 
ATOM     24  C   UNL A   1      39.618  29.705  29.849  1.00  0.00     0.049 A 
ATOM     25  H   UNL A   1      39.762  30.697  31.674  1.00  0.00     0.167 HD
ATOM     26  C   UNL A   1      39.879  32.820  35.492  1.00  0.00     0.037 A 
ATOM     27  C   UNL A   1      40.600  28.786  29.814  1.00  0.00     0.037 A 
ATOM     28  C   UNL A   1      40.940  31.845  35.560  1.00  0.00     0.049 A 
ATOM     29  C   UNL A   1      41.525  28.656  30.988  1.00  0.00     0.074 A 
ATOM     30  C   UNL A   1      41.811  31.592  36.605  1.00  0.00     0.029 A 
ATOM     31  N   UNL A   1      41.278  30.969  34.538  1.00  0.00    -0.354 N 
ATOM     32  N   UNL A   1      41.512  29.314  32.122  1.00  0.00    -0.248 NA
ATOM     33  C   UNL A   1      42.600  27.662  30.880  1.00  0.00     0.031 C 
ATOM     34  C   UNL A   1      42.710  30.602  36.196  1.00  0.00     0.029 A 
ATOM     35  C   UNL A   1      42.360  30.191  34.920  1.00  0.00     0.049 A 
ATOM     36  H   UNL A   1      40.817  30.909  33.670  1.00  0.00     0.167 HD
ATOM     37  C   UNL A   1      42.564  28.807  32.869  1.00  0.00     0.074 A 
ATOM     38  C   UNL A   1      43.186  27.773  32.065  1.00  0.00     0.031 C 
ATOM     39  C   UNL A   1      42.973  29.166  34.110  1.00  0.00     0.037 A 
BRANCH  26  40
ATOM     40  C   UNL A   1      39.677  33.725  36.674  1.00  0.00     0.064 A 
ATOM     41  C   UNL A   1      38.838  33.340  37.732  1.00  0.00     0.173 A 
ATOM     42  C   UNL A   1      40.265  34.998  36.738  1.00  0.00     0.173 A 
ATOM     43  F   UNL A   1      38.241  32.138  37.718  1.00  0.00    -0.203 F 
ATOM     44  C   UNL A   1      38.591  34.196  38.802  1.00  0.00     0.198 A 
ATOM     45  C   UNL A   1      40.041  35.839  37.825  1.00  0.00     0.198 A 
ATOM     46  F   UNL A   1      41.082  35.413  35.758  1.00  0.00    -0.203 F 
ATOM     47  F   UNL A   1      37.763  33.817  39.785  1.00  0.00    -0.200 F 
ATOM     48  C   UNL A   1      39.198  35.442  38.851  1.00  0.00     0.200 A 
ATOM     49  F   UNL A   1      40.648  37.033  37.882  1.00  0.00    -0.200 F 
ATOM     50  F   UNL A   1      38.974  36.258  39.891  1.00  0.00    -0.200 F 
ENDBRANCH  26  40
BRANCH  27  51
ATOM     51  C   UNL A   1      40.723  27.911  28.622  1.00  0.00     0.064 A 
ATOM     52  C   UNL A   1      41.491  28.296  27.511  1.00  0.00     0.173 A 
ATOM     53  C   UNL A   1      40.009  26.708  28.537  1.00  0.00     0.173 A 
ATOM     54  F   UNL A   1      42.185  29.443  27.542  1.00  0.00    -0.203 F 
ATOM     55  C   UNL A   1      41.509  27.531  26.349  1.00  0.00     0.198 A 
ATOM     56  C   UNL A   1      40.050  25.930  27.383  1.00  0.00     0.198 A 
ATOM     57  F   UNL A   1      39.274  26.292  29.579  1.00  0.00    -0.203 F 
ATOM     58  F   UNL A   1      42.206  27.949  25.284  1.00  0.00    -0.200 F 
ATOM     59  C   UNL A   1      40.789  26.347  26.285  1.00  0.00     0.200 A 
ATOM     60  F   UNL A   1      39.367  24.778  27.331  1.00  0.00    -0.200 F 
ATOM     61  F   UNL A   1      40.802  25.612  25.166  1.00  0.00    -0.200 F 
ENDBRANCH  27  51
BRANCH  39  62
ATOM     62  C   UNL A   1      44.139  28.425  34.699  1.00  0.00     0.064 A 
ATOM     63  C   UNL A   1      45.448  28.888  34.496  1.00  0.00     0.173 A 
ATOM     64  C   UNL A   1      43.967  27.221  35.396  1.00  0.00     0.173 A 
ATOM     65  F   UNL A   1      45.665  30.032  33.830  1.00  0.00    -0.203 F 
ATOM     66  C   UNL A   1      46.544  28.162  34.954  1.00  0.00     0.198 A 
ATOM     67  C   UNL A   1      45.066  26.512  35.879  1.00  0.00     0.198 A 
ATOM     68  F   UNL A   1      42.736  26.744  35.629  1.00  0.00    -0.203 F 
ATOM     69  F   UNL A   1      47.786  28.606  34.716  1.00  0.00    -0.200 F 
ATOM     70  C   UNL A   1      46.352  26.978  35.647  1.00  0.00     0.200 A 
ATOM     71  F   UNL A   1      44.878  25.380  36.570  1.00  0.00    -0.200 F 
ATOM     72  F   UNL A   1      47.407  26.285  36.096  1.00  0.00    -0.200 F 
ENDBRANCH  39  62
ENDBRANCH  13  14
ENDBRANCH   6   8
ENDBRANCH   3   4
ENDBRANCH   2   3
ENDBRANCH   1   2
BRANCH   1  73
ATOM     73  C   UNL A   1      32.265  29.924  26.980  1.00  0.00     0.002 C 
BRANCH  73  74
ATOM     74  C   UNL A   1      31.508  28.711  27.530  1.00  0.00     0.021 C 
BRANCH  74  75
ATOM     75  C   UNL A   1      32.079  27.344  27.160  1.00  0.00     0.116 C 
BRANCH  75  76
ATOM     76  N   UNL A   1      31.110  26.479  26.515  1.00  0.00    -0.352 N 
ATOM     77  C   UNL A   1      30.946  26.218  25.173  1.00  0.00     0.256 C 
ATOM     78  H   UNL A   1      30.486  26.015  27.119  1.00  0.00     0.163 HD
ATOM     79  O   UNL A   1      30.090  25.417  24.811  1.00  0.00    -0.269 OA
BRANCH  77  80
ATOM     80  C   UNL A   1      31.779  26.930  24.184  1.00  0.00     0.098 A 
ATOM     81  C   UNL A   1      31.275  28.146  23.704  1.00  0.00     0.138 A 
ATOM     82  C   UNL A   1      33.063  26.472  23.806  1.00  0.00     0.053 A 
ATOM     83  F   UNL A   1      30.064  28.585  24.083  1.00  0.00    -0.206 F 
ATOM     84  C   UNL A   1      31.997  28.916  22.803  1.00  0.00     0.040 A 
ATOM     85  C   UNL A   1      33.785  27.297  22.921  1.00  0.00     0.027 A 
ATOM     86  C   UNL A   1      33.258  28.491  22.411  1.00  0.00     0.005 A 
BRANCH  82  87
ATOM     87  N   UNL A   1      33.622  25.285  24.216  1.00  0.00    -0.365 N 
ATOM     88  C   UNL A   1      34.533  25.152  25.335  1.00  0.00     0.123 C 
ATOM     89  C   UNL A   1      33.375  23.988  23.575  1.00  0.00     0.181 C 
ATOM     90  C   UNL A   1      35.332  23.907  24.995  1.00  0.00     0.088 C 
ATOM     91  C   UNL A   1      34.349  22.980  24.276  1.00  0.00     0.205 C 
BRANCH  91  92
ATOM     92  N   UNL A   1      33.688  21.913  25.054  1.00  0.00    -0.331 N 
ATOM     93  C   UNL A   1      32.304  22.112  25.475  1.00  0.00     0.262 C 
ATOM     94  C   UNL A   1      34.508  21.323  26.117  1.00  0.00     0.262 C 
ATOM     95  H   UNL A   1      33.600  21.218  24.313  1.00  0.00     0.348 HD
ATOM     96  C   UNL A   1      32.129  22.849  26.804  1.00  0.00     0.062 C 
ATOM     97  C   UNL A   1      34.441  22.045  27.463  1.00  0.00     0.062 C 
ATOM     98  C   UNL A   1      33.006  22.285  27.916  1.00  0.00     0.012 C 
ENDBRANCH  91  92
ENDBRANCH  82  87
ENDBRANCH  77  80
ENDBRANCH  75  76
ENDBRANCH  74  75
ENDBRANCH  73  74
ENDBRANCH   1  73
TORSDOF 15
ENDMDL
MODEL 2
REMARK VINA RESULT:     -12.4      0.879      1.875
REMARK SMILES O=C(NCCCCCCNC(=O)c1c(F)cccc1N1CC[C@@H]([NH+]2CCCCC2)C1)c1ccc(-c2c3nc(c(-c4c(F)c(F)c(F)c(F)c4F)c4ccc([nH]4)c(-c4c(F)c(F)c(F)c(F)c4F)c4nc(c(-c5c(F)c(F)c(F)c(F)c5F)c5ccc2[nH]5)C=C4)C=C3)cc1
REMARK SMILES IDX 6 1 5 2 4 3 3 4 1 5 2 6 31 8 32 9 93 10 33 11 92 12 34 13
REMARK SMILES IDX 35 14 36 15 86 16 37 17 91 18 85 19 87 20 38 21 90 22 84 23
REMARK SMILES IDX 83 24 39 26 71 27 51 28 70 29 52 30 55 31 69 32 88 33 53 34
REMARK SMILES IDX 54 35 68 37 89 38 56 39 40 40 41 41 49 42 42 43 43 44 47 45
REMARK SMILES IDX 50 46 44 47 45 48 48 49 46 50 72 51 73 52 81 53 74 54 75 55
REMARK SMILES IDX 79 56 82 57 76 58 77 59 80 60 78 61 57 62 58 63 66 64 59 65
REMARK SMILES IDX 60 66 64 67 67 68 61 69 62 70 65 71 63 72 7 73 8 74 9 75
REMARK SMILES IDX 10 76 11 77 12 79 13 80 14 81 19 82 15 83 16 84 18 85 17 86
REMARK SMILES IDX 20 87 21 88 30 89 22 90 23 91 24 92 25 93 29 94 26 96 28 97
REMARK SMILES IDX 27 98
REMARK H PARENT 3 7 87 25 55 36 10 78 24 95
REMARK Flexibility Score: inf
ROOT
ATOM      1  C   UNL A   1      31.437  30.836  25.965  1.00  0.00     0.002 C 
ENDROOT
BRANCH   1   2
ATOM      2  C   UNL A   1      31.290  32.234  26.563  1.00  0.00     0.021 C 
BRANCH   2   3
ATOM      3  C   UNL A   1      32.545  32.796  27.217  1.00  0.00     0.116 C 
BRANCH   3   4
ATOM      4  N   UNL A   1      32.391  34.178  27.641  1.00  0.00    -0.352 N 
ATOM      5  O   UNL A   1      32.711  36.003  28.931  1.00  0.00    -0.269 OA
ATOM      6  C   UNL A   1      33.075  34.876  28.606  1.00  0.00     0.251 C 
ATOM      7  H   UNL A   1      31.695  34.688  27.168  1.00  0.00     0.163 HD
BRANCH   6   8
ATOM      8  C   UNL A   1      34.240  34.261  29.279  1.00  0.00     0.039 A 
ATOM      9  C   UNL A   1      35.540  34.523  28.841  1.00  0.00     0.014 A 
ATOM     10  C   UNL A   1      34.027  33.412  30.369  1.00  0.00     0.014 A 
ATOM     11  C   UNL A   1      36.610  33.825  29.391  1.00  0.00     0.010 A 
ATOM     12  C   UNL A   1      35.114  32.781  30.981  1.00  0.00     0.010 A 
ATOM     13  C   UNL A   1      36.410  32.956  30.476  1.00  0.00    -0.014 A 
BRANCH  13  14
ATOM     14  C   UNL A   1      37.581  32.289  31.101  1.00  0.00     0.031 A 
ATOM     15  C   UNL A   1      38.035  32.648  32.487  1.00  0.00     0.074 A 
ATOM     16  C   UNL A   1      38.219  31.325  30.410  1.00  0.00     0.049 A 
ATOM     17  N   UNL A   1      39.027  32.150  33.184  1.00  0.00    -0.248 NA
ATOM     18  C   UNL A   1      37.287  33.706  33.181  1.00  0.00     0.031 C 
ATOM     19  C   UNL A   1      37.869  30.893  29.057  1.00  0.00     0.029 A 
ATOM     20  N   UNL A   1      39.277  30.522  30.753  1.00  0.00    -0.354 N 
ATOM     21  C   UNL A   1      39.029  32.839  34.389  1.00  0.00     0.074 A 
ATOM     22  C   UNL A   1      37.962  33.815  34.318  1.00  0.00     0.031 C 
ATOM     23  C   UNL A   1      38.659  29.872  28.703  1.00  0.00     0.029 A 
ATOM     24  C   UNL A   1      39.615  29.618  29.776  1.00  0.00     0.049 A 
ATOM     25  H   UNL A   1      39.748  30.587  31.614  1.00  0.00     0.167 HD
ATOM     26  C   UNL A   1      39.841  32.663  35.459  1.00  0.00     0.037 A 
ATOM     27  C   UNL A   1      40.594  28.696  29.738  1.00  0.00     0.037 A 
ATOM     28  C   UNL A   1      40.898  31.683  35.524  1.00  0.00     0.049 A 
ATOM     29  C   UNL A   1      41.508  28.548  30.918  1.00  0.00     0.074 A 
ATOM     30  C   UNL A   1      41.759  31.414  36.573  1.00  0.00     0.029 A 
ATOM     31  N   UNL A   1      41.241  30.818  34.494  1.00  0.00    -0.354 N 
ATOM     32  N   UNL A   1      41.489  29.192  32.060  1.00  0.00    -0.248 NA
ATOM     33  C   UNL A   1      42.580  27.551  30.807  1.00  0.00     0.031 C 
ATOM     34  C   UNL A   1      42.657  30.425  36.160  1.00  0.00     0.029 A 
ATOM     35  C   UNL A   1      42.317  30.031  34.875  1.00  0.00     0.049 A 
ATOM     36  H   UNL A   1      40.787  30.771  33.622  1.00  0.00     0.167 HD
ATOM     37  C   UNL A   1      42.532  28.671  32.809  1.00  0.00     0.074 A 
ATOM     38  C   UNL A   1      43.157  27.646  31.998  1.00  0.00     0.031 C 
ATOM     39  C   UNL A   1      42.932  29.014  34.059  1.00  0.00     0.037 A 
BRANCH  26  40
ATOM     40  C   UNL A   1      39.633  33.555  36.651  1.00  0.00     0.064 A 
ATOM     41  C   UNL A   1      38.770  33.168  37.688  1.00  0.00     0.173 A 
ATOM     42  C   UNL A   1      40.239  34.817  36.742  1.00  0.00     0.173 A 
ATOM     43  F   UNL A   1      38.155  31.976  37.647  1.00  0.00    -0.203 F 
ATOM     44  C   UNL A   1      38.518  34.012  38.766  1.00  0.00     0.198 A 
ATOM     45  C   UNL A   1      40.009  35.646  37.837  1.00  0.00     0.198 A 
ATOM     46  F   UNL A   1      41.079  35.234  35.783  1.00  0.00    -0.203 F 
ATOM     47  F   UNL A   1      37.667  33.632  39.730  1.00  0.00    -0.200 F 
ATOM     48  C   UNL A   1      39.142  35.248  38.844  1.00  0.00     0.200 A 
ATOM     49  F   UNL A   1      40.633  36.830  37.922  1.00  0.00    -0.200 F 
ATOM     50  F   UNL A   1      38.913  36.053  39.891  1.00  0.00    -0.200 F 
ENDBRANCH  26  40
BRANCH  27  51
ATOM     51  C   UNL A   1      40.724  27.835  28.536  1.00  0.00     0.064 A 
ATOM     52  C   UNL A   1      41.487  28.239  27.429  1.00  0.00     0.173 A 
ATOM     53  C   UNL A   1      40.020  26.627  28.439  1.00  0.00     0.173 A 
ATOM     54  F   UNL A   1      42.171  29.393  27.472  1.00  0.00    -0.203 F 
ATOM     55  C   UNL A   1      41.510  27.487  26.259  1.00  0.00     0.198 A 
ATOM     56  C   UNL A   1      40.067  25.862  27.277  1.00  0.00     0.198 A 
ATOM     57  F   UNL A   1      39.291  26.192  29.477  1.00  0.00    -0.203 F 
ATOM     58  F   UNL A   1      42.202  27.923  25.198  1.00  0.00    -0.200 F 
ATOM     59  C   UNL A   1      40.801  26.297  26.183  1.00  0.00     0.200 A 
ATOM     60  F   UNL A   1      39.395  24.704  27.213  1.00  0.00    -0.200 F 
ATOM     61  F   UNL A   1      40.820  25.574  25.056  1.00  0.00    -0.200 F 
ENDBRANCH  27  51
BRANCH  39  62
ATOM     62  C   UNL A   1      44.090  28.261  34.648  1.00  0.00     0.064 A 
ATOM     63  C   UNL A   1      43.871  27.081  35.375  1.00  0.00     0.173 A 
ATOM     64  C   UNL A   1      45.403  28.745  34.559  1.00  0.00     0.173 A 
ATOM     65  F   UNL A   1      42.633  26.579  35.493  1.00  0.00    -0.203 F 
ATOM     66  C   UNL A   1      44.923  26.423  36.006  1.00  0.00     0.198 A 
ATOM     67  C   UNL A   1      46.457  28.068  35.168  1.00  0.00     0.198 A 
ATOM     68  F   UNL A   1      45.666  29.861  33.864  1.00  0.00    -0.203 F 
ATOM     69  F   UNL A   1      44.684  25.317  36.725  1.00  0.00    -0.200 F 
ATOM     70  C   UNL A   1      46.214  26.915  35.900  1.00  0.00     0.200 A 
ATOM     71  F   UNL A   1      47.708  28.531  35.044  1.00  0.00    -0.200 F 
ATOM     72  F   UNL A   1      47.227  26.275  36.501  1.00  0.00    -0.200 F 
ENDBRANCH  39  62
ENDBRANCH  13  14
ENDBRANCH   6   8
ENDBRANCH   3   4
ENDBRANCH   2   3
ENDBRANCH   1   2
BRANCH   1  73
ATOM     73  C   UNL A   1      32.206  29.822  26.816  1.00  0.00     0.002 C 
BRANCH  73  74
ATOM     74  C   UNL A   1      33.427  29.173  26.157  1.00  0.00     0.021 C 
BRANCH  74  75
ATOM     75  C   UNL A   1      33.527  27.655  26.283  1.00  0.00     0.116 C 
BRANCH  75  76
ATOM     76  N   UNL A   1      33.967  27.010  25.061  1.00  0.00    -0.352 N 
ATOM     77  C   UNL A   1      33.216  26.622  23.973  1.00  0.00     0.256 C 
ATOM     78  H   UNL A   1      34.932  26.825  25.001  1.00  0.00     0.163 HD
ATOM     79  O   UNL A   1      33.773  26.123  23.000  1.00  0.00    -0.269 OA
BRANCH  77  80
ATOM     80  C   UNL A   1      31.750  26.781  24.004  1.00  0.00     0.098 A 
ATOM     81  C   UNL A   1      31.239  27.968  23.462  1.00  0.00     0.138 A 
ATOM     82  C   UNL A   1      30.887  25.758  24.463  1.00  0.00     0.053 A 
ATOM     83  F   UNL A   1      32.064  28.927  23.011  1.00  0.00    -0.206 F 
ATOM     84  C   UNL A   1      29.873  28.201  23.402  1.00  0.00     0.040 A 
ATOM     85  C   UNL A   1      29.505  26.010  24.351  1.00  0.00     0.027 A 
ATOM     86  C   UNL A   1      29.001  27.217  23.848  1.00  0.00     0.005 A 
BRANCH  82  87
ATOM     87  N   UNL A   1      31.305  24.575  25.023  1.00  0.00    -0.365 N 
ATOM     88  C   UNL A   1      31.357  23.309  24.321  1.00  0.00     0.123 C 
ATOM     89  C   UNL A   1      31.755  24.430  26.413  1.00  0.00     0.181 C 
ATOM     90  C   UNL A   1      31.231  22.282  25.431  1.00  0.00     0.088 C 
ATOM     91  C   UNL A   1      31.962  22.892  26.630  1.00  0.00     0.205 C 
BRANCH  91  92
ATOM     92  N   UNL A   1      33.357  22.481  26.890  1.00  0.00    -0.331 N 
ATOM     93  C   UNL A   1      34.435  23.380  26.490  1.00  0.00     0.262 C 
ATOM     94  C   UNL A   1      33.659  21.081  26.572  1.00  0.00     0.262 C 
ATOM     95  H   UNL A   1      33.354  22.571  27.905  1.00  0.00     0.348 HD
ATOM     96  C   UNL A   1      34.916  23.215  25.046  1.00  0.00     0.062 C 
ATOM     97  C   UNL A   1      34.082  20.823  25.126  1.00  0.00     0.062 C 
ATOM     98  C   UNL A   1      35.193  21.763  24.675  1.00  0.00     0.012 C 
ENDBRANCH  91  92
ENDBRANCH  82  87
ENDBRANCH  77  80
ENDBRANCH  75  76
ENDBRANCH  74  75
ENDBRANCH  73  74
ENDBRANCH   1  73
TORSDOF 15
ENDMDL
MODEL 3
REMARK VINA RESULT:     -12.3      1.656      3.966
REMARK SMILES O=C(NCCCCCCNC(=O)c1c(F)cccc1N1CC[C@@H]([NH+]2CCCCC2)C1)c1ccc(-c2c3nc(c(-c4c(F)c(F)c(F)c(F)c4F)c4ccc([nH]4)c(-c4c(F)c(F)c(F)c(F)c4F)c4nc(c(-c5c(F)c(F)c(F)c(F)c5F)c5ccc2[nH]5)C=C4)C=C3)cc1
REMARK SMILES IDX 6 1 5 2 4 3 3 4 1 5 2 6 31 8 32 9 93 10 33 11 92 12 34 13
REMARK SMILES IDX 35 14 36 15 86 16 37 17 91 18 85 19 87 20 38 21 90 22 84 23
REMARK SMILES IDX 83 24 39 26 71 27 51 28 70 29 52 30 55 31 69 32 88 33 53 34
REMARK SMILES IDX 54 35 68 37 89 38 56 39 40 40 41 41 49 42 42 43 43 44 47 45
REMARK SMILES IDX 50 46 44 47 45 48 48 49 46 50 72 51 73 52 81 53 74 54 75 55
REMARK SMILES IDX 79 56 82 57 76 58 77 59 80 60 78 61 57 62 58 63 66 64 59 65
REMARK SMILES IDX 60 66 64 67 67 68 61 69 62 70 65 71 63 72 7 73 8 74 9 75
REMARK SMILES IDX 10 76 11 77 12 79 13 80 14 81 19 82 15 83 16 84 18 85 17 86
REMARK SMILES IDX 20 87 21 88 30 89 22 90 23 91 24 92 25 93 29 94 26 96 28 97
REMARK SMILES IDX 27 98
REMARK H PARENT 3 7 87 25 55 36 10 78 24 95
REMARK Flexibility Score: inf
ROOT
ATOM      1  C   UNL A   1      32.455  30.853  26.999  1.00  0.00     0.002 C 
ENDROOT
BRANCH   1   2
ATOM      2  C   UNL A   1      31.824  32.229  27.200  1.00  0.00     0.021 C 
BRANCH   2   3
ATOM      3  C   UNL A   1      32.748  33.412  26.944  1.00  0.00     0.116 C 
BRANCH   3   4
ATOM      4  N   UNL A   1      32.463  34.548  27.805  1.00  0.00    -0.352 N 
ATOM      5  O   UNL A   1      32.574  35.826  29.664  1.00  0.00    -0.269 OA
ATOM      6  C   UNL A   1      33.043  34.906  28.998  1.00  0.00     0.251 C 
ATOM      7  H   UNL A   1      31.751  35.149  27.487  1.00  0.00     0.163 HD
BRANCH   6   8
ATOM      8  C   UNL A   1      34.221  34.166  29.500  1.00  0.00     0.039 A 
ATOM      9  C   UNL A   1      34.068  33.080  30.365  1.00  0.00     0.014 A 
ATOM     10  C   UNL A   1      35.499  34.562  29.093  1.00  0.00     0.014 A 
ATOM     11  C   UNL A   1      35.189  32.490  30.939  1.00  0.00     0.010 A 
ATOM     12  C   UNL A   1      36.624  33.907  29.601  1.00  0.00     0.010 A 
ATOM     13  C   UNL A   1      36.480  32.887  30.553  1.00  0.00    -0.014 A 
BRANCH  13  14
ATOM     14  C   UNL A   1      37.659  32.181  31.116  1.00  0.00     0.031 A 
ATOM     15  C   UNL A   1      38.144  32.462  32.509  1.00  0.00     0.074 A 
ATOM     16  C   UNL A   1      38.276  31.252  30.361  1.00  0.00     0.049 A 
ATOM     17  N   UNL A   1      39.147  31.922  33.157  1.00  0.00    -0.248 NA
ATOM     18  C   UNL A   1      37.419  33.486  33.275  1.00  0.00     0.031 C 
ATOM     19  C   UNL A   1      37.895  30.896  28.994  1.00  0.00     0.029 A 
ATOM     20  N   UNL A   1      39.336  30.427  30.637  1.00  0.00    -0.354 N 
ATOM     21  C   UNL A   1      39.179  32.544  34.398  1.00  0.00     0.074 A 
ATOM     22  C   UNL A   1      38.117  33.529  34.401  1.00  0.00     0.031 C 
ATOM     23  C   UNL A   1      38.671  29.891  28.568  1.00  0.00     0.029 A 
ATOM     24  C   UNL A   1      39.647  29.575  29.606  1.00  0.00     0.049 A 
ATOM     25  H   UNL A   1      39.825  30.442  31.491  1.00  0.00     0.167 HD
ATOM     26  C   UNL A   1      40.012  32.306  35.439  1.00  0.00     0.037 A 
ATOM     27  C   UNL A   1      40.619  28.650  29.498  1.00  0.00     0.037 A 
ATOM     28  C   UNL A   1      41.064  31.319  35.428  1.00  0.00     0.049 A 
ATOM     29  C   UNL A   1      41.556  28.434  30.649  1.00  0.00     0.074 A 
ATOM     30  C   UNL A   1      41.944  30.988  36.443  1.00  0.00     0.029 A 
ATOM     31  N   UNL A   1      41.379  30.509  34.346  1.00  0.00    -0.354 N 
ATOM     32  N   UNL A   1      41.565  29.015  31.823  1.00  0.00    -0.248 NA
ATOM     33  C   UNL A   1      42.619  27.438  30.461  1.00  0.00     0.031 C 
ATOM     34  C   UNL A   1      42.827  30.018  35.958  1.00  0.00     0.029 A 
ATOM     35  C   UNL A   1      42.457  29.696  34.662  1.00  0.00     0.049 A 
ATOM     36  H   UNL A   1      40.907  30.511  33.483  1.00  0.00     0.167 HD
ATOM     37  C   UNL A   1      42.620  28.449  32.521  1.00  0.00     0.074 A 
ATOM     38  C   UNL A   1      43.221  27.465  31.643  1.00  0.00     0.031 C 
ATOM     39  C   UNL A   1      43.049  28.721  33.778  1.00  0.00     0.037 A 
BRANCH  26  40
ATOM     40  C   UNL A   1      39.835  33.134  36.681  1.00  0.00     0.064 A 
ATOM     41  C   UNL A   1      38.892  32.765  37.654  1.00  0.00     0.173 A 
ATOM     42  C   UNL A   1      40.553  34.322  36.885  1.00  0.00     0.173 A 
ATOM     43  F   UNL A   1      38.170  31.644  37.506  1.00  0.00    -0.203 F 
ATOM     44  C   UNL A   1      38.672  33.557  38.778  1.00  0.00     0.198 A 
ATOM     45  C   UNL A   1      40.352  35.095  38.025  1.00  0.00     0.198 A 
ATOM     46  F   UNL A   1      41.472  34.717  35.991  1.00  0.00    -0.203 F 
ATOM     47  F   UNL A   1      37.746  33.199  39.678  1.00  0.00    -0.200 F 
ATOM     48  C   UNL A   1      39.407  34.718  38.966  1.00  0.00     0.200 A 
ATOM     49  F   UNL A   1      41.081  36.204  38.218  1.00  0.00    -0.200 F 
ATOM     50  F   UNL A   1      39.207  35.470  40.057  1.00  0.00    -0.200 F 
ENDBRANCH  26  40
BRANCH  27  51
ATOM     51  C   UNL A   1      40.718  27.855  28.249  1.00  0.00     0.064 A 
ATOM     52  C   UNL A   1      40.123  26.588  28.142  1.00  0.00     0.173 A 
ATOM     53  C   UNL A   1      41.481  28.312  27.166  1.00  0.00     0.173 A 
ATOM     54  F   UNL A   1      39.390  26.104  29.156  1.00  0.00    -0.203 F 
ATOM     55  C   UNL A   1      40.318  25.795  27.015  1.00  0.00     0.198 A 
ATOM     56  C   UNL A   1      41.652  27.528  26.028  1.00  0.00     0.198 A 
ATOM     57  F   UNL A   1      42.056  29.522  27.216  1.00  0.00    -0.203 F 
ATOM     58  F   UNL A   1      39.783  24.567  26.962  1.00  0.00    -0.200 F 
ATOM     59  C   UNL A   1      41.082  26.265  25.958  1.00  0.00     0.200 A 
ATOM     60  F   UNL A   1      42.376  27.992  25.001  1.00  0.00    -0.200 F 
ATOM     61  F   UNL A   1      41.273  25.500  24.875  1.00  0.00    -0.200 F 
ENDBRANCH  27  51
BRANCH  39  62
ATOM     62  C   UNL A   1      44.214  27.931  34.302  1.00  0.00     0.064 A 
ATOM     63  C   UNL A   1      44.003  26.709  34.958  1.00  0.00     0.173 A 
ATOM     64  C   UNL A   1      45.526  28.417  34.221  1.00  0.00     0.173 A 
ATOM     65  F   UNL A   1      42.765  26.204  35.066  1.00  0.00    -0.203 F 
ATOM     66  C   UNL A   1      45.062  26.011  35.531  1.00  0.00     0.198 A 
ATOM     67  C   UNL A   1      46.588  27.702  34.770  1.00  0.00     0.198 A 
ATOM     68  F   UNL A   1      45.781  29.573  33.591  1.00  0.00    -0.203 F 
ATOM     69  F   UNL A   1      44.831  24.864  36.185  1.00  0.00    -0.200 F 
ATOM     70  C   UNL A   1      46.353  26.506  35.434  1.00  0.00     0.200 A 
ATOM     71  F   UNL A   1      47.838  28.169  34.654  1.00  0.00    -0.200 F 
ATOM     72  F   UNL A   1      47.374  25.829  35.978  1.00  0.00    -0.200 F 
ENDBRANCH  39  62
ENDBRANCH  13  14
ENDBRANCH   6   8
ENDBRANCH   3   4
ENDBRANCH   2   3
ENDBRANCH   1   2
BRANCH   1  73
ATOM     73  C   UNL A   1      33.952  30.753  27.304  1.00  0.00     0.002 C 
BRANCH  73  74
ATOM     74  C   UNL A   1      34.500  29.345  27.551  1.00  0.00     0.021 C 
BRANCH  74  75
ATOM     75  C   UNL A   1      33.687  28.197  26.956  1.00  0.00     0.116 C 
BRANCH  75  76
ATOM     76  N   UNL A   1      34.085  27.858  25.604  1.00  0.00    -0.352 N 
ATOM     77  C   UNL A   1      33.526  26.937  24.746  1.00  0.00     0.256 C 
ATOM     78  H   UNL A   1      34.860  28.352  25.252  1.00  0.00     0.163 HD
ATOM     79  O   UNL A   1      33.977  26.814  23.611  1.00  0.00    -0.269 OA
BRANCH  77  80
ATOM     80  C   UNL A   1      32.413  26.087  25.212  1.00  0.00     0.098 A 
ATOM     81  C   UNL A   1      32.758  24.994  26.018  1.00  0.00     0.138 A 
ATOM     82  C   UNL A   1      31.059  26.401  24.949  1.00  0.00     0.053 A 
ATOM     83  F   UNL A   1      34.045  24.713  26.279  1.00  0.00    -0.206 F 
ATOM     84  C   UNL A   1      31.787  24.155  26.544  1.00  0.00     0.040 A 
ATOM     85  C   UNL A   1      30.097  25.552  25.531  1.00  0.00     0.027 A 
ATOM     86  C   UNL A   1      30.449  24.435  26.300  1.00  0.00     0.005 A 
BRANCH  82  87
ATOM     87  N   UNL A   1      30.637  27.442  24.156  1.00  0.00    -0.365 N 
ATOM     88  C   UNL A   1      30.339  27.327  22.743  1.00  0.00     0.123 C 
ATOM     89  C   UNL A   1      30.434  28.815  24.632  1.00  0.00     0.181 C 
ATOM     90  C   UNL A   1      30.565  28.732  22.217  1.00  0.00     0.088 C 
ATOM     91  C   UNL A   1      30.125  29.663  23.350  1.00  0.00     0.205 C 
BRANCH  91  92
ATOM     92  N   UNL A   1      28.767  30.243  23.300  1.00  0.00    -0.331 N 
ATOM     93  C   UNL A   1      27.947  29.995  22.119  1.00  0.00     0.262 C 
ATOM     94  C   UNL A   1      28.671  31.633  23.757  1.00  0.00     0.262 C 
ATOM     95  H   UNL A   1      28.326  29.656  24.007  1.00  0.00     0.348 HD
ATOM     96  C   UNL A   1      28.145  30.987  20.970  1.00  0.00     0.062 C 
ATOM     97  C   UNL A   1      28.925  32.688  22.680  1.00  0.00     0.062 C 
ATOM     98  C   UNL A   1      28.096  32.441  21.425  1.00  0.00     0.012 C 
ENDBRANCH  91  92
ENDBRANCH  82  87
ENDBRANCH  77  80
ENDBRANCH  75  76
ENDBRANCH  74  75
ENDBRANCH  73  74
ENDBRANCH   1  73
TORSDOF 15
ENDMDL
