MODEL 1
REMARK VINA RESULT:     -12.7      0.000      0.000
REMARK SMILES O=C(NCCCCCCNC(=O)[C@@H]1CCC[N@@H+](Cc2cccc3ccccc23)C1)c1ccc(-c2c3nc(c(-c4c(F)c(F)c(F)c(F)c4F)c4ccc([nH]4)c(-c4c(F)c(F)c(F)c(F)c4F)c4nc(c(-c5c(F)c(F)c(F)c(F)c5F)c5ccc2[nH]5)C=C4)C=C3)cc1
REMARK SMILES IDX 6 1 5 2 4 3 3 4 1 5 2 6 30 8 31 9 92 10 32 11 91 12 33 13
REMARK SMILES IDX 34 14 35 15 85 16 36 17 90 18 84 19 86 20 37 21 89 22 83 23
REMARK SMILES IDX 82 24 38 26 70 27 50 28 69 29 51 30 54 31 68 32 87 33 52 34
REMARK SMILES IDX 53 35 67 37 88 38 55 39 39 40 40 41 48 42 41 43 42 44 46 45
REMARK SMILES IDX 49 46 43 47 44 48 47 49 45 50 71 51 72 52 80 53 73 54 74 55
REMARK SMILES IDX 78 56 81 57 75 58 76 59 79 60 77 61 56 62 57 63 65 64 58 65
REMARK SMILES IDX 59 66 63 67 66 68 60 69 61 70 64 71 62 72 7 73 8 74 9 75
REMARK SMILES IDX 10 76 11 77 12 79 13 80 14 81 29 82 15 83 17 84 16 85 18 87
REMARK SMILES IDX 19 88 20 89 28 90 21 91 23 92 27 93 22 94 24 95 26 96 25 97
REMARK H PARENT 3 7 86 25 54 36 10 78 17 86
REMARK Flexibility Score: inf
ROOT
ATOM      1  C   UNL A   1      31.598  30.732  26.350  1.00  0.00     0.002 C 
ENDROOT
BRANCH   1   2
ATOM      2  C   UNL A   1      31.407  32.205  26.711  1.00  0.00     0.021 C 
BRANCH   2   3
ATOM      3  C   UNL A   1      32.701  32.933  27.047  1.00  0.00     0.116 C 
BRANCH   3   4
ATOM      4  N   UNL A   1      32.453  34.244  27.626  1.00  0.00    -0.352 N 
ATOM      5  O   UNL A   1      32.555  35.846  29.216  1.00  0.00    -0.269 OA
ATOM      6  C   UNL A   1      33.020  34.817  28.735  1.00  0.00     0.251 C 
ATOM      7  H   UNL A   1      31.786  34.796  27.158  1.00  0.00     0.163 HD
BRANCH   6   8
ATOM      8  C   UNL A   1      34.194  34.177  29.360  1.00  0.00     0.039 A 
ATOM      9  C   UNL A   1      34.027  33.274  30.415  1.00  0.00     0.014 A 
ATOM     10  C   UNL A   1      35.470  34.477  28.880  1.00  0.00     0.014 A 
ATOM     11  C   UNL A   1      35.142  32.765  31.069  1.00  0.00     0.010 A 
ATOM     12  C   UNL A   1      36.585  33.895  29.483  1.00  0.00     0.010 A 
ATOM     13  C   UNL A   1      36.430  33.051  30.594  1.00  0.00    -0.014 A 
BRANCH  13  14
ATOM     14  C   UNL A   1      37.605  32.394  31.216  1.00  0.00     0.031 A 
ATOM     15  C   UNL A   1      38.293  31.243  30.545  1.00  0.00     0.074 A 
ATOM     16  C   UNL A   1      38.026  32.833  32.416  1.00  0.00     0.049 A 
ATOM     17  N   UNL A   1      39.289  30.512  30.977  1.00  0.00    -0.248 NA
ATOM     18  C   UNL A   1      37.790  30.854  29.220  1.00  0.00     0.031 C 
ATOM     19  C   UNL A   1      37.422  33.936  33.165  1.00  0.00     0.029 A 
ATOM     20  N   UNL A   1      39.048  32.402  33.222  1.00  0.00    -0.354 N 
ATOM     21  C   UNL A   1      39.519  29.562  29.990  1.00  0.00     0.074 A 
ATOM     22  C   UNL A   1      38.539  29.793  28.950  1.00  0.00     0.031 C 
ATOM     23  C   UNL A   1      38.088  34.103  34.316  1.00  0.00     0.029 A 
ATOM     24  C   UNL A   1      39.119  33.076  34.416  1.00  0.00     0.049 A 
ATOM     25  H   UNL A   1      39.670  31.682  32.969  1.00  0.00     0.167 HD
ATOM     26  C   UNL A   1      40.464  28.591  29.962  1.00  0.00     0.037 A 
ATOM     27  C   UNL A   1      39.897  32.866  35.493  1.00  0.00     0.037 A 
ATOM     28  C   UNL A   1      41.429  28.374  31.009  1.00  0.00     0.049 A 
ATOM     29  C   UNL A   1      40.909  31.759  35.456  1.00  0.00     0.074 A 
ATOM     30  C   UNL A   1      42.461  27.454  31.054  1.00  0.00     0.029 A 
ATOM     31  N   UNL A   1      41.467  29.075  32.208  1.00  0.00    -0.354 N 
ATOM     32  N   UNL A   1      41.157  30.902  34.495  1.00  0.00    -0.248 NA
ATOM     33  C   UNL A   1      41.750  31.589  36.647  1.00  0.00     0.031 C 
ATOM     34  C   UNL A   1      43.079  27.549  32.306  1.00  0.00     0.029 A 
ATOM     35  C   UNL A   1      42.481  28.578  33.015  1.00  0.00     0.049 A 
ATOM     36  H   UNL A   1      40.864  29.813  32.451  1.00  0.00     0.167 HD
ATOM     37  C   UNL A   1      42.195  30.105  34.954  1.00  0.00     0.074 A 
ATOM     38  C   UNL A   1      42.537  30.588  36.277  1.00  0.00     0.031 C 
ATOM     39  C   UNL A   1      42.810  29.069  34.332  1.00  0.00     0.037 A 
BRANCH  26  40
ATOM     40  C   UNL A   1      40.472  27.665  28.777  1.00  0.00     0.064 A 
ATOM     41  C   UNL A   1      41.239  27.926  27.631  1.00  0.00     0.173 A 
ATOM     42  C   UNL A   1      39.709  26.485  28.796  1.00  0.00     0.173 A 
ATOM     43  F   UNL A   1      41.982  29.039  27.555  1.00  0.00    -0.203 F 
ATOM     44  C   UNL A   1      41.207  27.068  26.535  1.00  0.00     0.198 A 
ATOM     45  C   UNL A   1      39.707  25.611  27.712  1.00  0.00     0.198 A 
ATOM     46  F   UNL A   1      38.965  26.177  29.868  1.00  0.00    -0.203 F 
ATOM     47  F   UNL A   1      41.897  27.373  25.427  1.00  0.00    -0.200 F 
ATOM     48  C   UNL A   1      40.445  25.910  26.577  1.00  0.00     0.200 A 
ATOM     49  F   UNL A   1      38.984  24.484  27.763  1.00  0.00    -0.200 F 
ATOM     50  F   UNL A   1      40.414  25.086  25.520  1.00  0.00    -0.200 F 
ENDBRANCH  26  40
BRANCH  27  51
ATOM     51  C   UNL A   1      39.714  33.721  36.694  1.00  0.00     0.064 A 
ATOM     52  C   UNL A   1      40.332  34.973  36.793  1.00  0.00     0.173 A 
ATOM     53  C   UNL A   1      38.869  33.323  37.741  1.00  0.00     0.173 A 
ATOM     54  F   UNL A   1      41.159  35.391  35.823  1.00  0.00    -0.203 F 
ATOM     55  C   UNL A   1      40.116  35.794  37.898  1.00  0.00     0.198 A 
ATOM     56  C   UNL A   1      38.630  34.156  38.830  1.00  0.00     0.198 A 
ATOM     57  F   UNL A   1      38.244  32.136  37.687  1.00  0.00    -0.203 F 
ATOM     58  F   UNL A   1      40.742  36.975  37.984  1.00  0.00    -0.200 F 
ATOM     59  C   UNL A   1      39.258  35.389  38.910  1.00  0.00     0.200 A 
ATOM     60  F   UNL A   1      37.781  33.772  39.792  1.00  0.00    -0.200 F 
ATOM     61  F   UNL A   1      39.036  36.188  39.963  1.00  0.00    -0.200 F 
ENDBRANCH  27  51
BRANCH  39  62
ATOM     62  C   UNL A   1      43.946  28.403  35.056  1.00  0.00     0.064 A 
ATOM     63  C   UNL A   1      43.747  27.277  35.866  1.00  0.00     0.173 A 
ATOM     64  C   UNL A   1      45.260  28.862  34.880  1.00  0.00     0.173 A 
ATOM     65  F   UNL A   1      42.508  26.810  36.082  1.00  0.00    -0.203 F 
ATOM     66  C   UNL A   1      44.822  26.643  36.486  1.00  0.00     0.198 A 
ATOM     67  C   UNL A   1      46.334  28.207  35.473  1.00  0.00     0.198 A 
ATOM     68  F   UNL A   1      45.505  29.935  34.111  1.00  0.00    -0.203 F 
ATOM     69  F   UNL A   1      44.605  25.590  37.287  1.00  0.00    -0.200 F 
ATOM     70  C   UNL A   1      46.114  27.101  36.278  1.00  0.00     0.200 A 
ATOM     71  F   UNL A   1      47.584  28.642  35.259  1.00  0.00    -0.200 F 
ATOM     72  F   UNL A   1      47.149  26.477  36.859  1.00  0.00    -0.200 F 
ENDBRANCH  39  62
ENDBRANCH  13  14
ENDBRANCH   6   8
ENDBRANCH   3   4
ENDBRANCH   2   3
ENDBRANCH   1   2
BRANCH   1  73
ATOM     73  C   UNL A   1      32.923  30.127  26.824  1.00  0.00     0.002 C 
BRANCH  73  74
ATOM     74  C   UNL A   1      32.836  28.665  27.282  1.00  0.00     0.021 C 
BRANCH  74  75
ATOM     75  C   UNL A   1      31.405  28.140  27.397  1.00  0.00     0.116 C 
BRANCH  75  76
ATOM     76  N   UNL A   1      31.350  26.741  27.024  1.00  0.00    -0.356 N 
ATOM     77  C   UNL A   1      31.573  26.161  25.809  1.00  0.00     0.228 C 
ATOM     78  H   UNL A   1      31.119  26.119  27.751  1.00  0.00     0.163 HD
ATOM     79  O   UNL A   1      31.165  25.013  25.640  1.00  0.00    -0.275 OA
BRANCH  77  80
ATOM     80  C   UNL A   1      32.302  26.964  24.738  1.00  0.00     0.133 C 
ATOM     81  C   UNL A   1      31.357  27.748  23.824  1.00  0.00     0.025 C 
ATOM     82  C   UNL A   1      33.209  26.049  23.901  1.00  0.00     0.276 C 
ATOM     83  C   UNL A   1      30.649  26.849  22.811  1.00  0.00     0.062 C 
ATOM     84  N   UNL A   1      32.464  25.171  22.994  1.00  0.00    -0.331 N 
ATOM     85  C   UNL A   1      31.622  25.932  22.066  1.00  0.00     0.262 C 
ATOM     86  H   UNL A   1      31.831  24.630  23.582  1.00  0.00     0.348 HD
BRANCH  84  87
ATOM     87  C   UNL A   1      33.300  24.150  22.329  1.00  0.00     0.299 C 
BRANCH  87  88
ATOM     88  C   UNL A   1      33.521  22.854  23.098  1.00  0.00     0.014 A 
ATOM     89  C   UNL A   1      32.468  21.916  23.111  1.00  0.00     0.010 A 
ATOM     90  C   UNL A   1      34.716  22.568  23.825  1.00  0.00    -0.010 A 
ATOM     91  C   UNL A   1      32.516  20.786  23.914  1.00  0.00     0.001 A 
ATOM     92  C   UNL A   1      34.755  21.396  24.627  1.00  0.00    -0.018 A 
ATOM     93  C   UNL A   1      35.888  23.364  23.797  1.00  0.00     0.009 A 
ATOM     94  C   UNL A   1      33.646  20.541  24.684  1.00  0.00     0.009 A 
ATOM     95  C   UNL A   1      35.906  21.075  25.362  1.00  0.00     0.009 A 
ATOM     96  C   UNL A   1      37.038  23.014  24.511  1.00  0.00     0.001 A 
ATOM     97  C   UNL A   1      37.046  21.873  25.299  1.00  0.00     0.001 A 
ENDBRANCH  87  88
ENDBRANCH  84  87
ENDBRANCH  77  80
ENDBRANCH  75  76
ENDBRANCH  74  75
ENDBRANCH  73  74
ENDBRANCH   1  73
TORSDOF 15
ENDMDL
MODEL 2
REMARK VINA RESULT:     -12.6      5.406     11.047
REMARK SMILES O=C(NCCCCCCNC(=O)[C@@H]1CCC[N@@H+](Cc2cccc3ccccc23)C1)c1ccc(-c2c3nc(c(-c4c(F)c(F)c(F)c(F)c4F)c4ccc([nH]4)c(-c4c(F)c(F)c(F)c(F)c4F)c4nc(c(-c5c(F)c(F)c(F)c(F)c5F)c5ccc2[nH]5)C=C4)C=C3)cc1
REMARK SMILES IDX 6 1 5 2 4 3 3 4 1 5 2 6 30 8 31 9 92 10 32 11 91 12 33 13
REMARK SMILES IDX 34 14 35 15 85 16 36 17 90 18 84 19 86 20 37 21 89 22 83 23
REMARK SMILES IDX 82 24 38 26 70 27 50 28 69 29 51 30 54 31 68 32 87 33 52 34
REMARK SMILES IDX 53 35 67 37 88 38 55 39 39 40 40 41 48 42 41 43 42 44 46 45
REMARK SMILES IDX 49 46 43 47 44 48 47 49 45 50 71 51 72 52 80 53 73 54 74 55
REMARK SMILES IDX 78 56 81 57 75 58 76 59 79 60 77 61 56 62 57 63 65 64 58 65
REMARK SMILES IDX 59 66 63 67 66 68 60 69 61 70 64 71 62 72 7 73 8 74 9 75
REMARK SMILES IDX 10 76 11 77 12 79 13 80 14 81 29 82 15 83 17 84 16 85 18 87
REMARK SMILES IDX 19 88 20 89 28 90 21 91 23 92 27 93 22 94 24 95 26 96 25 97
REMARK H PARENT 3 7 86 25 54 36 10 78 17 86
REMARK Flexibility Score: inf
ROOT
ATOM      1  C   UNL A   1      36.991  20.515  24.976  1.00  0.00     0.002 C 
ENDROOT
BRANCH   1   2
ATOM      2  C   UNL A   1      38.154  19.525  25.018  1.00  0.00     0.021 C 
BRANCH   2   3
ATOM      3  C   UNL A   1      39.191  19.833  26.089  1.00  0.00     0.116 C 
BRANCH   3   4
ATOM      4  N   UNL A   1      40.319  18.917  26.034  1.00  0.00    -0.352 N 
ATOM      5  O   UNL A   1      42.485  18.331  25.773  1.00  0.00    -0.269 OA
ATOM      6  C   UNL A   1      41.660  19.201  26.034  1.00  0.00     0.251 C 
ATOM      7  H   UNL A   1      40.088  17.961  25.989  1.00  0.00     0.163 HD
BRANCH   6   8
ATOM      8  C   UNL A   1      42.108  20.574  26.340  1.00  0.00     0.039 A 
ATOM      9  C   UNL A   1      42.226  21.521  25.318  1.00  0.00     0.014 A 
ATOM     10  C   UNL A   1      42.404  20.916  27.660  1.00  0.00     0.014 A 
ATOM     11  C   UNL A   1      42.756  22.774  25.598  1.00  0.00     0.010 A 
ATOM     12  C   UNL A   1      42.853  22.204  27.952  1.00  0.00     0.010 A 
ATOM     13  C   UNL A   1      43.051  23.136  26.921  1.00  0.00    -0.014 A 
BRANCH  13  14
ATOM     14  C   UNL A   1      43.487  24.520  27.224  1.00  0.00     0.031 A 
ATOM     15  C   UNL A   1      42.518  25.540  27.746  1.00  0.00     0.074 A 
ATOM     16  C   UNL A   1      44.769  24.855  26.992  1.00  0.00     0.049 A 
ATOM     17  N   UNL A   1      42.714  26.809  28.000  1.00  0.00    -0.248 NA
ATOM     18  C   UNL A   1      41.148  25.077  28.005  1.00  0.00     0.031 C 
ATOM     19  C   UNL A   1      45.793  23.947  26.473  1.00  0.00     0.029 A 
ATOM     20  N   UNL A   1      45.429  26.047  27.150  1.00  0.00    -0.354 N 
ATOM     21  C   UNL A   1      41.489  27.304  28.427  1.00  0.00     0.074 A 
ATOM     22  C   UNL A   1      40.550  26.203  28.370  1.00  0.00     0.031 C 
ATOM     23  C   UNL A   1      46.953  24.609  26.363  1.00  0.00     0.029 A 
ATOM     24  C   UNL A   1      46.738  26.002  26.738  1.00  0.00     0.049 A 
ATOM     25  H   UNL A   1      45.007  26.854  27.523  1.00  0.00     0.167 HD
ATOM     26  C   UNL A   1      41.184  28.561  28.830  1.00  0.00     0.037 A 
ATOM     27  C   UNL A   1      47.654  26.981  26.629  1.00  0.00     0.037 A 
ATOM     28  C   UNL A   1      42.133  29.645  28.877  1.00  0.00     0.049 A 
ATOM     29  C   UNL A   1      47.283  28.375  27.042  1.00  0.00     0.074 A 
ATOM     30  C   UNL A   1      41.940  30.941  29.319  1.00  0.00     0.029 A 
ATOM     31  N   UNL A   1      43.451  29.563  28.445  1.00  0.00    -0.354 N 
ATOM     32  N   UNL A   1      46.138  28.821  27.498  1.00  0.00    -0.248 NA
ATOM     33  C   UNL A   1      48.327  29.400  26.928  1.00  0.00     0.031 C 
ATOM     34  C   UNL A   1      43.117  31.662  29.091  1.00  0.00     0.029 A 
ATOM     35  C   UNL A   1      44.070  30.798  28.575  1.00  0.00     0.049 A 
ATOM     36  H   UNL A   1      43.883  28.750  28.098  1.00  0.00     0.167 HD
ATOM     37  C   UNL A   1      46.327  30.173  27.747  1.00  0.00     0.074 A 
ATOM     38  C   UNL A   1      47.702  30.471  27.400  1.00  0.00     0.031 C 
ATOM     39  C   UNL A   1      45.441  31.082  28.224  1.00  0.00     0.037 A 
BRANCH  26  40
ATOM     40  C   UNL A   1      39.757  28.841  29.213  1.00  0.00     0.064 A 
ATOM     41  C   UNL A   1      39.299  28.704  30.532  1.00  0.00     0.173 A 
ATOM     42  C   UNL A   1      38.835  29.269  28.243  1.00  0.00     0.173 A 
ATOM     43  F   UNL A   1      40.133  28.293  31.498  1.00  0.00    -0.203 F 
ATOM     44  C   UNL A   1      37.965  28.940  30.856  1.00  0.00     0.198 A 
ATOM     45  C   UNL A   1      37.511  29.539  28.578  1.00  0.00     0.198 A 
ATOM     46  F   UNL A   1      39.219  29.429  26.968  1.00  0.00    -0.203 F 
ATOM     47  F   UNL A   1      37.536  28.739  32.110  1.00  0.00    -0.200 F 
ATOM     48  C   UNL A   1      37.074  29.362  29.881  1.00  0.00     0.200 A 
ATOM     49  F   UNL A   1      36.657  29.964  27.637  1.00  0.00    -0.200 F 
ATOM     50  F   UNL A   1      35.790  29.588  30.195  1.00  0.00    -0.200 F 
ENDBRANCH  26  40
BRANCH  27  51
ATOM     51  C   UNL A   1      48.996  26.657  26.083  1.00  0.00     0.064 A 
ATOM     52  C   UNL A   1      49.320  26.927  24.748  1.00  0.00     0.173 A 
ATOM     53  C   UNL A   1      50.000  26.121  26.904  1.00  0.00     0.173 A 
ATOM     54  F   UNL A   1      48.390  27.428  23.921  1.00  0.00    -0.203 F 
ATOM     55  C   UNL A   1      50.597  26.669  24.253  1.00  0.00     0.198 A 
ATOM     56  C   UNL A   1      51.284  25.892  26.417  1.00  0.00     0.198 A 
ATOM     57  F   UNL A   1      49.742  25.855  28.194  1.00  0.00    -0.203 F 
ATOM     58  F   UNL A   1      50.873  26.909  22.964  1.00  0.00    -0.200 F 
ATOM     59  C   UNL A   1      51.580  26.161  25.090  1.00  0.00     0.200 A 
ATOM     60  F   UNL A   1      52.236  25.426  27.235  1.00  0.00    -0.200 F 
ATOM     61  F   UNL A   1      52.812  25.932  24.617  1.00  0.00    -0.200 F 
ENDBRANCH  27  51
BRANCH  39  62
ATOM     62  C   UNL A   1      45.935  32.484  28.436  1.00  0.00     0.064 A 
ATOM     63  C   UNL A   1      45.830  33.464  27.439  1.00  0.00     0.173 A 
ATOM     64  C   UNL A   1      46.460  32.865  29.681  1.00  0.00     0.173 A 
ATOM     65  F   UNL A   1      45.352  33.145  26.227  1.00  0.00    -0.203 F 
ATOM     66  C   UNL A   1      46.246  34.772  27.676  1.00  0.00     0.198 A 
ATOM     67  C   UNL A   1      46.844  34.180  29.924  1.00  0.00     0.198 A 
ATOM     68  F   UNL A   1      46.580  31.966  30.669  1.00  0.00    -0.203 F 
ATOM     69  F   UNL A   1      46.171  35.684  26.697  1.00  0.00    -0.200 F 
ATOM     70  C   UNL A   1      46.740  35.131  28.921  1.00  0.00     0.200 A 
ATOM     71  F   UNL A   1      47.307  34.528  31.132  1.00  0.00    -0.200 F 
ATOM     72  F   UNL A   1      47.121  36.395  29.153  1.00  0.00    -0.200 F 
ENDBRANCH  39  62
ENDBRANCH  13  14
ENDBRANCH   6   8
ENDBRANCH   3   4
ENDBRANCH   2   3
ENDBRANCH   1   2
BRANCH   1  73
ATOM     73  C   UNL A   1      37.331  21.873  24.353  1.00  0.00     0.002 C 
BRANCH  73  74
ATOM     74  C   UNL A   1      37.746  22.956  25.357  1.00  0.00     0.021 C 
BRANCH  74  75
ATOM     75  C   UNL A   1      36.567  23.622  26.066  1.00  0.00     0.116 C 
BRANCH  75  76
ATOM     76  N   UNL A   1      35.568  24.036  25.102  1.00  0.00    -0.356 N 
ATOM     77  C   UNL A   1      34.232  23.756  25.067  1.00  0.00     0.228 C 
ATOM     78  H   UNL A   1      35.899  24.601  24.367  1.00  0.00     0.163 HD
ATOM     79  O   UNL A   1      33.639  23.935  24.005  1.00  0.00    -0.275 OA
BRANCH  77  80
ATOM     80  C   UNL A   1      33.560  23.235  26.331  1.00  0.00     0.133 C 
ATOM     81  C   UNL A   1      33.069  21.791  26.203  1.00  0.00     0.025 C 
ATOM     82  C   UNL A   1      32.401  24.154  26.744  1.00  0.00     0.276 C 
ATOM     83  C   UNL A   1      31.798  21.682  25.362  1.00  0.00     0.062 C 
ATOM     84  N   UNL A   1      31.235  24.044  25.862  1.00  0.00    -0.331 N 
ATOM     85  C   UNL A   1      30.719  22.673  25.806  1.00  0.00     0.262 C 
ATOM     86  H   UNL A   1      31.570  24.266  24.925  1.00  0.00     0.348 HD
BRANCH  84  87
ATOM     87  C   UNL A   1      30.191  25.057  26.121  1.00  0.00     0.299 C 
BRANCH  87  88
ATOM     88  C   UNL A   1      30.258  26.325  25.280  1.00  0.00     0.014 A 
ATOM     89  C   UNL A   1      29.581  26.323  24.044  1.00  0.00     0.010 A 
ATOM     90  C   UNL A   1      30.995  27.485  25.668  1.00  0.00    -0.010 A 
ATOM     91  C   UNL A   1      29.720  27.368  23.141  1.00  0.00     0.001 A 
ATOM     92  C   UNL A   1      31.110  28.554  24.739  1.00  0.00    -0.018 A 
ATOM     93  C   UNL A   1      31.616  27.663  26.929  1.00  0.00     0.009 A 
ATOM     94  C   UNL A   1      30.499  28.466  23.481  1.00  0.00     0.009 A 
ATOM     95  C   UNL A   1      31.827  29.713  25.074  1.00  0.00     0.009 A 
ATOM     96  C   UNL A   1      32.301  28.836  27.259  1.00  0.00     0.001 A 
ATOM     97  C   UNL A   1      32.412  29.859  26.329  1.00  0.00     0.001 A 
ENDBRANCH  87  88
ENDBRANCH  84  87
ENDBRANCH  77  80
ENDBRANCH  75  76
ENDBRANCH  74  75
ENDBRANCH  73  74
ENDBRANCH   1  73
TORSDOF 15
ENDMDL
MODEL 3
REMARK VINA RESULT:     -12.6      1.673      7.586
REMARK SMILES O=C(NCCCCCCNC(=O)[C@@H]1CCC[N@@H+](Cc2cccc3ccccc23)C1)c1ccc(-c2c3nc(c(-c4c(F)c(F)c(F)c(F)c4F)c4ccc([nH]4)c(-c4c(F)c(F)c(F)c(F)c4F)c4nc(c(-c5c(F)c(F)c(F)c(F)c5F)c5ccc2[nH]5)C=C4)C=C3)cc1
REMARK SMILES IDX 6 1 5 2 4 3 3 4 1 5 2 6 30 8 31 9 92 10 32 11 91 12 33 13
REMARK SMILES IDX 34 14 35 15 85 16 36 17 90 18 84 19 86 20 37 21 89 22 83 23
REMARK SMILES IDX 82 24 38 26 70 27 50 28 69 29 51 30 54 31 68 32 87 33 52 34
REMARK SMILES IDX 53 35 67 37 88 38 55 39 39 40 40 41 48 42 41 43 42 44 46 45
REMARK SMILES IDX 49 46 43 47 44 48 47 49 45 50 71 51 72 52 80 53 73 54 74 55
REMARK SMILES IDX 78 56 81 57 75 58 76 59 79 60 77 61 56 62 57 63 65 64 58 65
REMARK SMILES IDX 59 66 63 67 66 68 60 69 61 70 64 71 62 72 7 73 8 74 9 75
REMARK SMILES IDX 10 76 11 77 12 79 13 80 14 81 29 82 15 83 17 84 16 85 18 87
REMARK SMILES IDX 19 88 20 89 28 90 21 91 23 92 27 93 22 94 24 95 26 96 25 97
REMARK H PARENT 3 7 86 25 54 36 10 78 17 86
REMARK Flexibility Score: inf
ROOT
ATOM      1  C   UNL A   1      34.516  33.872  28.658  1.00  0.00     0.002 C 
ENDROOT
BRANCH   1   2
ATOM      2  C   UNL A   1      33.203  34.625  28.879  1.00  0.00     0.021 C 
BRANCH   2   3
ATOM      3  C   UNL A   1      33.384  36.053  29.374  1.00  0.00     0.116 C 
BRANCH   3   4
ATOM      4  N   UNL A   1      32.525  36.347  30.509  1.00  0.00    -0.352 N 
ATOM      5  O   UNL A   1      31.666  36.041  32.576  1.00  0.00    -0.269 OA
ATOM      6  C   UNL A   1      32.588  35.856  31.787  1.00  0.00     0.251 C 
ATOM      7  H   UNL A   1      31.798  36.988  30.337  1.00  0.00     0.163 HD
BRANCH   6   8
ATOM      8  C   UNL A   1      33.774  35.084  32.207  1.00  0.00     0.039 A 
ATOM      9  C   UNL A   1      35.041  35.675  32.194  1.00  0.00     0.014 A 
ATOM     10  C   UNL A   1      33.614  33.762  32.625  1.00  0.00     0.014 A 
ATOM     11  C   UNL A   1      36.162  34.908  32.482  1.00  0.00     0.010 A 
ATOM     12  C   UNL A   1      34.734  33.019  32.998  1.00  0.00     0.010 A 
ATOM     13  C   UNL A   1      36.018  33.580  32.911  1.00  0.00    -0.014 A 
BRANCH  13  14
ATOM     14  C   UNL A   1      37.211  32.815  33.346  1.00  0.00     0.031 A 
ATOM     15  C   UNL A   1      37.902  33.128  34.639  1.00  0.00     0.074 A 
ATOM     16  C   UNL A   1      37.682  31.847  32.538  1.00  0.00     0.049 A 
ATOM     17  N   UNL A   1      38.993  32.604  35.139  1.00  0.00    -0.248 NA
ATOM     18  C   UNL A   1      37.298  34.174  35.475  1.00  0.00     0.031 C 
ATOM     19  C   UNL A   1      37.096  31.469  31.251  1.00  0.00     0.029 A 
ATOM     20  N   UNL A   1      38.765  31.015  32.670  1.00  0.00    -0.354 N 
ATOM     21  C   UNL A   1      39.219  33.271  36.336  1.00  0.00     0.074 A 
ATOM     22  C   UNL A   1      38.168  34.257  36.472  1.00  0.00     0.031 C 
ATOM     23  C   UNL A   1      37.817  30.475  30.715  1.00  0.00     0.029 A 
ATOM     24  C   UNL A   1      38.953  30.194  31.586  1.00  0.00     0.049 A 
ATOM     25  H   UNL A   1      39.347  31.007  33.464  1.00  0.00     0.167 HD
ATOM     26  C   UNL A   1      40.215  33.071  37.234  1.00  0.00     0.037 A 
ATOM     27  C   UNL A   1      39.953  29.341  31.300  1.00  0.00     0.037 A 
ATOM     28  C   UNL A   1      41.255  32.086  37.079  1.00  0.00     0.049 A 
ATOM     29  C   UNL A   1      41.067  29.165  32.290  1.00  0.00     0.074 A 
ATOM     30  C   UNL A   1      42.278  31.767  37.954  1.00  0.00     0.029 A 
ATOM     31  N   UNL A   1      41.418  31.275  35.963  1.00  0.00    -0.354 N 
ATOM     32  N   UNL A   1      41.242  29.759  33.445  1.00  0.00    -0.248 NA
ATOM     33  C   UNL A   1      42.119  28.204  31.940  1.00  0.00     0.031 C 
ATOM     34  C   UNL A   1      43.099  30.815  37.340  1.00  0.00     0.029 A 
ATOM     35  C   UNL A   1      42.548  30.484  36.113  1.00  0.00     0.049 A 
ATOM     36  H   UNL A   1      40.820  31.262  35.182  1.00  0.00     0.167 HD
ATOM     37  C   UNL A   1      42.411  29.229  33.973  1.00  0.00     0.074 A 
ATOM     38  C   UNL A   1      42.896  28.258  33.014  1.00  0.00     0.031 C 
ATOM     39  C   UNL A   1      43.022  29.521  35.148  1.00  0.00     0.037 A 
BRANCH  26  40
ATOM     40  C   UNL A   1      40.247  33.963  38.444  1.00  0.00     0.064 A 
ATOM     41  C   UNL A   1      39.580  33.631  39.634  1.00  0.00     0.173 A 
ATOM     42  C   UNL A   1      40.972  35.166  38.417  1.00  0.00     0.173 A 
ATOM     43  F   UNL A   1      38.867  32.498  39.715  1.00  0.00    -0.203 F 
ATOM     44  C   UNL A   1      39.600  34.488  40.731  1.00  0.00     0.198 A 
ATOM     45  C   UNL A   1      41.020  36.003  39.529  1.00  0.00     0.198 A 
ATOM     46  F   UNL A   1      41.639  35.530  37.312  1.00  0.00    -0.203 F 
ATOM     47  F   UNL A   1      38.901  34.180  41.833  1.00  0.00    -0.200 F 
ATOM     48  C   UNL A   1      40.323  35.670  40.680  1.00  0.00     0.200 A 
ATOM     49  F   UNL A   1      41.735  37.136  39.483  1.00  0.00    -0.200 F 
ATOM     50  F   UNL A   1      40.340  36.495  41.737  1.00  0.00    -0.200 F 
ENDBRANCH  26  40
BRANCH  27  51
ATOM     51  C   UNL A   1      39.936  28.617  30.003  1.00  0.00     0.064 A 
ATOM     52  C   UNL A   1      40.537  29.161  28.862  1.00  0.00     0.173 A 
ATOM     53  C   UNL A   1      39.366  27.339  29.897  1.00  0.00     0.173 A 
ATOM     54  F   UNL A   1      41.084  30.384  28.910  1.00  0.00    -0.203 F 
ATOM     55  C   UNL A   1      40.563  28.455  27.660  1.00  0.00     0.198 A 
ATOM     56  C   UNL A   1      39.420  26.622  28.706  1.00  0.00     0.198 A 
ATOM     57  F   UNL A   1      38.788  26.770  30.967  1.00  0.00    -0.203 F 
ATOM     58  F   UNL A   1      41.119  29.009  26.574  1.00  0.00    -0.200 F 
ATOM     59  C   UNL A   1      40.014  27.183  27.586  1.00  0.00     0.200 A 
ATOM     60  F   UNL A   1      38.911  25.385  28.646  1.00  0.00    -0.200 F 
ATOM     61  F   UNL A   1      40.058  26.498  26.435  1.00  0.00    -0.200 F 
ENDBRANCH  27  51
BRANCH  39  62
ATOM     62  C   UNL A   1      44.268  28.755  35.488  1.00  0.00     0.064 A 
ATOM     63  C   UNL A   1      45.540  29.211  35.115  1.00  0.00     0.173 A 
ATOM     64  C   UNL A   1      44.189  27.583  36.255  1.00  0.00     0.173 A 
ATOM     65  F   UNL A   1      45.669  30.316  34.365  1.00  0.00    -0.203 F 
ATOM     66  C   UNL A   1      46.687  28.513  35.486  1.00  0.00     0.198 A 
ATOM     67  C   UNL A   1      45.338  26.906  36.652  1.00  0.00     0.198 A 
ATOM     68  F   UNL A   1      42.995  27.105  36.639  1.00  0.00    -0.203 F 
ATOM     69  F   UNL A   1      47.891  28.947  35.087  1.00  0.00    -0.200 F 
ATOM     70  C   UNL A   1      46.586  27.370  36.264  1.00  0.00     0.200 A 
ATOM     71  F   UNL A   1      45.238  25.810  37.416  1.00  0.00    -0.200 F 
ATOM     72  F   UNL A   1      47.692  26.711  36.638  1.00  0.00    -0.200 F 
ENDBRANCH  39  62
ENDBRANCH  13  14
ENDBRANCH   6   8
ENDBRANCH   3   4
ENDBRANCH   2   3
ENDBRANCH   1   2
BRANCH   1  73
ATOM     73  C   UNL A   1      34.446  32.371  28.953  1.00  0.00     0.002 C 
BRANCH  73  74
ATOM     74  C   UNL A   1      33.992  31.503  27.772  1.00  0.00     0.021 C 
BRANCH  74  75
ATOM     75  C   UNL A   1      34.811  30.224  27.598  1.00  0.00     0.116 C 
BRANCH  75  76
ATOM     76  N   UNL A   1      33.975  29.059  27.806  1.00  0.00    -0.356 N 
ATOM     77  C   UNL A   1      33.298  28.305  26.891  1.00  0.00     0.228 C 
ATOM     78  H   UNL A   1      33.881  28.768  28.742  1.00  0.00     0.163 HD
ATOM     79  O   UNL A   1      32.405  27.569  27.305  1.00  0.00    -0.275 OA
BRANCH  77  80
ATOM     80  C   UNL A   1      33.680  28.424  25.420  1.00  0.00     0.133 C 
ATOM     81  C   UNL A   1      32.748  29.344  24.627  1.00  0.00     0.025 C 
ATOM     82  C   UNL A   1      33.738  27.037  24.764  1.00  0.00     0.276 C 
ATOM     83  C   UNL A   1      31.401  28.689  24.329  1.00  0.00     0.062 C 
ATOM     84  N   UNL A   1      32.415  26.439  24.559  1.00  0.00    -0.331 N 
ATOM     85  C   UNL A   1      31.554  27.289  23.731  1.00  0.00     0.262 C 
ATOM     86  H   UNL A   1      31.979  26.397  25.481  1.00  0.00     0.348 HD
BRANCH  84  87
ATOM     87  C   UNL A   1      32.457  25.030  24.115  1.00  0.00     0.299 C 
BRANCH  87  88
ATOM     88  C   UNL A   1      33.164  24.051  25.043  1.00  0.00     0.014 A 
ATOM     89  C   UNL A   1      32.539  23.747  26.269  1.00  0.00     0.010 A 
ATOM     90  C   UNL A   1      34.431  23.465  24.744  1.00  0.00    -0.010 A 
ATOM     91  C   UNL A   1      33.183  22.997  27.243  1.00  0.00     0.001 A 
ATOM     92  C   UNL A   1      35.067  22.683  25.746  1.00  0.00    -0.018 A 
ATOM     93  C   UNL A   1      35.107  23.590  23.505  1.00  0.00     0.009 A 
ATOM     94  C   UNL A   1      34.449  22.488  26.989  1.00  0.00     0.009 A 
ATOM     95  C   UNL A   1      36.314  22.090  25.500  1.00  0.00     0.009 A 
ATOM     96  C   UNL A   1      36.335  22.967  23.264  1.00  0.00     0.001 A 
ATOM     97  C   UNL A   1      36.942  22.221  24.264  1.00  0.00     0.001 A 
ENDBRANCH  87  88
ENDBRANCH  84  87
ENDBRANCH  77  80
ENDBRANCH  75  76
ENDBRANCH  74  75
ENDBRANCH  73  74
ENDBRANCH   1  73
TORSDOF 15
ENDMDL
