MODEL 1
REMARK VINA RESULT:     -14.2      0.000      0.000
REMARK SMILES Cc1ccc(-c2cn3c(n2)sc2cc(C(=O)NCCCCCCNC(=O)c4ccc(-c5c6nc(c(-c7c(F)c(F)c(F)c(F)c7F)c7ccc([nH]7)c(-c7c(F)c(F)c(F)c(F)c7F)c7nc(c(-c8c(F)c(F)c(F)c(F)c8F)c8ccc5[nH]8)C=C7)C=C6)cc4)ccc23)cc1
REMARK SMILES IDX 21 1 20 2 19 3 18 4 17 5 15 6 16 7 14 9 6 10 7 11 10 12 8 13
REMARK SMILES IDX 9 14 92 15 11 16 12 17 91 18 13 19 90 20 5 21 1 22 2 23 3 24
REMARK SMILES IDX 94 25 4 26 93 27 22 28 23 29 24 30 25 31 26 33 27 34 28 35
REMARK SMILES IDX 89 36 29 37 88 38 30 39 31 40 32 41 82 42 33 43 87 44 81 45
REMARK SMILES IDX 83 46 34 47 86 48 80 49 79 50 35 52 67 53 47 54 66 55 48 56
REMARK SMILES IDX 51 57 65 58 84 59 49 60 50 61 64 63 85 64 52 65 36 66 37 67
REMARK SMILES IDX 45 68 38 69 39 70 43 71 46 72 40 73 41 74 44 75 42 76 68 77
REMARK SMILES IDX 69 78 77 79 70 80 71 81 75 82 78 83 72 84 73 85 76 86 74 87
REMARK SMILES IDX 53 88 54 89 62 90 55 91 56 92 60 93 63 94 57 95 58 96 61 97
REMARK SMILES IDX 59 98
REMARK H PARENT 17 8 24 32 83 51 51 62
REMARK Flexibility Score: inf
ROOT
ATOM      1  C   UNL A   1      32.962  28.528  27.301  1.00  0.00     0.002 C 
ENDROOT
BRANCH   1   2
ATOM      2  C   UNL A   1      34.224  28.123  26.517  1.00  0.00     0.002 C 
BRANCH   2   3
ATOM      3  C   UNL A   1      34.020  27.567  25.099  1.00  0.00     0.021 C 
BRANCH   3   4
ATOM      4  C   UNL A   1      33.918  28.622  23.990  1.00  0.00     0.116 C 
BRANCH   4   5
ATOM      5  N   UNL A   1      32.726  29.457  24.128  1.00  0.00    -0.352 N 
ATOM      6  C   UNL A   1      31.392  29.110  24.029  1.00  0.00     0.251 C 
ATOM      7  O   UNL A   1      30.509  29.893  24.361  1.00  0.00    -0.269 OA
ATOM      8  H   UNL A   1      32.898  30.406  24.320  1.00  0.00     0.163 HD
BRANCH   6   9
ATOM      9  C   UNL A   1      31.037  27.737  23.610  1.00  0.00     0.041 A 
ATOM     10  C   UNL A   1      34.072  23.069  23.501  1.00  0.00     0.090 A 
ATOM     11  C   UNL A   1      32.782  23.204  24.001  1.00  0.00     0.123 A 
ATOM     12  N   UNL A   1      34.133  23.455  22.166  1.00  0.00    -0.219 NA
ATOM     13  N   UNL A   1      32.167  23.972  23.052  1.00  0.00    -0.290 N 
ATOM     14  C   UNL A   1      32.954  23.975  21.933  1.00  0.00     0.195 A 
ATOM     15  C   UNL A   1      31.311  25.071  23.200  1.00  0.00     0.065 A 
ATOM     16  S   UNL A   1      32.496  25.220  20.799  1.00  0.00    -0.096 S 
ATOM     17  C   UNL A   1      31.504  25.949  22.118  1.00  0.00     0.056 A 
ATOM     18  C   UNL A   1      30.776  25.465  24.419  1.00  0.00     0.029 A 
ATOM     19  C   UNL A   1      31.342  27.307  22.310  1.00  0.00     0.035 A 
ATOM     20  C   UNL A   1      30.652  26.836  24.625  1.00  0.00     0.016 A 
BRANCH  10  21
ATOM     21  C   UNL A   1      35.262  22.852  24.316  1.00  0.00     0.002 A 
ATOM     22  C   UNL A   1      39.044  22.190  26.311  1.00  0.00     0.044 C 
ATOM     23  C   UNL A   1      37.728  22.408  25.625  1.00  0.00    -0.051 A 
ATOM     24  C   UNL A   1      37.177  23.691  25.564  1.00  0.00     0.004 A 
ATOM     25  C   UNL A   1      37.039  21.346  25.032  1.00  0.00     0.004 A 
ATOM     26  C   UNL A   1      35.956  23.912  24.918  1.00  0.00     0.010 A 
ATOM     27  C   UNL A   1      35.819  21.567  24.386  1.00  0.00     0.010 A 
ENDBRANCH  10  21
ENDBRANCH   6   9
ENDBRANCH   4   5
ENDBRANCH   3   4
ENDBRANCH   2   3
ENDBRANCH   1   2
BRANCH   1  28
ATOM     28  C   UNL A   1      32.788  30.022  27.587  1.00  0.00     0.021 C 
BRANCH  28  29
ATOM     29  C   UNL A   1      34.048  30.853  27.367  1.00  0.00     0.116 C 
BRANCH  29  30
ATOM     30  N   UNL A   1      34.472  31.599  28.550  1.00  0.00    -0.352 N 
ATOM     31  C   UNL A   1      35.510  31.331  29.435  1.00  0.00     0.251 C 
ATOM     32  H   UNL A   1      33.949  32.408  28.748  1.00  0.00     0.163 HD
ATOM     33  O   UNL A   1      35.731  32.051  30.378  1.00  0.00    -0.269 OA
BRANCH  31  34
ATOM     34  C   UNL A   1      36.419  30.201  29.121  1.00  0.00     0.039 A 
ATOM     35  C   UNL A   1      36.699  29.285  30.141  1.00  0.00     0.014 A 
ATOM     36  C   UNL A   1      37.136  30.180  27.928  1.00  0.00     0.014 A 
ATOM     37  C   UNL A   1      37.857  28.517  30.062  1.00  0.00     0.010 A 
ATOM     38  C   UNL A   1      38.329  29.486  27.886  1.00  0.00     0.010 A 
ATOM     39  C   UNL A   1      38.723  28.715  28.986  1.00  0.00    -0.014 A 
BRANCH  39  40
ATOM     40  C   UNL A   1      40.115  28.280  29.004  1.00  0.00     0.031 A 
ATOM     41  C   UNL A   1      40.502  26.942  28.516  1.00  0.00     0.074 A 
ATOM     42  C   UNL A   1      41.064  29.156  29.405  1.00  0.00     0.049 A 
ATOM     43  N   UNL A   1      41.583  26.325  28.858  1.00  0.00    -0.248 NA
ATOM     44  C   UNL A   1      39.657  26.166  27.619  1.00  0.00     0.031 C 
ATOM     45  C   UNL A   1      42.511  29.036  29.240  1.00  0.00     0.029 A 
ATOM     46  N   UNL A   1      40.900  30.272  30.245  1.00  0.00    -0.354 N 
ATOM     47  C   UNL A   1      41.713  25.219  28.051  1.00  0.00     0.074 A 
ATOM     48  C   UNL A   1      40.457  25.132  27.340  1.00  0.00     0.031 C 
ATOM     49  C   UNL A   1      43.115  29.813  30.153  1.00  0.00     0.029 A 
ATOM     50  C   UNL A   1      42.076  30.333  31.025  1.00  0.00     0.049 A 
ATOM     51  H   UNL A   1      40.127  30.881  30.282  1.00  0.00     0.167 HD
ATOM     52  C   UNL A   1      42.919  24.582  27.978  1.00  0.00     0.037 A 
ATOM     53  C   UNL A   1      42.046  30.175  32.380  1.00  0.00     0.037 A 
ATOM     54  C   UNL A   1      43.885  25.171  28.902  1.00  0.00     0.049 A 
ATOM     55  C   UNL A   1      42.906  29.043  32.887  1.00  0.00     0.074 A 
ATOM     56  C   UNL A   1      44.890  26.109  28.730  1.00  0.00     0.029 A 
ATOM     57  N   UNL A   1      43.697  25.043  30.275  1.00  0.00    -0.354 N 
ATOM     58  N   UNL A   1      43.302  28.046  32.147  1.00  0.00    -0.248 NA
ATOM     59  C   UNL A   1      43.343  28.920  34.276  1.00  0.00     0.031 C 
ATOM     60  C   UNL A   1      45.275  26.583  30.006  1.00  0.00     0.029 A 
ATOM     61  C   UNL A   1      44.518  25.920  30.956  1.00  0.00     0.049 A 
ATOM     62  H   UNL A   1      43.067  24.416  30.699  1.00  0.00     0.167 HD
ATOM     63  C   UNL A   1      44.002  27.159  32.920  1.00  0.00     0.074 A 
ATOM     64  C   UNL A   1      44.017  27.757  34.240  1.00  0.00     0.031 C 
ATOM     65  C   UNL A   1      44.498  25.995  32.408  1.00  0.00     0.037 A 
BRANCH  52  66
ATOM     66  C   UNL A   1      43.314  23.644  26.853  1.00  0.00     0.064 A 
ATOM     67  C   UNL A   1      42.936  22.282  26.877  1.00  0.00     0.173 A 
ATOM     68  C   UNL A   1      44.121  24.004  25.759  1.00  0.00     0.173 A 
ATOM     69  F   UNL A   1      42.062  21.811  27.774  1.00  0.00    -0.203 F 
ATOM     70  C   UNL A   1      43.444  21.342  25.976  1.00  0.00     0.198 A 
ATOM     71  C   UNL A   1      44.677  23.057  24.890  1.00  0.00     0.198 A 
ATOM     72  F   UNL A   1      44.350  25.288  25.459  1.00  0.00    -0.203 F 
ATOM     73  F   UNL A   1      43.060  20.061  26.063  1.00  0.00    -0.200 F 
ATOM     74  C   UNL A   1      44.351  21.722  25.010  1.00  0.00     0.200 A 
ATOM     75  F   UNL A   1      45.529  23.452  23.934  1.00  0.00    -0.200 F 
ATOM     76  F   UNL A   1      44.883  20.814  24.180  1.00  0.00    -0.200 F 
ENDBRANCH  52  66
BRANCH  53  77
ATOM     77  C   UNL A   1      40.764  30.601  33.001  1.00  0.00     0.064 A 
ATOM     78  C   UNL A   1      40.494  31.979  33.109  1.00  0.00     0.173 A 
ATOM     79  C   UNL A   1      39.691  29.716  33.147  1.00  0.00     0.173 A 
ATOM     80  F   UNL A   1      41.489  32.869  32.973  1.00  0.00    -0.203 F 
ATOM     81  C   UNL A   1      39.190  32.452  33.243  1.00  0.00     0.198 A 
ATOM     82  C   UNL A   1      38.387  30.194  33.295  1.00  0.00     0.198 A 
ATOM     83  F   UNL A   1      39.880  28.393  33.036  1.00  0.00    -0.203 F 
ATOM     84  F   UNL A   1      38.955  33.772  33.232  1.00  0.00    -0.200 F 
ATOM     85  C   UNL A   1      38.135  31.559  33.310  1.00  0.00     0.200 A 
ATOM     86  F   UNL A   1      37.361  29.332  33.330  1.00  0.00    -0.200 F 
ATOM     87  F   UNL A   1      36.874  32.011  33.347  1.00  0.00    -0.200 F 
ENDBRANCH  53  77
BRANCH  65  88
ATOM     88  C   UNL A   1      45.094  24.865  33.205  1.00  0.00     0.064 A 
ATOM     89  C   UNL A   1      44.418  23.665  33.480  1.00  0.00     0.173 A 
ATOM     90  C   UNL A   1      46.454  24.905  33.594  1.00  0.00     0.173 A 
ATOM     91  F   UNL A   1      43.162  23.464  33.060  1.00  0.00    -0.203 F 
ATOM     92  C   UNL A   1      45.038  22.607  34.150  1.00  0.00     0.198 A 
ATOM     93  C   UNL A   1      47.084  23.828  34.214  1.00  0.00     0.198 A 
ATOM     94  F   UNL A   1      47.215  25.985  33.363  1.00  0.00    -0.203 F 
ATOM     95  F   UNL A   1      44.338  21.496  34.424  1.00  0.00    -0.200 F 
ATOM     96  C   UNL A   1      46.371  22.683  34.506  1.00  0.00     0.200 A 
ATOM     97  F   UNL A   1      48.390  23.899  34.508  1.00  0.00    -0.200 F 
ATOM     98  F   UNL A   1      46.972  21.649  35.109  1.00  0.00    -0.200 F 
ENDBRANCH  65  88
ENDBRANCH  39  40
ENDBRANCH  31  34
ENDBRANCH  29  30
ENDBRANCH  28  29
ENDBRANCH   1  28
TORSDOF 14
ENDMDL
MODEL 2
REMARK VINA RESULT:     -14.0      3.502      9.565
REMARK SMILES Cc1ccc(-c2cn3c(n2)sc2cc(C(=O)NCCCCCCNC(=O)c4ccc(-c5c6nc(c(-c7c(F)c(F)c(F)c(F)c7F)c7ccc([nH]7)c(-c7c(F)c(F)c(F)c(F)c7F)c7nc(c(-c8c(F)c(F)c(F)c(F)c8F)c8ccc5[nH]8)C=C7)C=C6)cc4)ccc23)cc1
REMARK SMILES IDX 21 1 20 2 19 3 18 4 17 5 15 6 16 7 14 9 6 10 7 11 10 12 8 13
REMARK SMILES IDX 9 14 92 15 11 16 12 17 91 18 13 19 90 20 5 21 1 22 2 23 3 24
REMARK SMILES IDX 94 25 4 26 93 27 22 28 23 29 24 30 25 31 26 33 27 34 28 35
REMARK SMILES IDX 89 36 29 37 88 38 30 39 31 40 32 41 82 42 33 43 87 44 81 45
REMARK SMILES IDX 83 46 34 47 86 48 80 49 79 50 35 52 67 53 47 54 66 55 48 56
REMARK SMILES IDX 51 57 65 58 84 59 49 60 50 61 64 63 85 64 52 65 36 66 37 67
REMARK SMILES IDX 45 68 38 69 39 70 43 71 46 72 40 73 41 74 44 75 42 76 68 77
REMARK SMILES IDX 69 78 77 79 70 80 71 81 75 82 78 83 72 84 73 85 76 86 74 87
REMARK SMILES IDX 53 88 54 89 62 90 55 91 56 92 60 93 63 94 57 95 58 96 61 97
REMARK SMILES IDX 59 98
REMARK H PARENT 17 8 24 32 83 51 51 62
REMARK Flexibility Score: inf
ROOT
ATOM      1  C   UNL A   1      36.936  23.260  24.479  1.00  0.00     0.002 C 
ENDROOT
BRANCH   1   2
ATOM      2  C   UNL A   1      36.463  23.990  25.750  1.00  0.00     0.002 C 
BRANCH   2   3
ATOM      3  C   UNL A   1      35.004  23.771  26.182  1.00  0.00     0.021 C 
BRANCH   3   4
ATOM      4  C   UNL A   1      34.760  22.541  27.066  1.00  0.00     0.116 C 
BRANCH   4   5
ATOM      5  N   UNL A   1      34.985  21.289  26.346  1.00  0.00    -0.352 N 
ATOM      6  C   UNL A   1      34.297  20.753  25.275  1.00  0.00     0.251 C 
ATOM      7  O   UNL A   1      34.733  19.783  24.666  1.00  0.00    -0.269 OA
ATOM      8  H   UNL A   1      35.739  20.747  26.673  1.00  0.00     0.163 HD
BRANCH   6   9
ATOM      9  C   UNL A   1      33.069  21.427  24.802  1.00  0.00     0.041 A 
ATOM     10  C   UNL A   1      31.221  26.615  25.622  1.00  0.00     0.090 A 
ATOM     11  C   UNL A   1      31.265  25.936  24.410  1.00  0.00     0.123 A 
ATOM     12  N   UNL A   1      30.470  25.916  26.561  1.00  0.00    -0.219 NA
ATOM     13  N   UNL A   1      30.810  24.691  24.743  1.00  0.00    -0.290 N 
ATOM     14  C   UNL A   1      30.226  24.769  25.977  1.00  0.00     0.195 A 
ATOM     15  C   UNL A   1      31.291  23.428  24.374  1.00  0.00     0.065 A 
ATOM     16  S   UNL A   1      29.961  23.198  26.691  1.00  0.00    -0.096 S 
ATOM     17  C   UNL A   1      31.058  22.525  25.426  1.00  0.00     0.056 A 
ATOM     18  C   UNL A   1      32.262  23.235  23.401  1.00  0.00     0.029 A 
ATOM     19  C   UNL A   1      31.944  21.486  25.636  1.00  0.00     0.035 A 
ATOM     20  C   UNL A   1      33.178  22.213  23.636  1.00  0.00     0.016 A 
BRANCH  10  21
ATOM     21  C   UNL A   1      32.080  27.740  25.977  1.00  0.00     0.002 A 
ATOM     22  C   UNL A   1      34.352  31.121  27.435  1.00  0.00     0.044 C 
ATOM     23  C   UNL A   1      33.561  29.956  26.918  1.00  0.00    -0.051 A 
ATOM     24  C   UNL A   1      34.053  28.656  27.072  1.00  0.00     0.004 A 
ATOM     25  C   UNL A   1      32.328  30.144  26.288  1.00  0.00     0.004 A 
ATOM     26  C   UNL A   1      33.321  27.559  26.605  1.00  0.00     0.010 A 
ATOM     27  C   UNL A   1      31.597  29.047  25.822  1.00  0.00     0.010 A 
ENDBRANCH  10  21
ENDBRANCH   6   9
ENDBRANCH   4   5
ENDBRANCH   3   4
ENDBRANCH   2   3
ENDBRANCH   1   2
BRANCH   1  28
ATOM     28  C   UNL A   1      37.825  22.032  24.690  1.00  0.00     0.021 C 
BRANCH  28  29
ATOM     29  C   UNL A   1      38.520  21.986  26.047  1.00  0.00     0.116 C 
BRANCH  29  30
ATOM     30  N   UNL A   1      39.976  22.062  25.963  1.00  0.00    -0.352 N 
ATOM     31  C   UNL A   1      40.815  23.150  26.175  1.00  0.00     0.251 C 
ATOM     32  H   UNL A   1      40.429  21.222  25.722  1.00  0.00     0.163 HD
ATOM     33  O   UNL A   1      42.013  23.049  26.059  1.00  0.00    -0.269 OA
BRANCH  31  34
ATOM     34  C   UNL A   1      40.210  24.412  26.667  1.00  0.00     0.039 A 
ATOM     35  C   UNL A   1      40.598  25.607  26.051  1.00  0.00     0.014 A 
ATOM     36  C   UNL A   1      39.457  24.426  27.838  1.00  0.00     0.014 A 
ATOM     37  C   UNL A   1      40.445  26.805  26.742  1.00  0.00     0.010 A 
ATOM     38  C   UNL A   1      39.383  25.599  28.562  1.00  0.00     0.010 A 
ATOM     39  C   UNL A   1      39.946  26.771  28.045  1.00  0.00    -0.014 A 
BRANCH  39  40
ATOM     40  C   UNL A   1      40.116  27.875  28.983  1.00  0.00     0.031 A 
ATOM     41  C   UNL A   1      39.140  28.980  29.045  1.00  0.00     0.074 A 
ATOM     42  C   UNL A   1      41.147  27.831  29.856  1.00  0.00     0.049 A 
ATOM     43  N   UNL A   1      39.397  30.155  29.513  1.00  0.00    -0.248 NA
ATOM     44  C   UNL A   1      37.782  28.849  28.534  1.00  0.00     0.031 C 
ATOM     45  C   UNL A   1      41.345  28.663  31.041  1.00  0.00     0.029 A 
ATOM     46  N   UNL A   1      42.358  27.129  29.717  1.00  0.00    -0.354 N 
ATOM     47  C   UNL A   1      38.209  30.841  29.611  1.00  0.00     0.074 A 
ATOM     48  C   UNL A   1      37.244  30.007  28.931  1.00  0.00     0.031 C 
ATOM     49  C   UNL A   1      42.650  28.666  31.353  1.00  0.00     0.029 A 
ATOM     50  C   UNL A   1      43.345  27.962  30.290  1.00  0.00     0.049 A 
ATOM     51  H   UNL A   1      42.489  26.244  29.306  1.00  0.00     0.167 HD
ATOM     52  C   UNL A   1      38.152  31.973  30.374  1.00  0.00     0.037 A 
ATOM     53  C   UNL A   1      44.362  28.485  29.546  1.00  0.00     0.037 A 
ATOM     54  C   UNL A   1      39.469  32.323  30.900  1.00  0.00     0.049 A 
ATOM     55  C   UNL A   1      44.431  29.992  29.570  1.00  0.00     0.074 A 
ATOM     56  C   UNL A   1      40.080  32.086  32.121  1.00  0.00     0.029 A 
ATOM     57  N   UNL A   1      40.472  32.742  30.032  1.00  0.00    -0.354 N 
ATOM     58  N   UNL A   1      43.426  30.758  29.887  1.00  0.00    -0.248 NA
ATOM     59  C   UNL A   1      45.620  30.752  29.193  1.00  0.00     0.031 C 
ATOM     60  C   UNL A   1      41.468  32.318  31.972  1.00  0.00     0.029 A 
ATOM     61  C   UNL A   1      41.699  32.714  30.666  1.00  0.00     0.049 A 
ATOM     62  H   UNL A   1      40.328  33.018  29.098  1.00  0.00     0.167 HD
ATOM     63  C   UNL A   1      43.794  32.069  29.743  1.00  0.00     0.074 A 
ATOM     64  C   UNL A   1      45.181  32.016  29.324  1.00  0.00     0.031 C 
ATOM     65  C   UNL A   1      42.916  33.090  29.966  1.00  0.00     0.037 A 
BRANCH  52  66
ATOM     66  C   UNL A   1      36.862  32.575  30.899  1.00  0.00     0.064 A 
ATOM     67  C   UNL A   1      36.083  33.438  30.095  1.00  0.00     0.173 A 
ATOM     68  C   UNL A   1      36.374  32.400  32.206  1.00  0.00     0.173 A 
ATOM     69  F   UNL A   1      36.337  33.602  28.791  1.00  0.00    -0.203 F 
ATOM     70  C   UNL A   1      35.006  34.171  30.599  1.00  0.00     0.198 A 
ATOM     71  C   UNL A   1      35.332  33.175  32.729  1.00  0.00     0.198 A 
ATOM     72  F   UNL A   1      36.847  31.433  33.000  1.00  0.00    -0.203 F 
ATOM     73  F   UNL A   1      34.318  34.987  29.788  1.00  0.00    -0.200 F 
ATOM     74  C   UNL A   1      34.658  34.075  31.930  1.00  0.00     0.200 A 
ATOM     75  F   UNL A   1      34.986  33.040  34.018  1.00  0.00    -0.200 F 
ATOM     76  F   UNL A   1      33.662  34.818  32.429  1.00  0.00    -0.200 F 
ENDBRANCH  52  66
BRANCH  53  77
ATOM     77  C   UNL A   1      44.738  27.644  28.378  1.00  0.00     0.064 A 
ATOM     78  C   UNL A   1      45.472  26.464  28.607  1.00  0.00     0.173 A 
ATOM     79  C   UNL A   1      44.102  27.782  27.140  1.00  0.00     0.173 A 
ATOM     80  F   UNL A   1      46.099  26.282  29.780  1.00  0.00    -0.203 F 
ATOM     81  C   UNL A   1      45.474  25.422  27.683  1.00  0.00     0.198 A 
ATOM     82  C   UNL A   1      44.117  26.740  26.210  1.00  0.00     0.198 A 
ATOM     83  F   UNL A   1      43.372  28.874  26.869  1.00  0.00    -0.203 F 
ATOM     84  F   UNL A   1      46.091  24.269  27.977  1.00  0.00    -0.200 F 
ATOM     85  C   UNL A   1      44.775  25.551  26.496  1.00  0.00     0.200 A 
ATOM     86  F   UNL A   1      43.416  26.852  25.073  1.00  0.00    -0.200 F 
ATOM     87  F   UNL A   1      44.698  24.519  25.644  1.00  0.00    -0.200 F 
ENDBRANCH  53  77
BRANCH  65  88
ATOM     88  C   UNL A   1      43.151  34.542  29.641  1.00  0.00     0.064 A 
ATOM     89  C   UNL A   1      43.313  35.541  30.614  1.00  0.00     0.173 A 
ATOM     90  C   UNL A   1      43.375  34.946  28.303  1.00  0.00     0.173 A 
ATOM     91  F   UNL A   1      43.239  35.257  31.920  1.00  0.00    -0.203 F 
ATOM     92  C   UNL A   1      43.616  36.862  30.270  1.00  0.00     0.198 A 
ATOM     93  C   UNL A   1      43.729  36.252  27.968  1.00  0.00     0.198 A 
ATOM     94  F   UNL A   1      43.277  34.079  27.284  1.00  0.00    -0.203 F 
ATOM     95  F   UNL A   1      43.722  37.789  31.233  1.00  0.00    -0.200 F 
ATOM     96  C   UNL A   1      43.836  37.214  28.952  1.00  0.00     0.200 A 
ATOM     97  F   UNL A   1      43.987  36.566  26.691  1.00  0.00    -0.200 F 
ATOM     98  F   UNL A   1      44.167  38.472  28.632  1.00  0.00    -0.200 F 
ENDBRANCH  65  88
ENDBRANCH  39  40
ENDBRANCH  31  34
ENDBRANCH  29  30
ENDBRANCH  28  29
ENDBRANCH   1  28
TORSDOF 14
ENDMDL
MODEL 3
REMARK VINA RESULT:     -13.4      1.762      2.334
REMARK SMILES Cc1ccc(-c2cn3c(n2)sc2cc(C(=O)NCCCCCCNC(=O)c4ccc(-c5c6nc(c(-c7c(F)c(F)c(F)c(F)c7F)c7ccc([nH]7)c(-c7c(F)c(F)c(F)c(F)c7F)c7nc(c(-c8c(F)c(F)c(F)c(F)c8F)c8ccc5[nH]8)C=C7)C=C6)cc4)ccc23)cc1
REMARK SMILES IDX 21 1 20 2 19 3 18 4 17 5 15 6 16 7 14 9 6 10 7 11 10 12 8 13
REMARK SMILES IDX 9 14 92 15 11 16 12 17 91 18 13 19 90 20 5 21 1 22 2 23 3 24
REMARK SMILES IDX 94 25 4 26 93 27 22 28 23 29 24 30 25 31 26 33 27 34 28 35
REMARK SMILES IDX 89 36 29 37 88 38 30 39 31 40 32 41 82 42 33 43 87 44 81 45
REMARK SMILES IDX 83 46 34 47 86 48 80 49 79 50 35 52 67 53 47 54 66 55 48 56
REMARK SMILES IDX 51 57 65 58 84 59 49 60 50 61 64 63 85 64 52 65 36 66 37 67
REMARK SMILES IDX 45 68 38 69 39 70 43 71 46 72 40 73 41 74 44 75 42 76 68 77
REMARK SMILES IDX 69 78 77 79 70 80 71 81 75 82 78 83 72 84 73 85 76 86 74 87
REMARK SMILES IDX 53 88 54 89 62 90 55 91 56 92 60 93 63 94 57 95 58 96 61 97
REMARK SMILES IDX 59 98
REMARK H PARENT 17 8 24 32 83 51 51 62
REMARK Flexibility Score: inf
ROOT
ATOM      1  C   UNL A   1      32.076  29.238  26.051  1.00  0.00     0.002 C 
ENDROOT
BRANCH   1   2
ATOM      2  C   UNL A   1      31.109  29.650  24.925  1.00  0.00     0.002 C 
BRANCH   2   3
ATOM      3  C   UNL A   1      31.551  29.360  23.481  1.00  0.00     0.021 C 
BRANCH   3   4
ATOM      4  C   UNL A   1      33.067  29.268  23.266  1.00  0.00     0.116 C 
BRANCH   4   5
ATOM      5  N   UNL A   1      33.430  28.209  22.326  1.00  0.00    -0.352 N 
ATOM      6  C   UNL A   1      33.504  26.844  22.524  1.00  0.00     0.251 C 
ATOM      7  O   UNL A   1      33.638  26.075  21.579  1.00  0.00    -0.269 OA
ATOM      8  H   UNL A   1      33.654  28.513  21.418  1.00  0.00     0.163 HD
BRANCH   6   9
ATOM      9  C   UNL A   1      33.316  26.306  23.888  1.00  0.00     0.041 A 
ATOM     10  C   UNL A   1      32.702  21.070  25.681  1.00  0.00     0.090 A 
ATOM     11  C   UNL A   1      33.543  22.035  26.223  1.00  0.00     0.123 A 
ATOM     12  N   UNL A   1      31.380  21.504  25.676  1.00  0.00    -0.219 NA
ATOM     13  N   UNL A   1      32.756  23.152  26.233  1.00  0.00    -0.290 N 
ATOM     14  C   UNL A   1      31.460  22.760  26.038  1.00  0.00     0.195 A 
ATOM     15  C   UNL A   1      33.058  24.469  25.866  1.00  0.00     0.065 A 
ATOM     16  S   UNL A   1      30.412  24.097  25.636  1.00  0.00    -0.096 S 
ATOM     17  C   UNL A   1      31.900  25.075  25.345  1.00  0.00     0.056 A 
ATOM     18  C   UNL A   1      34.344  24.908  25.584  1.00  0.00     0.029 A 
ATOM     19  C   UNL A   1      32.023  26.030  24.355  1.00  0.00     0.035 A 
ATOM     20  C   UNL A   1      34.468  25.842  24.558  1.00  0.00     0.016 A 
BRANCH  10  21
ATOM     21  C   UNL A   1      33.150  19.896  24.938  1.00  0.00     0.002 A 
ATOM     22  C   UNL A   1      34.525  16.193  23.173  1.00  0.00     0.044 C 
ATOM     23  C   UNL A   1      34.060  17.484  23.779  1.00  0.00    -0.051 A 
ATOM     24  C   UNL A   1      32.699  17.805  23.776  1.00  0.00     0.004 A 
ATOM     25  C   UNL A   1      34.965  18.376  24.361  1.00  0.00     0.004 A 
ATOM     26  C   UNL A   1      32.248  18.999  24.347  1.00  0.00     0.010 A 
ATOM     27  C   UNL A   1      34.513  19.569  24.933  1.00  0.00     0.010 A 
ENDBRANCH  10  21
ENDBRANCH   6   9
ENDBRANCH   4   5
ENDBRANCH   3   4
ENDBRANCH   2   3
ENDBRANCH   1   2
BRANCH   1  28
ATOM     28  C   UNL A   1      32.666  30.374  26.890  1.00  0.00     0.021 C 
BRANCH  28  29
ATOM     29  C   UNL A   1      34.112  30.151  27.319  1.00  0.00     0.116 C 
BRANCH  29  30
ATOM     30  N   UNL A   1      34.580  31.105  28.322  1.00  0.00    -0.352 N 
ATOM     31  C   UNL A   1      35.730  31.071  29.101  1.00  0.00     0.251 C 
ATOM     32  H   UNL A   1      33.998  31.885  28.466  1.00  0.00     0.163 HD
ATOM     33  O   UNL A   1      35.973  31.945  29.898  1.00  0.00    -0.269 OA
BRANCH  31  34
ATOM     34  C   UNL A   1      36.716  29.992  28.843  1.00  0.00     0.039 A 
ATOM     35  C   UNL A   1      36.942  29.056  29.858  1.00  0.00     0.014 A 
ATOM     36  C   UNL A   1      37.541  30.042  27.723  1.00  0.00     0.014 A 
ATOM     37  C   UNL A   1      38.136  28.342  29.866  1.00  0.00     0.010 A 
ATOM     38  C   UNL A   1      38.763  29.402  27.773  1.00  0.00     0.010 A 
ATOM     39  C   UNL A   1      39.089  28.614  28.883  1.00  0.00    -0.014 A 
BRANCH  39  40
ATOM     40  C   UNL A   1      40.492  28.239  29.019  1.00  0.00     0.031 A 
ATOM     41  C   UNL A   1      40.997  26.965  28.472  1.00  0.00     0.074 A 
ATOM     42  C   UNL A   1      41.346  29.118  29.590  1.00  0.00     0.049 A 
ATOM     43  N   UNL A   1      42.066  26.368  28.881  1.00  0.00    -0.248 NA
ATOM     44  C   UNL A   1      40.293  26.231  27.429  1.00  0.00     0.031 C 
ATOM     45  C   UNL A   1      42.806  29.074  29.577  1.00  0.00     0.029 A 
ATOM     46  N   UNL A   1      41.035  30.151  30.492  1.00  0.00    -0.354 N 
ATOM     47  C   UNL A   1      42.338  25.340  28.008  1.00  0.00     0.074 A 
ATOM     48  C   UNL A   1      41.171  25.259  27.159  1.00  0.00     0.031 C 
ATOM     49  C   UNL A   1      43.268  29.796  30.609  1.00  0.00     0.029 A 
ATOM     50  C   UNL A   1      42.117  30.196  31.400  1.00  0.00     0.049 A 
ATOM     51  H   UNL A   1      40.233  30.721  30.492  1.00  0.00     0.167 HD
ATOM     52  C   UNL A   1      43.577  24.764  28.018  1.00  0.00     0.037 A 
ATOM     53  C   UNL A   1      41.952  29.923  32.727  1.00  0.00     0.037 A 
ATOM     54  C   UNL A   1      44.407  25.315  29.087  1.00  0.00     0.049 A 
ATOM     55  C   UNL A   1      42.810  28.791  33.234  1.00  0.00     0.074 A 
ATOM     56  C   UNL A   1      45.375  26.306  29.101  1.00  0.00     0.029 A 
ATOM     57  N   UNL A   1      44.081  25.063  30.416  1.00  0.00    -0.354 N 
ATOM     58  N   UNL A   1      43.334  27.878  32.465  1.00  0.00    -0.248 NA
ATOM     59  C   UNL A   1      43.104  28.570  34.648  1.00  0.00     0.031 C 
ATOM     60  C   UNL A   1      45.596  26.686  30.446  1.00  0.00     0.029 A 
ATOM     61  C   UNL A   1      44.778  25.914  31.251  1.00  0.00     0.049 A 
ATOM     62  H   UNL A   1      43.443  24.376  30.717  1.00  0.00     0.167 HD
ATOM     63  C   UNL A   1      43.993  26.959  33.238  1.00  0.00     0.074 A 
ATOM     64  C   UNL A   1      43.837  27.444  34.595  1.00  0.00     0.031 C 
ATOM     65  C   UNL A   1      44.600  25.865  32.692  1.00  0.00     0.037 A 
BRANCH  52  66
ATOM     66  C   UNL A   1      44.137  23.942  26.873  1.00  0.00     0.064 A 
ATOM     67  C   UNL A   1      43.690  22.622  26.641  1.00  0.00     0.173 A 
ATOM     68  C   UNL A   1      45.163  24.368  26.012  1.00  0.00     0.173 A 
ATOM     69  F   UNL A   1      42.631  22.115  27.283  1.00  0.00    -0.203 F 
ATOM     70  C   UNL A   1      44.316  21.762  25.734  1.00  0.00     0.198 A 
ATOM     71  C   UNL A   1      45.829  23.493  25.144  1.00  0.00     0.198 A 
ATOM     72  F   UNL A   1      45.516  25.657  25.936  1.00  0.00    -0.203 F 
ATOM     73  F   UNL A   1      43.855  20.513  25.573  1.00  0.00    -0.200 F 
ATOM     74  C   UNL A   1      45.416  22.184  25.018  1.00  0.00     0.200 A 
ATOM     75  F   UNL A   1      46.875  23.934  24.430  1.00  0.00    -0.200 F 
ATOM     76  F   UNL A   1      46.053  21.344  24.190  1.00  0.00    -0.200 F 
ENDBRANCH  52  66
BRANCH  53  77
ATOM     77  C   UNL A   1      40.591  30.240  33.235  1.00  0.00     0.064 A 
ATOM     78  C   UNL A   1      40.236  31.591  33.410  1.00  0.00     0.173 A 
ATOM     79  C   UNL A   1      39.558  29.297  33.200  1.00  0.00     0.173 A 
ATOM     80  F   UNL A   1      41.189  32.536  33.446  1.00  0.00    -0.203 F 
ATOM     81  C   UNL A   1      38.901  31.991  33.436  1.00  0.00     0.198 A 
ATOM     82  C   UNL A   1      38.222  29.701  33.241  1.00  0.00     0.198 A 
ATOM     83  F   UNL A   1      39.830  27.997  33.017  1.00  0.00    -0.203 F 
ATOM     84  F   UNL A   1      38.596  33.295  33.493  1.00  0.00    -0.200 F 
ATOM     85  C   UNL A   1      37.896  31.047  33.325  1.00  0.00     0.200 A 
ATOM     86  F   UNL A   1      37.247  28.791  33.104  1.00  0.00    -0.200 F 
ATOM     87  F   UNL A   1      36.615  31.435  33.258  1.00  0.00    -0.200 F 
ENDBRANCH  53  77
BRANCH  65  88
ATOM     88  C   UNL A   1      45.167  24.698  33.459  1.00  0.00     0.064 A 
ATOM     89  C   UNL A   1      44.466  23.503  33.684  1.00  0.00     0.173 A 
ATOM     90  C   UNL A   1      46.522  24.702  33.866  1.00  0.00     0.173 A 
ATOM     91  F   UNL A   1      43.213  23.338  33.242  1.00  0.00    -0.203 F 
ATOM     92  C   UNL A   1      45.059  22.412  34.326  1.00  0.00     0.198 A 
ATOM     93  C   UNL A   1      47.125  23.593  34.458  1.00  0.00     0.198 A 
ATOM     94  F   UNL A   1      47.305  25.776  33.682  1.00  0.00    -0.203 F 
ATOM     95  F   UNL A   1      44.337  21.305  34.554  1.00  0.00    -0.200 F 
ATOM     96  C   UNL A   1      46.389  22.452  34.701  1.00  0.00     0.200 A 
ATOM     97  F   UNL A   1      48.427  23.631  34.771  1.00  0.00    -0.200 F 
ATOM     98  F   UNL A   1      46.964  21.388  35.277  1.00  0.00    -0.200 F 
ENDBRANCH  65  88
ENDBRANCH  39  40
ENDBRANCH  31  34
ENDBRANCH  29  30
ENDBRANCH  28  29
ENDBRANCH   1  28
TORSDOF 14
ENDMDL
