MODEL 1
REMARK VINA RESULT:     -12.5      0.000      0.000
REMARK SMILES O=C(NCCCCCCNC(=O)c1cccnc1C(=O)Nc1ccc([N+](=O)[O-])cc1)c1ccc(-c2c3nc(c(-c4c(F)c(F)c(F)c(F)c4F)c4ccc([nH]4)c(-c4c(F)c(F)c(F)c(F)c4F)c4nc(c(-c5c(F)c(F)c(F)c(F)c5F)c5ccc2[nH]5)C=C4)C=C3)cc1
REMARK SMILES IDX 7 1 6 2 5 3 4 4 3 5 1 6 2 7 31 9 32 10 93 11 33 12 92 13
REMARK SMILES IDX 34 14 35 15 36 16 86 17 37 18 91 19 85 20 87 21 38 22 90 23
REMARK SMILES IDX 84 24 83 25 39 27 71 28 51 29 70 30 52 31 55 32 69 33 88 34
REMARK SMILES IDX 53 35 54 36 68 38 89 39 56 40 40 41 41 42 49 43 42 44 43 45
REMARK SMILES IDX 47 46 50 47 44 48 45 49 48 50 46 51 72 52 73 53 81 54 74 55
REMARK SMILES IDX 75 56 79 57 82 58 76 59 77 60 80 61 78 62 57 63 58 64 66 65
REMARK SMILES IDX 59 66 60 67 64 68 67 69 61 70 62 71 65 72 63 73 8 74 9 75
REMARK SMILES IDX 10 76 11 77 12 79 13 80 14 81 18 82 15 83 17 84 16 85 19 86
REMARK SMILES IDX 20 87 21 88 22 90 23 91 30 92 24 93 29 94 25 95 26 96 27 97
REMARK SMILES IDX 28 98
REMARK H PARENT 3 8 87 26 55 37 10 78 21 89
REMARK Flexibility Score: inf
ROOT
ATOM      1  C   UNL A   1      32.165  29.375  26.740  1.00  0.00     0.002 C 
ENDROOT
BRANCH   1   2
ATOM      2  C   UNL A   1      31.521  30.413  25.816  1.00  0.00     0.002 C 
BRANCH   2   3
ATOM      3  C   UNL A   1      31.289  31.781  26.445  1.00  0.00     0.021 C 
BRANCH   3   4
ATOM      4  C   UNL A   1      32.543  32.432  27.002  1.00  0.00     0.116 C 
BRANCH   4   5
ATOM      5  N   UNL A   1      32.330  33.769  27.538  1.00  0.00    -0.352 N 
ATOM      6  O   UNL A   1      32.807  35.525  28.904  1.00  0.00    -0.269 OA
ATOM      7  C   UNL A   1      33.121  34.430  28.452  1.00  0.00     0.251 C 
ATOM      8  H   UNL A   1      31.536  34.252  27.212  1.00  0.00     0.163 HD
BRANCH   7   9
ATOM      9  C   UNL A   1      34.352  33.755  28.911  1.00  0.00     0.039 A 
ATOM     10  C   UNL A   1      34.248  32.630  29.729  1.00  0.00     0.014 A 
ATOM     11  C   UNL A   1      35.598  34.320  28.631  1.00  0.00     0.014 A 
ATOM     12  C   UNL A   1      35.367  32.177  30.407  1.00  0.00     0.010 A 
ATOM     13  C   UNL A   1      36.743  33.787  29.229  1.00  0.00     0.010 A 
ATOM     14  C   UNL A   1      36.632  32.734  30.151  1.00  0.00    -0.014 A 
BRANCH  14  15
ATOM     15  C   UNL A   1      37.817  32.134  30.813  1.00  0.00     0.031 A 
ATOM     16  C   UNL A   1      38.227  32.520  32.206  1.00  0.00     0.074 A 
ATOM     17  C   UNL A   1      38.492  31.178  30.146  1.00  0.00     0.049 A 
ATOM     18  N   UNL A   1      39.221  32.063  32.928  1.00  0.00    -0.248 NA
ATOM     19  C   UNL A   1      37.428  33.554  32.880  1.00  0.00     0.031 C 
ATOM     20  C   UNL A   1      38.188  30.735  28.781  1.00  0.00     0.029 A 
ATOM     21  N   UNL A   1      39.544  30.385  30.523  1.00  0.00    -0.354 N 
ATOM     22  C   UNL A   1      39.178  32.760  34.127  1.00  0.00     0.074 A 
ATOM     23  C   UNL A   1      38.074  33.693  34.030  1.00  0.00     0.031 C 
ATOM     24  C   UNL A   1      38.989  29.712  28.460  1.00  0.00     0.029 A 
ATOM     25  C   UNL A   1      39.917  29.481  29.559  1.00  0.00     0.049 A 
ATOM     26  H   UNL A   1      39.989  30.457  31.398  1.00  0.00     0.167 HD
ATOM     27  C   UNL A   1      39.984  32.626  35.208  1.00  0.00     0.037 A 
ATOM     28  C   UNL A   1      40.914  28.579  29.546  1.00  0.00     0.037 A 
ATOM     29  C   UNL A   1      41.078  31.689  35.294  1.00  0.00     0.049 A 
ATOM     30  C   UNL A   1      41.797  28.466  30.754  1.00  0.00     0.074 A 
ATOM     31  C   UNL A   1      41.955  31.476  36.345  1.00  0.00     0.029 A 
ATOM     32  N   UNL A   1      41.443  30.806  34.288  1.00  0.00    -0.354 N 
ATOM     33  N   UNL A   1      41.740  29.128  31.883  1.00  0.00    -0.248 NA
ATOM     34  C   UNL A   1      42.886  27.484  30.683  1.00  0.00     0.031 C 
ATOM     35  C   UNL A   1      42.872  30.492  35.960  1.00  0.00     0.029 A 
ATOM     36  C   UNL A   1      42.537  30.055  34.688  1.00  0.00     0.049 A 
ATOM     37  H   UNL A   1      40.991  30.724  33.417  1.00  0.00     0.167 HD
ATOM     38  C   UNL A   1      42.779  28.641  32.661  1.00  0.00     0.074 A 
ATOM     39  C   UNL A   1      43.427  27.602  31.887  1.00  0.00     0.031 C 
ATOM     40  C   UNL A   1      43.168  29.027  33.900  1.00  0.00     0.037 A 
BRANCH  27  41
ATOM     41  C   UNL A   1      39.727  33.517  36.391  1.00  0.00     0.064 A 
ATOM     42  C   UNL A   1      40.318  34.785  36.498  1.00  0.00     0.173 A 
ATOM     43  C   UNL A   1      38.828  33.128  37.397  1.00  0.00     0.173 A 
ATOM     44  F   UNL A   1      41.192  35.204  35.570  1.00  0.00    -0.203 F 
ATOM     45  C   UNL A   1      40.033  35.622  37.576  1.00  0.00     0.198 A 
ATOM     46  C   UNL A   1      38.525  33.977  38.459  1.00  0.00     0.198 A 
ATOM     47  F   UNL A   1      38.229  31.929  37.341  1.00  0.00    -0.203 F 
ATOM     48  F   UNL A   1      40.636  36.815  37.674  1.00  0.00    -0.200 F 
ATOM     49  C   UNL A   1      39.130  35.221  38.550  1.00  0.00     0.200 A 
ATOM     50  F   UNL A   1      37.643  33.593  39.392  1.00  0.00    -0.200 F 
ATOM     51  F   UNL A   1      38.848  36.033  39.579  1.00  0.00    -0.200 F 
ENDBRANCH  27  41
BRANCH  28  52
ATOM     52  C   UNL A   1      41.135  27.741  28.342  1.00  0.00     0.064 A 
ATOM     53  C   UNL A   1      40.496  26.503  28.191  1.00  0.00     0.173 A 
ATOM     54  C   UNL A   1      41.981  28.168  27.307  1.00  0.00     0.173 A 
ATOM     55  F   UNL A   1      39.689  26.044  29.159  1.00  0.00    -0.203 F 
ATOM     56  C   UNL A   1      40.710  25.716  27.060  1.00  0.00     0.198 A 
ATOM     57  C   UNL A   1      42.165  27.399  26.161  1.00  0.00     0.198 A 
ATOM     58  F   UNL A   1      42.608  29.350  27.398  1.00  0.00    -0.203 F 
ATOM     59  F   UNL A   1      40.123  24.517  26.963  1.00  0.00    -0.200 F 
ATOM     60  C   UNL A   1      41.538  26.169  26.044  1.00  0.00     0.200 A 
ATOM     61  F   UNL A   1      42.948  27.852  25.172  1.00  0.00    -0.200 F 
ATOM     62  F   UNL A   1      41.735  25.417  24.953  1.00  0.00    -0.200 F 
ENDBRANCH  28  52
BRANCH  40  63
ATOM     63  C   UNL A   1      44.338  28.298  34.494  1.00  0.00     0.064 A 
ATOM     64  C   UNL A   1      45.652  28.762  34.330  1.00  0.00     0.173 A 
ATOM     65  C   UNL A   1      44.142  27.123  35.234  1.00  0.00     0.173 A 
ATOM     66  F   UNL A   1      45.892  29.871  33.613  1.00  0.00    -0.203 F 
ATOM     67  C   UNL A   1      46.730  28.055  34.855  1.00  0.00     0.198 A 
ATOM     68  C   UNL A   1      45.220  26.435  35.783  1.00  0.00     0.198 A 
ATOM     69  F   UNL A   1      42.904  26.640  35.422  1.00  0.00    -0.203 F 
ATOM     70  F   UNL A   1      47.981  28.483  34.633  1.00  0.00    -0.200 F 
ATOM     71  C   UNL A   1      46.513  26.896  35.584  1.00  0.00     0.200 A 
ATOM     72  F   UNL A   1      45.008  25.321  36.496  1.00  0.00    -0.200 F 
ATOM     73  F   UNL A   1      47.553  26.214  36.085  1.00  0.00    -0.200 F 
ENDBRANCH  40  63
ENDBRANCH  14  15
ENDBRANCH   7   9
ENDBRANCH   4   5
ENDBRANCH   3   4
ENDBRANCH   2   3
ENDBRANCH   1   2
BRANCH   1  74
ATOM     74  C   UNL A   1      31.401  28.070  27.002  1.00  0.00     0.021 C 
BRANCH  74  75
ATOM     75  C   UNL A   1      31.980  26.749  26.491  1.00  0.00     0.116 C 
BRANCH  75  76
ATOM     76  N   UNL A   1      31.326  25.534  26.959  1.00  0.00    -0.352 N 
ATOM     77  C   UNL A   1      31.665  24.207  26.781  1.00  0.00     0.253 C 
ATOM     78  H   UNL A   1      30.509  25.682  27.489  1.00  0.00     0.163 HD
ATOM     79  O   UNL A   1      31.139  23.326  27.448  1.00  0.00    -0.269 OA
BRANCH  77  80
ATOM     80  C   UNL A   1      32.770  23.864  25.893  1.00  0.00     0.071 A 
ATOM     81  C   UNL A   1      33.988  23.667  26.585  1.00  0.00     0.018 A 
ATOM     82  C   UNL A   1      32.733  23.674  24.515  1.00  0.00     0.141 A 
ATOM     83  C   UNL A   1      35.154  23.368  25.903  1.00  0.00     0.021 A 
ATOM     84  N   UNL A   1      33.914  23.416  23.854  1.00  0.00    -0.250 NA
ATOM     85  C   UNL A   1      35.071  23.267  24.536  1.00  0.00     0.112 A 
BRANCH  82  86
ATOM     86  C   UNL A   1      31.573  23.559  23.518  1.00  0.00     0.275 C 
ATOM     87  O   UNL A   1      31.496  22.528  22.833  1.00  0.00    -0.267 OA
ATOM     88  N   UNL A   1      30.453  24.354  23.463  1.00  0.00    -0.321 N 
ATOM     89  H   UNL A   1      29.613  23.845  23.425  1.00  0.00     0.170 HD
BRANCH  88  90
ATOM     90  C   UNL A   1      30.265  25.733  23.450  1.00  0.00     0.042 A 
ATOM     91  C   UNL A   1      31.307  26.518  22.931  1.00  0.00     0.033 A 
ATOM     92  C   UNL A   1      29.106  26.333  23.927  1.00  0.00     0.033 A 
ATOM     93  C   UNL A   1      31.092  27.867  22.652  1.00  0.00     0.088 A 
ATOM     94  C   UNL A   1      28.906  27.695  23.694  1.00  0.00     0.088 A 
ATOM     95  C   UNL A   1      29.856  28.422  22.976  1.00  0.00     0.269 A 
BRANCH  95  96
ATOM     96  N   UNL A   1      29.481  29.723  22.440  1.00  0.00     0.062 N 
ATOM     97  O   UNL A   1      29.549  29.884  21.215  1.00  0.00    -0.258 OA
ATOM     98  O   UNL A   1      29.100  30.576  23.258  1.00  0.00    -0.258 OA
ENDBRANCH  95  96
ENDBRANCH  88  90
ENDBRANCH  82  86
ENDBRANCH  77  80
ENDBRANCH  75  76
ENDBRANCH  74  75
ENDBRANCH   1  74
TORSDOF 16
ENDMDL
MODEL 2
REMARK VINA RESULT:     -12.5      0.755      1.798
REMARK SMILES O=C(NCCCCCCNC(=O)c1cccnc1C(=O)Nc1ccc([N+](=O)[O-])cc1)c1ccc(-c2c3nc(c(-c4c(F)c(F)c(F)c(F)c4F)c4ccc([nH]4)c(-c4c(F)c(F)c(F)c(F)c4F)c4nc(c(-c5c(F)c(F)c(F)c(F)c5F)c5ccc2[nH]5)C=C4)C=C3)cc1
REMARK SMILES IDX 7 1 6 2 5 3 4 4 3 5 1 6 2 7 31 9 32 10 93 11 33 12 92 13
REMARK SMILES IDX 34 14 35 15 36 16 86 17 37 18 91 19 85 20 87 21 38 22 90 23
REMARK SMILES IDX 84 24 83 25 39 27 71 28 51 29 70 30 52 31 55 32 69 33 88 34
REMARK SMILES IDX 53 35 54 36 68 38 89 39 56 40 40 41 41 42 49 43 42 44 43 45
REMARK SMILES IDX 47 46 50 47 44 48 45 49 48 50 46 51 72 52 73 53 81 54 74 55
REMARK SMILES IDX 75 56 79 57 82 58 76 59 77 60 80 61 78 62 57 63 58 64 66 65
REMARK SMILES IDX 59 66 60 67 64 68 67 69 61 70 62 71 65 72 63 73 8 74 9 75
REMARK SMILES IDX 10 76 11 77 12 79 13 80 14 81 18 82 15 83 17 84 16 85 19 86
REMARK SMILES IDX 20 87 21 88 22 90 23 91 30 92 24 93 29 94 25 95 26 96 27 97
REMARK SMILES IDX 28 98
REMARK H PARENT 3 8 87 26 55 37 10 78 21 89
REMARK Flexibility Score: inf
ROOT
ATOM      1  C   UNL A   1      33.138  29.818  27.092  1.00  0.00     0.002 C 
ENDROOT
BRANCH   1   2
ATOM      2  C   UNL A   1      32.101  30.566  26.251  1.00  0.00     0.002 C 
BRANCH   2   3
ATOM      3  C   UNL A   1      31.635  31.895  26.832  1.00  0.00     0.021 C 
BRANCH   3   4
ATOM      4  C   UNL A   1      32.752  32.752  27.399  1.00  0.00     0.116 C 
BRANCH   4   5
ATOM      5  N   UNL A   1      32.373  34.136  27.646  1.00  0.00    -0.352 N 
ATOM      6  O   UNL A   1      32.494  36.127  28.740  1.00  0.00    -0.269 OA
ATOM      7  C   UNL A   1      32.944  35.003  28.551  1.00  0.00     0.251 C 
ATOM      8  H   UNL A   1      31.628  34.491  27.107  1.00  0.00     0.163 HD
BRANCH   7   9
ATOM      9  C   UNL A   1      34.103  34.520  29.328  1.00  0.00     0.039 A 
ATOM     10  C   UNL A   1      35.381  34.611  28.776  1.00  0.00     0.014 A 
ATOM     11  C   UNL A   1      33.897  33.864  30.544  1.00  0.00     0.014 A 
ATOM     12  C   UNL A   1      36.420  33.896  29.347  1.00  0.00     0.010 A 
ATOM     13  C   UNL A   1      34.974  33.239  31.178  1.00  0.00     0.010 A 
ATOM     14  C   UNL A   1      36.237  33.219  30.566  1.00  0.00    -0.014 A 
BRANCH  14  15
ATOM     15  C   UNL A   1      37.413  32.570  31.198  1.00  0.00     0.031 A 
ATOM     16  C   UNL A   1      37.872  32.936  32.581  1.00  0.00     0.074 A 
ATOM     17  C   UNL A   1      38.032  31.588  30.513  1.00  0.00     0.049 A 
ATOM     18  N   UNL A   1      38.865  32.437  33.277  1.00  0.00    -0.248 NA
ATOM     19  C   UNL A   1      37.133  34.001  33.276  1.00  0.00     0.031 C 
ATOM     20  C   UNL A   1      37.676  31.161  29.156  1.00  0.00     0.029 A 
ATOM     21  N   UNL A   1      39.059  30.753  30.863  1.00  0.00    -0.354 N 
ATOM     22  C   UNL A   1      38.880  33.133  34.478  1.00  0.00     0.074 A 
ATOM     23  C   UNL A   1      37.813  34.110  34.410  1.00  0.00     0.031 C 
ATOM     24  C   UNL A   1      38.426  30.107  28.814  1.00  0.00     0.029 A 
ATOM     25  C   UNL A   1      39.372  29.837  29.889  1.00  0.00     0.049 A 
ATOM     26  H   UNL A   1      39.528  30.805  31.727  1.00  0.00     0.167 HD
ATOM     27  C   UNL A   1      39.706  32.964  35.539  1.00  0.00     0.037 A 
ATOM     28  C   UNL A   1      40.330  28.895  29.851  1.00  0.00     0.037 A 
ATOM     29  C   UNL A   1      40.762  31.983  35.596  1.00  0.00     0.049 A 
ATOM     30  C   UNL A   1      41.238  28.744  31.036  1.00  0.00     0.074 A 
ATOM     31  C   UNL A   1      41.656  31.732  36.625  1.00  0.00     0.029 A 
ATOM     32  N   UNL A   1      41.066  31.088  34.581  1.00  0.00    -0.354 N 
ATOM     33  N   UNL A   1      41.235  29.405  32.167  1.00  0.00    -0.248 NA
ATOM     34  C   UNL A   1      42.283  27.719  30.938  1.00  0.00     0.031 C 
ATOM     35  C   UNL A   1      42.522  30.713  36.216  1.00  0.00     0.029 A 
ATOM     36  C   UNL A   1      42.139  30.292  34.953  1.00  0.00     0.049 A 
ATOM     37  H   UNL A   1      40.590  31.026  33.721  1.00  0.00     0.167 HD
ATOM     38  C   UNL A   1      42.272  28.874  32.919  1.00  0.00     0.074 A 
ATOM     39  C   UNL A   1      42.858  27.811  32.128  1.00  0.00     0.031 C 
ATOM     40  C   UNL A   1      42.708  29.241  34.148  1.00  0.00     0.037 A 
BRANCH  27  41
ATOM     41  C   UNL A   1      39.515  33.863  36.729  1.00  0.00     0.064 A 
ATOM     42  C   UNL A   1      38.744  33.467  37.832  1.00  0.00     0.173 A 
ATOM     43  C   UNL A   1      40.163  35.106  36.797  1.00  0.00     0.173 A 
ATOM     44  F   UNL A   1      38.094  32.293  37.816  1.00  0.00    -0.203 F 
ATOM     45  C   UNL A   1      38.614  34.290  38.950  1.00  0.00     0.198 A 
ATOM     46  C   UNL A   1      40.053  35.914  37.926  1.00  0.00     0.198 A 
ATOM     47  F   UNL A   1      40.919  35.530  35.773  1.00  0.00    -0.203 F 
ATOM     48  F   UNL A   1      37.844  33.905  39.978  1.00  0.00    -0.200 F 
ATOM     49  C   UNL A   1      39.276  35.508  39.000  1.00  0.00     0.200 A 
ATOM     50  F   UNL A   1      40.704  37.084  37.977  1.00  0.00    -0.200 F 
ATOM     51  F   UNL A   1      39.161  36.291  40.081  1.00  0.00    -0.200 F 
ENDBRANCH  27  41
BRANCH  28  52
ATOM     52  C   UNL A   1      40.487  28.051  28.641  1.00  0.00     0.064 A 
ATOM     53  C   UNL A   1      39.848  26.808  28.534  1.00  0.00     0.173 A 
ATOM     54  C   UNL A   1      41.269  28.477  27.556  1.00  0.00     0.173 A 
ATOM     55  F   UNL A   1      39.102  26.349  29.549  1.00  0.00    -0.203 F 
ATOM     56  C   UNL A   1      40.002  26.016  27.397  1.00  0.00     0.198 A 
ATOM     57  C   UNL A   1      41.392  27.703  26.406  1.00  0.00     0.198 A 
ATOM     58  F   UNL A   1      41.893  29.664  27.605  1.00  0.00    -0.203 F 
ATOM     59  F   UNL A   1      39.419  24.812  27.340  1.00  0.00    -0.200 F 
ATOM     60  C   UNL A   1      40.768  26.468  26.332  1.00  0.00     0.200 A 
ATOM     61  F   UNL A   1      42.114  28.154  25.371  1.00  0.00    -0.200 F 
ATOM     62  F   UNL A   1      40.907  25.711  25.236  1.00  0.00    -0.200 F 
ENDBRANCH  28  52
BRANCH  40  63
ATOM     63  C   UNL A   1      43.861  28.465  34.712  1.00  0.00     0.064 A 
ATOM     64  C   UNL A   1      43.663  27.293  35.457  1.00  0.00     0.173 A 
ATOM     65  C   UNL A   1      45.179  28.899  34.505  1.00  0.00     0.173 A 
ATOM     66  F   UNL A   1      42.420  26.848  35.699  1.00  0.00    -0.203 F 
ATOM     67  C   UNL A   1      44.741  26.603  36.005  1.00  0.00     0.198 A 
ATOM     68  C   UNL A   1      46.256  28.190  35.029  1.00  0.00     0.198 A 
ATOM     69  F   UNL A   1      45.421  30.012  33.797  1.00  0.00    -0.203 F 
ATOM     70  F   UNL A   1      44.524  25.521  36.766  1.00  0.00    -0.200 F 
ATOM     71  C   UNL A   1      46.035  27.050  35.787  1.00  0.00     0.200 A 
ATOM     72  F   UNL A   1      47.507  28.617  34.809  1.00  0.00    -0.200 F 
ATOM     73  F   UNL A   1      47.072  26.387  36.320  1.00  0.00    -0.200 F 
ENDBRANCH  40  63
ENDBRANCH  14  15
ENDBRANCH   7   9
ENDBRANCH   4   5
ENDBRANCH   3   4
ENDBRANCH   2   3
ENDBRANCH   1   2
BRANCH   1  74
ATOM     74  C   UNL A   1      32.977  28.299  27.254  1.00  0.00     0.021 C 
BRANCH  74  75
ATOM     75  C   UNL A   1      31.999  27.550  26.347  1.00  0.00     0.116 C 
BRANCH  75  76
ATOM     76  N   UNL A   1      31.438  26.317  26.883  1.00  0.00    -0.352 N 
ATOM     77  C   UNL A   1      31.770  24.999  26.636  1.00  0.00     0.253 C 
ATOM     78  H   UNL A   1      30.703  26.443  27.526  1.00  0.00     0.163 HD
ATOM     79  O   UNL A   1      31.359  24.099  27.357  1.00  0.00    -0.269 OA
BRANCH  77  80
ATOM     80  C   UNL A   1      32.743  24.689  25.594  1.00  0.00     0.071 A 
ATOM     81  C   UNL A   1      34.075  24.694  26.069  1.00  0.00     0.018 A 
ATOM     82  C   UNL A   1      32.496  24.358  24.265  1.00  0.00     0.141 A 
ATOM     83  C   UNL A   1      35.137  24.455  25.216  1.00  0.00     0.021 A 
ATOM     84  N   UNL A   1      33.572  24.164  23.426  1.00  0.00    -0.250 NA
ATOM     85  C   UNL A   1      34.836  24.209  23.899  1.00  0.00     0.112 A 
BRANCH  82  86
ATOM     86  C   UNL A   1      31.208  24.019  23.506  1.00  0.00     0.275 C 
ATOM     87  O   UNL A   1      31.145  22.924  22.927  1.00  0.00    -0.267 OA
ATOM     88  N   UNL A   1      30.004  24.678  23.592  1.00  0.00    -0.321 N 
ATOM     89  H   UNL A   1      29.240  24.078  23.746  1.00  0.00     0.170 HD
BRANCH  88  90
ATOM     90  C   UNL A   1      29.646  26.020  23.507  1.00  0.00     0.042 A 
ATOM     91  C   UNL A   1      30.614  26.914  23.025  1.00  0.00     0.033 A 
ATOM     92  C   UNL A   1      28.389  26.482  23.880  1.00  0.00     0.033 A 
ATOM     93  C   UNL A   1      30.252  28.214  22.674  1.00  0.00     0.088 A 
ATOM     94  C   UNL A   1      28.036  27.798  23.574  1.00  0.00     0.088 A 
ATOM     95  C   UNL A   1      28.936  28.616  22.891  1.00  0.00     0.269 A 
BRANCH  95  96
ATOM     96  N   UNL A   1      28.439  29.839  22.275  1.00  0.00     0.062 N 
ATOM     97  O   UNL A   1      28.819  30.103  21.128  1.00  0.00    -0.258 OA
ATOM     98  O   UNL A   1      27.650  30.522  22.947  1.00  0.00    -0.258 OA
ENDBRANCH  95  96
ENDBRANCH  88  90
ENDBRANCH  82  86
ENDBRANCH  77  80
ENDBRANCH  75  76
ENDBRANCH  74  75
ENDBRANCH   1  74
TORSDOF 16
ENDMDL
MODEL 3
REMARK VINA RESULT:     -12.4      1.445      7.861
REMARK SMILES O=C(NCCCCCCNC(=O)c1cccnc1C(=O)Nc1ccc([N+](=O)[O-])cc1)c1ccc(-c2c3nc(c(-c4c(F)c(F)c(F)c(F)c4F)c4ccc([nH]4)c(-c4c(F)c(F)c(F)c(F)c4F)c4nc(c(-c5c(F)c(F)c(F)c(F)c5F)c5ccc2[nH]5)C=C4)C=C3)cc1
REMARK SMILES IDX 7 1 6 2 5 3 4 4 3 5 1 6 2 7 31 9 32 10 93 11 33 12 92 13
REMARK SMILES IDX 34 14 35 15 36 16 86 17 37 18 91 19 85 20 87 21 38 22 90 23
REMARK SMILES IDX 84 24 83 25 39 27 71 28 51 29 70 30 52 31 55 32 69 33 88 34
REMARK SMILES IDX 53 35 54 36 68 38 89 39 56 40 40 41 41 42 49 43 42 44 43 45
REMARK SMILES IDX 47 46 50 47 44 48 45 49 48 50 46 51 72 52 73 53 81 54 74 55
REMARK SMILES IDX 75 56 79 57 82 58 76 59 77 60 80 61 78 62 57 63 58 64 66 65
REMARK SMILES IDX 59 66 60 67 64 68 67 69 61 70 62 71 65 72 63 73 8 74 9 75
REMARK SMILES IDX 10 76 11 77 12 79 13 80 14 81 18 82 15 83 17 84 16 85 19 86
REMARK SMILES IDX 20 87 21 88 22 90 23 91 30 92 24 93 29 94 25 95 26 96 27 97
REMARK SMILES IDX 28 98
REMARK H PARENT 3 8 87 26 55 37 10 78 21 89
REMARK Flexibility Score: inf
ROOT
ATOM      1  C   UNL A   1      32.620  29.755  27.187  1.00  0.00     0.002 C 
ENDROOT
BRANCH   1   2
ATOM      2  C   UNL A   1      31.879  30.673  26.211  1.00  0.00     0.002 C 
BRANCH   2   3
ATOM      3  C   UNL A   1      31.486  32.032  26.776  1.00  0.00     0.021 C 
BRANCH   3   4
ATOM      4  C   UNL A   1      32.640  32.816  27.373  1.00  0.00     0.116 C 
BRANCH   4   5
ATOM      5  N   UNL A   1      32.339  34.218  27.627  1.00  0.00    -0.352 N 
ATOM      6  O   UNL A   1      32.565  36.191  28.736  1.00  0.00    -0.269 OA
ATOM      7  C   UNL A   1      32.952  35.045  28.542  1.00  0.00     0.251 C 
ATOM      8  H   UNL A   1      31.619  34.618  27.085  1.00  0.00     0.163 HD
BRANCH   7   9
ATOM      9  C   UNL A   1      34.076  34.491  29.323  1.00  0.00     0.039 A 
ATOM     10  C   UNL A   1      35.371  34.582  28.813  1.00  0.00     0.014 A 
ATOM     11  C   UNL A   1      33.819  33.774  30.494  1.00  0.00     0.014 A 
ATOM     12  C   UNL A   1      36.377  33.811  29.372  1.00  0.00     0.010 A 
ATOM     13  C   UNL A   1      34.863  33.089  31.122  1.00  0.00     0.010 A 
ATOM     14  C   UNL A   1      36.143  33.072  30.546  1.00  0.00    -0.014 A 
BRANCH  14  15
ATOM     15  C   UNL A   1      37.283  32.361  31.173  1.00  0.00     0.031 A 
ATOM     16  C   UNL A   1      38.038  31.280  30.450  1.00  0.00     0.074 A 
ATOM     17  C   UNL A   1      37.670  32.753  32.403  1.00  0.00     0.049 A 
ATOM     18  N   UNL A   1      39.074  30.587  30.856  1.00  0.00    -0.248 NA
ATOM     19  C   UNL A   1      37.573  30.922  29.101  1.00  0.00     0.031 C 
ATOM     20  C   UNL A   1      36.999  33.784  33.201  1.00  0.00     0.029 A 
ATOM     21  N   UNL A   1      38.725  32.364  33.185  1.00  0.00    -0.354 N 
ATOM     22  C   UNL A   1      39.373  29.704  29.827  1.00  0.00     0.074 A 
ATOM     23  C   UNL A   1      38.394  29.929  28.784  1.00  0.00     0.031 C 
ATOM     24  C   UNL A   1      37.693  33.990  34.327  1.00  0.00     0.029 A 
ATOM     25  C   UNL A   1      38.805  33.051  34.371  1.00  0.00     0.049 A 
ATOM     26  H   UNL A   1      39.362  31.661  32.923  1.00  0.00     0.167 HD
ATOM     27  C   UNL A   1      40.378  28.797  29.762  1.00  0.00     0.037 A 
ATOM     28  C   UNL A   1      39.665  32.925  35.397  1.00  0.00     0.037 A 
ATOM     29  C   UNL A   1      41.350  28.586  30.807  1.00  0.00     0.049 A 
ATOM     30  C   UNL A   1      40.757  31.901  35.299  1.00  0.00     0.074 A 
ATOM     31  C   UNL A   1      42.406  27.691  30.838  1.00  0.00     0.029 A 
ATOM     32  N   UNL A   1      41.386  29.284  32.006  1.00  0.00    -0.354 N 
ATOM     33  N   UNL A   1      41.031  31.078  34.316  1.00  0.00    -0.248 NA
ATOM     34  C   UNL A   1      41.655  31.784  36.453  1.00  0.00     0.031 C 
ATOM     35  C   UNL A   1      43.056  27.820  32.071  1.00  0.00     0.029 A 
ATOM     36  C   UNL A   1      42.438  28.831  32.788  1.00  0.00     0.049 A 
ATOM     37  H   UNL A   1      40.756  29.996  32.264  1.00  0.00     0.167 HD
ATOM     38  C   UNL A   1      42.136  30.350  34.729  1.00  0.00     0.074 A 
ATOM     39  C   UNL A   1      42.503  30.855  36.037  1.00  0.00     0.031 C 
ATOM     40  C   UNL A   1      42.782  29.346  34.089  1.00  0.00     0.037 A 
BRANCH  27  41
ATOM     41  C   UNL A   1      40.479  27.950  28.525  1.00  0.00     0.064 A 
ATOM     42  C   UNL A   1      41.235  28.357  27.415  1.00  0.00     0.173 A 
ATOM     43  C   UNL A   1      39.870  26.686  28.472  1.00  0.00     0.173 A 
ATOM     44  F   UNL A   1      41.831  29.559  27.408  1.00  0.00    -0.203 F 
ATOM     45  C   UNL A   1      41.361  27.540  26.292  1.00  0.00     0.198 A 
ATOM     46  C   UNL A   1      40.020  25.860  27.360  1.00  0.00     0.198 A 
ATOM     47  F   UNL A   1      39.142  26.243  29.508  1.00  0.00    -0.203 F 
ATOM     48  F   UNL A   1      42.060  27.966  25.230  1.00  0.00    -0.200 F 
ATOM     49  C   UNL A   1      40.761  26.289  26.270  1.00  0.00     0.200 A 
ATOM     50  F   UNL A   1      39.450  24.647  27.346  1.00  0.00    -0.200 F 
ATOM     51  F   UNL A   1      40.895  25.500  25.195  1.00  0.00    -0.200 F 
ENDBRANCH  27  41
BRANCH  28  52
ATOM     52  C   UNL A   1      39.503  33.774  36.603  1.00  0.00     0.064 A 
ATOM     53  C   UNL A   1      40.049  35.063  36.664  1.00  0.00     0.173 A 
ATOM     54  C   UNL A   1      38.783  33.318  37.719  1.00  0.00     0.173 A 
ATOM     55  F   UNL A   1      40.758  35.539  35.629  1.00  0.00    -0.203 F 
ATOM     56  C   UNL A   1      39.899  35.855  37.801  1.00  0.00     0.198 A 
ATOM     57  C   UNL A   1      38.602  34.123  38.839  1.00  0.00     0.198 A 
ATOM     58  F   UNL A   1      38.232  32.095  37.707  1.00  0.00    -0.203 F 
ATOM     59  F   UNL A   1      40.471  37.065  37.851  1.00  0.00    -0.200 F 
ATOM     60  C   UNL A   1      39.169  35.387  38.884  1.00  0.00     0.200 A 
ATOM     61  F   UNL A   1      37.877  33.676  39.873  1.00  0.00    -0.200 F 
ATOM     62  F   UNL A   1      39.017  36.153  39.972  1.00  0.00    -0.200 F 
ENDBRANCH  28  52
BRANCH  40  63
ATOM     63  C   UNL A   1      43.965  28.750  34.795  1.00  0.00     0.064 A 
ATOM     64  C   UNL A   1      45.255  29.279  34.639  1.00  0.00     0.173 A 
ATOM     65  C   UNL A   1      43.805  27.638  35.635  1.00  0.00     0.173 A 
ATOM     66  F   UNL A   1      45.462  30.329  33.830  1.00  0.00    -0.203 F 
ATOM     67  C   UNL A   1      46.349  28.692  35.271  1.00  0.00     0.198 A 
ATOM     68  C   UNL A   1      44.895  27.074  36.288  1.00  0.00     0.198 A 
ATOM     69  F   UNL A   1      42.591  27.099  35.819  1.00  0.00    -0.203 F 
ATOM     70  F   UNL A   1      47.580  29.175  35.058  1.00  0.00    -0.200 F 
ATOM     71  C   UNL A   1      46.167  27.594  36.097  1.00  0.00     0.200 A 
ATOM     72  F   UNL A   1      44.718  26.019  37.096  1.00  0.00    -0.200 F 
ATOM     73  F   UNL A   1      47.221  27.028  36.702  1.00  0.00    -0.200 F 
ENDBRANCH  40  63
ENDBRANCH  14  15
ENDBRANCH   7   9
ENDBRANCH   4   5
ENDBRANCH   3   4
ENDBRANCH   2   3
ENDBRANCH   1   2
BRANCH   1  74
ATOM     74  C   UNL A   1      33.988  29.203  26.760  1.00  0.00     0.021 C 
BRANCH  74  75
ATOM     75  C   UNL A   1      34.048  27.958  25.874  1.00  0.00     0.116 C 
BRANCH  75  76
ATOM     76  N   UNL A   1      33.274  26.808  26.324  1.00  0.00    -0.352 N 
ATOM     77  C   UNL A   1      32.231  26.137  25.717  1.00  0.00     0.253 C 
ATOM     78  H   UNL A   1      33.537  26.452  27.203  1.00  0.00     0.163 HD
ATOM     79  O   UNL A   1      31.859  25.045  26.128  1.00  0.00    -0.269 OA
BRANCH  77  80
ATOM     80  C   UNL A   1      31.662  26.665  24.482  1.00  0.00     0.071 A 
ATOM     81  C   UNL A   1      30.585  27.553  24.711  1.00  0.00     0.018 A 
ATOM     82  C   UNL A   1      32.084  26.431  23.177  1.00  0.00     0.141 A 
ATOM     83  C   UNL A   1      29.898  28.127  23.656  1.00  0.00     0.021 A 
ATOM     84  N   UNL A   1      31.359  26.982  22.143  1.00  0.00    -0.250 NA
ATOM     85  C   UNL A   1      30.312  27.799  22.389  1.00  0.00     0.112 A 
BRANCH  82  86
ATOM     86  C   UNL A   1      33.333  25.752  22.600  1.00  0.00     0.275 C 
ATOM     87  O   UNL A   1      33.898  26.295  21.639  1.00  0.00    -0.267 OA
ATOM     88  N   UNL A   1      34.058  24.737  23.177  1.00  0.00    -0.321 N 
ATOM     89  H   UNL A   1      35.025  24.914  23.206  1.00  0.00     0.170 HD
BRANCH  88  90
ATOM     90  C   UNL A   1      33.704  23.510  23.730  1.00  0.00     0.042 A 
ATOM     91  C   UNL A   1      32.683  22.789  23.092  1.00  0.00     0.033 A 
ATOM     92  C   UNL A   1      34.317  22.999  24.868  1.00  0.00     0.033 A 
ATOM     93  C   UNL A   1      32.453  21.456  23.431  1.00  0.00     0.088 A 
ATOM     94  C   UNL A   1      34.055  21.680  25.242  1.00  0.00     0.088 A 
ATOM     95  C   UNL A   1      33.201  20.896  24.464  1.00  0.00     0.269 A 
BRANCH  95  96
ATOM     96  N   UNL A   1      33.214  19.452  24.653  1.00  0.00     0.062 N 
ATOM     97  O   UNL A   1      34.296  18.865  24.536  1.00  0.00    -0.258 OA
ATOM     98  O   UNL A   1      32.131  18.916  24.936  1.00  0.00    -0.258 OA
ENDBRANCH  95  96
ENDBRANCH  88  90
ENDBRANCH  82  86
ENDBRANCH  77  80
ENDBRANCH  75  76
ENDBRANCH  74  75
ENDBRANCH   1  74
TORSDOF 16
ENDMDL
