MODEL 1
REMARK VINA RESULT:     -12.0      0.000      0.000
REMARK SMILES O=C(Cc1ccccc1C(=O)NCCCCCCNC(=O)c1ccc(-c2c3nc(c(-c4c(F)c(F)c(F)c(F)c4F)c4ccc([nH]4)c(-c4c(F)c(F)c(F)c(F)c4F)c4nc(c(-c5c(F)c(F)c(F)c(F)c5F)c5ccc2[nH]5)C=C4)C=C3)cc1)Nc1cccc(OC[C@@H]2CCCO2)c1
REMARK SMILES IDX 13 1 12 2 10 3 11 4 9 6 4 7 5 8 6 9 8 10 7 11 3 12 2 13 1 14
REMARK SMILES IDX 85 15 86 17 87 18 98 19 88 20 90 21 89 22 91 23 92 24 93 25
REMARK SMILES IDX 94 26 97 27 95 28 96 29 14 30 15 31 16 32 17 33 18 34 19 35
REMARK SMILES IDX 20 36 21 38 22 39 23 40 84 41 24 42 83 43 25 44 26 45 27 46
REMARK SMILES IDX 77 47 28 48 82 49 76 50 78 51 29 52 81 53 75 54 74 55 30 57
REMARK SMILES IDX 62 58 42 59 61 60 43 61 46 62 60 63 79 64 44 65 45 66 59 68
REMARK SMILES IDX 80 69 47 70 31 71 32 72 40 73 33 74 34 75 38 76 41 77 35 78
REMARK SMILES IDX 36 79 39 80 37 81 63 82 64 83 72 84 65 85 66 86 70 87 73 88
REMARK SMILES IDX 67 89 68 90 71 91 69 92 48 93 49 94 57 95 50 96 51 97 55 98
REMARK SMILES IDX 58 99 52 100 53 101 56 102 54 103
REMARK H PARENT 12 5 85 16 19 37 78 56 46 67
REMARK Flexibility Score: inf
ROOT
ATOM      1  C   UNL A   1      32.793  30.475  27.167  1.00  0.00     0.116 C 
ENDROOT
BRANCH   1   2
ATOM      2  N   UNL A   1      33.194  30.082  25.834  1.00  0.00    -0.352 N 
ATOM      3  C   UNL A   1      32.783  29.274  24.818  1.00  0.00     0.251 C 
ATOM      4  O   UNL A   1      33.539  29.331  23.836  1.00  0.00    -0.269 OA
ATOM      5  H   UNL A   1      34.026  30.542  25.583  1.00  0.00     0.163 HD
BRANCH   3   6
ATOM      6  C   UNL A   1      31.581  28.369  24.699  1.00  0.00     0.043 A 
ATOM      7  C   UNL A   1      31.307  27.110  25.289  1.00  0.00    -0.026 A 
ATOM      8  C   UNL A   1      30.224  26.345  24.788  1.00  0.00     0.005 A 
ATOM      9  C   UNL A   1      29.381  26.819  23.787  1.00  0.00     0.000 A 
ATOM     10  C   UNL A   1      30.686  28.825  23.697  1.00  0.00     0.014 A 
ATOM     11  C   UNL A   1      29.601  28.073  23.251  1.00  0.00     0.001 A 
BRANCH   7  12
ATOM     12  C   UNL A   1      32.139  26.539  26.399  1.00  0.00     0.136 C 
BRANCH  12  13
ATOM     13  C   UNL A   1      32.954  25.284  26.183  1.00  0.00     0.228 C 
ATOM     14  O   UNL A   1      32.465  24.181  26.422  1.00  0.00    -0.274 OA
ATOM     15  N   UNL A   1      34.212  25.493  25.618  1.00  0.00    -0.326 N 
ATOM     16  H   UNL A   1      34.588  26.403  25.620  1.00  0.00     0.169 HD
BRANCH  15  17
ATOM     17  C   UNL A   1      34.961  24.446  25.048  1.00  0.00     0.044 A 
ATOM     18  C   UNL A   1      34.791  24.109  23.708  1.00  0.00     0.026 A 
ATOM     19  C   UNL A   1      35.899  23.757  25.821  1.00  0.00     0.072 A 
ATOM     20  C   UNL A   1      35.656  23.179  23.125  1.00  0.00     0.006 A 
ATOM     21  C   UNL A   1      36.797  22.868  25.245  1.00  0.00     0.121 A 
ATOM     22  C   UNL A   1      36.670  22.583  23.885  1.00  0.00     0.046 A 
BRANCH  21  23
ATOM     23  O   UNL A   1      37.846  22.273  25.887  1.00  0.00    -0.491 OA
BRANCH  23  24
ATOM     24  C   UNL A   1      38.863  23.102  26.465  1.00  0.00     0.261 C 
BRANCH  24  25
ATOM     25  C   UNL A   1      40.104  22.350  26.957  1.00  0.00     0.156 C 
ATOM     26  C   UNL A   1      41.081  23.163  27.780  1.00  0.00     0.038 C 
ATOM     27  O   UNL A   1      40.873  21.823  25.857  1.00  0.00    -0.375 OA
ATOM     28  C   UNL A   1      42.300  22.272  27.712  1.00  0.00     0.031 C 
ATOM     29  C   UNL A   1      42.240  21.735  26.295  1.00  0.00     0.161 C 
ENDBRANCH  24  25
ENDBRANCH  23  24
ENDBRANCH  21  23
ENDBRANCH  15  17
ENDBRANCH  12  13
ENDBRANCH   7  12
ENDBRANCH   3   6
ENDBRANCH   1   2
BRANCH   1  30
ATOM     30  C   UNL A   1      33.225  31.921  27.450  1.00  0.00     0.021 C 
BRANCH  30  31
ATOM     31  C   UNL A   1      34.340  32.019  28.493  1.00  0.00     0.002 C 
BRANCH  31  32
ATOM     32  C   UNL A   1      34.528  33.429  29.059  1.00  0.00     0.002 C 
BRANCH  32  33
ATOM     33  C   UNL A   1      33.271  34.304  29.026  1.00  0.00     0.021 C 
BRANCH  33  34
ATOM     34  C   UNL A   1      33.524  35.781  29.310  1.00  0.00     0.116 C 
BRANCH  34  35
ATOM     35  N   UNL A   1      32.685  36.268  30.399  1.00  0.00    -0.352 N 
ATOM     36  C   UNL A   1      32.664  35.875  31.712  1.00  0.00     0.251 C 
ATOM     37  H   UNL A   1      32.045  36.976  30.158  1.00  0.00     0.163 HD
ATOM     38  O   UNL A   1      31.730  36.191  32.449  1.00  0.00    -0.269 OA
BRANCH  36  39
ATOM     39  C   UNL A   1      33.778  35.068  32.240  1.00  0.00     0.039 A 
ATOM     40  C   UNL A   1      33.539  33.785  32.739  1.00  0.00     0.014 A 
ATOM     41  C   UNL A   1      35.070  35.594  32.232  1.00  0.00     0.014 A 
ATOM     42  C   UNL A   1      34.612  33.001  33.171  1.00  0.00     0.010 A 
ATOM     43  C   UNL A   1      36.138  34.788  32.594  1.00  0.00     0.010 A 
ATOM     44  C   UNL A   1      35.923  33.488  33.072  1.00  0.00    -0.014 A 
BRANCH  44  45
ATOM     45  C   UNL A   1      37.112  32.696  33.472  1.00  0.00     0.031 A 
ATOM     46  C   UNL A   1      37.818  33.025  34.758  1.00  0.00     0.074 A 
ATOM     47  C   UNL A   1      37.630  31.786  32.626  1.00  0.00     0.049 A 
ATOM     48  N   UNL A   1      38.965  32.591  35.213  1.00  0.00    -0.248 NA
ATOM     49  C   UNL A   1      37.161  34.011  35.633  1.00  0.00     0.031 C 
ATOM     50  C   UNL A   1      37.067  31.421  31.326  1.00  0.00     0.029 A 
ATOM     51  N   UNL A   1      38.766  31.024  32.723  1.00  0.00    -0.354 N 
ATOM     52  C   UNL A   1      39.178  33.270  36.406  1.00  0.00     0.074 A 
ATOM     53  C   UNL A   1      38.072  34.186  36.576  1.00  0.00     0.031 C 
ATOM     54  C   UNL A   1      37.852  30.494  30.753  1.00  0.00     0.029 A 
ATOM     55  C   UNL A   1      38.995  30.234  31.623  1.00  0.00     0.049 A 
ATOM     56  H   UNL A   1      39.362  31.041  33.507  1.00  0.00     0.167 HD
ATOM     57  C   UNL A   1      40.191  33.124  37.291  1.00  0.00     0.037 A 
ATOM     58  C   UNL A   1      40.019  29.405  31.347  1.00  0.00     0.037 A 
ATOM     59  C   UNL A   1      41.271  32.187  37.128  1.00  0.00     0.049 A 
ATOM     60  C   UNL A   1      41.136  29.259  32.346  1.00  0.00     0.074 A 
ATOM     61  C   UNL A   1      42.317  31.916  37.992  1.00  0.00     0.029 A 
ATOM     62  N   UNL A   1      41.441  31.367  36.022  1.00  0.00    -0.354 N 
ATOM     63  N   UNL A   1      41.295  29.854  33.503  1.00  0.00    -0.248 NA
ATOM     64  C   UNL A   1      42.213  28.319  32.005  1.00  0.00     0.031 C 
ATOM     65  C   UNL A   1      43.145  30.965  37.389  1.00  0.00     0.029 A 
ATOM     66  C   UNL A   1      42.584  30.600  36.175  1.00  0.00     0.049 A 
ATOM     67  H   UNL A   1      40.839  31.336  35.244  1.00  0.00     0.167 HD
ATOM     68  C   UNL A   1      42.464  29.334  34.044  1.00  0.00     0.074 A 
ATOM     69  C   UNL A   1      42.973  28.371  33.090  1.00  0.00     0.031 C 
ATOM     70  C   UNL A   1      43.058  29.625  35.226  1.00  0.00     0.037 A 
BRANCH  57  71
ATOM     71  C   UNL A   1      40.175  33.992  38.517  1.00  0.00     0.064 A 
ATOM     72  C   UNL A   1      39.428  33.646  39.654  1.00  0.00     0.173 A 
ATOM     73  C   UNL A   1      40.932  35.172  38.565  1.00  0.00     0.173 A 
ATOM     74  F   UNL A   1      38.678  32.533  39.657  1.00  0.00    -0.203 F 
ATOM     75  C   UNL A   1      39.410  34.466  40.779  1.00  0.00     0.198 A 
ATOM     76  C   UNL A   1      40.940  35.973  39.705  1.00  0.00     0.198 A 
ATOM     77  F   UNL A   1      41.669  35.548  37.510  1.00  0.00    -0.203 F 
ATOM     78  F   UNL A   1      38.643  34.145  41.829  1.00  0.00    -0.200 F 
ATOM     79  C   UNL A   1      40.172  35.625  40.806  1.00  0.00     0.200 A 
ATOM     80  F   UNL A   1      41.688  37.084  39.736  1.00  0.00    -0.200 F 
ATOM     81  F   UNL A   1      40.159  36.411  41.891  1.00  0.00    -0.200 F 
ENDBRANCH  57  71
BRANCH  58  82
ATOM     82  C   UNL A   1      40.019  28.620  30.084  1.00  0.00     0.064 A 
ATOM     83  C   UNL A   1      40.623  29.131  28.926  1.00  0.00     0.173 A 
ATOM     84  C   UNL A   1      39.423  27.353  30.005  1.00  0.00     0.173 A 
ATOM     85  F   UNL A   1      41.189  30.345  28.947  1.00  0.00    -0.203 F 
ATOM     86  C   UNL A   1      40.610  28.413  27.731  1.00  0.00     0.198 A 
ATOM     87  C   UNL A   1      39.437  26.625  28.817  1.00  0.00     0.198 A 
ATOM     88  F   UNL A   1      38.838  26.817  31.086  1.00  0.00    -0.203 F 
ATOM     89  F   UNL A   1      41.153  28.946  26.628  1.00  0.00    -0.200 F 
ATOM     90  C   UNL A   1      40.022  27.160  27.679  1.00  0.00     0.200 A 
ATOM     91  F   UNL A   1      38.881  25.406  28.773  1.00  0.00    -0.200 F 
ATOM     92  F   UNL A   1      40.013  26.468  26.531  1.00  0.00    -0.200 F 
ENDBRANCH  58  82
BRANCH  70  93
ATOM     93  C   UNL A   1      44.290  28.850  35.596  1.00  0.00     0.064 A 
ATOM     94  C   UNL A   1      44.222  27.646  36.309  1.00  0.00     0.173 A 
ATOM     95  C   UNL A   1      45.551  29.288  35.160  1.00  0.00     0.173 A 
ATOM     96  F   UNL A   1      43.042  27.193  36.759  1.00  0.00    -0.203 F 
ATOM     97  C   UNL A   1      45.374  26.915  36.587  1.00  0.00     0.198 A 
ATOM     98  C   UNL A   1      46.696  28.539  35.413  1.00  0.00     0.198 A 
ATOM     99  F   UNL A   1      45.668  30.431  34.467  1.00  0.00    -0.203 F 
ATOM    100  F   UNL A   1      45.292  25.784  37.302  1.00  0.00    -0.200 F 
ATOM    101  C   UNL A   1      46.608  27.356  36.130  1.00  0.00     0.200 A 
ATOM    102  F   UNL A   1      47.884  28.960  34.957  1.00  0.00    -0.200 F 
ATOM    103  F   UNL A   1      47.713  26.641  36.383  1.00  0.00    -0.200 F 
ENDBRANCH  70  93
ENDBRANCH  44  45
ENDBRANCH  36  39
ENDBRANCH  34  35
ENDBRANCH  33  34
ENDBRANCH  32  33
ENDBRANCH  31  32
ENDBRANCH  30  31
ENDBRANCH   1  30
TORSDOF 19
ENDMDL
MODEL 2
REMARK VINA RESULT:     -11.8      5.679     11.979
REMARK SMILES O=C(Cc1ccccc1C(=O)NCCCCCCNC(=O)c1ccc(-c2c3nc(c(-c4c(F)c(F)c(F)c(F)c4F)c4ccc([nH]4)c(-c4c(F)c(F)c(F)c(F)c4F)c4nc(c(-c5c(F)c(F)c(F)c(F)c5F)c5ccc2[nH]5)C=C4)C=C3)cc1)Nc1cccc(OC[C@@H]2CCCO2)c1
REMARK SMILES IDX 13 1 12 2 10 3 11 4 9 6 4 7 5 8 6 9 8 10 7 11 3 12 2 13 1 14
REMARK SMILES IDX 85 15 86 17 87 18 98 19 88 20 90 21 89 22 91 23 92 24 93 25
REMARK SMILES IDX 94 26 97 27 95 28 96 29 14 30 15 31 16 32 17 33 18 34 19 35
REMARK SMILES IDX 20 36 21 38 22 39 23 40 84 41 24 42 83 43 25 44 26 45 27 46
REMARK SMILES IDX 77 47 28 48 82 49 76 50 78 51 29 52 81 53 75 54 74 55 30 57
REMARK SMILES IDX 62 58 42 59 61 60 43 61 46 62 60 63 79 64 44 65 45 66 59 68
REMARK SMILES IDX 80 69 47 70 31 71 32 72 40 73 33 74 34 75 38 76 41 77 35 78
REMARK SMILES IDX 36 79 39 80 37 81 63 82 64 83 72 84 65 85 66 86 70 87 73 88
REMARK SMILES IDX 67 89 68 90 71 91 69 92 48 93 49 94 57 95 50 96 51 97 55 98
REMARK SMILES IDX 58 99 52 100 53 101 56 102 54 103
REMARK H PARENT 12 5 85 16 19 37 78 56 46 67
REMARK Flexibility Score: inf
ROOT
ATOM      1  C   UNL A   1      35.834  23.927  24.825  1.00  0.00     0.116 C 
ENDROOT
BRANCH   1   2
ATOM      2  N   UNL A   1      34.712  23.627  25.686  1.00  0.00    -0.352 N 
ATOM      3  C   UNL A   1      33.711  22.713  25.814  1.00  0.00     0.251 C 
ATOM      4  O   UNL A   1      32.993  22.934  26.800  1.00  0.00    -0.269 OA
ATOM      5  H   UNL A   1      34.652  24.295  26.406  1.00  0.00     0.163 HD
BRANCH   3   6
ATOM      6  C   UNL A   1      33.367  21.502  24.981  1.00  0.00     0.043 A 
ATOM      7  C   UNL A   1      32.860  21.399  23.661  1.00  0.00    -0.026 A 
ATOM      8  C   UNL A   1      32.359  20.148  23.221  1.00  0.00     0.005 A 
ATOM      9  C   UNL A   1      32.415  19.005  24.014  1.00  0.00     0.000 A 
ATOM     10  C   UNL A   1      33.426  20.311  25.749  1.00  0.00     0.014 A 
ATOM     11  C   UNL A   1      32.967  19.082  25.277  1.00  0.00     0.001 A 
BRANCH   7  12
ATOM     12  C   UNL A   1      32.799  22.569  22.725  1.00  0.00     0.136 C 
BRANCH  12  13
ATOM     13  C   UNL A   1      31.847  23.715  22.985  1.00  0.00     0.228 C 
ATOM     14  O   UNL A   1      30.728  23.497  23.447  1.00  0.00    -0.274 OA
ATOM     15  N   UNL A   1      32.380  24.982  22.753  1.00  0.00    -0.326 N 
ATOM     16  H   UNL A   1      33.209  25.060  22.226  1.00  0.00     0.169 HD
BRANCH  15  17
ATOM     17  C   UNL A   1      31.773  26.153  23.246  1.00  0.00     0.044 A 
ATOM     18  C   UNL A   1      32.253  26.761  24.403  1.00  0.00     0.026 A 
ATOM     19  C   UNL A   1      30.698  26.723  22.559  1.00  0.00     0.072 A 
ATOM     20  C   UNL A   1      31.740  28.004  24.781  1.00  0.00     0.006 A 
ATOM     21  C   UNL A   1      30.212  27.981  22.895  1.00  0.00     0.121 A 
ATOM     22  C   UNL A   1      30.744  28.621  24.015  1.00  0.00     0.046 A 
BRANCH  21  23
ATOM     23  O   UNL A   1      29.280  28.686  22.187  1.00  0.00    -0.491 OA
BRANCH  23  24
ATOM     24  C   UNL A   1      28.166  29.255  22.888  1.00  0.00     0.261 C 
BRANCH  24  25
ATOM     25  C   UNL A   1      27.786  30.674  22.448  1.00  0.00     0.156 C 
ATOM     26  C   UNL A   1      28.167  31.045  21.030  1.00  0.00     0.038 C 
ATOM     27  O   UNL A   1      28.405  31.670  23.287  1.00  0.00    -0.375 OA
ATOM     28  C   UNL A   1      28.041  32.549  21.101  1.00  0.00     0.031 C 
ATOM     29  C   UNL A   1      28.557  32.860  22.493  1.00  0.00     0.161 C 
ENDBRANCH  24  25
ENDBRANCH  23  24
ENDBRANCH  21  23
ENDBRANCH  15  17
ENDBRANCH  12  13
ENDBRANCH   7  12
ENDBRANCH   3   6
ENDBRANCH   1   2
BRANCH   1  30
ATOM     30  C   UNL A   1      36.265  22.673  24.052  1.00  0.00     0.021 C 
BRANCH  30  31
ATOM     31  C   UNL A   1      37.322  21.848  24.789  1.00  0.00     0.002 C 
BRANCH  31  32
ATOM     32  C   UNL A   1      36.982  20.358  24.882  1.00  0.00     0.002 C 
BRANCH  32  33
ATOM     33  C   UNL A   1      38.174  19.447  25.183  1.00  0.00     0.021 C 
BRANCH  33  34
ATOM     34  C   UNL A   1      39.455  20.187  25.558  1.00  0.00     0.116 C 
BRANCH  34  35
ATOM     35  N   UNL A   1      40.407  19.306  26.222  1.00  0.00    -0.352 N 
ATOM     36  C   UNL A   1      41.676  19.582  26.661  1.00  0.00     0.251 C 
ATOM     37  H   UNL A   1      40.097  18.384  26.377  1.00  0.00     0.163 HD
ATOM     38  O   UNL A   1      42.449  18.673  26.967  1.00  0.00    -0.269 OA
BRANCH  36  39
ATOM     39  C   UNL A   1      42.111  20.985  26.769  1.00  0.00     0.039 A 
ATOM     40  C   UNL A   1      42.286  21.755  25.616  1.00  0.00     0.014 A 
ATOM     41  C   UNL A   1      42.340  21.538  28.029  1.00  0.00     0.014 A 
ATOM     42  C   UNL A   1      42.629  23.105  25.732  1.00  0.00     0.010 A 
ATOM     43  C   UNL A   1      42.609  22.893  28.142  1.00  0.00     0.010 A 
ATOM     44  C   UNL A   1      42.763  23.689  27.000  1.00  0.00    -0.014 A 
BRANCH  44  45
ATOM     45  C   UNL A   1      43.084  25.125  27.198  1.00  0.00     0.031 A 
ATOM     46  C   UNL A   1      44.467  25.620  26.882  1.00  0.00     0.074 A 
ATOM     47  C   UNL A   1      42.186  25.939  27.783  1.00  0.00     0.049 A 
ATOM     48  N   UNL A   1      45.016  26.779  27.143  1.00  0.00    -0.248 NA
ATOM     49  C   UNL A   1      45.370  24.666  26.216  1.00  0.00     0.031 C 
ATOM     50  C   UNL A   1      40.833  25.559  28.187  1.00  0.00     0.029 A 
ATOM     51  N   UNL A   1      42.292  27.252  28.167  1.00  0.00    -0.354 N 
ATOM     52  C   UNL A   1      46.329  26.680  26.702  1.00  0.00     0.074 A 
ATOM     53  C   UNL A   1      46.512  25.333  26.209  1.00  0.00     0.031 C 
ATOM     54  C   UNL A   1      40.229  26.619  28.749  1.00  0.00     0.029 A 
ATOM     55  C   UNL A   1      41.165  27.738  28.785  1.00  0.00     0.049 A 
ATOM     56  H   UNL A   1      43.099  27.796  28.014  1.00  0.00     0.167 HD
ATOM     57  C   UNL A   1      47.289  27.635  26.686  1.00  0.00     0.037 A 
ATOM     58  C   UNL A   1      40.925  28.945  29.330  1.00  0.00     0.037 A 
ATOM     59  C   UNL A   1      47.088  28.982  27.151  1.00  0.00     0.049 A 
ATOM     60  C   UNL A   1      42.007  29.992  29.301  1.00  0.00     0.074 A 
ATOM     61  C   UNL A   1      47.973  30.045  27.126  1.00  0.00     0.029 A 
ATOM     62  N   UNL A   1      45.916  29.450  27.725  1.00  0.00    -0.354 N 
ATOM     63  N   UNL A   1      43.224  29.912  28.821  1.00  0.00    -0.248 NA
ATOM     64  C   UNL A   1      41.680  31.301  29.884  1.00  0.00     0.031 C 
ATOM     65  C   UNL A   1      47.353  31.144  27.726  1.00  0.00     0.029 A 
ATOM     66  C   UNL A   1      46.060  30.783  28.072  1.00  0.00     0.049 A 
ATOM     67  H   UNL A   1      45.102  28.914  27.865  1.00  0.00     0.167 HD
ATOM     68  C   UNL A   1      43.793  31.166  29.007  1.00  0.00     0.074 A 
ATOM     69  C   UNL A   1      42.786  31.990  29.642  1.00  0.00     0.031 C 
ATOM     70  C   UNL A   1      45.034  31.596  28.677  1.00  0.00     0.037 A 
BRANCH  57  71
ATOM     71  C   UNL A   1      48.638  27.257  26.145  1.00  0.00     0.064 A 
ATOM     72  C   UNL A   1      49.665  26.796  26.982  1.00  0.00     0.173 A 
ATOM     73  C   UNL A   1      48.901  27.335  24.769  1.00  0.00     0.173 A 
ATOM     74  F   UNL A   1      49.469  26.712  28.308  1.00  0.00    -0.203 F 
ATOM     75  C   UNL A   1      50.915  26.462  26.470  1.00  0.00     0.198 A 
ATOM     76  C   UNL A   1      50.141  26.966  24.254  1.00  0.00     0.198 A 
ATOM     77  F   UNL A   1      47.954  27.763  23.921  1.00  0.00    -0.203 F 
ATOM     78  F   UNL A   1      51.898  26.080  27.297  1.00  0.00    -0.200 F 
ATOM     79  C   UNL A   1      51.150  26.541  25.105  1.00  0.00     0.200 A 
ATOM     80  F   UNL A   1      50.363  27.028  22.934  1.00  0.00    -0.200 F 
ATOM     81  F   UNL A   1      52.352  26.213  24.611  1.00  0.00    -0.200 F 
ENDBRANCH  57  71
BRANCH  58  82
ATOM     82  C   UNL A   1      39.592  29.243  29.916  1.00  0.00     0.064 A 
ATOM     83  C   UNL A   1      39.330  28.976  31.267  1.00  0.00     0.173 A 
ATOM     84  C   UNL A   1      38.558  29.798  29.148  1.00  0.00     0.173 A 
ATOM     85  F   UNL A   1      40.281  28.428  32.037  1.00  0.00    -0.203 F 
ATOM     86  C   UNL A   1      38.078  29.231  31.822  1.00  0.00     0.198 A 
ATOM     87  C   UNL A   1      37.315  30.079  29.713  1.00  0.00     0.198 A 
ATOM     88  F   UNL A   1      38.758  30.079  27.852  1.00  0.00    -0.203 F 
ATOM     89  F   UNL A   1      37.841  28.922  33.105  1.00  0.00    -0.200 F 
ATOM     90  C   UNL A   1      37.074  29.787  31.047  1.00  0.00     0.200 A 
ATOM     91  F   UNL A   1      36.350  30.631  28.964  1.00  0.00    -0.200 F 
ATOM     92  F   UNL A   1      35.870  30.036  31.582  1.00  0.00    -0.200 F 
ENDBRANCH  58  82
BRANCH  70  93
ATOM     93  C   UNL A   1      45.362  33.039  28.930  1.00  0.00     0.064 A 
ATOM     94  C   UNL A   1      46.017  33.456  30.096  1.00  0.00     0.173 A 
ATOM     95  C   UNL A   1      45.080  34.004  27.950  1.00  0.00     0.173 A 
ATOM     96  F   UNL A   1      46.296  32.574  31.067  1.00  0.00    -0.203 F 
ATOM     97  C   UNL A   1      46.365  34.792  30.280  1.00  0.00     0.198 A 
ATOM     98  C   UNL A   1      45.456  35.333  28.125  1.00  0.00     0.198 A 
ATOM     99  F   UNL A   1      44.461  33.654  26.813  1.00  0.00    -0.203 F 
ATOM    100  F   UNL A   1      46.959  35.177  31.418  1.00  0.00    -0.200 F 
ATOM    101  C   UNL A   1      46.094  35.727  29.290  1.00  0.00     0.200 A 
ATOM    102  F   UNL A   1      45.207  36.230  27.160  1.00  0.00    -0.200 F 
ATOM    103  F   UNL A   1      46.446  37.008  29.463  1.00  0.00    -0.200 F 
ENDBRANCH  70  93
ENDBRANCH  44  45
ENDBRANCH  36  39
ENDBRANCH  34  35
ENDBRANCH  33  34
ENDBRANCH  32  33
ENDBRANCH  31  32
ENDBRANCH  30  31
ENDBRANCH   1  30
TORSDOF 19
ENDMDL
MODEL 3
REMARK VINA RESULT:     -11.7      5.878     11.221
REMARK SMILES O=C(Cc1ccccc1C(=O)NCCCCCCNC(=O)c1ccc(-c2c3nc(c(-c4c(F)c(F)c(F)c(F)c4F)c4ccc([nH]4)c(-c4c(F)c(F)c(F)c(F)c4F)c4nc(c(-c5c(F)c(F)c(F)c(F)c5F)c5ccc2[nH]5)C=C4)C=C3)cc1)Nc1cccc(OC[C@@H]2CCCO2)c1
REMARK SMILES IDX 13 1 12 2 10 3 11 4 9 6 4 7 5 8 6 9 8 10 7 11 3 12 2 13 1 14
REMARK SMILES IDX 85 15 86 17 87 18 98 19 88 20 90 21 89 22 91 23 92 24 93 25
REMARK SMILES IDX 94 26 97 27 95 28 96 29 14 30 15 31 16 32 17 33 18 34 19 35
REMARK SMILES IDX 20 36 21 38 22 39 23 40 84 41 24 42 83 43 25 44 26 45 27 46
REMARK SMILES IDX 77 47 28 48 82 49 76 50 78 51 29 52 81 53 75 54 74 55 30 57
REMARK SMILES IDX 62 58 42 59 61 60 43 61 46 62 60 63 79 64 44 65 45 66 59 68
REMARK SMILES IDX 80 69 47 70 31 71 32 72 40 73 33 74 34 75 38 76 41 77 35 78
REMARK SMILES IDX 36 79 39 80 37 81 63 82 64 83 72 84 65 85 66 86 70 87 73 88
REMARK SMILES IDX 67 89 68 90 71 91 69 92 48 93 49 94 57 95 50 96 51 97 55 98
REMARK SMILES IDX 58 99 52 100 53 101 56 102 54 103
REMARK H PARENT 12 5 85 16 19 37 78 56 46 67
REMARK Flexibility Score: inf
ROOT
ATOM      1  C   UNL A   1      35.393  23.737  25.645  1.00  0.00     0.116 C 
ENDROOT
BRANCH   1   2
ATOM      2  N   UNL A   1      34.083  23.415  26.165  1.00  0.00    -0.352 N 
ATOM      3  C   UNL A   1      33.099  22.486  26.011  1.00  0.00     0.251 C 
ATOM      4  O   UNL A   1      32.136  22.690  26.766  1.00  0.00    -0.269 OA
ATOM      5  H   UNL A   1      33.819  24.076  26.845  1.00  0.00     0.163 HD
BRANCH   3   6
ATOM      6  C   UNL A   1      33.013  21.278  25.111  1.00  0.00     0.043 A 
ATOM      7  C   UNL A   1      32.689  21.170  23.736  1.00  0.00    -0.026 A 
ATOM      8  C   UNL A   1      32.405  19.886  23.203  1.00  0.00     0.005 A 
ATOM      9  C   UNL A   1      32.505  18.727  23.967  1.00  0.00     0.000 A 
ATOM     10  C   UNL A   1      33.125  20.073  25.849  1.00  0.00     0.014 A 
ATOM     11  C   UNL A   1      32.885  18.817  25.292  1.00  0.00     0.001 A 
BRANCH   7  12
ATOM     12  C   UNL A   1      32.598  22.361  22.829  1.00  0.00     0.136 C 
BRANCH  12  13
ATOM     13  C   UNL A   1      31.784  23.572  23.228  1.00  0.00     0.228 C 
ATOM     14  O   UNL A   1      30.625  23.437  23.617  1.00  0.00    -0.274 OA
ATOM     15  N   UNL A   1      32.483  24.778  23.206  1.00  0.00    -0.326 N 
ATOM     16  H   UNL A   1      33.340  24.823  22.723  1.00  0.00     0.169 HD
BRANCH  15  17
ATOM     17  C   UNL A   1      32.002  25.935  23.850  1.00  0.00     0.044 A 
ATOM     18  C   UNL A   1      32.716  26.503  24.901  1.00  0.00     0.026 A 
ATOM     19  C   UNL A   1      30.815  26.532  23.417  1.00  0.00     0.072 A 
ATOM     20  C   UNL A   1      32.305  27.735  25.416  1.00  0.00     0.006 A 
ATOM     21  C   UNL A   1      30.422  27.779  23.885  1.00  0.00     0.121 A 
ATOM     22  C   UNL A   1      31.179  28.381  24.890  1.00  0.00     0.046 A 
BRANCH  21  23
ATOM     23  O   UNL A   1      29.371  28.510  23.407  1.00  0.00    -0.491 OA
BRANCH  23  24
ATOM     24  C   UNL A   1      29.599  29.422  22.324  1.00  0.00     0.261 C 
BRANCH  24  25
ATOM     25  C   UNL A   1      28.690  30.656  22.319  1.00  0.00     0.156 C 
ATOM     26  C   UNL A   1      28.553  31.365  20.988  1.00  0.00     0.038 C 
ATOM     27  O   UNL A   1      29.156  31.659  23.244  1.00  0.00    -0.375 OA
ATOM     28  C   UNL A   1      27.981  32.688  21.444  1.00  0.00     0.031 C 
ATOM     29  C   UNL A   1      28.714  32.935  22.749  1.00  0.00     0.161 C 
ENDBRANCH  24  25
ENDBRANCH  23  24
ENDBRANCH  21  23
ENDBRANCH  15  17
ENDBRANCH  12  13
ENDBRANCH   7  12
ENDBRANCH   3   6
ENDBRANCH   1   2
BRANCH   1  30
ATOM     30  C   UNL A   1      35.791  22.741  24.546  1.00  0.00     0.021 C 
BRANCH  30  31
ATOM     31  C   UNL A   1      36.966  21.846  24.945  1.00  0.00     0.002 C 
BRANCH  31  32
ATOM     32  C   UNL A   1      36.650  20.349  24.863  1.00  0.00     0.002 C 
BRANCH  32  33
ATOM     33  C   UNL A   1      37.868  19.431  24.991  1.00  0.00     0.021 C 
BRANCH  33  34
ATOM     34  C   UNL A   1      39.041  20.041  25.752  1.00  0.00     0.116 C 
BRANCH  34  35
ATOM     35  N   UNL A   1      40.164  19.115  25.837  1.00  0.00    -0.352 N 
ATOM     36  C   UNL A   1      41.496  19.389  26.006  1.00  0.00     0.251 C 
ATOM     37  H   UNL A   1      39.934  18.160  25.761  1.00  0.00     0.163 HD
ATOM     38  O   UNL A   1      42.348  18.524  25.800  1.00  0.00    -0.269 OA
BRANCH  36  39
ATOM     39  C   UNL A   1      41.905  20.735  26.444  1.00  0.00     0.039 A 
ATOM     40  C   UNL A   1      42.156  20.986  27.795  1.00  0.00     0.014 A 
ATOM     41  C   UNL A   1      42.043  21.752  25.498  1.00  0.00     0.014 A 
ATOM     42  C   UNL A   1      42.612  22.247  28.190  1.00  0.00     0.010 A 
ATOM     43  C   UNL A   1      42.563  22.977  25.884  1.00  0.00     0.010 A 
ATOM     44  C   UNL A   1      42.846  23.242  27.230  1.00  0.00    -0.014 A 
BRANCH  44  45
ATOM     45  C   UNL A   1      43.369  24.588  27.573  1.00  0.00     0.031 A 
ATOM     46  C   UNL A   1      42.427  25.630  28.106  1.00  0.00     0.074 A 
ATOM     47  C   UNL A   1      44.643  24.909  27.280  1.00  0.00     0.049 A 
ATOM     48  N   UNL A   1      42.623  26.909  28.300  1.00  0.00    -0.248 NA
ATOM     49  C   UNL A   1      41.061  25.178  28.424  1.00  0.00     0.031 C 
ATOM     50  C   UNL A   1      45.637  24.000  26.708  1.00  0.00     0.029 A 
ATOM     51  N   UNL A   1      45.311  26.101  27.396  1.00  0.00    -0.354 N 
ATOM     52  C   UNL A   1      41.404  27.415  28.733  1.00  0.00     0.074 A 
ATOM     53  C   UNL A   1      40.460  26.320  28.719  1.00  0.00     0.031 C 
ATOM     54  C   UNL A   1      46.791  24.664  26.537  1.00  0.00     0.029 A 
ATOM     55  C   UNL A   1      46.607  26.053  26.944  1.00  0.00     0.049 A 
ATOM     56  H   UNL A   1      44.900  26.916  27.769  1.00  0.00     0.167 HD
ATOM     57  C   UNL A   1      41.106  28.674  29.132  1.00  0.00     0.037 A 
ATOM     58  C   UNL A   1      47.534  27.026  26.858  1.00  0.00     0.037 A 
ATOM     59  C   UNL A   1      42.060  29.750  29.172  1.00  0.00     0.049 A 
ATOM     60  C   UNL A   1      47.180  28.419  27.306  1.00  0.00     0.074 A 
ATOM     61  C   UNL A   1      41.880  31.048  29.614  1.00  0.00     0.029 A 
ATOM     62  N   UNL A   1      43.379  29.649  28.753  1.00  0.00    -0.354 N 
ATOM     63  N   UNL A   1      46.045  28.874  27.779  1.00  0.00    -0.248 NA
ATOM     64  C   UNL A   1      48.239  29.434  27.217  1.00  0.00     0.031 C 
ATOM     65  C   UNL A   1      43.075  31.745  29.421  1.00  0.00     0.029 A 
ATOM     66  C   UNL A   1      44.019  30.866  28.912  1.00  0.00     0.049 A 
ATOM     67  H   UNL A   1      43.797  28.833  28.395  1.00  0.00     0.167 HD
ATOM     68  C   UNL A   1      46.264  30.213  28.079  1.00  0.00     0.074 A 
ATOM     69  C   UNL A   1      47.642  30.497  27.738  1.00  0.00     0.031 C 
ATOM     70  C   UNL A   1      45.401  31.122  28.595  1.00  0.00     0.037 A 
BRANCH  57  71
ATOM     71  C   UNL A   1      39.694  28.952  29.561  1.00  0.00     0.064 A 
ATOM     72  C   UNL A   1      38.729  29.421  28.656  1.00  0.00     0.173 A 
ATOM     73  C   UNL A   1      39.293  28.725  30.886  1.00  0.00     0.173 A 
ATOM     74  F   UNL A   1      39.061  29.664  27.379  1.00  0.00    -0.203 F 
ATOM     75  C   UNL A   1      37.426  29.688  29.069  1.00  0.00     0.198 A 
ATOM     76  C   UNL A   1      37.980  28.959  31.288  1.00  0.00     0.198 A 
ATOM     77  F   UNL A   1      40.172  28.271  31.791  1.00  0.00    -0.203 F 
ATOM     78  F   UNL A   1      36.539  30.191  28.201  1.00  0.00    -0.200 F 
ATOM     79  C   UNL A   1      37.052  29.450  30.383  1.00  0.00     0.200 A 
ATOM     80  F   UNL A   1      37.616  28.715  32.554  1.00  0.00    -0.200 F 
ATOM     81  F   UNL A   1      35.796  29.702  30.779  1.00  0.00    -0.200 F 
ENDBRANCH  57  71
BRANCH  58  82
ATOM     82  C   UNL A   1      48.899  26.709  26.360  1.00  0.00     0.064 A 
ATOM     83  C   UNL A   1      49.238  26.933  25.018  1.00  0.00     0.173 A 
ATOM     84  C   UNL A   1      49.886  26.182  27.204  1.00  0.00     0.173 A 
ATOM     85  F   UNL A   1      48.322  27.418  24.168  1.00  0.00    -0.203 F 
ATOM     86  C   UNL A   1      50.507  26.620  24.535  1.00  0.00     0.198 A 
ATOM     87  C   UNL A   1      51.163  25.897  26.726  1.00  0.00     0.198 A 
ATOM     88  F   UNL A   1      49.615  25.955  28.498  1.00  0.00    -0.203 F 
ATOM     89  F   UNL A   1      50.790  26.800  23.237  1.00  0.00    -0.200 F 
ATOM     90  C   UNL A   1      51.470  26.108  25.390  1.00  0.00     0.200 A 
ATOM     91  F   UNL A   1      52.097  25.416  27.558  1.00  0.00    -0.200 F 
ATOM     92  F   UNL A   1      52.692  25.810  24.925  1.00  0.00    -0.200 F 
ENDBRANCH  58  82
BRANCH  70  93
ATOM     93  C   UNL A   1      45.931  32.495  28.889  1.00  0.00     0.064 A 
ATOM     94  C   UNL A   1      45.865  33.532  27.949  1.00  0.00     0.173 A 
ATOM     95  C   UNL A   1      46.445  32.791  30.163  1.00  0.00     0.173 A 
ATOM     96  F   UNL A   1      45.395  33.297  26.715  1.00  0.00    -0.203 F 
ATOM     97  C   UNL A   1      46.308  34.813  28.268  1.00  0.00     0.198 A 
ATOM     98  C   UNL A   1      46.858  34.079  30.487  1.00  0.00     0.198 A 
ATOM     99  F   UNL A   1      46.522  31.834  31.100  1.00  0.00    -0.203 F 
ATOM    100  F   UNL A   1      46.269  35.783  27.344  1.00  0.00    -0.200 F 
ATOM    101  C   UNL A   1      46.794  35.088  29.539  1.00  0.00     0.200 A 
ATOM    102  F   UNL A   1      47.312  34.345  31.720  1.00  0.00    -0.200 F 
ATOM    103  F   UNL A   1      47.202  36.326  29.848  1.00  0.00    -0.200 F 
ENDBRANCH  70  93
ENDBRANCH  44  45
ENDBRANCH  36  39
ENDBRANCH  34  35
ENDBRANCH  33  34
ENDBRANCH  32  33
ENDBRANCH  31  32
ENDBRANCH  30  31
ENDBRANCH   1  30
TORSDOF 19
ENDMDL
