MODEL 1
REMARK VINA RESULT:     -10.9      0.000      0.000
REMARK SMILES Cc1cc(F)c([C@@H](C)[N@H+](CCC(=O)NCCCCCCNC(=O)c2ccc(-c3c4nc(c(-c5c(F)c(F)c(F)c(F)c5F)c5ccc([nH]5)c(-c5c(F)c(F)c(F)c(F)c5F)c5nc(c(-c6c(F)c(F)c(F)c(F)c6F)c6ccc3[nH]6)C=C5)C=C4)cc2)C(C)(C)C)cc1F
REMARK SMILES IDX 16 1 15 2 14 3 12 4 13 5 11 7 10 8 9 9 7 11 8 12 6 13 1 14
REMARK SMILES IDX 2 15 3 16 92 17 4 18 91 19 93 20 5 21 87 22 88 23 89 24
REMARK SMILES IDX 90 25 17 26 18 27 19 28 20 29 21 30 22 31 23 33 24 34 25 35
REMARK SMILES IDX 86 36 26 37 85 38 27 39 28 40 29 41 79 42 30 43 84 44 78 45
REMARK SMILES IDX 80 46 31 47 83 48 77 49 76 50 32 52 64 53 44 54 63 55 45 56
REMARK SMILES IDX 48 57 62 58 81 59 46 60 47 61 61 63 82 64 49 65 33 66 34 67
REMARK SMILES IDX 42 68 35 69 36 70 40 71 43 72 37 73 38 74 41 75 39 76 65 77
REMARK SMILES IDX 66 78 74 79 67 80 68 81 72 82 75 83 69 84 70 85 73 86 71 87
REMARK SMILES IDX 50 88 51 89 59 90 52 91 53 92 57 93 60 94 54 95 55 96 58 97
REMARK SMILES IDX 56 98
REMARK H PARENT 14 6 9 10 21 32 80 51 48 62
REMARK Flexibility Score: inf
ROOT
ATOM      1  C   UNL A   1      34.881  31.316  28.173  1.00  0.00     0.021 C 
ENDROOT
BRANCH   1   2
ATOM      2  C   UNL A   1      33.889  30.785  27.135  1.00  0.00     0.116 C 
BRANCH   2   3
ATOM      3  N   UNL A   1      32.909  29.846  27.639  1.00  0.00    -0.356 N 
ATOM      4  C   UNL A   1      32.684  28.545  27.307  1.00  0.00     0.225 C 
ATOM      5  O   UNL A   1      31.870  27.908  27.981  1.00  0.00    -0.275 OA
ATOM      6  H   UNL A   1      32.311  30.206  28.333  1.00  0.00     0.163 HD
BRANCH   4   7
ATOM      7  C   UNL A   1      33.378  27.895  26.127  1.00  0.00     0.161 C 
BRANCH   7   8
ATOM      8  C   UNL A   1      32.362  27.205  25.214  1.00  0.00     0.273 C 
BRANCH   8   9
ATOM      9  N   UNL A   1      32.988  26.255  24.254  1.00  0.00    -0.324 N 
ATOM     10  H   UNL A   1      34.005  26.336  24.305  1.00  0.00     0.349 HD
BRANCH   9  11
ATOM     11  C   UNL A   1      32.789  24.816  24.651  1.00  0.00     0.215 C 
ATOM     12  C   UNL A   1      32.050  24.585  25.999  1.00  0.00     0.081 C 
BRANCH  11  13
ATOM     13  C   UNL A   1      34.071  23.992  24.807  1.00  0.00     0.048 A 
ATOM     14  C   UNL A   1      37.752  21.716  25.142  1.00  0.00     0.047 C 
ATOM     15  C   UNL A   1      36.496  22.519  25.007  1.00  0.00    -0.012 A 
ATOM     16  C   UNL A   1      35.397  21.991  24.330  1.00  0.00     0.046 A 
ATOM     17  C   UNL A   1      36.380  23.795  25.559  1.00  0.00     0.126 A 
ATOM     18  C   UNL A   1      34.231  22.745  24.195  1.00  0.00     0.132 A 
ATOM     19  C   UNL A   1      35.191  24.527  25.467  1.00  0.00     0.052 A 
ATOM     20  F   UNL A   1      37.430  24.352  26.179  1.00  0.00    -0.207 F 
ATOM     21  F   UNL A   1      33.281  22.273  23.381  1.00  0.00    -0.206 F 
ENDBRANCH  11  13
ENDBRANCH   9  11
BRANCH   9  22
ATOM     22  C   UNL A   1      32.700  26.647  22.825  1.00  0.00     0.090 C 
ATOM     23  C   UNL A   1      33.660  27.794  22.390  1.00  0.00     0.078 C 
ATOM     24  C   UNL A   1      32.948  25.513  21.806  1.00  0.00     0.078 C 
ATOM     25  C   UNL A   1      31.257  27.155  22.593  1.00  0.00     0.078 C 
ENDBRANCH   9  22
ENDBRANCH   8   9
ENDBRANCH   7   8
ENDBRANCH   4   7
ENDBRANCH   2   3
ENDBRANCH   1   2
BRANCH   1  26
ATOM     26  C   UNL A   1      34.376  32.383  29.151  1.00  0.00     0.002 C 
BRANCH  26  27
ATOM     27  C   UNL A   1      34.330  33.807  28.568  1.00  0.00     0.002 C 
BRANCH  27  28
ATOM     28  C   UNL A   1      33.034  34.613  28.772  1.00  0.00     0.021 C 
BRANCH  28  29
ATOM     29  C   UNL A   1      33.212  36.017  29.352  1.00  0.00     0.116 C 
BRANCH  29  30
ATOM     30  N   UNL A   1      32.467  36.175  30.594  1.00  0.00    -0.352 N 
ATOM     31  C   UNL A   1      32.635  35.561  31.811  1.00  0.00     0.251 C 
ATOM     32  H   UNL A   1      31.727  36.823  30.555  1.00  0.00     0.163 HD
ATOM     33  O   UNL A   1      31.727  35.614  32.648  1.00  0.00    -0.269 OA
BRANCH  31  34
ATOM     34  C   UNL A   1      33.878  34.831  32.156  1.00  0.00     0.039 A 
ATOM     35  C   UNL A   1      33.845  33.510  32.608  1.00  0.00     0.014 A 
ATOM     36  C   UNL A   1      35.115  35.443  31.913  1.00  0.00     0.014 A 
ATOM     37  C   UNL A   1      35.039  32.841  32.905  1.00  0.00     0.010 A 
ATOM     38  C   UNL A   1      36.310  34.757  32.176  1.00  0.00     0.010 A 
ATOM     39  C   UNL A   1      36.286  33.459  32.707  1.00  0.00    -0.014 A 
BRANCH  39  40
ATOM     40  C   UNL A   1      37.549  32.744  33.058  1.00  0.00     0.031 A 
ATOM     41  C   UNL A   1      38.270  33.033  34.349  1.00  0.00     0.074 A 
ATOM     42  C   UNL A   1      38.047  31.806  32.228  1.00  0.00     0.049 A 
ATOM     43  N   UNL A   1      39.360  32.486  34.832  1.00  0.00    -0.248 NA
ATOM     44  C   UNL A   1      37.692  34.071  35.217  1.00  0.00     0.031 C 
ATOM     45  C   UNL A   1      37.462  31.421  30.945  1.00  0.00     0.029 A 
ATOM     46  N   UNL A   1      39.154  30.998  32.345  1.00  0.00    -0.354 N 
ATOM     47  C   UNL A   1      39.595  33.106  36.052  1.00  0.00     0.074 A 
ATOM     48  C   UNL A   1      38.555  34.099  36.223  1.00  0.00     0.031 C 
ATOM     49  C   UNL A   1      38.190  30.427  30.411  1.00  0.00     0.029 A 
ATOM     50  C   UNL A   1      39.321  30.136  31.289  1.00  0.00     0.049 A 
ATOM     51  H   UNL A   1      39.768  31.034  33.114  1.00  0.00     0.167 HD
ATOM     52  C   UNL A   1      40.574  32.862  36.956  1.00  0.00     0.037 A 
ATOM     53  C   UNL A   1      40.278  29.218  31.045  1.00  0.00     0.037 A 
ATOM     54  C   UNL A   1      41.614  31.879  36.800  1.00  0.00     0.049 A 
ATOM     55  C   UNL A   1      41.394  29.016  32.032  1.00  0.00     0.074 A 
ATOM     56  C   UNL A   1      42.629  31.550  37.684  1.00  0.00     0.029 A 
ATOM     57  N   UNL A   1      41.782  31.072  35.685  1.00  0.00    -0.354 N 
ATOM     58  N   UNL A   1      41.581  29.587  33.196  1.00  0.00    -0.248 NA
ATOM     59  C   UNL A   1      42.438  28.046  31.665  1.00  0.00     0.031 C 
ATOM     60  C   UNL A   1      43.438  30.579  37.085  1.00  0.00     0.029 A 
ATOM     61  C   UNL A   1      42.901  30.268  35.848  1.00  0.00     0.049 A 
ATOM     62  H   UNL A   1      41.195  31.070  34.895  1.00  0.00     0.167 HD
ATOM     63  C   UNL A   1      42.751  29.040  33.706  1.00  0.00     0.074 A 
ATOM     64  C   UNL A   1      43.224  28.076  32.734  1.00  0.00     0.031 C 
ATOM     65  C   UNL A   1      43.374  29.315  34.877  1.00  0.00     0.037 A 
BRANCH  52  66
ATOM     66  C   UNL A   1      40.575  33.676  38.218  1.00  0.00     0.064 A 
ATOM     67  C   UNL A   1      41.368  34.826  38.343  1.00  0.00     0.173 A 
ATOM     68  C   UNL A   1      39.720  33.347  39.282  1.00  0.00     0.173 A 
ATOM     69  F   UNL A   1      42.210  35.176  37.359  1.00  0.00    -0.203 F 
ATOM     70  C   UNL A   1      41.316  35.609  39.494  1.00  0.00     0.198 A 
ATOM     71  C   UNL A   1      39.654  34.146  40.420  1.00  0.00     0.198 A 
ATOM     72  F   UNL A   1      38.935  32.262  39.207  1.00  0.00    -0.203 F 
ATOM     73  F   UNL A   1      42.105  36.686  39.605  1.00  0.00    -0.200 F 
ATOM     74  C   UNL A   1      40.453  35.273  40.528  1.00  0.00     0.200 A 
ATOM     75  F   UNL A   1      38.810  33.827  41.411  1.00  0.00    -0.200 F 
ATOM     76  F   UNL A   1      40.395  36.036  41.628  1.00  0.00    -0.200 F 
ENDBRANCH  52  66
BRANCH  53  77
ATOM     77  C   UNL A   1      40.210  28.404  29.803  1.00  0.00     0.064 A 
ATOM     78  C   UNL A   1      40.845  28.832  28.630  1.00  0.00     0.173 A 
ATOM     79  C   UNL A   1      39.529  27.179  29.770  1.00  0.00     0.173 A 
ATOM     80  F   UNL A   1      41.484  30.011  28.606  1.00  0.00    -0.203 F 
ATOM     81  C   UNL A   1      40.801  28.064  27.468  1.00  0.00     0.198 A 
ATOM     82  C   UNL A   1      39.506  26.400  28.616  1.00  0.00     0.198 A 
ATOM     83  F   UNL A   1      38.902  26.730  30.867  1.00  0.00    -0.203 F 
ATOM     84  F   UNL A   1      41.392  28.508  26.350  1.00  0.00    -0.200 F 
ATOM     85  C   UNL A   1      40.140  26.844  27.465  1.00  0.00     0.200 A 
ATOM     86  F   UNL A   1      38.877  25.217  28.620  1.00  0.00    -0.200 F 
ATOM     87  F   UNL A   1      40.110  26.099  26.352  1.00  0.00    -0.200 F 
ENDBRANCH  53  77
BRANCH  65  88
ATOM     88  C   UNL A   1      44.637  28.567  35.190  1.00  0.00     0.064 A 
ATOM     89  C   UNL A   1      45.896  29.087  34.857  1.00  0.00     0.173 A 
ATOM     90  C   UNL A   1      44.593  27.351  35.888  1.00  0.00     0.173 A 
ATOM     91  F   UNL A   1      45.991  30.240  34.177  1.00  0.00    -0.203 F 
ATOM     92  C   UNL A   1      47.064  28.411  35.201  1.00  0.00     0.198 A 
ATOM     93  C   UNL A   1      45.763  26.689  36.252  1.00  0.00     0.198 A 
ATOM     94  F   UNL A   1      43.414  26.813  36.236  1.00  0.00    -0.203 F 
ATOM     95  F   UNL A   1      48.255  28.912  34.845  1.00  0.00    -0.200 F 
ATOM     96  C   UNL A   1      46.997  27.219  35.906  1.00  0.00     0.200 A 
ATOM     97  F   UNL A   1      45.697  25.544  36.945  1.00  0.00    -0.200 F 
ATOM     98  F   UNL A   1      48.123  26.578  36.250  1.00  0.00    -0.200 F 
ENDBRANCH  65  88
ENDBRANCH  39  40
ENDBRANCH  31  34
ENDBRANCH  29  30
ENDBRANCH  28  29
ENDBRANCH  27  28
ENDBRANCH  26  27
ENDBRANCH   1  26
TORSDOF 18
ENDMDL
MODEL 2
REMARK VINA RESULT:     -10.9      0.407      7.237
REMARK SMILES Cc1cc(F)c([C@@H](C)[N@H+](CCC(=O)NCCCCCCNC(=O)c2ccc(-c3c4nc(c(-c5c(F)c(F)c(F)c(F)c5F)c5ccc([nH]5)c(-c5c(F)c(F)c(F)c(F)c5F)c5nc(c(-c6c(F)c(F)c(F)c(F)c6F)c6ccc3[nH]6)C=C5)C=C4)cc2)C(C)(C)C)cc1F
REMARK SMILES IDX 16 1 15 2 14 3 12 4 13 5 11 7 10 8 9 9 7 11 8 12 6 13 1 14
REMARK SMILES IDX 2 15 3 16 92 17 4 18 91 19 93 20 5 21 87 22 88 23 89 24
REMARK SMILES IDX 90 25 17 26 18 27 19 28 20 29 21 30 22 31 23 33 24 34 25 35
REMARK SMILES IDX 86 36 26 37 85 38 27 39 28 40 29 41 79 42 30 43 84 44 78 45
REMARK SMILES IDX 80 46 31 47 83 48 77 49 76 50 32 52 64 53 44 54 63 55 45 56
REMARK SMILES IDX 48 57 62 58 81 59 46 60 47 61 61 63 82 64 49 65 33 66 34 67
REMARK SMILES IDX 42 68 35 69 36 70 40 71 43 72 37 73 38 74 41 75 39 76 65 77
REMARK SMILES IDX 66 78 74 79 67 80 68 81 72 82 75 83 69 84 70 85 73 86 71 87
REMARK SMILES IDX 50 88 51 89 59 90 52 91 53 92 57 93 60 94 54 95 55 96 58 97
REMARK SMILES IDX 56 98
REMARK H PARENT 14 6 9 10 21 32 80 51 48 62
REMARK Flexibility Score: inf
ROOT
ATOM      1  C   UNL A   1      34.907  31.274  28.139  1.00  0.00     0.021 C 
ENDROOT
BRANCH   1   2
ATOM      2  C   UNL A   1      33.901  30.756  27.107  1.00  0.00     0.116 C 
BRANCH   2   3
ATOM      3  N   UNL A   1      32.886  29.864  27.626  1.00  0.00    -0.356 N 
ATOM      4  C   UNL A   1      32.612  28.567  27.316  1.00  0.00     0.225 C 
ATOM      5  O   UNL A   1      31.774  27.973  28.000  1.00  0.00    -0.275 OA
ATOM      6  H   UNL A   1      32.301  30.258  28.313  1.00  0.00     0.163 HD
BRANCH   4   7
ATOM      7  C   UNL A   1      33.282  27.871  26.149  1.00  0.00     0.161 C 
BRANCH   7   8
ATOM      8  C   UNL A   1      32.259  27.075  25.334  1.00  0.00     0.273 C 
BRANCH   8   9
ATOM      9  N   UNL A   1      32.883  26.207  24.299  1.00  0.00    -0.324 N 
ATOM     10  H   UNL A   1      33.899  26.304  24.336  1.00  0.00     0.349 HD
BRANCH   9  11
ATOM     11  C   UNL A   1      32.720  24.740  24.600  1.00  0.00     0.215 C 
ATOM     12  C   UNL A   1      31.951  24.402  25.907  1.00  0.00     0.081 C 
BRANCH  11  13
ATOM     13  C   UNL A   1      34.024  23.948  24.743  1.00  0.00     0.048 A 
ATOM     14  C   UNL A   1      37.763  21.765  25.046  1.00  0.00     0.047 C 
ATOM     15  C   UNL A   1      36.486  22.536  24.923  1.00  0.00    -0.012 A 
ATOM     16  C   UNL A   1      35.401  21.989  24.238  1.00  0.00     0.046 A 
ATOM     17  C   UNL A   1      36.337  23.801  25.493  1.00  0.00     0.126 A 
ATOM     18  C   UNL A   1      34.216  22.714  24.114  1.00  0.00     0.132 A 
ATOM     19  C   UNL A   1      35.129  24.503  25.412  1.00  0.00     0.052 A 
ATOM     20  F   UNL A   1      37.372  24.376  26.121  1.00  0.00    -0.207 F 
ATOM     21  F   UNL A   1      33.278  22.229  23.293  1.00  0.00    -0.206 F 
ENDBRANCH  11  13
ENDBRANCH   9  11
BRANCH   9  22
ATOM     22  C   UNL A   1      32.559  26.689  22.906  1.00  0.00     0.090 C 
ATOM     23  C   UNL A   1      33.699  27.618  22.392  1.00  0.00     0.078 C 
ATOM     24  C   UNL A   1      32.467  25.557  21.860  1.00  0.00     0.078 C 
ATOM     25  C   UNL A   1      31.242  27.498  22.814  1.00  0.00     0.078 C 
ENDBRANCH   9  22
ENDBRANCH   8   9
ENDBRANCH   7   8
ENDBRANCH   4   7
ENDBRANCH   2   3
ENDBRANCH   1   2
BRANCH   1  26
ATOM     26  C   UNL A   1      34.408  32.308  29.154  1.00  0.00     0.002 C 
BRANCH  26  27
ATOM     27  C   UNL A   1      34.446  33.762  28.650  1.00  0.00     0.002 C 
BRANCH  27  28
ATOM     28  C   UNL A   1      33.144  34.578  28.745  1.00  0.00     0.021 C 
BRANCH  28  29
ATOM     29  C   UNL A   1      33.301  36.022  29.225  1.00  0.00     0.116 C 
BRANCH  29  30
ATOM     30  N   UNL A   1      32.521  36.267  30.431  1.00  0.00    -0.352 N 
ATOM     31  C   UNL A   1      32.647  35.733  31.690  1.00  0.00     0.251 C 
ATOM     32  H   UNL A   1      31.789  36.917  30.327  1.00  0.00     0.163 HD
ATOM     33  O   UNL A   1      31.716  35.849  32.493  1.00  0.00    -0.269 OA
BRANCH  31  34
ATOM     34  C   UNL A   1      33.872  35.018  32.119  1.00  0.00     0.039 A 
ATOM     35  C   UNL A   1      35.130  35.622  32.048  1.00  0.00     0.014 A 
ATOM     36  C   UNL A   1      33.750  33.755  32.713  1.00  0.00     0.014 A 
ATOM     37  C   UNL A   1      36.266  34.928  32.481  1.00  0.00     0.010 A 
ATOM     38  C   UNL A   1      34.885  33.077  33.181  1.00  0.00     0.010 A 
ATOM     39  C   UNL A   1      36.162  33.641  33.040  1.00  0.00    -0.014 A 
BRANCH  39  40
ATOM     40  C   UNL A   1      37.385  32.902  33.468  1.00  0.00     0.031 A 
ATOM     41  C   UNL A   1      38.005  31.851  32.584  1.00  0.00     0.074 A 
ATOM     42  C   UNL A   1      37.969  33.187  34.650  1.00  0.00     0.049 A 
ATOM     43  N   UNL A   1      39.084  31.131  32.780  1.00  0.00    -0.248 NA
ATOM     44  C   UNL A   1      37.327  31.569  31.309  1.00  0.00     0.031 C 
ATOM     45  C   UNL A   1      37.483  34.176  35.610  1.00  0.00     0.029 A 
ATOM     46  N   UNL A   1      39.104  32.680  35.238  1.00  0.00    -0.354 N 
ATOM     47  C   UNL A   1      39.216  30.321  31.660  1.00  0.00     0.074 A 
ATOM     48  C   UNL A   1      38.086  30.607  30.801  1.00  0.00     0.031 C 
ATOM     49  C   UNL A   1      38.332  34.231  36.650  1.00  0.00     0.029 A 
ATOM     50  C   UNL A   1      39.396  33.250  36.453  1.00  0.00     0.049 A 
ATOM     51  H   UNL A   1      39.654  31.974  34.827  1.00  0.00     0.167 HD
ATOM     52  C   UNL A   1      40.194  29.431  31.363  1.00  0.00     0.037 A 
ATOM     53  C   UNL A   1      40.402  33.009  37.319  1.00  0.00     0.037 A 
ATOM     54  C   UNL A   1      41.323  29.136  32.206  1.00  0.00     0.049 A 
ATOM     55  C   UNL A   1      41.436  31.966  36.997  1.00  0.00     0.074 A 
ATOM     56  C   UNL A   1      42.375  28.267  31.965  1.00  0.00     0.029 A 
ATOM     57  N   UNL A   1      41.546  29.691  33.457  1.00  0.00    -0.354 N 
ATOM     58  N   UNL A   1      41.563  31.233  35.919  1.00  0.00    -0.248 NA
ATOM     59  C   UNL A   1      42.462  31.711  38.020  1.00  0.00     0.031 C 
ATOM     60  C   UNL A   1      43.209  28.261  33.088  1.00  0.00     0.029 A 
ATOM     61  C   UNL A   1      42.702  29.160  34.010  1.00  0.00     0.049 A 
ATOM     62  H   UNL A   1      40.969  30.362  33.888  1.00  0.00     0.167 HD
ATOM     63  C   UNL A   1      42.686  30.443  36.125  1.00  0.00     0.074 A 
ATOM     64  C   UNL A   1      43.217  30.796  37.425  1.00  0.00     0.031 C 
ATOM     65  C   UNL A   1      43.225  29.508  35.307  1.00  0.00     0.037 A 
BRANCH  52  66
ATOM     66  C   UNL A   1      40.097  28.700  30.056  1.00  0.00     0.064 A 
ATOM     67  C   UNL A   1      40.679  29.215  28.887  1.00  0.00     0.173 A 
ATOM     68  C   UNL A   1      39.484  27.440  29.985  1.00  0.00     0.173 A 
ATOM     69  F   UNL A   1      41.267  30.420  28.901  1.00  0.00    -0.203 F 
ATOM     70  C   UNL A   1      40.637  28.500  27.693  1.00  0.00     0.198 A 
ATOM     71  C   UNL A   1      39.466  26.718  28.795  1.00  0.00     0.198 A 
ATOM     72  F   UNL A   1      38.921  26.900  31.076  1.00  0.00    -0.203 F 
ATOM     73  F   UNL A   1      41.172  29.024  26.582  1.00  0.00    -0.200 F 
ATOM     74  C   UNL A   1      40.038  27.249  27.649  1.00  0.00     0.200 A 
ATOM     75  F   UNL A   1      38.899  25.504  28.758  1.00  0.00    -0.200 F 
ATOM     76  F   UNL A   1      40.012  26.558  26.501  1.00  0.00    -0.200 F 
ENDBRANCH  52  66
BRANCH  53  77
ATOM     77  C   UNL A   1      40.481  33.790  38.580  1.00  0.00     0.064 A 
ATOM     78  C   UNL A   1      39.759  33.397  39.715  1.00  0.00     0.173 A 
ATOM     79  C   UNL A   1      41.294  34.929  38.682  1.00  0.00     0.173 A 
ATOM     80  F   UNL A   1      38.947  32.331  39.655  1.00  0.00    -0.203 F 
ATOM     81  C   UNL A   1      39.846  34.115  40.906  1.00  0.00     0.198 A 
ATOM     82  C   UNL A   1      41.399  35.631  39.880  1.00  0.00     0.198 A 
ATOM     83  F   UNL A   1      42.000  35.347  37.622  1.00  0.00    -0.203 F 
ATOM     84  F   UNL A   1      39.123  33.735  41.968  1.00  0.00    -0.200 F 
ATOM     85  C   UNL A   1      40.673  35.225  40.990  1.00  0.00     0.200 A 
ATOM     86  F   UNL A   1      42.207  36.696  39.962  1.00  0.00    -0.200 F 
ATOM     87  F   UNL A   1      40.767  35.907  42.140  1.00  0.00    -0.200 F 
ENDBRANCH  53  77
BRANCH  65  88
ATOM     88  C   UNL A   1      44.459  28.794  35.777  1.00  0.00     0.064 A 
ATOM     89  C   UNL A   1      44.379  27.588  36.487  1.00  0.00     0.173 A 
ATOM     90  C   UNL A   1      45.734  29.285  35.458  1.00  0.00     0.173 A 
ATOM     91  F   UNL A   1      43.184  27.084  36.829  1.00  0.00    -0.203 F 
ATOM     92  C   UNL A   1      45.531  26.905  36.871  1.00  0.00     0.198 A 
ATOM     93  C   UNL A   1      46.883  28.587  35.821  1.00  0.00     0.198 A 
ATOM     94  F   UNL A   1      45.865  30.431  34.774  1.00  0.00    -0.203 F 
ATOM     95  F   UNL A   1      45.431  25.769  37.576  1.00  0.00    -0.200 F 
ATOM     96  C   UNL A   1      46.781  27.400  36.529  1.00  0.00     0.200 A 
ATOM     97  F   UNL A   1      48.090  29.060  35.479  1.00  0.00    -0.200 F 
ATOM     98  F   UNL A   1      47.887  26.733  36.886  1.00  0.00    -0.200 F 
ENDBRANCH  65  88
ENDBRANCH  39  40
ENDBRANCH  31  34
ENDBRANCH  29  30
ENDBRANCH  28  29
ENDBRANCH  27  28
ENDBRANCH  26  27
ENDBRANCH   1  26
TORSDOF 18
ENDMDL
MODEL 3
REMARK VINA RESULT:     -10.8      4.602      9.576
REMARK SMILES Cc1cc(F)c([C@@H](C)[N@H+](CCC(=O)NCCCCCCNC(=O)c2ccc(-c3c4nc(c(-c5c(F)c(F)c(F)c(F)c5F)c5ccc([nH]5)c(-c5c(F)c(F)c(F)c(F)c5F)c5nc(c(-c6c(F)c(F)c(F)c(F)c6F)c6ccc3[nH]6)C=C5)C=C4)cc2)C(C)(C)C)cc1F
REMARK SMILES IDX 16 1 15 2 14 3 12 4 13 5 11 7 10 8 9 9 7 11 8 12 6 13 1 14
REMARK SMILES IDX 2 15 3 16 92 17 4 18 91 19 93 20 5 21 87 22 88 23 89 24
REMARK SMILES IDX 90 25 17 26 18 27 19 28 20 29 21 30 22 31 23 33 24 34 25 35
REMARK SMILES IDX 86 36 26 37 85 38 27 39 28 40 29 41 79 42 30 43 84 44 78 45
REMARK SMILES IDX 80 46 31 47 83 48 77 49 76 50 32 52 64 53 44 54 63 55 45 56
REMARK SMILES IDX 48 57 62 58 81 59 46 60 47 61 61 63 82 64 49 65 33 66 34 67
REMARK SMILES IDX 42 68 35 69 36 70 40 71 43 72 37 73 38 74 41 75 39 76 65 77
REMARK SMILES IDX 66 78 74 79 67 80 68 81 72 82 75 83 69 84 70 85 73 86 71 87
REMARK SMILES IDX 50 88 51 89 59 90 52 91 53 92 57 93 60 94 54 95 55 96 58 97
REMARK SMILES IDX 56 98
REMARK H PARENT 14 6 9 10 21 32 80 51 48 62
REMARK Flexibility Score: inf
ROOT
ATOM      1  C   UNL A   1      33.437  21.381  24.552  1.00  0.00     0.021 C 
ENDROOT
BRANCH   1   2
ATOM      2  C   UNL A   1      31.986  21.092  24.947  1.00  0.00     0.116 C 
BRANCH   2   3
ATOM      3  N   UNL A   1      31.504  21.818  26.103  1.00  0.00    -0.356 N 
ATOM      4  C   UNL A   1      30.931  23.051  26.193  1.00  0.00     0.225 C 
ATOM      5  O   UNL A   1      30.475  23.398  27.286  1.00  0.00    -0.275 OA
ATOM      6  H   UNL A   1      31.605  21.345  26.960  1.00  0.00     0.163 HD
BRANCH   4   7
ATOM      7  C   UNL A   1      30.880  23.991  25.006  1.00  0.00     0.161 C 
BRANCH   7   8
ATOM      8  C   UNL A   1      32.090  24.928  25.006  1.00  0.00     0.273 C 
BRANCH   8   9
ATOM      9  N   UNL A   1      31.955  26.058  24.047  1.00  0.00    -0.324 N 
ATOM     10  H   UNL A   1      31.054  25.998  23.570  1.00  0.00     0.349 HD
BRANCH   9  11
ATOM     11  C   UNL A   1      31.831  27.391  24.738  1.00  0.00     0.215 C 
ATOM     12  C   UNL A   1      31.491  27.335  26.253  1.00  0.00     0.081 C 
BRANCH  11  13
ATOM     13  C   UNL A   1      30.761  28.330  24.171  1.00  0.00     0.048 A 
ATOM     14  C   UNL A   1      27.663  30.974  22.673  1.00  0.00     0.047 C 
ATOM     15  C   UNL A   1      28.720  30.065  23.216  1.00  0.00    -0.012 A 
ATOM     16  C   UNL A   1      28.695  28.704  22.912  1.00  0.00     0.046 A 
ATOM     17  C   UNL A   1      29.756  30.543  24.019  1.00  0.00     0.126 A 
ATOM     18  C   UNL A   1      29.674  27.855  23.429  1.00  0.00     0.132 A 
ATOM     19  C   UNL A   1      30.766  29.698  24.491  1.00  0.00     0.052 A 
ATOM     20  F   UNL A   1      29.787  31.838  24.367  1.00  0.00    -0.207 F 
ATOM     21  F   UNL A   1      29.500  26.539  23.265  1.00  0.00    -0.206 F 
ENDBRANCH  11  13
ENDBRANCH   9  11
BRANCH   9  22
ATOM     22  C   UNL A   1      32.937  25.934  22.907  1.00  0.00     0.090 C 
ATOM     23  C   UNL A   1      32.179  25.564  21.598  1.00  0.00     0.078 C 
ATOM     24  C   UNL A   1      33.679  27.248  22.578  1.00  0.00     0.078 C 
ATOM     25  C   UNL A   1      34.017  24.848  23.126  1.00  0.00     0.078 C 
ENDBRANCH   9  22
ENDBRANCH   8   9
ENDBRANCH   7   8
ENDBRANCH   4   7
ENDBRANCH   2   3
ENDBRANCH   1   2
BRANCH   1  26
ATOM     26  C   UNL A   1      34.540  20.721  25.387  1.00  0.00     0.002 C 
BRANCH  26  27
ATOM     27  C   UNL A   1      35.144  21.631  26.473  1.00  0.00     0.002 C 
BRANCH  27  28
ATOM     28  C   UNL A   1      35.266  23.131  26.152  1.00  0.00     0.021 C 
BRANCH  28  29
ATOM     29  C   UNL A   1      36.628  23.587  25.625  1.00  0.00     0.116 C 
BRANCH  29  30
ATOM     30  N   UNL A   1      37.670  22.620  25.943  1.00  0.00    -0.352 N 
ATOM     31  C   UNL A   1      38.957  22.818  26.381  1.00  0.00     0.251 C 
ATOM     32  H   UNL A   1      37.411  21.677  25.827  1.00  0.00     0.163 HD
ATOM     33  O   UNL A   1      39.768  21.888  26.316  1.00  0.00    -0.269 OA
BRANCH  31  34
ATOM     34  C   UNL A   1      39.407  24.118  26.932  1.00  0.00     0.039 A 
ATOM     35  C   UNL A   1      40.028  25.074  26.125  1.00  0.00     0.014 A 
ATOM     36  C   UNL A   1      39.098  24.436  28.260  1.00  0.00     0.014 A 
ATOM     37  C   UNL A   1      40.422  26.302  26.671  1.00  0.00     0.010 A 
ATOM     38  C   UNL A   1      39.460  25.681  28.795  1.00  0.00     0.010 A 
ATOM     39  C   UNL A   1      40.157  26.617  28.016  1.00  0.00    -0.014 A 
BRANCH  39  40
ATOM     40  C   UNL A   1      40.611  27.917  28.591  1.00  0.00     0.031 A 
ATOM     41  C   UNL A   1      42.071  28.177  28.862  1.00  0.00     0.074 A 
ATOM     42  C   UNL A   1      39.716  28.890  28.853  1.00  0.00     0.049 A 
ATOM     43  N   UNL A   1      42.649  29.258  29.329  1.00  0.00    -0.248 NA
ATOM     44  C   UNL A   1      43.008  27.082  28.568  1.00  0.00     0.031 C 
ATOM     45  C   UNL A   1      38.273  28.783  28.645  1.00  0.00     0.029 A 
ATOM     46  N   UNL A   1      39.888  30.165  29.340  1.00  0.00    -0.354 N 
ATOM     47  C   UNL A   1      44.007  28.977  29.381  1.00  0.00     0.074 A 
ATOM     48  C   UNL A   1      44.169  27.609  28.934  1.00  0.00     0.031 C 
ATOM     49  C   UNL A   1      37.695  29.953  28.966  1.00  0.00     0.029 A 
ATOM     50  C   UNL A   1      38.719  30.877  29.445  1.00  0.00     0.049 A 
ATOM     51  H   UNL A   1      40.768  30.531  29.589  1.00  0.00     0.167 HD
ATOM     52  C   UNL A   1      45.031  29.785  29.750  1.00  0.00     0.037 A 
ATOM     53  C   UNL A   1      38.489  32.131  29.885  1.00  0.00     0.037 A 
ATOM     54  C   UNL A   1      44.886  31.146  30.198  1.00  0.00     0.049 A 
ATOM     55  C   UNL A   1      39.635  32.983  30.357  1.00  0.00     0.074 A 
ATOM     56  C   UNL A   1      45.877  32.043  30.563  1.00  0.00     0.029 A 
ATOM     57  N   UNL A   1      43.677  31.807  30.350  1.00  0.00    -0.354 N 
ATOM     58  N   UNL A   1      40.917  32.713  30.368  1.00  0.00    -0.248 NA
ATOM     59  C   UNL A   1      39.299  34.314  30.887  1.00  0.00     0.031 C 
ATOM     60  C   UNL A   1      45.266  33.229  30.982  1.00  0.00     0.029 A 
ATOM     61  C   UNL A   1      43.897  33.088  30.833  1.00  0.00     0.049 A 
ATOM     62  H   UNL A   1      42.794  31.423  30.146  1.00  0.00     0.167 HD
ATOM     63  C   UNL A   1      41.540  33.838  30.889  1.00  0.00     0.074 A 
ATOM     64  C   UNL A   1      40.499  34.805  31.168  1.00  0.00     0.031 C 
ATOM     65  C   UNL A   1      42.859  34.047  31.116  1.00  0.00     0.037 A 
BRANCH  52  66
ATOM     66  C   UNL A   1      46.421  29.221  29.687  1.00  0.00     0.064 A 
ATOM     67  C   UNL A   1      47.217  29.372  28.542  1.00  0.00     0.173 A 
ATOM     68  C   UNL A   1      46.990  28.592  30.805  1.00  0.00     0.173 A 
ATOM     69  F   UNL A   1      46.716  29.956  27.444  1.00  0.00    -0.203 F 
ATOM     70  C   UNL A   1      48.527  28.900  28.515  1.00  0.00     0.198 A 
ATOM     71  C   UNL A   1      48.307  28.144  30.782  1.00  0.00     0.198 A 
ATOM     72  F   UNL A   1      46.272  28.432  31.928  1.00  0.00    -0.203 F 
ATOM     73  F   UNL A   1      49.260  29.027  27.400  1.00  0.00    -0.200 F 
ATOM     74  C   UNL A   1      49.074  28.294  29.637  1.00  0.00     0.200 A 
ATOM     75  F   UNL A   1      48.837  27.571  31.872  1.00  0.00    -0.200 F 
ATOM     76  F   UNL A   1      50.339  27.854  29.612  1.00  0.00    -0.200 F 
ENDBRANCH  52  66
BRANCH  53  77
ATOM     77  C   UNL A   1      37.101  32.661  29.888  1.00  0.00     0.064 A 
ATOM     78  C   UNL A   1      36.283  32.527  31.017  1.00  0.00     0.173 A 
ATOM     79  C   UNL A   1      36.574  33.328  28.772  1.00  0.00     0.173 A 
ATOM     80  F   UNL A   1      36.734  31.871  32.096  1.00  0.00    -0.203 F 
ATOM     81  C   UNL A   1      34.987  33.039  31.030  1.00  0.00     0.198 A 
ATOM     82  C   UNL A   1      35.288  33.862  28.796  1.00  0.00     0.198 A 
ATOM     83  F   UNL A   1      37.317  33.478  27.666  1.00  0.00    -0.203 F 
ATOM     84  F   UNL A   1      34.214  32.872  32.112  1.00  0.00    -0.200 F 
ATOM     85  C   UNL A   1      34.495  33.715  29.924  1.00  0.00     0.200 A 
ATOM     86  F   UNL A   1      34.819  34.525  27.729  1.00  0.00    -0.200 F 
ATOM     87  F   UNL A   1      33.254  34.220  29.943  1.00  0.00    -0.200 F 
ENDBRANCH  53  77
BRANCH  65  88
ATOM     88  C   UNL A   1      43.269  35.371  31.690  1.00  0.00     0.064 A 
ATOM     89  C   UNL A   1      43.700  36.422  30.867  1.00  0.00     0.173 A 
ATOM     90  C   UNL A   1      43.168  35.616  33.067  1.00  0.00     0.173 A 
ATOM     91  F   UNL A   1      43.827  36.235  29.545  1.00  0.00    -0.203 F 
ATOM     92  C   UNL A   1      44.026  37.665  31.404  1.00  0.00     0.198 A 
ATOM     93  C   UNL A   1      43.471  36.867  33.599  1.00  0.00     0.198 A 
ATOM     94  F   UNL A   1      42.755  34.646  33.897  1.00  0.00    -0.203 F 
ATOM     95  F   UNL A   1      44.465  38.646  30.602  1.00  0.00    -0.200 F 
ATOM     96  C   UNL A   1      43.902  37.890  32.768  1.00  0.00     0.200 A 
ATOM     97  F   UNL A   1      43.338  37.086  34.914  1.00  0.00    -0.200 F 
ATOM     98  F   UNL A   1      44.201  39.091  33.281  1.00  0.00    -0.200 F 
ENDBRANCH  65  88
ENDBRANCH  39  40
ENDBRANCH  31  34
ENDBRANCH  29  30
ENDBRANCH  28  29
ENDBRANCH  27  28
ENDBRANCH  26  27
ENDBRANCH   1  26
TORSDOF 18
ENDMDL
