MODEL 1
REMARK VINA RESULT:     -12.8      0.000      0.000
REMARK SMILES O=C(CCC(=O)Nc1cccc2c1C(=O)c1ccccc1C2=O)NCCCCCCNC(=O)c1ccc(-c2c3nc(c(-c4c(F)c(F)c(F)c(F)c4F)c4ccc([nH]4)c(-c4c(F)c(F)c(F)c(F)c4F)c4nc(c(-c5c(F)c(F)c(F)c(F)c5F)c5ccc2[nH]5)C=C4)C=C3)cc1
REMARK SMILES IDX 27 1 26 2 25 3 24 4 1 5 2 6 3 8 4 9 5 10 6 11 7 12 8 14 9 15
REMARK SMILES IDX 13 16 10 17 12 18 14 19 11 20 22 21 15 22 16 23 21 24 23 25
REMARK SMILES IDX 17 26 20 27 18 28 19 29 28 30 29 31 30 32 31 33 32 34 33 36
REMARK SMILES IDX 34 37 35 38 96 39 36 40 95 41 37 42 38 43 39 44 89 45 40 46
REMARK SMILES IDX 94 47 88 48 90 49 41 50 93 51 87 52 86 53 42 55 74 56 54 57
REMARK SMILES IDX 73 58 55 59 58 60 72 61 91 62 56 63 57 64 71 66 92 67 59 68
REMARK SMILES IDX 43 69 44 70 52 71 45 72 46 73 50 74 53 75 47 76 48 77 51 78
REMARK SMILES IDX 49 79 75 80 76 81 84 82 77 83 78 84 82 85 85 86 79 87 80 88
REMARK SMILES IDX 83 89 81 90 60 91 61 92 69 93 62 94 63 95 67 96 70 97 64 98
REMARK SMILES IDX 65 99 68 100 66 101
REMARK H PARENT 24 7 7 13 31 35 90 54 58 65
REMARK Flexibility Score: inf
ROOT
ATOM      1  C   UNL A   1      37.270  21.808  24.852  1.00  0.00     0.002 C 
ENDROOT
BRANCH   1   2
ATOM      2  C   UNL A   1      36.756  22.428  23.560  1.00  0.00     0.021 C 
BRANCH   2   3
ATOM      3  C   UNL A   1      36.070  23.738  23.867  1.00  0.00     0.116 C 
BRANCH   3   4
ATOM      4  N   UNL A   1      34.822  23.671  24.590  1.00  0.00    -0.356 N 
ATOM      5  O   UNL A   1      33.493  22.577  23.057  1.00  0.00    -0.275 OA
ATOM      6  C   UNL A   1      33.877  22.752  24.201  1.00  0.00     0.220 C 
ATOM      7  H   UNL A   1      34.652  24.273  25.351  1.00  0.00     0.163 HD
BRANCH   6   8
ATOM      8  C   UNL A   1      33.539  21.718  25.221  1.00  0.00     0.110 C 
BRANCH   8   9
ATOM      9  C   UNL A   1      33.876  22.362  26.576  1.00  0.00     0.110 C 
BRANCH   9  10
ATOM     10  C   UNL A   1      32.611  22.798  27.261  1.00  0.00     0.224 C 
ATOM     11  O   UNL A   1      32.301  22.210  28.313  1.00  0.00    -0.275 OA
ATOM     12  N   UNL A   1      31.757  23.784  26.899  1.00  0.00    -0.325 N 
ATOM     13  H   UNL A   1      31.074  23.854  27.604  1.00  0.00     0.169 HD
BRANCH  12  14
ATOM     14  C   UNL A   1      31.449  24.764  25.908  1.00  0.00     0.053 A 
ATOM     15  C   UNL A   1      30.804  24.131  24.817  1.00  0.00     0.027 A 
ATOM     16  C   UNL A   1      31.640  26.167  25.790  1.00  0.00     0.057 A 
ATOM     17  C   UNL A   1      30.277  24.829  23.732  1.00  0.00     0.003 A 
ATOM     18  C   UNL A   1      30.961  26.883  24.769  1.00  0.00     0.036 A 
ATOM     19  C   UNL A   1      32.923  26.919  25.992  1.00  0.00     0.196 C 
ATOM     20  C   UNL A   1      30.307  26.213  23.733  1.00  0.00     0.013 A 
ATOM     21  C   UNL A   1      31.041  28.377  24.718  1.00  0.00     0.194 C 
ATOM     22  O   UNL A   1      33.958  26.573  25.426  1.00  0.00    -0.288 OA
ATOM     23  C   UNL A   1      32.839  28.331  26.384  1.00  0.00     0.034 A 
ATOM     24  C   UNL A   1      31.872  29.075  25.724  1.00  0.00     0.034 A 
ATOM     25  O   UNL A   1      30.423  29.015  23.875  1.00  0.00    -0.289 OA
ATOM     26  C   UNL A   1      33.759  28.950  27.234  1.00  0.00     0.013 A 
ATOM     27  C   UNL A   1      31.774  30.447  25.965  1.00  0.00     0.013 A 
ATOM     28  C   UNL A   1      33.622  30.303  27.530  1.00  0.00     0.001 A 
ATOM     29  C   UNL A   1      32.629  31.051  26.895  1.00  0.00     0.001 A 
ENDBRANCH  12  14
ENDBRANCH   9  10
ENDBRANCH   8   9
ENDBRANCH   6   8
ENDBRANCH   3   4
ENDBRANCH   2   3
ENDBRANCH   1   2
BRANCH   1  30
ATOM     30  C   UNL A   1      36.944  20.307  25.001  1.00  0.00     0.002 C 
BRANCH  30  31
ATOM     31  C   UNL A   1      38.160  19.381  25.071  1.00  0.00     0.021 C 
BRANCH  31  32
ATOM     32  C   UNL A   1      39.362  20.001  25.769  1.00  0.00     0.116 C 
BRANCH  32  33
ATOM     33  N   UNL A   1      40.421  19.020  25.974  1.00  0.00    -0.352 N 
ATOM     34  C   UNL A   1      41.770  19.187  26.115  1.00  0.00     0.251 C 
ATOM     35  H   UNL A   1      40.114  18.086  26.017  1.00  0.00     0.163 HD
ATOM     36  O   UNL A   1      42.525  18.233  26.031  1.00  0.00    -0.269 OA
BRANCH  34  37
ATOM     37  C   UNL A   1      42.297  20.537  26.373  1.00  0.00     0.039 A 
ATOM     38  C   UNL A   1      42.756  21.292  25.294  1.00  0.00     0.014 A 
ATOM     39  C   UNL A   1      42.352  21.038  27.675  1.00  0.00     0.014 A 
ATOM     40  C   UNL A   1      43.235  22.579  25.521  1.00  0.00     0.010 A 
ATOM     41  C   UNL A   1      42.747  22.350  27.888  1.00  0.00     0.010 A 
ATOM     42  C   UNL A   1      43.207  23.124  26.815  1.00  0.00    -0.014 A 
BRANCH  42  43
ATOM     43  C   UNL A   1      43.669  24.508  27.067  1.00  0.00     0.031 A 
ATOM     44  C   UNL A   1      42.698  25.543  27.553  1.00  0.00     0.074 A 
ATOM     45  C   UNL A   1      44.947  24.833  26.797  1.00  0.00     0.049 A 
ATOM     46  N   UNL A   1      42.893  26.816  27.781  1.00  0.00    -0.248 NA
ATOM     47  C   UNL A   1      41.315  25.097  27.790  1.00  0.00     0.031 C 
ATOM     48  C   UNL A   1      45.960  23.915  26.273  1.00  0.00     0.029 A 
ATOM     49  N   UNL A   1      45.609  26.026  26.920  1.00  0.00    -0.354 N 
ATOM     50  C   UNL A   1      41.661  27.322  28.171  1.00  0.00     0.074 A 
ATOM     51  C   UNL A   1      40.711  26.236  28.094  1.00  0.00     0.031 C 
ATOM     52  C   UNL A   1      47.123  24.573  26.145  1.00  0.00     0.029 A 
ATOM     53  C   UNL A   1      46.925  25.966  26.533  1.00  0.00     0.049 A 
ATOM     54  H   UNL A   1      45.182  26.849  27.252  1.00  0.00     0.167 HD
ATOM     55  C   UNL A   1      41.359  28.577  28.578  1.00  0.00     0.037 A 
ATOM     56  C   UNL A   1      47.861  26.931  26.488  1.00  0.00     0.037 A 
ATOM     57  C   UNL A   1      42.320  29.644  28.669  1.00  0.00     0.049 A 
ATOM     58  C   UNL A   1      47.492  28.320  26.934  1.00  0.00     0.074 A 
ATOM     59  C   UNL A   1      42.134  30.935  29.132  1.00  0.00     0.029 A 
ATOM     60  N   UNL A   1      43.649  29.545  28.279  1.00  0.00    -0.354 N 
ATOM     61  N   UNL A   1      46.345  28.770  27.380  1.00  0.00    -0.248 NA
ATOM     62  C   UNL A   1      48.553  29.335  26.878  1.00  0.00     0.031 C 
ATOM     63  C   UNL A   1      43.333  31.634  28.964  1.00  0.00     0.029 A 
ATOM     64  C   UNL A   1      44.285  30.762  28.462  1.00  0.00     0.049 A 
ATOM     65  H   UNL A   1      44.074  28.731  27.926  1.00  0.00     0.167 HD
ATOM     66  C   UNL A   1      46.552  30.109  27.688  1.00  0.00     0.074 A 
ATOM     67  C   UNL A   1      47.942  30.391  27.393  1.00  0.00     0.031 C 
ATOM     68  C   UNL A   1      45.673  31.021  28.170  1.00  0.00     0.037 A 
BRANCH  55  69
ATOM     69  C   UNL A   1      39.933  28.866  28.952  1.00  0.00     0.064 A 
ATOM     70  C   UNL A   1      39.000  29.328  28.010  1.00  0.00     0.173 A 
ATOM     71  C   UNL A   1      39.483  28.639  30.261  1.00  0.00     0.173 A 
ATOM     72  F   UNL A   1      39.380  29.572  26.746  1.00  0.00    -0.203 F 
ATOM     73  C   UNL A   1      37.679  29.579  28.372  1.00  0.00     0.198 A 
ATOM     74  C   UNL A   1      38.153  28.859  30.611  1.00  0.00     0.198 A 
ATOM     75  F   UNL A   1      40.331  28.195  31.200  1.00  0.00    -0.203 F 
ATOM     76  F   UNL A   1      36.820  30.068  27.467  1.00  0.00    -0.200 F 
ATOM     77  C   UNL A   1      37.254  29.336  29.670  1.00  0.00     0.200 A 
ATOM     78  F   UNL A   1      37.742  28.609  31.862  1.00  0.00    -0.200 F 
ATOM     79  F   UNL A   1      35.980  29.567  30.013  1.00  0.00    -0.200 F 
ENDBRANCH  55  69
BRANCH  56  80
ATOM     80  C   UNL A   1      49.236  26.615  26.020  1.00  0.00     0.064 A 
ATOM     81  C   UNL A   1      49.626  26.875  24.699  1.00  0.00     0.173 A 
ATOM     82  C   UNL A   1      50.183  26.036  26.876  1.00  0.00     0.173 A 
ATOM     83  F   UNL A   1      48.751  27.413  23.836  1.00  0.00    -0.203 F 
ATOM     84  C   UNL A   1      50.900  26.540  24.244  1.00  0.00     0.198 A 
ATOM     85  C   UNL A   1      51.468  25.733  26.430  1.00  0.00     0.198 A 
ATOM     86  F   UNL A   1      49.867  25.776  28.153  1.00  0.00    -0.203 F 
ATOM     87  F   UNL A   1      51.226  26.747  22.961  1.00  0.00    -0.200 F 
ATOM     88  C   UNL A   1      51.821  25.974  25.112  1.00  0.00     0.200 A 
ATOM     89  F   UNL A   1      52.362  25.204  27.277  1.00  0.00    -0.200 F 
ATOM     90  F   UNL A   1      53.046  25.653  24.674  1.00  0.00    -0.200 F 
ENDBRANCH  56  80
BRANCH  68  91
ATOM     91  C   UNL A   1      46.198  32.400  28.450  1.00  0.00     0.064 A 
ATOM     92  C   UNL A   1      46.736  32.747  29.698  1.00  0.00     0.173 A 
ATOM     93  C   UNL A   1      46.199  33.375  27.441  1.00  0.00     0.173 A 
ATOM     94  F   UNL A   1      46.745  31.857  30.701  1.00  0.00    -0.203 F 
ATOM     95  C   UNL A   1      47.227  34.028  29.934  1.00  0.00     0.198 A 
ATOM     96  C   UNL A   1      46.725  34.643  27.669  1.00  0.00     0.198 A 
ATOM     97  F   UNL A   1      45.705  33.093  26.226  1.00  0.00    -0.203 F 
ATOM     98  F   UNL A   1      47.684  34.354  31.151  1.00  0.00    -0.200 F 
ATOM     99  C   UNL A   1      47.229  34.972  28.918  1.00  0.00     0.200 A 
ATOM    100  F   UNL A   1      46.743  35.548  26.680  1.00  0.00    -0.200 F 
ATOM    101  F   UNL A   1      47.712  36.201  29.144  1.00  0.00    -0.200 F 
ENDBRANCH  68  91
ENDBRANCH  42  43
ENDBRANCH  34  37
ENDBRANCH  32  33
ENDBRANCH  31  32
ENDBRANCH  30  31
ENDBRANCH   1  30
TORSDOF 16
ENDMDL
MODEL 2
REMARK VINA RESULT:     -12.8      4.493      8.207
REMARK SMILES O=C(CCC(=O)Nc1cccc2c1C(=O)c1ccccc1C2=O)NCCCCCCNC(=O)c1ccc(-c2c3nc(c(-c4c(F)c(F)c(F)c(F)c4F)c4ccc([nH]4)c(-c4c(F)c(F)c(F)c(F)c4F)c4nc(c(-c5c(F)c(F)c(F)c(F)c5F)c5ccc2[nH]5)C=C4)C=C3)cc1
REMARK SMILES IDX 27 1 26 2 25 3 24 4 1 5 2 6 3 8 4 9 5 10 6 11 7 12 8 14 9 15
REMARK SMILES IDX 13 16 10 17 12 18 14 19 11 20 22 21 15 22 16 23 21 24 23 25
REMARK SMILES IDX 17 26 20 27 18 28 19 29 28 30 29 31 30 32 31 33 32 34 33 36
REMARK SMILES IDX 34 37 35 38 96 39 36 40 95 41 37 42 38 43 39 44 89 45 40 46
REMARK SMILES IDX 94 47 88 48 90 49 41 50 93 51 87 52 86 53 42 55 74 56 54 57
REMARK SMILES IDX 73 58 55 59 58 60 72 61 91 62 56 63 57 64 71 66 92 67 59 68
REMARK SMILES IDX 43 69 44 70 52 71 45 72 46 73 50 74 53 75 47 76 48 77 51 78
REMARK SMILES IDX 49 79 75 80 76 81 84 82 77 83 78 84 82 85 85 86 79 87 80 88
REMARK SMILES IDX 83 89 81 90 60 91 61 92 69 93 62 94 63 95 67 96 70 97 64 98
REMARK SMILES IDX 65 99 68 100 66 101
REMARK H PARENT 24 7 7 13 31 35 90 54 58 65
REMARK Flexibility Score: inf
ROOT
ATOM      1  C   UNL A   1      31.807  25.546  26.460  1.00  0.00     0.002 C 
ENDROOT
BRANCH   1   2
ATOM      2  C   UNL A   1      30.677  24.916  25.657  1.00  0.00     0.021 C 
BRANCH   2   3
ATOM      3  C   UNL A   1      29.794  26.003  25.091  1.00  0.00     0.116 C 
BRANCH   3   4
ATOM      4  N   UNL A   1      29.840  26.209  23.663  1.00  0.00    -0.356 N 
ATOM      5  O   UNL A   1      29.117  28.393  23.518  1.00  0.00    -0.275 OA
ATOM      6  C   UNL A   1      29.867  27.494  23.178  1.00  0.00     0.220 C 
ATOM      7  H   UNL A   1      29.853  25.441  23.047  1.00  0.00     0.163 HD
BRANCH   6   8
ATOM      8  C   UNL A   1      31.093  27.857  22.409  1.00  0.00     0.110 C 
BRANCH   8   9
ATOM      9  C   UNL A   1      31.659  26.522  21.899  1.00  0.00     0.110 C 
BRANCH   9  10
ATOM     10  C   UNL A   1      33.152  26.503  22.071  1.00  0.00     0.224 C 
ATOM     11  O   UNL A   1      33.785  27.500  21.681  1.00  0.00    -0.275 OA
ATOM     12  N   UNL A   1      33.920  25.538  22.631  1.00  0.00    -0.325 N 
ATOM     13  H   UNL A   1      34.845  25.874  22.650  1.00  0.00     0.169 HD
BRANCH  12  14
ATOM     14  C   UNL A   1      33.928  24.232  23.206  1.00  0.00     0.053 A 
ATOM     15  C   UNL A   1      32.692  23.597  22.930  1.00  0.00     0.027 A 
ATOM     16  C   UNL A   1      34.865  23.471  23.956  1.00  0.00     0.057 A 
ATOM     17  C   UNL A   1      32.424  22.271  23.262  1.00  0.00     0.003 A 
ATOM     18  C   UNL A   1      34.648  22.080  24.143  1.00  0.00     0.036 A 
ATOM     19  C   UNL A   1      35.596  23.911  25.190  1.00  0.00     0.196 C 
ATOM     20  C   UNL A   1      33.423  21.493  23.820  1.00  0.00     0.013 A 
ATOM     21  C   UNL A   1      35.693  21.239  24.809  1.00  0.00     0.194 C 
ATOM     22  O   UNL A   1      34.995  24.400  26.144  1.00  0.00    -0.288 OA
ATOM     23  C   UNL A   1      36.882  23.270  25.494  1.00  0.00     0.034 A 
ATOM     24  C   UNL A   1      36.924  21.898  25.298  1.00  0.00     0.034 A 
ATOM     25  O   UNL A   1      35.545  20.030  24.935  1.00  0.00    -0.289 OA
ATOM     26  C   UNL A   1      37.952  23.940  26.094  1.00  0.00     0.013 A 
ATOM     27  C   UNL A   1      38.076  21.188  25.642  1.00  0.00     0.013 A 
ATOM     28  C   UNL A   1      39.126  23.248  26.375  1.00  0.00     0.001 A 
ATOM     29  C   UNL A   1      39.188  21.872  26.149  1.00  0.00     0.001 A 
ENDBRANCH  12  14
ENDBRANCH   9  10
ENDBRANCH   8   9
ENDBRANCH   6   8
ENDBRANCH   3   4
ENDBRANCH   2   3
ENDBRANCH   1   2
BRANCH   1  30
ATOM     30  C   UNL A   1      32.457  26.767  25.778  1.00  0.00     0.002 C 
BRANCH  30  31
ATOM     31  C   UNL A   1      33.249  27.687  26.709  1.00  0.00     0.021 C 
BRANCH  31  32
ATOM     32  C   UNL A   1      34.100  28.714  25.976  1.00  0.00     0.116 C 
BRANCH  32  33
ATOM     33  N   UNL A   1      33.849  30.063  26.469  1.00  0.00    -0.352 N 
ATOM     34  C   UNL A   1      34.434  30.759  27.489  1.00  0.00     0.251 C 
ATOM     35  H   UNL A   1      33.141  30.551  25.988  1.00  0.00     0.163 HD
ATOM     36  O   UNL A   1      33.924  31.782  27.913  1.00  0.00    -0.269 OA
BRANCH  34  37
ATOM     37  C   UNL A   1      35.690  30.256  28.065  1.00  0.00     0.039 A 
ATOM     38  C   UNL A   1      36.875  30.441  27.354  1.00  0.00     0.014 A 
ATOM     39  C   UNL A   1      35.687  29.589  29.293  1.00  0.00     0.014 A 
ATOM     40  C   UNL A   1      38.073  29.990  27.899  1.00  0.00     0.010 A 
ATOM     41  C   UNL A   1      36.891  29.219  29.875  1.00  0.00     0.010 A 
ATOM     42  C   UNL A   1      38.090  29.402  29.175  1.00  0.00    -0.014 A 
BRANCH  42  43
ATOM     43  C   UNL A   1      39.362  28.961  29.790  1.00  0.00     0.031 A 
ATOM     44  C   UNL A   1      39.917  29.700  30.972  1.00  0.00     0.074 A 
ATOM     45  C   UNL A   1      40.035  27.933  29.241  1.00  0.00     0.049 A 
ATOM     46  N   UNL A   1      41.038  29.503  31.617  1.00  0.00    -0.248 NA
ATOM     47  C   UNL A   1      39.123  30.830  31.482  1.00  0.00     0.031 C 
ATOM     48  C   UNL A   1      39.609  27.178  28.061  1.00  0.00     0.029 A 
ATOM     49  N   UNL A   1      41.223  27.351  29.598  1.00  0.00    -0.354 N 
ATOM     50  C   UNL A   1      41.088  30.488  32.594  1.00  0.00     0.074 A 
ATOM     51  C   UNL A   1      39.917  31.318  32.422  1.00  0.00     0.031 C 
ATOM     52  C   UNL A   1      40.509  26.215  27.808  1.00  0.00     0.029 A 
ATOM     53  C   UNL A   1      41.595  26.314  28.778  1.00  0.00     0.049 A 
ATOM     54  H   UNL A   1      41.760  27.648  30.368  1.00  0.00     0.167 HD
ATOM     55  C   UNL A   1      42.019  30.667  33.559  1.00  0.00     0.037 A 
ATOM     56  C   UNL A   1      42.696  25.541  28.803  1.00  0.00     0.037 A 
ATOM     57  C   UNL A   1      43.170  29.820  33.731  1.00  0.00     0.049 A 
ATOM     58  C   UNL A   1      43.719  25.772  29.881  1.00  0.00     0.074 A 
ATOM     59  C   UNL A   1      44.139  29.872  34.718  1.00  0.00     0.029 A 
ATOM     60  N   UNL A   1      43.511  28.771  32.888  1.00  0.00    -0.354 N 
ATOM     61  N   UNL A   1      43.718  26.653  30.851  1.00  0.00    -0.248 NA
ATOM     62  C   UNL A   1      44.896  24.893  29.872  1.00  0.00     0.031 C 
ATOM     63  C   UNL A   1      45.099  28.895  34.436  1.00  0.00     0.029 A 
ATOM     64  C   UNL A   1      44.693  28.189  33.315  1.00  0.00     0.049 A 
ATOM     65  H   UNL A   1      42.989  28.484  32.105  1.00  0.00     0.167 HD
ATOM     66  C   UNL A   1      44.873  26.416  31.586  1.00  0.00     0.074 A 
ATOM     67  C   UNL A   1      45.541  25.295  30.958  1.00  0.00     0.031 C 
ATOM     68  C   UNL A   1      45.339  27.067  32.680  1.00  0.00     0.037 A 
BRANCH  55  69
ATOM     69  C   UNL A   1      41.835  31.822  34.502  1.00  0.00     0.064 A 
ATOM     70  C   UNL A   1      42.378  33.089  34.235  1.00  0.00     0.173 A 
ATOM     71  C   UNL A   1      41.070  31.671  35.668  1.00  0.00     0.173 A 
ATOM     72  F   UNL A   1      43.127  33.286  33.139  1.00  0.00    -0.203 F 
ATOM     73  C   UNL A   1      42.187  34.152  35.115  1.00  0.00     0.198 A 
ATOM     74  C   UNL A   1      40.853  32.745  36.528  1.00  0.00     0.198 A 
ATOM     75  F   UNL A   1      40.525  30.484  35.971  1.00  0.00    -0.203 F 
ATOM     76  F   UNL A   1      42.759  35.337  34.863  1.00  0.00    -0.200 F 
ATOM     77  C   UNL A   1      41.417  33.981  36.256  1.00  0.00     0.200 A 
ATOM     78  F   UNL A   1      40.096  32.581  37.622  1.00  0.00    -0.200 F 
ATOM     79  F   UNL A   1      41.225  35.008  37.094  1.00  0.00    -0.200 F 
ENDBRANCH  55  69
BRANCH  56  80
ATOM     80  C   UNL A   1      42.877  24.470  27.789  1.00  0.00     0.064 A 
ATOM     81  C   UNL A   1      42.508  23.146  28.064  1.00  0.00     0.173 A 
ATOM     82  C   UNL A   1      43.434  24.742  26.531  1.00  0.00     0.173 A 
ATOM     83  F   UNL A   1      41.987  22.831  29.259  1.00  0.00    -0.203 F 
ATOM     84  C   UNL A   1      42.717  22.131  27.133  1.00  0.00     0.198 A 
ATOM     85  C   UNL A   1      43.611  23.733  25.587  1.00  0.00     0.198 A 
ATOM     86  F   UNL A   1      43.795  25.994  26.211  1.00  0.00    -0.203 F 
ATOM     87  F   UNL A   1      42.408  20.865  27.445  1.00  0.00    -0.200 F 
ATOM     88  C   UNL A   1      43.263  22.426  25.893  1.00  0.00     0.200 A 
ATOM     89  F   UNL A   1      44.121  24.025  24.383  1.00  0.00    -0.200 F 
ATOM     90  F   UNL A   1      43.463  21.450  24.998  1.00  0.00    -0.200 F 
ENDBRANCH  56  80
BRANCH  68  91
ATOM     91  C   UNL A   1      46.610  26.555  33.295  1.00  0.00     0.064 A 
ATOM     92  C   UNL A   1      47.864  27.072  32.938  1.00  0.00     0.173 A 
ATOM     93  C   UNL A   1      46.566  25.561  34.284  1.00  0.00     0.173 A 
ATOM     94  F   UNL A   1      47.962  28.013  31.987  1.00  0.00    -0.203 F 
ATOM     95  C   UNL A   1      49.029  26.590  33.528  1.00  0.00     0.198 A 
ATOM     96  C   UNL A   1      47.730  25.108  34.898  1.00  0.00     0.198 A 
ATOM     97  F   UNL A   1      45.392  25.039  34.669  1.00  0.00    -0.203 F 
ATOM     98  F   UNL A   1      50.221  27.059  33.131  1.00  0.00    -0.200 F 
ATOM     99  C   UNL A   1      48.961  25.616  34.513  1.00  0.00     0.200 A 
ATOM    100  F   UNL A   1      47.660  24.180  35.862  1.00  0.00    -0.200 F 
ATOM    101  F   UNL A   1      50.084  25.161  35.085  1.00  0.00    -0.200 F 
ENDBRANCH  68  91
ENDBRANCH  42  43
ENDBRANCH  34  37
ENDBRANCH  32  33
ENDBRANCH  31  32
ENDBRANCH  30  31
ENDBRANCH   1  30
TORSDOF 16
ENDMDL
MODEL 3
REMARK VINA RESULT:     -12.7      3.098      8.292
REMARK SMILES O=C(CCC(=O)Nc1cccc2c1C(=O)c1ccccc1C2=O)NCCCCCCNC(=O)c1ccc(-c2c3nc(c(-c4c(F)c(F)c(F)c(F)c4F)c4ccc([nH]4)c(-c4c(F)c(F)c(F)c(F)c4F)c4nc(c(-c5c(F)c(F)c(F)c(F)c5F)c5ccc2[nH]5)C=C4)C=C3)cc1
REMARK SMILES IDX 27 1 26 2 25 3 24 4 1 5 2 6 3 8 4 9 5 10 6 11 7 12 8 14 9 15
REMARK SMILES IDX 13 16 10 17 12 18 14 19 11 20 22 21 15 22 16 23 21 24 23 25
REMARK SMILES IDX 17 26 20 27 18 28 19 29 28 30 29 31 30 32 31 33 32 34 33 36
REMARK SMILES IDX 34 37 35 38 96 39 36 40 95 41 37 42 38 43 39 44 89 45 40 46
REMARK SMILES IDX 94 47 88 48 90 49 41 50 93 51 87 52 86 53 42 55 74 56 54 57
REMARK SMILES IDX 73 58 55 59 58 60 72 61 91 62 56 63 57 64 71 66 92 67 59 68
REMARK SMILES IDX 43 69 44 70 52 71 45 72 46 73 50 74 53 75 47 76 48 77 51 78
REMARK SMILES IDX 49 79 75 80 76 81 84 82 77 83 78 84 82 85 85 86 79 87 80 88
REMARK SMILES IDX 83 89 81 90 60 91 61 92 69 93 62 94 63 95 67 96 70 97 64 98
REMARK SMILES IDX 65 99 68 100 66 101
REMARK H PARENT 24 7 7 13 31 35 90 54 58 65
REMARK Flexibility Score: inf
ROOT
ATOM      1  C   UNL A   1      33.979  22.450  23.770  1.00  0.00     0.002 C 
ENDROOT
BRANCH   1   2
ATOM      2  C   UNL A   1      34.351  21.214  24.579  1.00  0.00     0.021 C 
BRANCH   2   3
ATOM      3  C   UNL A   1      33.572  21.206  25.872  1.00  0.00     0.116 C 
BRANCH   3   4
ATOM      4  N   UNL A   1      32.355  21.981  25.910  1.00  0.00    -0.356 N 
ATOM      5  O   UNL A   1      32.412  22.769  28.076  1.00  0.00    -0.275 OA
ATOM      6  C   UNL A   1      32.207  22.938  26.886  1.00  0.00     0.220 C 
ATOM      7  H   UNL A   1      31.643  21.829  25.246  1.00  0.00     0.163 HD
BRANCH   6   8
ATOM      8  C   UNL A   1      32.074  24.338  26.389  1.00  0.00     0.110 C 
BRANCH   8   9
ATOM      9  C   UNL A   1      30.633  24.445  25.866  1.00  0.00     0.110 C 
BRANCH   9  10
ATOM     10  C   UNL A   1      30.644  24.632  24.374  1.00  0.00     0.224 C 
ATOM     11  O   UNL A   1      30.709  23.608  23.671  1.00  0.00    -0.275 OA
ATOM     12  N   UNL A   1      30.563  25.787  23.673  1.00  0.00    -0.325 N 
ATOM     13  H   UNL A   1      30.524  25.549  22.719  1.00  0.00     0.169 HD
BRANCH  12  14
ATOM     14  C   UNL A   1      30.509  27.211  23.759  1.00  0.00     0.053 A 
ATOM     15  C   UNL A   1      29.503  27.690  22.885  1.00  0.00     0.027 A 
ATOM     16  C   UNL A   1      31.214  28.200  24.499  1.00  0.00     0.057 A 
ATOM     17  C   UNL A   1      29.126  29.029  22.815  1.00  0.00     0.003 A 
ATOM     18  C   UNL A   1      30.715  29.529  24.542  1.00  0.00     0.036 A 
ATOM     19  C   UNL A   1      32.702  28.347  24.608  1.00  0.00     0.196 C 
ATOM     20  C   UNL A   1      29.695  29.943  23.684  1.00  0.00     0.013 A 
ATOM     21  C   UNL A   1      31.365  30.546  25.428  1.00  0.00     0.194 C 
ATOM     22  O   UNL A   1      33.414  28.367  23.606  1.00  0.00    -0.288 OA
ATOM     23  C   UNL A   1      33.242  29.014  25.800  1.00  0.00     0.034 A 
ATOM     24  C   UNL A   1      32.553  30.143  26.214  1.00  0.00     0.034 A 
ATOM     25  O   UNL A   1      30.921  31.684  25.516  1.00  0.00    -0.289 OA
ATOM     26  C   UNL A   1      34.454  28.657  26.398  1.00  0.00     0.013 A 
ATOM     27  C   UNL A   1      33.040  30.894  27.286  1.00  0.00     0.013 A 
ATOM     28  C   UNL A   1      34.907  29.363  27.508  1.00  0.00     0.001 A 
ATOM     29  C   UNL A   1      34.200  30.481  27.952  1.00  0.00     0.001 A 
ENDBRANCH  12  14
ENDBRANCH   9  10
ENDBRANCH   8   9
ENDBRANCH   6   8
ENDBRANCH   3   4
ENDBRANCH   2   3
ENDBRANCH   1   2
BRANCH   1  30
ATOM     30  C   UNL A   1      34.885  23.670  24.034  1.00  0.00     0.002 C 
BRANCH  30  31
ATOM     31  C   UNL A   1      36.369  23.350  24.222  1.00  0.00     0.021 C 
BRANCH  31  32
ATOM     32  C   UNL A   1      36.868  23.569  25.643  1.00  0.00     0.116 C 
BRANCH  32  33
ATOM     33  N   UNL A   1      37.910  22.612  25.995  1.00  0.00    -0.352 N 
ATOM     34  C   UNL A   1      39.175  22.811  26.472  1.00  0.00     0.251 C 
ATOM     35  H   UNL A   1      37.661  21.668  25.868  1.00  0.00     0.163 HD
ATOM     36  O   UNL A   1      39.987  21.902  26.474  1.00  0.00    -0.269 OA
BRANCH  34  37
ATOM     37  C   UNL A   1      39.541  24.141  26.984  1.00  0.00     0.039 A 
ATOM     38  C   UNL A   1      39.264  24.444  28.316  1.00  0.00     0.014 A 
ATOM     39  C   UNL A   1      40.138  25.083  26.142  1.00  0.00     0.014 A 
ATOM     40  C   UNL A   1      39.627  25.690  28.819  1.00  0.00     0.010 A 
ATOM     41  C   UNL A   1      40.577  26.289  26.666  1.00  0.00     0.010 A 
ATOM     42  C   UNL A   1      40.310  26.608  28.004  1.00  0.00    -0.014 A 
BRANCH  42  43
ATOM     43  C   UNL A   1      40.746  27.919  28.537  1.00  0.00     0.031 A 
ATOM     44  C   UNL A   1      42.190  28.146  28.874  1.00  0.00     0.074 A 
ATOM     45  C   UNL A   1      39.824  28.872  28.767  1.00  0.00     0.049 A 
ATOM     46  N   UNL A   1      42.760  29.201  29.398  1.00  0.00    -0.248 NA
ATOM     47  C   UNL A   1      43.116  27.031  28.614  1.00  0.00     0.031 C 
ATOM     48  C   UNL A   1      38.388  28.737  28.523  1.00  0.00     0.029 A 
ATOM     49  N   UNL A   1      39.959  30.142  29.266  1.00  0.00    -0.354 N 
ATOM     50  C   UNL A   1      44.100  28.872  29.543  1.00  0.00     0.074 A 
ATOM     51  C   UNL A   1      44.252  27.502  29.108  1.00  0.00     0.031 C 
ATOM     52  C   UNL A   1      37.777  29.887  28.847  1.00  0.00     0.029 A 
ATOM     53  C   UNL A   1      38.771  30.822  29.364  1.00  0.00     0.049 A 
ATOM     54  H   UNL A   1      40.826  30.528  29.531  1.00  0.00     0.167 HD
ATOM     55  C   UNL A   1      45.115  29.653  29.979  1.00  0.00     0.037 A 
ATOM     56  C   UNL A   1      38.515  32.058  29.829  1.00  0.00     0.037 A 
ATOM     57  C   UNL A   1      44.953  31.023  30.391  1.00  0.00     0.049 A 
ATOM     58  C   UNL A   1      39.662  32.900  30.320  1.00  0.00     0.074 A 
ATOM     59  C   UNL A   1      45.924  31.925  30.787  1.00  0.00     0.029 A 
ATOM     60  N   UNL A   1      43.735  31.685  30.467  1.00  0.00    -0.354 N 
ATOM     61  N   UNL A   1      40.939  32.610  30.377  1.00  0.00    -0.248 NA
ATOM     62  C   UNL A   1      39.332  34.246  30.807  1.00  0.00     0.031 C 
ATOM     63  C   UNL A   1      45.288  33.112  31.162  1.00  0.00     0.029 A 
ATOM     64  C   UNL A   1      43.928  32.975  30.935  1.00  0.00     0.049 A 
ATOM     65  H   UNL A   1      42.864  31.296  30.224  1.00  0.00     0.167 HD
ATOM     66  C   UNL A   1      41.568  33.744  30.872  1.00  0.00     0.074 A 
ATOM     67  C   UNL A   1      40.532  34.734  31.084  1.00  0.00     0.031 C 
ATOM     68  C   UNL A   1      42.884  33.949  31.130  1.00  0.00     0.037 A 
BRANCH  55  69
ATOM     69  C   UNL A   1      46.488  29.047  30.039  1.00  0.00     0.064 A 
ATOM     70  C   UNL A   1      47.364  29.088  28.943  1.00  0.00     0.173 A 
ATOM     71  C   UNL A   1      46.949  28.453  31.223  1.00  0.00     0.173 A 
ATOM     72  F   UNL A   1      46.969  29.636  27.783  1.00  0.00    -0.203 F 
ATOM     73  C   UNL A   1      48.638  28.531  29.021  1.00  0.00     0.198 A 
ATOM     74  C   UNL A   1      48.236  27.927  31.308  1.00  0.00     0.198 A 
ATOM     75  F   UNL A   1      46.156  28.389  32.303  1.00  0.00    -0.203 F 
ATOM     76  F   UNL A   1      49.436  28.537  27.944  1.00  0.00    -0.200 F 
ATOM     77  C   UNL A   1      49.076  27.959  30.206  1.00  0.00     0.200 A 
ATOM     78  F   UNL A   1      48.663  27.388  32.459  1.00  0.00    -0.200 F 
ATOM     79  F   UNL A   1      50.306  27.435  30.282  1.00  0.00    -0.200 F 
ENDBRANCH  55  69
BRANCH  56  80
ATOM     80  C   UNL A   1      37.123  32.579  29.837  1.00  0.00     0.064 A 
ATOM     81  C   UNL A   1      36.609  33.280  28.737  1.00  0.00     0.173 A 
ATOM     82  C   UNL A   1      36.283  32.399  30.946  1.00  0.00     0.173 A 
ATOM     83  F   UNL A   1      37.379  33.493  27.660  1.00  0.00    -0.203 F 
ATOM     84  C   UNL A   1      35.320  33.807  28.758  1.00  0.00     0.198 A 
ATOM     85  C   UNL A   1      34.981  32.897  30.952  1.00  0.00     0.198 A 
ATOM     86  F   UNL A   1      36.720  31.727  32.020  1.00  0.00    -0.203 F 
ATOM     87  F   UNL A   1      34.875  34.522  27.716  1.00  0.00    -0.200 F 
ATOM     88  C   UNL A   1      34.505  33.611  29.863  1.00  0.00     0.200 A 
ATOM     89  F   UNL A   1      34.191  32.689  32.013  1.00  0.00    -0.200 F 
ATOM     90  F   UNL A   1      33.265  34.118  29.881  1.00  0.00    -0.200 F 
ENDBRANCH  56  80
BRANCH  68  91
ATOM     91  C   UNL A   1      43.283  35.309  31.628  1.00  0.00     0.064 A 
ATOM     92  C   UNL A   1      43.706  36.320  30.754  1.00  0.00     0.173 A 
ATOM     93  C   UNL A   1      43.201  35.613  32.995  1.00  0.00     0.173 A 
ATOM     94  F   UNL A   1      43.817  36.076  29.440  1.00  0.00    -0.203 F 
ATOM     95  C   UNL A   1      44.063  37.577  31.235  1.00  0.00     0.198 A 
ATOM     96  C   UNL A   1      43.522  36.882  33.468  1.00  0.00     0.198 A 
ATOM     97  F   UNL A   1      42.793  34.684  33.873  1.00  0.00    -0.203 F 
ATOM     98  F   UNL A   1      44.519  38.512  30.389  1.00  0.00    -0.200 F 
ATOM     99  C   UNL A   1      43.962  37.860  32.589  1.00  0.00     0.200 A 
ATOM    100  F   UNL A   1      43.407  37.158  34.774  1.00  0.00    -0.200 F 
ATOM    101  F   UNL A   1      44.296  39.074  33.048  1.00  0.00    -0.200 F 
ENDBRANCH  68  91
ENDBRANCH  42  43
ENDBRANCH  34  37
ENDBRANCH  32  33
ENDBRANCH  31  32
ENDBRANCH  30  31
ENDBRANCH   1  30
TORSDOF 16
ENDMDL
