MODEL 1
REMARK VINA RESULT:     -12.4      0.000      0.000
REMARK SMILES O=C(NCCCCCCNC(=O)[C@@H]1CCCN(C(=O)c2c(F)cc(Br)cc2F)C1)c1ccc(-c2c3nc(c(-c4c(F)c(F)c(F)c(F)c4F)c4ccc([nH]4)c(-c4c(F)c(F)c(F)c(F)c4F)c4nc(c(-c5c(F)c(F)c(F)c(F)c5F)c5ccc2[nH]5)C=C4)C=C3)cc1
REMARK SMILES IDX 6 1 5 2 4 3 3 4 1 5 2 6 30 8 31 9 92 10 32 11 91 12 33 13
REMARK SMILES IDX 34 14 35 15 85 16 36 17 90 18 84 19 86 20 37 21 89 22 83 23
REMARK SMILES IDX 82 24 38 26 70 27 50 28 69 29 51 30 54 31 68 32 87 33 52 34
REMARK SMILES IDX 53 35 67 37 88 38 55 39 39 40 40 41 48 42 41 43 42 44 46 45
REMARK SMILES IDX 49 46 43 47 44 48 47 49 45 50 71 51 72 52 80 53 73 54 74 55
REMARK SMILES IDX 78 56 81 57 75 58 76 59 79 60 77 61 56 62 57 63 65 64 58 65
REMARK SMILES IDX 59 66 63 67 66 68 60 69 61 70 64 71 62 72 7 73 8 74 9 75
REMARK SMILES IDX 10 76 11 77 12 79 13 80 14 81 29 82 15 83 17 84 16 85 18 86
REMARK SMILES IDX 19 87 20 88 21 89 27 90 22 91 23 92 26 93 28 94 24 95 25 96
REMARK H PARENT 3 7 86 25 54 36 10 78
REMARK Flexibility Score: inf
ROOT
ATOM      1  C   UNL A   1      31.325  31.062  26.116  1.00  0.00     0.002 C 
ENDROOT
BRANCH   1   2
ATOM      2  C   UNL A   1      31.320  32.556  26.444  1.00  0.00     0.021 C 
BRANCH   2   3
ATOM      3  C   UNL A   1      32.476  33.008  27.328  1.00  0.00     0.116 C 
BRANCH   3   4
ATOM      4  N   UNL A   1      32.321  34.387  27.762  1.00  0.00    -0.352 N 
ATOM      5  O   UNL A   1      32.592  36.163  29.129  1.00  0.00    -0.269 OA
ATOM      6  C   UNL A   1      32.989  35.061  28.748  1.00  0.00     0.251 C 
ATOM      7  H   UNL A   1      31.640  34.909  27.279  1.00  0.00     0.163 HD
BRANCH   6   8
ATOM      8  C   UNL A   1      34.184  34.459  29.368  1.00  0.00     0.039 A 
ATOM      9  C   UNL A   1      35.450  34.640  28.800  1.00  0.00     0.014 A 
ATOM     10  C   UNL A   1      34.037  33.724  30.546  1.00  0.00     0.014 A 
ATOM     11  C   UNL A   1      36.554  33.997  29.350  1.00  0.00     0.010 A 
ATOM     12  C   UNL A   1      35.156  33.137  31.136  1.00  0.00     0.010 A 
ATOM     13  C   UNL A   1      36.419  33.254  30.532  1.00  0.00    -0.014 A 
BRANCH  13  14
ATOM     14  C   UNL A   1      37.607  32.643  31.174  1.00  0.00     0.031 A 
ATOM     15  C   UNL A   1      38.322  31.496  30.525  1.00  0.00     0.074 A 
ATOM     16  C   UNL A   1      38.005  33.099  32.376  1.00  0.00     0.049 A 
ATOM     17  N   UNL A   1      39.301  30.762  30.989  1.00  0.00    -0.248 NA
ATOM     18  C   UNL A   1      37.866  31.115  29.181  1.00  0.00     0.031 C 
ATOM     19  C   UNL A   1      37.382  34.208  33.102  1.00  0.00     0.029 A 
ATOM     20  N   UNL A   1      39.008  32.676  33.208  1.00  0.00    -0.354 N 
ATOM     21  C   UNL A   1      39.562  29.816  30.007  1.00  0.00     0.074 A 
ATOM     22  C   UNL A   1      38.622  30.055  28.932  1.00  0.00     0.031 C 
ATOM     23  C   UNL A   1      38.014  34.375  34.272  1.00  0.00     0.029 A 
ATOM     24  C   UNL A   1      39.042  33.347  34.405  1.00  0.00     0.049 A 
ATOM     25  H   UNL A   1      39.641  31.960  32.972  1.00  0.00     0.167 HD
ATOM     26  C   UNL A   1      40.503  28.841  30.008  1.00  0.00     0.037 A 
ATOM     27  C   UNL A   1      39.785  33.134  35.505  1.00  0.00     0.037 A 
ATOM     28  C   UNL A   1      41.432  28.617  31.088  1.00  0.00     0.049 A 
ATOM     29  C   UNL A   1      40.793  32.020  35.504  1.00  0.00     0.074 A 
ATOM     30  C   UNL A   1      42.453  27.687  31.169  1.00  0.00     0.029 A 
ATOM     31  N   UNL A   1      41.439  29.324  32.283  1.00  0.00    -0.354 N 
ATOM     32  N   UNL A   1      41.064  31.157  34.556  1.00  0.00    -0.248 NA
ATOM     33  C   UNL A   1      41.597  31.850  36.720  1.00  0.00     0.031 C 
ATOM     34  C   UNL A   1      43.037  27.789  32.436  1.00  0.00     0.029 A 
ATOM     35  C   UNL A   1      42.427  28.828  33.120  1.00  0.00     0.049 A 
ATOM     36  H   UNL A   1      40.833  30.067  32.503  1.00  0.00     0.167 HD
ATOM     37  C   UNL A   1      42.088  30.359  35.046  1.00  0.00     0.074 A 
ATOM     38  C   UNL A   1      42.390  30.844  36.378  1.00  0.00     0.031 C 
ATOM     39  C   UNL A   1      42.723  29.327  34.441  1.00  0.00     0.037 A 
BRANCH  26  40
ATOM     40  C   UNL A   1      40.545  27.917  28.824  1.00  0.00     0.064 A 
ATOM     41  C   UNL A   1      41.336  28.188  27.697  1.00  0.00     0.173 A 
ATOM     42  C   UNL A   1      39.787  26.735  28.820  1.00  0.00     0.173 A 
ATOM     43  F   UNL A   1      42.075  29.308  27.643  1.00  0.00    -0.203 F 
ATOM     44  C   UNL A   1      41.333  27.335  26.596  1.00  0.00     0.198 A 
ATOM     45  C   UNL A   1      39.813  25.867  27.732  1.00  0.00     0.198 A 
ATOM     46  F   UNL A   1      39.021  26.419  29.875  1.00  0.00    -0.203 F 
ATOM     47  F   UNL A   1      42.047  27.648  25.506  1.00  0.00    -0.200 F 
ATOM     48  C   UNL A   1      40.576  26.174  26.615  1.00  0.00     0.200 A 
ATOM     49  F   UNL A   1      39.093  24.737  27.760  1.00  0.00    -0.200 F 
ATOM     50  F   UNL A   1      40.572  25.356  25.554  1.00  0.00    -0.200 F 
ENDBRANCH  26  40
BRANCH  27  51
ATOM     51  C   UNL A   1      39.579  33.999  36.694  1.00  0.00     0.064 A 
ATOM     52  C   UNL A   1      38.779  33.580  37.763  1.00  0.00     0.173 A 
ATOM     53  C   UNL A   1      40.234  35.236  36.809  1.00  0.00     0.173 A 
ATOM     54  F   UNL A   1      38.123  32.412  37.690  1.00  0.00    -0.203 F 
ATOM     55  C   UNL A   1      38.640  34.365  38.905  1.00  0.00     0.198 A 
ATOM     56  C   UNL A   1      40.115  36.006  37.963  1.00  0.00     0.198 A 
ATOM     57  F   UNL A   1      41.020  35.675  35.816  1.00  0.00    -0.203 F 
ATOM     58  F   UNL A   1      37.851  33.952  39.906  1.00  0.00    -0.200 F 
ATOM     59  C   UNL A   1      39.316  35.572  39.009  1.00  0.00     0.200 A 
ATOM     60  F   UNL A   1      40.788  37.161  38.067  1.00  0.00    -0.200 F 
ATOM     61  F   UNL A   1      39.198  36.315  40.118  1.00  0.00    -0.200 F 
ENDBRANCH  27  51
BRANCH  39  62
ATOM     62  C   UNL A   1      43.848  28.671  35.187  1.00  0.00     0.064 A 
ATOM     63  C   UNL A   1      45.175  29.105  35.058  1.00  0.00     0.173 A 
ATOM     64  C   UNL A   1      43.578  27.644  36.106  1.00  0.00     0.173 A 
ATOM     65  F   UNL A   1      45.488  30.070  34.181  1.00  0.00    -0.203 F 
ATOM     66  C   UNL A   1      46.191  28.530  35.817  1.00  0.00     0.198 A 
ATOM     67  C   UNL A   1      44.591  27.092  36.883  1.00  0.00     0.198 A 
ATOM     68  F   UNL A   1      42.324  27.196  36.269  1.00  0.00    -0.203 F 
ATOM     69  F   UNL A   1      47.458  28.939  35.658  1.00  0.00    -0.200 F 
ATOM     70  C   UNL A   1      45.897  27.534  36.737  1.00  0.00     0.200 A 
ATOM     71  F   UNL A   1      44.301  26.140  37.782  1.00  0.00    -0.200 F 
ATOM     72  F   UNL A   1      46.873  26.997  37.482  1.00  0.00    -0.200 F 
ENDBRANCH  39  62
ENDBRANCH  13  14
ENDBRANCH   6   8
ENDBRANCH   3   4
ENDBRANCH   2   3
ENDBRANCH   1   2
BRANCH   1  73
ATOM     73  C   UNL A   1      32.367  30.241  26.885  1.00  0.00     0.002 C 
BRANCH  73  74
ATOM     74  C   UNL A   1      33.346  29.452  26.005  1.00  0.00     0.021 C 
BRANCH  74  75
ATOM     75  C   UNL A   1      33.863  28.166  26.650  1.00  0.00     0.116 C 
BRANCH  75  76
ATOM     76  N   UNL A   1      34.155  27.177  25.631  1.00  0.00    -0.356 N 
ATOM     77  C   UNL A   1      33.717  25.895  25.511  1.00  0.00     0.224 C 
ATOM     78  H   UNL A   1      34.762  27.480  24.918  1.00  0.00     0.163 HD
ATOM     79  O   UNL A   1      34.299  25.165  24.708  1.00  0.00    -0.275 OA
BRANCH  77  80
ATOM     80  C   UNL A   1      32.532  25.432  26.350  1.00  0.00     0.098 C 
ATOM     81  C   UNL A   1      32.487  23.904  26.503  1.00  0.00     0.017 C 
ATOM     82  C   UNL A   1      31.229  25.944  25.724  1.00  0.00     0.133 C 
ATOM     83  C   UNL A   1      32.061  23.180  25.224  1.00  0.00     0.022 C 
ATOM     84  N   UNL A   1      30.929  25.243  24.476  1.00  0.00    -0.338 N 
ATOM     85  C   UNL A   1      30.810  23.790  24.600  1.00  0.00     0.120 C 
BRANCH  84  86
ATOM     86  C   UNL A   1      30.871  25.983  23.295  1.00  0.00     0.259 C 
ATOM     87  O   UNL A   1      31.382  25.613  22.239  1.00  0.00    -0.269 OA
BRANCH  86  88
ATOM     88  C   UNL A   1      30.169  27.272  23.269  1.00  0.00     0.111 A 
ATOM     89  C   UNL A   1      30.854  28.462  23.037  1.00  0.00     0.140 A 
ATOM     90  C   UNL A   1      28.783  27.301  23.398  1.00  0.00     0.140 A 
ATOM     91  F   UNL A   1      32.186  28.466  22.877  1.00  0.00    -0.206 F 
ATOM     92  C   UNL A   1      30.175  29.678  22.989  1.00  0.00     0.056 A 
ATOM     93  C   UNL A   1      28.087  28.507  23.341  1.00  0.00     0.056 A 
ATOM     94  F   UNL A   1      28.085  26.174  23.597  1.00  0.00    -0.206 F 
ATOM     95  C   UNL A   1      28.791  29.693  23.144  1.00  0.00     0.023 A 
ATOM     96  Br  UNL A   1      27.861  31.337  23.084  1.00  0.00    -0.051 Br
ENDBRANCH  86  88
ENDBRANCH  84  86
ENDBRANCH  77  80
ENDBRANCH  75  76
ENDBRANCH  74  75
ENDBRANCH  73  74
ENDBRANCH   1  73
TORSDOF 15
ENDMDL
MODEL 2
REMARK VINA RESULT:     -12.3      2.357      3.909
REMARK SMILES O=C(NCCCCCCNC(=O)[C@@H]1CCCN(C(=O)c2c(F)cc(Br)cc2F)C1)c1ccc(-c2c3nc(c(-c4c(F)c(F)c(F)c(F)c4F)c4ccc([nH]4)c(-c4c(F)c(F)c(F)c(F)c4F)c4nc(c(-c5c(F)c(F)c(F)c(F)c5F)c5ccc2[nH]5)C=C4)C=C3)cc1
REMARK SMILES IDX 6 1 5 2 4 3 3 4 1 5 2 6 30 8 31 9 92 10 32 11 91 12 33 13
REMARK SMILES IDX 34 14 35 15 85 16 36 17 90 18 84 19 86 20 37 21 89 22 83 23
REMARK SMILES IDX 82 24 38 26 70 27 50 28 69 29 51 30 54 31 68 32 87 33 52 34
REMARK SMILES IDX 53 35 67 37 88 38 55 39 39 40 40 41 48 42 41 43 42 44 46 45
REMARK SMILES IDX 49 46 43 47 44 48 47 49 45 50 71 51 72 52 80 53 73 54 74 55
REMARK SMILES IDX 78 56 81 57 75 58 76 59 79 60 77 61 56 62 57 63 65 64 58 65
REMARK SMILES IDX 59 66 63 67 66 68 60 69 61 70 64 71 62 72 7 73 8 74 9 75
REMARK SMILES IDX 10 76 11 77 12 79 13 80 14 81 29 82 15 83 17 84 16 85 18 86
REMARK SMILES IDX 19 87 20 88 21 89 27 90 22 91 23 92 26 93 28 94 24 95 25 96
REMARK H PARENT 3 7 86 25 54 36 10 78
REMARK Flexibility Score: inf
ROOT
ATOM      1  C   UNL A   1      31.401  30.860  26.131  1.00  0.00     0.002 C 
ENDROOT
BRANCH   1   2
ATOM      2  C   UNL A   1      31.364  32.344  26.501  1.00  0.00     0.021 C 
BRANCH   2   3
ATOM      3  C   UNL A   1      32.601  32.836  27.244  1.00  0.00     0.116 C 
BRANCH   3   4
ATOM      4  N   UNL A   1      32.444  34.203  27.715  1.00  0.00    -0.352 N 
ATOM      5  O   UNL A   1      32.687  35.933  29.144  1.00  0.00    -0.269 OA
ATOM      6  C   UNL A   1      33.086  34.840  28.741  1.00  0.00     0.251 C 
ATOM      7  H   UNL A   1      31.781  34.745  27.229  1.00  0.00     0.163 HD
BRANCH   6   8
ATOM      8  C   UNL A   1      34.257  34.209  29.378  1.00  0.00     0.039 A 
ATOM      9  C   UNL A   1      34.099  33.349  30.471  1.00  0.00     0.014 A 
ATOM     10  C   UNL A   1      35.528  34.463  28.858  1.00  0.00     0.014 A 
ATOM     11  C   UNL A   1      35.219  32.829  31.110  1.00  0.00     0.010 A 
ATOM     12  C   UNL A   1      36.646  33.885  29.458  1.00  0.00     0.010 A 
ATOM     13  C   UNL A   1      36.501  33.079  30.599  1.00  0.00    -0.014 A 
BRANCH  13  14
ATOM     14  C   UNL A   1      37.692  32.452  31.221  1.00  0.00     0.031 A 
ATOM     15  C   UNL A   1      38.388  31.304  30.553  1.00  0.00     0.074 A 
ATOM     16  C   UNL A   1      38.109  32.894  32.422  1.00  0.00     0.049 A 
ATOM     17  N   UNL A   1      39.367  30.557  30.998  1.00  0.00    -0.248 NA
ATOM     18  C   UNL A   1      37.912  30.939  29.211  1.00  0.00     0.031 C 
ATOM     19  C   UNL A   1      37.505  34.001  33.165  1.00  0.00     0.029 A 
ATOM     20  N   UNL A   1      39.118  32.454  33.238  1.00  0.00    -0.354 N 
ATOM     21  C   UNL A   1      39.607  29.618  30.005  1.00  0.00     0.074 A 
ATOM     22  C   UNL A   1      38.656  29.875  28.944  1.00  0.00     0.031 C 
ATOM     23  C   UNL A   1      38.153  34.152  34.328  1.00  0.00     0.029 A 
ATOM     24  C   UNL A   1      39.173  33.114  34.439  1.00  0.00     0.049 A 
ATOM     25  H   UNL A   1      39.742  31.735  32.987  1.00  0.00     0.167 HD
ATOM     26  C   UNL A   1      40.539  28.635  29.986  1.00  0.00     0.037 A 
ATOM     27  C   UNL A   1      39.929  32.885  35.529  1.00  0.00     0.037 A 
ATOM     28  C   UNL A   1      41.479  28.393  31.051  1.00  0.00     0.049 A 
ATOM     29  C   UNL A   1      40.926  31.763  35.505  1.00  0.00     0.074 A 
ATOM     30  C   UNL A   1      42.493  27.453  31.112  1.00  0.00     0.029 A 
ATOM     31  N   UNL A   1      41.507  29.089  32.252  1.00  0.00    -0.354 N 
ATOM     32  N   UNL A   1      41.178  30.905  34.546  1.00  0.00    -0.248 NA
ATOM     33  C   UNL A   1      41.744  31.575  36.709  1.00  0.00     0.031 C 
ATOM     34  C   UNL A   1      43.094  27.539  32.371  1.00  0.00     0.029 A 
ATOM     35  C   UNL A   1      42.501  28.577  33.072  1.00  0.00     0.049 A 
ATOM     36  H   UNL A   1      40.911  29.835  32.487  1.00  0.00     0.167 HD
ATOM     37  C   UNL A   1      42.200  30.094  35.016  1.00  0.00     0.074 A 
ATOM     38  C   UNL A   1      42.524  30.564  36.349  1.00  0.00     0.031 C 
ATOM     39  C   UNL A   1      42.818  29.061  34.394  1.00  0.00     0.037 A 
BRANCH  26  40
ATOM     40  C   UNL A   1      40.558  27.721  28.793  1.00  0.00     0.064 A 
ATOM     41  C   UNL A   1      41.356  27.981  27.669  1.00  0.00     0.173 A 
ATOM     42  C   UNL A   1      39.770  26.559  28.778  1.00  0.00     0.173 A 
ATOM     43  F   UNL A   1      42.123  29.082  27.625  1.00  0.00    -0.203 F 
ATOM     44  C   UNL A   1      41.332  27.139  26.560  1.00  0.00     0.198 A 
ATOM     45  C   UNL A   1      39.774  25.700  27.682  1.00  0.00     0.198 A 
ATOM     46  F   UNL A   1      38.995  26.252  29.829  1.00  0.00    -0.203 F 
ATOM     47  F   UNL A   1      42.054  27.444  25.473  1.00  0.00    -0.200 F 
ATOM     48  C   UNL A   1      40.545  25.998  26.568  1.00  0.00     0.200 A 
ATOM     49  F   UNL A   1      39.024  24.589  27.700  1.00  0.00    -0.200 F 
ATOM     50  F   UNL A   1      40.521  25.190  25.500  1.00  0.00    -0.200 F 
ENDBRANCH  26  40
BRANCH  27  51
ATOM     51  C   UNL A   1      39.745  33.742  36.727  1.00  0.00     0.064 A 
ATOM     52  C   UNL A   1      40.372  34.989  36.825  1.00  0.00     0.173 A 
ATOM     53  C   UNL A   1      38.885  33.356  37.767  1.00  0.00     0.173 A 
ATOM     54  F   UNL A   1      41.214  35.393  35.862  1.00  0.00    -0.203 F 
ATOM     55  C   UNL A   1      40.147  35.821  37.921  1.00  0.00     0.198 A 
ATOM     56  C   UNL A   1      38.639  34.200  38.847  1.00  0.00     0.198 A 
ATOM     57  F   UNL A   1      38.253  32.175  37.712  1.00  0.00    -0.203 F 
ATOM     58  F   UNL A   1      40.777  37.001  38.002  1.00  0.00    -0.200 F 
ATOM     59  C   UNL A   1      39.273  35.430  38.924  1.00  0.00     0.200 A 
ATOM     60  F   UNL A   1      37.778  33.827  39.803  1.00  0.00    -0.200 F 
ATOM     61  F   UNL A   1      39.041  36.241  39.966  1.00  0.00    -0.200 F 
ENDBRANCH  27  51
BRANCH  39  62
ATOM     62  C   UNL A   1      43.947  28.389  35.120  1.00  0.00     0.064 A 
ATOM     63  C   UNL A   1      43.741  27.258  35.923  1.00  0.00     0.173 A 
ATOM     64  C   UNL A   1      45.265  28.838  34.942  1.00  0.00     0.173 A 
ATOM     65  F   UNL A   1      42.500  26.800  36.140  1.00  0.00    -0.203 F 
ATOM     66  C   UNL A   1      44.814  26.607  36.527  1.00  0.00     0.198 A 
ATOM     67  C   UNL A   1      46.336  28.169  35.523  1.00  0.00     0.198 A 
ATOM     68  F   UNL A   1      45.515  29.914  34.179  1.00  0.00    -0.203 F 
ATOM     69  F   UNL A   1      44.594  25.545  37.315  1.00  0.00    -0.200 F 
ATOM     70  C   UNL A   1      46.110  27.054  36.317  1.00  0.00     0.200 A 
ATOM     71  F   UNL A   1      47.589  28.595  35.305  1.00  0.00    -0.200 F 
ATOM     72  F   UNL A   1      47.143  26.413  36.881  1.00  0.00    -0.200 F 
ENDBRANCH  39  62
ENDBRANCH  13  14
ENDBRANCH   6   8
ENDBRANCH   3   4
ENDBRANCH   2   3
ENDBRANCH   1   2
BRANCH   1  73
ATOM     73  C   UNL A   1      32.270  29.993  27.049  1.00  0.00     0.002 C 
BRANCH  73  74
ATOM     74  C   UNL A   1      31.776  28.551  27.233  1.00  0.00     0.021 C 
BRANCH  74  75
ATOM     75  C   UNL A   1      32.808  27.488  26.855  1.00  0.00     0.116 C 
BRANCH  75  76
ATOM     76  N   UNL A   1      32.144  26.308  26.338  1.00  0.00    -0.356 N 
ATOM     77  C   UNL A   1      32.381  25.605  25.198  1.00  0.00     0.224 C 
ATOM     78  H   UNL A   1      31.411  25.963  26.896  1.00  0.00     0.163 HD
ATOM     79  O   UNL A   1      31.527  24.795  24.838  1.00  0.00    -0.275 OA
BRANCH  77  80
ATOM     80  C   UNL A   1      33.683  25.835  24.438  1.00  0.00     0.098 C 
ATOM     81  C   UNL A   1      33.494  25.746  22.916  1.00  0.00     0.017 C 
ATOM     82  C   UNL A   1      34.736  24.823  24.906  1.00  0.00     0.133 C 
ATOM     83  C   UNL A   1      33.277  24.316  22.416  1.00  0.00     0.022 C 
ATOM     84  N   UNL A   1      34.419  23.474  24.438  1.00  0.00    -0.338 N 
ATOM     85  C   UNL A   1      34.301  23.339  22.985  1.00  0.00     0.120 C 
BRANCH  84  86
ATOM     86  C   UNL A   1      34.175  22.481  25.386  1.00  0.00     0.259 C 
ATOM     87  O   UNL A   1      34.032  22.712  26.586  1.00  0.00    -0.269 OA
BRANCH  86  88
ATOM     88  C   UNL A   1      34.072  21.077  24.970  1.00  0.00     0.111 A 
ATOM     89  C   UNL A   1      35.178  20.232  25.001  1.00  0.00     0.140 A 
ATOM     90  C   UNL A   1      32.830  20.557  24.615  1.00  0.00     0.140 A 
ATOM     91  F   UNL A   1      36.383  20.694  25.369  1.00  0.00    -0.206 F 
ATOM     92  C   UNL A   1      35.065  18.895  24.629  1.00  0.00     0.056 A 
ATOM     93  C   UNL A   1      32.697  19.218  24.250  1.00  0.00     0.056 A 
ATOM     94  F   UNL A   1      31.736  21.331  24.598  1.00  0.00    -0.206 F 
ATOM     95  C   UNL A   1      33.821  18.394  24.252  1.00  0.00     0.023 A 
ATOM     96  Br  UNL A   1      33.656  16.582  23.741  1.00  0.00    -0.051 Br
ENDBRANCH  86  88
ENDBRANCH  84  86
ENDBRANCH  77  80
ENDBRANCH  75  76
ENDBRANCH  74  75
ENDBRANCH  73  74
ENDBRANCH   1  73
TORSDOF 15
ENDMDL
MODEL 3
REMARK VINA RESULT:     -12.2      2.285      3.606
REMARK SMILES O=C(NCCCCCCNC(=O)[C@@H]1CCCN(C(=O)c2c(F)cc(Br)cc2F)C1)c1ccc(-c2c3nc(c(-c4c(F)c(F)c(F)c(F)c4F)c4ccc([nH]4)c(-c4c(F)c(F)c(F)c(F)c4F)c4nc(c(-c5c(F)c(F)c(F)c(F)c5F)c5ccc2[nH]5)C=C4)C=C3)cc1
REMARK SMILES IDX 6 1 5 2 4 3 3 4 1 5 2 6 30 8 31 9 92 10 32 11 91 12 33 13
REMARK SMILES IDX 34 14 35 15 85 16 36 17 90 18 84 19 86 20 37 21 89 22 83 23
REMARK SMILES IDX 82 24 38 26 70 27 50 28 69 29 51 30 54 31 68 32 87 33 52 34
REMARK SMILES IDX 53 35 67 37 88 38 55 39 39 40 40 41 48 42 41 43 42 44 46 45
REMARK SMILES IDX 49 46 43 47 44 48 47 49 45 50 71 51 72 52 80 53 73 54 74 55
REMARK SMILES IDX 78 56 81 57 75 58 76 59 79 60 77 61 56 62 57 63 65 64 58 65
REMARK SMILES IDX 59 66 63 67 66 68 60 69 61 70 64 71 62 72 7 73 8 74 9 75
REMARK SMILES IDX 10 76 11 77 12 79 13 80 14 81 29 82 15 83 17 84 16 85 18 86
REMARK SMILES IDX 19 87 20 88 21 89 27 90 22 91 23 92 26 93 28 94 24 95 25 96
REMARK H PARENT 3 7 86 25 54 36 10 78
REMARK Flexibility Score: inf
ROOT
ATOM      1  C   UNL A   1      31.403  30.926  25.873  1.00  0.00     0.002 C 
ENDROOT
BRANCH   1   2
ATOM      2  C   UNL A   1      31.238  32.320  26.481  1.00  0.00     0.021 C 
BRANCH   2   3
ATOM      3  C   UNL A   1      32.457  32.816  27.252  1.00  0.00     0.116 C 
BRANCH   3   4
ATOM      4  N   UNL A   1      32.313  34.204  27.659  1.00  0.00    -0.352 N 
ATOM      5  O   UNL A   1      32.604  36.004  28.990  1.00  0.00    -0.269 OA
ATOM      6  C   UNL A   1      32.991  34.892  28.628  1.00  0.00     0.251 C 
ATOM      7  H   UNL A   1      31.633  34.721  27.169  1.00  0.00     0.163 HD
BRANCH   6   8
ATOM      8  C   UNL A   1      34.185  34.294  29.253  1.00  0.00     0.039 A 
ATOM      9  C   UNL A   1      35.461  34.544  28.737  1.00  0.00     0.014 A 
ATOM     10  C   UNL A   1      34.025  33.492  30.385  1.00  0.00     0.014 A 
ATOM     11  C   UNL A   1      36.568  33.906  29.289  1.00  0.00     0.010 A 
ATOM     12  C   UNL A   1      35.144  32.908  30.979  1.00  0.00     0.010 A 
ATOM     13  C   UNL A   1      36.421  33.096  30.424  1.00  0.00    -0.014 A 
BRANCH  13  14
ATOM     14  C   UNL A   1      37.608  32.488  31.071  1.00  0.00     0.031 A 
ATOM     15  C   UNL A   1      38.340  31.357  30.415  1.00  0.00     0.074 A 
ATOM     16  C   UNL A   1      37.987  32.931  32.284  1.00  0.00     0.049 A 
ATOM     17  N   UNL A   1      39.322  30.626  30.879  1.00  0.00    -0.248 NA
ATOM     18  C   UNL A   1      37.904  30.990  29.060  1.00  0.00     0.031 C 
ATOM     19  C   UNL A   1      37.346  34.024  33.018  1.00  0.00     0.029 A 
ATOM     20  N   UNL A   1      38.985  32.505  33.121  1.00  0.00    -0.354 N 
ATOM     21  C   UNL A   1      39.603  29.696  29.887  1.00  0.00     0.074 A 
ATOM     22  C   UNL A   1      38.673  29.941  28.805  1.00  0.00     0.031 C 
ATOM     23  C   UNL A   1      37.963  34.180  34.196  1.00  0.00     0.029 A 
ATOM     24  C   UNL A   1      38.999  33.160  34.327  1.00  0.00     0.049 A 
ATOM     25  H   UNL A   1      39.628  31.799  32.882  1.00  0.00     0.167 HD
ATOM     26  C   UNL A   1      40.553  28.730  29.886  1.00  0.00     0.037 A 
ATOM     27  C   UNL A   1      39.732  32.939  35.433  1.00  0.00     0.037 A 
ATOM     28  C   UNL A   1      41.471  28.500  30.972  1.00  0.00     0.049 A 
ATOM     29  C   UNL A   1      40.751  31.835  35.427  1.00  0.00     0.074 A 
ATOM     30  C   UNL A   1      42.501  27.579  31.052  1.00  0.00     0.029 A 
ATOM     31  N   UNL A   1      41.459  29.190  32.177  1.00  0.00    -0.354 N 
ATOM     32  N   UNL A   1      41.041  30.988  34.471  1.00  0.00    -0.248 NA
ATOM     33  C   UNL A   1      41.543  31.656  36.650  1.00  0.00     0.031 C 
ATOM     34  C   UNL A   1      43.070  27.668  32.326  1.00  0.00     0.029 A 
ATOM     35  C   UNL A   1      42.442  28.692  33.018  1.00  0.00     0.049 A 
ATOM     36  H   UNL A   1      40.843  29.924  32.401  1.00  0.00     0.167 HD
ATOM     37  C   UNL A   1      42.067  30.193  34.961  1.00  0.00     0.074 A 
ATOM     38  C   UNL A   1      42.349  30.662  36.304  1.00  0.00     0.031 C 
ATOM     39  C   UNL A   1      42.718  29.175  34.349  1.00  0.00     0.037 A 
BRANCH  26  40
ATOM     40  C   UNL A   1      40.617  27.823  28.689  1.00  0.00     0.064 A 
ATOM     41  C   UNL A   1      39.901  26.619  28.629  1.00  0.00     0.173 A 
ATOM     42  C   UNL A   1      41.402  28.171  27.578  1.00  0.00     0.173 A 
ATOM     43  F   UNL A   1      39.140  26.232  29.666  1.00  0.00    -0.203 F 
ATOM     44  C   UNL A   1      40.003  25.777  27.524  1.00  0.00     0.198 A 
ATOM     45  C   UNL A   1      41.475  27.344  26.460  1.00  0.00     0.198 A 
ATOM     46  F   UNL A   1      42.100  29.317  27.574  1.00  0.00    -0.203 F 
ATOM     47  F   UNL A   1      39.359  24.601  27.518  1.00  0.00    -0.200 F 
ATOM     48  C   UNL A   1      40.786  26.141  26.439  1.00  0.00     0.200 A 
ATOM     49  F   UNL A   1      42.220  27.707  25.407  1.00  0.00    -0.200 F 
ATOM     50  F   UNL A   1      40.884  25.329  25.378  1.00  0.00    -0.200 F 
ENDBRANCH  26  40
BRANCH  27  51
ATOM     51  C   UNL A   1      39.505  33.786  36.630  1.00  0.00     0.064 A 
ATOM     52  C   UNL A   1      38.692  33.346  37.682  1.00  0.00     0.173 A 
ATOM     53  C   UNL A   1      40.150  35.025  36.773  1.00  0.00     0.173 A 
ATOM     54  F   UNL A   1      38.044  32.176  37.583  1.00  0.00    -0.203 F 
ATOM     55  C   UNL A   1      38.532  34.114  38.834  1.00  0.00     0.198 A 
ATOM     56  C   UNL A   1      40.011  35.777  37.936  1.00  0.00     0.198 A 
ATOM     57  F   UNL A   1      40.948  35.483  35.798  1.00  0.00    -0.203 F 
ATOM     58  F   UNL A   1      37.732  33.682  39.818  1.00  0.00    -0.200 F 
ATOM     59  C   UNL A   1      39.200  35.323  38.964  1.00  0.00     0.200 A 
ATOM     60  F   UNL A   1      40.676  36.934  38.067  1.00  0.00    -0.200 F 
ATOM     61  F   UNL A   1      39.062  36.049  40.082  1.00  0.00    -0.200 F 
ENDBRANCH  27  51
BRANCH  39  62
ATOM     62  C   UNL A   1      43.841  28.519  35.099  1.00  0.00     0.064 A 
ATOM     63  C   UNL A   1      45.154  29.009  35.043  1.00  0.00     0.173 A 
ATOM     64  C   UNL A   1      43.580  27.434  35.949  1.00  0.00     0.173 A 
ATOM     65  F   UNL A   1      45.460  30.032  34.233  1.00  0.00    -0.203 F 
ATOM     66  C   UNL A   1      46.164  28.429  35.806  1.00  0.00     0.198 A 
ATOM     67  C   UNL A   1      44.585  26.876  36.731  1.00  0.00     0.198 A 
ATOM     68  F   UNL A   1      42.339  26.931  36.041  1.00  0.00    -0.203 F 
ATOM     69  F   UNL A   1      47.420  28.893  35.716  1.00  0.00    -0.200 F 
ATOM     70  C   UNL A   1      45.878  27.373  36.658  1.00  0.00     0.200 A 
ATOM     71  F   UNL A   1      44.301  25.865  37.565  1.00  0.00    -0.200 F 
ATOM     72  F   UNL A   1      46.848  26.830  37.407  1.00  0.00    -0.200 F 
ENDBRANCH  39  62
ENDBRANCH  13  14
ENDBRANCH   6   8
ENDBRANCH   3   4
ENDBRANCH   2   3
ENDBRANCH   1   2
BRANCH   1  73
ATOM     73  C   UNL A   1      32.278  29.970  26.691  1.00  0.00     0.002 C 
BRANCH  73  74
ATOM     74  C   UNL A   1      31.536  28.766  27.288  1.00  0.00     0.021 C 
BRANCH  74  75
ATOM     75  C   UNL A   1      32.366  27.482  27.329  1.00  0.00     0.116 C 
BRANCH  75  76
ATOM     76  N   UNL A   1      31.703  26.433  26.582  1.00  0.00    -0.356 N 
ATOM     77  C   UNL A   1      32.018  25.889  25.376  1.00  0.00     0.224 C 
ATOM     78  H   UNL A   1      30.902  26.056  27.013  1.00  0.00     0.163 HD
ATOM     79  O   UNL A   1      31.167  25.194  24.822  1.00  0.00    -0.275 OA
BRANCH  77  80
ATOM     80  C   UNL A   1      33.398  26.147  24.782  1.00  0.00     0.098 C 
ATOM     81  C   UNL A   1      33.382  26.145  23.245  1.00  0.00     0.017 C 
ATOM     82  C   UNL A   1      34.387  25.099  25.307  1.00  0.00     0.133 C 
ATOM     83  C   UNL A   1      33.216  24.747  22.644  1.00  0.00     0.022 C 
ATOM     84  N   UNL A   1      34.119  23.782  24.730  1.00  0.00    -0.338 N 
ATOM     85  C   UNL A   1      34.165  23.729  23.268  1.00  0.00     0.120 C 
BRANCH  84  86
ATOM     86  C   UNL A   1      33.765  22.740  25.588  1.00  0.00     0.259 C 
ATOM     87  O   UNL A   1      33.438  22.911  26.761  1.00  0.00    -0.269 OA
BRANCH  86  88
ATOM     88  C   UNL A   1      33.766  21.356  25.101  1.00  0.00     0.111 A 
ATOM     89  C   UNL A   1      34.936  20.602  25.070  1.00  0.00     0.140 A 
ATOM     90  C   UNL A   1      32.563  20.756  24.738  1.00  0.00     0.140 A 
ATOM     91  F   UNL A   1      36.107  21.139  25.443  1.00  0.00    -0.206 F 
ATOM     92  C   UNL A   1      34.922  19.280  24.631  1.00  0.00     0.056 A 
ATOM     93  C   UNL A   1      32.529  19.431  24.306  1.00  0.00     0.056 A 
ATOM     94  F   UNL A   1      31.410  21.439  24.779  1.00  0.00    -0.206 F 
ATOM     95  C   UNL A   1      33.714  18.701  24.248  1.00  0.00     0.023 A 
ATOM     96  Br  UNL A   1      33.684  16.910  23.645  1.00  0.00    -0.051 Br
ENDBRANCH  86  88
ENDBRANCH  84  86
ENDBRANCH  77  80
ENDBRANCH  75  76
ENDBRANCH  74  75
ENDBRANCH  73  74
ENDBRANCH   1  73
TORSDOF 15
ENDMDL
