MODEL 1
REMARK VINA RESULT:     -12.4      0.000      0.000
REMARK SMILES C[C@@H](C(=O)NCCCCCCNC(=O)c1ccc(-c2c3nc(c(-c4c(F)c(F)c(F)c(F)c4F)c4ccc([nH]4)c(-c4c(F)c(F)c(F)c(F)c4F)c4nc(c(-c5c(F)c(F)c(F)c(F)c5F)c5ccc2[nH]5)C=C4)C=C3)cc1)c1ccc(C[C@H]2CCC[C@H]2O)cc1
REMARK SMILES IDX 7 1 6 2 5 3 3 4 4 5 2 7 1 8 78 9 79 10 90 11 80 12 89 13
REMARK SMILES IDX 81 14 82 15 83 16 84 17 87 18 85 19 86 20 88 21 8 23 9 24
REMARK SMILES IDX 10 25 11 26 12 27 13 28 14 30 15 31 16 32 77 33 17 34 76 35
REMARK SMILES IDX 18 36 19 37 20 38 70 39 21 40 75 41 69 42 71 43 22 44 74 45
REMARK SMILES IDX 68 46 67 47 23 49 55 50 35 51 54 52 36 53 39 54 53 55 72 56
REMARK SMILES IDX 37 57 38 58 52 60 73 61 40 62 24 63 25 64 33 65 26 66 27 67
REMARK SMILES IDX 31 68 34 69 28 70 29 71 32 72 30 73 56 74 57 75 65 76 58 77
REMARK SMILES IDX 59 78 63 79 66 80 60 81 61 82 64 83 62 84 41 85 42 86 50 87
REMARK SMILES IDX 43 88 44 89 48 90 51 91 45 92 46 93 49 94 47 95
REMARK H PARENT 5 6 88 22 12 29 71 48 39 59
REMARK Flexibility Score: inf
ROOT
ATOM      1  C   UNL A   1      33.864  20.738  25.887  1.00  0.00     0.021 C 
ENDROOT
BRANCH   1   2
ATOM      2  C   UNL A   1      32.573  21.116  25.151  1.00  0.00     0.116 C 
BRANCH   2   3
ATOM      3  N   UNL A   1      31.698  21.843  26.045  1.00  0.00    -0.356 N 
ATOM      4  C   UNL A   1      31.828  23.127  26.490  1.00  0.00     0.227 C 
ATOM      5  O   UNL A   1      31.366  23.355  27.607  1.00  0.00    -0.274 OA
ATOM      6  H   UNL A   1      30.911  21.351  26.372  1.00  0.00     0.163 HD
BRANCH   4   7
ATOM      7  C   UNL A   1      32.537  24.155  25.597  1.00  0.00     0.105 C 
ATOM      8  C   UNL A   1      33.985  24.343  26.078  1.00  0.00     0.023 C 
BRANCH   7   9
ATOM      9  C   UNL A   1      31.883  25.530  25.458  1.00  0.00    -0.036 A 
ATOM     10  C   UNL A   1      31.045  25.755  24.351  1.00  0.00     0.005 A 
ATOM     11  C   UNL A   1      32.144  26.616  26.300  1.00  0.00     0.005 A 
ATOM     12  C   UNL A   1      30.613  27.041  24.024  1.00  0.00     0.004 A 
ATOM     13  C   UNL A   1      31.727  27.904  25.964  1.00  0.00     0.004 A 
ATOM     14  C   UNL A   1      31.034  28.137  24.776  1.00  0.00    -0.048 A 
BRANCH  14  15
ATOM     15  C   UNL A   1      30.833  29.545  24.276  1.00  0.00     0.041 C 
BRANCH  15  16
ATOM     16  C   UNL A   1      29.518  29.826  23.519  1.00  0.00     0.022 C 
ATOM     17  C   UNL A   1      28.907  31.230  23.696  1.00  0.00     0.007 C 
ATOM     18  C   UNL A   1      29.484  29.587  22.001  1.00  0.00     0.117 C 
ATOM     19  C   UNL A   1      28.114  31.513  22.415  1.00  0.00     0.003 C 
ATOM     20  C   UNL A   1      28.159  30.226  21.597  1.00  0.00     0.032 C 
BRANCH  18  21
ATOM     21  O   UNL A   1      30.520  30.218  21.269  1.00  0.00    -0.393 OA
ATOM     22  H   UNL A   1      30.466  29.953  20.337  1.00  0.00     0.210 HD
ENDBRANCH  18  21
ENDBRANCH  15  16
ENDBRANCH  14  15
ENDBRANCH   7   9
ENDBRANCH   4   7
ENDBRANCH   2   3
ENDBRANCH   1   2
BRANCH   1  23
ATOM     23  C   UNL A   1      34.996  20.273  24.960  1.00  0.00     0.002 C 
BRANCH  23  24
ATOM     24  C   UNL A   1      36.350  20.938  25.223  1.00  0.00     0.002 C 
BRANCH  24  25
ATOM     25  C   UNL A   1      37.556  20.035  24.962  1.00  0.00     0.021 C 
BRANCH  25  26
ATOM     26  C   UNL A   1      38.834  20.495  25.650  1.00  0.00     0.116 C 
BRANCH  26  27
ATOM     27  N   UNL A   1      39.773  19.401  25.834  1.00  0.00    -0.352 N 
ATOM     28  C   UNL A   1      41.125  19.455  26.070  1.00  0.00     0.251 C 
ATOM     29  H   UNL A   1      39.387  18.497  25.783  1.00  0.00     0.163 HD
ATOM     30  O   UNL A   1      41.813  18.446  25.987  1.00  0.00    -0.269 OA
BRANCH  28  31
ATOM     31  C   UNL A   1      41.748  20.750  26.408  1.00  0.00     0.039 A 
ATOM     32  C   UNL A   1      42.052  21.644  25.380  1.00  0.00     0.014 A 
ATOM     33  C   UNL A   1      42.026  21.081  27.738  1.00  0.00     0.014 A 
ATOM     34  C   UNL A   1      42.585  22.896  25.691  1.00  0.00     0.010 A 
ATOM     35  C   UNL A   1      42.478  22.358  28.052  1.00  0.00     0.010 A 
ATOM     36  C   UNL A   1      42.772  23.275  27.031  1.00  0.00    -0.014 A 
BRANCH  36  37
ATOM     37  C   UNL A   1      43.286  24.622  27.385  1.00  0.00     0.031 A 
ATOM     38  C   UNL A   1      42.360  25.649  27.974  1.00  0.00     0.074 A 
ATOM     39  C   UNL A   1      44.568  24.939  27.119  1.00  0.00     0.049 A 
ATOM     40  N   UNL A   1      42.599  26.898  28.286  1.00  0.00    -0.248 NA
ATOM     41  C   UNL A   1      40.973  25.225  28.222  1.00  0.00     0.031 C 
ATOM     42  C   UNL A   1      45.551  24.042  26.508  1.00  0.00     0.029 A 
ATOM     43  N   UNL A   1      45.262  26.105  27.319  1.00  0.00    -0.354 N 
ATOM     44  C   UNL A   1      41.394  27.408  28.752  1.00  0.00     0.074 A 
ATOM     45  C   UNL A   1      40.412  26.354  28.626  1.00  0.00     0.031 C 
ATOM     46  C   UNL A   1      46.726  24.683  26.406  1.00  0.00     0.029 A 
ATOM     47  C   UNL A   1      46.569  26.047  26.901  1.00  0.00     0.049 A 
ATOM     48  H   UNL A   1      44.860  26.908  27.723  1.00  0.00     0.167 HD
ATOM     49  C   UNL A   1      41.138  28.636  29.264  1.00  0.00     0.037 A 
ATOM     50  C   UNL A   1      47.529  26.991  26.907  1.00  0.00     0.037 A 
ATOM     51  C   UNL A   1      42.124  29.674  29.403  1.00  0.00     0.049 A 
ATOM     52  C   UNL A   1      47.211  28.355  27.459  1.00  0.00     0.074 A 
ATOM     53  C   UNL A   1      41.979  30.933  29.959  1.00  0.00     0.029 A 
ATOM     54  N   UNL A   1      43.441  29.575  28.976  1.00  0.00    -0.354 N 
ATOM     55  N   UNL A   1      46.087  28.804  27.961  1.00  0.00    -0.248 NA
ATOM     56  C   UNL A   1      48.300  29.342  27.451  1.00  0.00     0.031 C 
ATOM     57  C   UNL A   1      43.189  31.617  29.813  1.00  0.00     0.029 A 
ATOM     58  C   UNL A   1      44.110  30.762  29.230  1.00  0.00     0.049 A 
ATOM     59  H   UNL A   1      43.840  28.780  28.555  1.00  0.00     0.167 HD
ATOM     60  C   UNL A   1      46.340  30.111  28.359  1.00  0.00     0.074 A 
ATOM     61  C   UNL A   1      47.730  30.377  28.051  1.00  0.00     0.031 C 
ATOM     62  C   UNL A   1      45.498  31.009  28.926  1.00  0.00     0.037 A 
BRANCH  49  63
ATOM     63  C   UNL A   1      39.731  28.924  29.707  1.00  0.00     0.064 A 
ATOM     64  C   UNL A   1      39.308  28.687  31.025  1.00  0.00     0.173 A 
ATOM     65  C   UNL A   1      38.802  29.475  28.812  1.00  0.00     0.173 A 
ATOM     66  F   UNL A   1      40.152  28.151  31.918  1.00  0.00    -0.203 F 
ATOM     67  C   UNL A   1      38.000  28.959  31.419  1.00  0.00     0.198 A 
ATOM     68  C   UNL A   1      37.505  29.780  29.219  1.00  0.00     0.198 A 
ATOM     69  F   UNL A   1      39.153  29.728  27.541  1.00  0.00    -0.203 F 
ATOM     70  F   UNL A   1      37.605  28.671  32.667  1.00  0.00    -0.200 F 
ATOM     71  C   UNL A   1      37.103  29.513  30.519  1.00  0.00     0.200 A 
ATOM     72  F   UNL A   1      36.644  30.329  28.352  1.00  0.00    -0.200 F 
ATOM     73  F   UNL A   1      35.847  29.782  30.901  1.00  0.00    -0.200 F 
ENDBRANCH  49  63
BRANCH  50  74
ATOM     74  C   UNL A   1      48.887  26.675  26.389  1.00  0.00     0.064 A 
ATOM     75  C   UNL A   1      49.856  26.091  27.217  1.00  0.00     0.173 A 
ATOM     76  C   UNL A   1      49.248  26.957  25.064  1.00  0.00     0.173 A 
ATOM     77  F   UNL A   1      49.567  25.820  28.499  1.00  0.00    -0.203 F 
ATOM     78  C   UNL A   1      51.140  25.825  26.747  1.00  0.00     0.198 A 
ATOM     79  C   UNL A   1      50.522  26.660  24.585  1.00  0.00     0.198 A 
ATOM     80  F   UNL A   1      48.356  27.510  24.227  1.00  0.00    -0.203 F 
ATOM     81  F   UNL A   1      52.062  25.315  27.575  1.00  0.00    -0.200 F 
ATOM     82  C   UNL A   1      51.471  26.104  25.429  1.00  0.00     0.200 A 
ATOM     83  F   UNL A   1      50.832  26.915  23.306  1.00  0.00    -0.200 F 
ATOM     84  F   UNL A   1      52.705  25.845  24.976  1.00  0.00    -0.200 F 
ENDBRANCH  50  74
BRANCH  62  85
ATOM     85  C   UNL A   1      46.065  32.351  29.294  1.00  0.00     0.064 A 
ATOM     86  C   UNL A   1      46.695  32.575  30.527  1.00  0.00     0.173 A 
ATOM     87  C   UNL A   1      46.013  33.417  28.382  1.00  0.00     0.173 A 
ATOM     88  F   UNL A   1      46.761  31.595  31.441  1.00  0.00    -0.203 F 
ATOM     89  C   UNL A   1      47.225  33.823  30.844  1.00  0.00     0.198 A 
ATOM     90  C   UNL A   1      46.575  34.652  28.687  1.00  0.00     0.198 A 
ATOM     91  F   UNL A   1      45.428  33.254  27.185  1.00  0.00    -0.203 F 
ATOM     92  F   UNL A   1      47.775  34.030  32.049  1.00  0.00    -0.200 F 
ATOM     93  C   UNL A   1      47.173  34.857  29.921  1.00  0.00     0.200 A 
ATOM     94  F   UNL A   1      46.539  35.644  27.787  1.00  0.00    -0.200 F 
ATOM     95  F   UNL A   1      47.693  36.054  30.223  1.00  0.00    -0.200 F 
ENDBRANCH  62  85
ENDBRANCH  36  37
ENDBRANCH  28  31
ENDBRANCH  26  27
ENDBRANCH  25  26
ENDBRANCH  24  25
ENDBRANCH  23  24
ENDBRANCH   1  23
TORSDOF 17
ENDMDL
MODEL 2
REMARK VINA RESULT:     -12.2      0.475      7.289
REMARK SMILES C[C@@H](C(=O)NCCCCCCNC(=O)c1ccc(-c2c3nc(c(-c4c(F)c(F)c(F)c(F)c4F)c4ccc([nH]4)c(-c4c(F)c(F)c(F)c(F)c4F)c4nc(c(-c5c(F)c(F)c(F)c(F)c5F)c5ccc2[nH]5)C=C4)C=C3)cc1)c1ccc(C[C@H]2CCC[C@H]2O)cc1
REMARK SMILES IDX 7 1 6 2 5 3 3 4 4 5 2 7 1 8 78 9 79 10 90 11 80 12 89 13
REMARK SMILES IDX 81 14 82 15 83 16 84 17 87 18 85 19 86 20 88 21 8 23 9 24
REMARK SMILES IDX 10 25 11 26 12 27 13 28 14 30 15 31 16 32 77 33 17 34 76 35
REMARK SMILES IDX 18 36 19 37 20 38 70 39 21 40 75 41 69 42 71 43 22 44 74 45
REMARK SMILES IDX 68 46 67 47 23 49 55 50 35 51 54 52 36 53 39 54 53 55 72 56
REMARK SMILES IDX 37 57 38 58 52 60 73 61 40 62 24 63 25 64 33 65 26 66 27 67
REMARK SMILES IDX 31 68 34 69 28 70 29 71 32 72 30 73 56 74 57 75 65 76 58 77
REMARK SMILES IDX 59 78 63 79 66 80 60 81 61 82 64 83 62 84 41 85 42 86 50 87
REMARK SMILES IDX 43 88 44 89 48 90 51 91 45 92 46 93 49 94 47 95
REMARK H PARENT 5 6 88 22 12 29 71 48 39 59
REMARK Flexibility Score: inf
ROOT
ATOM      1  C   UNL A   1      34.031  20.693  25.872  1.00  0.00     0.021 C 
ENDROOT
BRANCH   1   2
ATOM      2  C   UNL A   1      32.737  21.070  25.141  1.00  0.00     0.116 C 
BRANCH   2   3
ATOM      3  N   UNL A   1      31.860  21.786  26.042  1.00  0.00    -0.356 N 
ATOM      4  C   UNL A   1      31.990  23.065  26.503  1.00  0.00     0.227 C 
ATOM      5  O   UNL A   1      31.525  23.279  27.622  1.00  0.00    -0.274 OA
ATOM      6  H   UNL A   1      31.073  21.290  26.362  1.00  0.00     0.163 HD
BRANCH   4   7
ATOM      7  C   UNL A   1      32.700  24.103  25.623  1.00  0.00     0.105 C 
ATOM      8  C   UNL A   1      34.140  24.302  26.123  1.00  0.00     0.023 C 
BRANCH   7   9
ATOM      9  C   UNL A   1      32.035  25.473  25.483  1.00  0.00    -0.036 A 
ATOM     10  C   UNL A   1      31.172  25.682  24.392  1.00  0.00     0.005 A 
ATOM     11  C   UNL A   1      32.308  26.571  26.307  1.00  0.00     0.005 A 
ATOM     12  C   UNL A   1      30.726  26.961  24.060  1.00  0.00     0.004 A 
ATOM     13  C   UNL A   1      31.877  27.853  25.965  1.00  0.00     0.004 A 
ATOM     14  C   UNL A   1      31.157  28.068  24.790  1.00  0.00    -0.048 A 
BRANCH  14  15
ATOM     15  C   UNL A   1      30.937  29.469  24.279  1.00  0.00     0.041 C 
BRANCH  15  16
ATOM     16  C   UNL A   1      29.590  29.743  23.577  1.00  0.00     0.022 C 
ATOM     17  C   UNL A   1      28.991  31.151  23.758  1.00  0.00     0.007 C 
ATOM     18  C   UNL A   1      29.488  29.480  22.065  1.00  0.00     0.117 C 
ATOM     19  C   UNL A   1      28.144  31.417  22.510  1.00  0.00     0.003 C 
ATOM     20  C   UNL A   1      28.149  30.117  21.710  1.00  0.00     0.032 C 
BRANCH  18  21
ATOM     21  O   UNL A   1      30.493  30.096  21.278  1.00  0.00    -0.393 OA
ATOM     22  H   UNL A   1      30.871  29.444  20.667  1.00  0.00     0.210 HD
ENDBRANCH  18  21
ENDBRANCH  15  16
ENDBRANCH  14  15
ENDBRANCH   7   9
ENDBRANCH   4   7
ENDBRANCH   2   3
ENDBRANCH   1   2
BRANCH   1  23
ATOM     23  C   UNL A   1      35.102  20.072  24.963  1.00  0.00     0.002 C 
BRANCH  23  24
ATOM     24  C   UNL A   1      36.433  20.828  24.936  1.00  0.00     0.002 C 
BRANCH  24  25
ATOM     25  C   UNL A   1      37.667  19.927  24.896  1.00  0.00     0.021 C 
BRANCH  25  26
ATOM     26  C   UNL A   1      38.780  20.361  25.841  1.00  0.00     0.116 C 
BRANCH  26  27
ATOM     27  N   UNL A   1      39.826  19.356  25.943  1.00  0.00    -0.352 N 
ATOM     28  C   UNL A   1      41.179  19.531  26.095  1.00  0.00     0.251 C 
ATOM     29  H   UNL A   1      39.522  18.421  25.897  1.00  0.00     0.163 HD
ATOM     30  O   UNL A   1      41.950  18.591  25.948  1.00  0.00    -0.269 OA
BRANCH  28  31
ATOM     31  C   UNL A   1      41.702  20.873  26.421  1.00  0.00     0.039 A 
ATOM     32  C   UNL A   1      42.031  21.743  25.380  1.00  0.00     0.014 A 
ATOM     33  C   UNL A   1      41.859  21.272  27.751  1.00  0.00     0.014 A 
ATOM     34  C   UNL A   1      42.468  23.035  25.673  1.00  0.00     0.010 A 
ATOM     35  C   UNL A   1      42.214  22.585  28.042  1.00  0.00     0.010 A 
ATOM     36  C   UNL A   1      42.532  23.476  27.006  1.00  0.00    -0.014 A 
BRANCH  36  37
ATOM     37  C   UNL A   1      42.942  24.864  27.337  1.00  0.00     0.031 A 
ATOM     38  C   UNL A   1      44.360  25.305  27.106  1.00  0.00     0.074 A 
ATOM     39  C   UNL A   1      42.054  25.706  27.902  1.00  0.00     0.049 A 
ATOM     40  N   UNL A   1      44.929  26.449  27.393  1.00  0.00    -0.248 NA
ATOM     41  C   UNL A   1      45.268  24.321  26.497  1.00  0.00     0.031 C 
ATOM     42  C   UNL A   1      40.662  25.380  28.216  1.00  0.00     0.029 A 
ATOM     43  N   UNL A   1      42.193  27.004  28.322  1.00  0.00    -0.354 N 
ATOM     44  C   UNL A   1      46.258  26.315  27.011  1.00  0.00     0.074 A 
ATOM     45  C   UNL A   1      46.426  24.962  26.529  1.00  0.00     0.031 C 
ATOM     46  C   UNL A   1      40.070  26.457  28.756  1.00  0.00     0.029 A 
ATOM     47  C   UNL A   1      41.050  27.532  28.868  1.00  0.00     0.049 A 
ATOM     48  H   UNL A   1      43.035  27.509  28.241  1.00  0.00     0.167 HD
ATOM     49  C   UNL A   1      47.242  27.246  27.036  1.00  0.00     0.037 A 
ATOM     50  C   UNL A   1      40.820  28.746  29.407  1.00  0.00     0.037 A 
ATOM     51  C   UNL A   1      47.063  28.596  27.500  1.00  0.00     0.049 A 
ATOM     52  C   UNL A   1      41.937  29.754  29.444  1.00  0.00     0.074 A 
ATOM     53  C   UNL A   1      47.982  29.632  27.516  1.00  0.00     0.029 A 
ATOM     54  N   UNL A   1      45.887  29.098  28.038  1.00  0.00    -0.354 N 
ATOM     55  N   UNL A   1      43.171  29.639  29.017  1.00  0.00    -0.248 NA
ATOM     56  C   UNL A   1      41.627  31.063  30.034  1.00  0.00     0.031 C 
ATOM     57  C   UNL A   1      47.380  30.741  28.118  1.00  0.00     0.029 A 
ATOM     58  C   UNL A   1      46.065  30.420  28.414  1.00  0.00     0.049 A 
ATOM     59  H   UNL A   1      45.049  28.591  28.137  1.00  0.00     0.167 HD
ATOM     60  C   UNL A   1      43.774  30.867  29.253  1.00  0.00     0.074 A 
ATOM     61  C   UNL A   1      42.764  31.718  29.850  1.00  0.00     0.031 C 
ATOM     62  C   UNL A   1      45.048  31.257  29.000  1.00  0.00     0.037 A 
BRANCH  49  63
ATOM     63  C   UNL A   1      48.603  26.833  26.551  1.00  0.00     0.064 A 
ATOM     64  C   UNL A   1      49.556  26.270  27.415  1.00  0.00     0.173 A 
ATOM     65  C   UNL A   1      48.948  26.969  25.198  1.00  0.00     0.173 A 
ATOM     66  F   UNL A   1      49.282  26.127  28.720  1.00  0.00    -0.203 F 
ATOM     67  C   UNL A   1      50.813  25.892  26.950  1.00  0.00     0.198 A 
ATOM     68  C   UNL A   1      50.193  26.557  24.729  1.00  0.00     0.198 A 
ATOM     69  F   UNL A   1      48.074  27.495  24.326  1.00  0.00    -0.203 F 
ATOM     70  F   UNL A   1      51.725  25.411  27.805  1.00  0.00    -0.200 F 
ATOM     71  C   UNL A   1      51.127  26.028  25.606  1.00  0.00     0.200 A 
ATOM     72  F   UNL A   1      50.489  26.675  23.427  1.00  0.00    -0.200 F 
ATOM     73  F   UNL A   1      52.334  25.657  25.158  1.00  0.00    -0.200 F 
ENDBRANCH  49  63
BRANCH  50  74
ATOM     74  C   UNL A   1      39.472  29.079  29.941  1.00  0.00     0.064 A 
ATOM     75  C   UNL A   1      38.520  29.726  29.139  1.00  0.00     0.173 A 
ATOM     76  C   UNL A   1      39.111  28.772  31.260  1.00  0.00     0.173 A 
ATOM     77  F   UNL A   1      38.824  30.060  27.876  1.00  0.00    -0.203 F 
ATOM     78  C   UNL A   1      37.269  30.072  29.645  1.00  0.00     0.198 A 
ATOM     79  C   UNL A   1      37.848  29.088  31.755  1.00  0.00     0.198 A 
ATOM     80  F   UNL A   1      39.983  28.147  32.067  1.00  0.00    -0.203 F 
ATOM     81  F   UNL A   1      36.398  30.736  28.872  1.00  0.00    -0.200 F 
ATOM     82  C   UNL A   1      36.932  29.748  30.950  1.00  0.00     0.200 A 
ATOM     83  F   UNL A   1      37.520  28.758  33.011  1.00  0.00    -0.200 F 
ATOM     84  F   UNL A   1      35.727  30.079  31.435  1.00  0.00    -0.200 F 
ENDBRANCH  50  74
BRANCH  62  85
ATOM     85  C   UNL A   1      45.413  32.677  29.325  1.00  0.00     0.064 A 
ATOM     86  C   UNL A   1      45.994  33.031  30.552  1.00  0.00     0.173 A 
ATOM     87  C   UNL A   1      45.218  33.694  28.376  1.00  0.00     0.173 A 
ATOM     88  F   UNL A   1      46.191  32.102  31.499  1.00  0.00    -0.203 F 
ATOM     89  C   UNL A   1      46.337  34.352  30.827  1.00  0.00     0.198 A 
ATOM     90  C   UNL A   1      45.594  35.007  28.641  1.00  0.00     0.198 A 
ATOM     91  F   UNL A   1      44.673  33.409  27.183  1.00  0.00    -0.203 F 
ATOM     92  F   UNL A   1      46.841  34.676  32.027  1.00  0.00    -0.200 F 
ATOM     93  C   UNL A   1      46.145  35.337  29.869  1.00  0.00     0.200 A 
ATOM     94  F   UNL A   1      45.425  35.952  27.706  1.00  0.00    -0.200 F 
ATOM     95  F   UNL A   1      46.486  36.605  30.132  1.00  0.00    -0.200 F 
ENDBRANCH  62  85
ENDBRANCH  36  37
ENDBRANCH  28  31
ENDBRANCH  26  27
ENDBRANCH  25  26
ENDBRANCH  24  25
ENDBRANCH  23  24
ENDBRANCH   1  23
TORSDOF 17
ENDMDL
MODEL 3
REMARK VINA RESULT:     -12.2      2.137      4.716
REMARK SMILES C[C@@H](C(=O)NCCCCCCNC(=O)c1ccc(-c2c3nc(c(-c4c(F)c(F)c(F)c(F)c4F)c4ccc([nH]4)c(-c4c(F)c(F)c(F)c(F)c4F)c4nc(c(-c5c(F)c(F)c(F)c(F)c5F)c5ccc2[nH]5)C=C4)C=C3)cc1)c1ccc(C[C@H]2CCC[C@H]2O)cc1
REMARK SMILES IDX 7 1 6 2 5 3 3 4 4 5 2 7 1 8 78 9 79 10 90 11 80 12 89 13
REMARK SMILES IDX 81 14 82 15 83 16 84 17 87 18 85 19 86 20 88 21 8 23 9 24
REMARK SMILES IDX 10 25 11 26 12 27 13 28 14 30 15 31 16 32 77 33 17 34 76 35
REMARK SMILES IDX 18 36 19 37 20 38 70 39 21 40 75 41 69 42 71 43 22 44 74 45
REMARK SMILES IDX 68 46 67 47 23 49 55 50 35 51 54 52 36 53 39 54 53 55 72 56
REMARK SMILES IDX 37 57 38 58 52 60 73 61 40 62 24 63 25 64 33 65 26 66 27 67
REMARK SMILES IDX 31 68 34 69 28 70 29 71 32 72 30 73 56 74 57 75 65 76 58 77
REMARK SMILES IDX 59 78 63 79 66 80 60 81 61 82 64 83 62 84 41 85 42 86 50 87
REMARK SMILES IDX 43 88 44 89 48 90 51 91 45 92 46 93 49 94 47 95
REMARK H PARENT 5 6 88 22 12 29 71 48 39 59
REMARK Flexibility Score: inf
ROOT
ATOM      1  C   UNL A   1      36.403  23.488  25.143  1.00  0.00     0.021 C 
ENDROOT
BRANCH   1   2
ATOM      2  C   UNL A   1      35.190  24.245  24.589  1.00  0.00     0.116 C 
BRANCH   2   3
ATOM      3  N   UNL A   1      34.455  24.852  25.677  1.00  0.00    -0.356 N 
ATOM      4  C   UNL A   1      33.126  25.162  25.725  1.00  0.00     0.227 C 
ATOM      5  O   UNL A   1      32.827  26.128  26.426  1.00  0.00    -0.274 OA
ATOM      6  H   UNL A   1      34.977  25.068  26.482  1.00  0.00     0.163 HD
BRANCH   4   7
ATOM      7  C   UNL A   1      32.136  24.317  24.911  1.00  0.00     0.105 C 
ATOM      8  C   UNL A   1      30.746  24.382  25.563  1.00  0.00     0.023 C 
BRANCH   7   9
ATOM      9  C   UNL A   1      32.499  22.851  24.672  1.00  0.00    -0.036 A 
ATOM     10  C   UNL A   1      32.506  22.378  23.348  1.00  0.00     0.005 A 
ATOM     11  C   UNL A   1      32.723  21.918  25.690  1.00  0.00     0.005 A 
ATOM     12  C   UNL A   1      32.584  21.013  23.070  1.00  0.00     0.004 A 
ATOM     13  C   UNL A   1      32.783  20.552  25.415  1.00  0.00     0.004 A 
ATOM     14  C   UNL A   1      32.625  20.085  24.110  1.00  0.00    -0.048 A 
BRANCH  14  15
ATOM     15  C   UNL A   1      32.408  18.616  23.849  1.00  0.00     0.041 C 
BRANCH  15  16
ATOM     16  C   UNL A   1      33.231  17.635  24.710  1.00  0.00     0.022 C 
ATOM     17  C   UNL A   1      32.454  16.485  25.380  1.00  0.00     0.007 C 
ATOM     18  C   UNL A   1      34.448  16.946  24.070  1.00  0.00     0.117 C 
ATOM     19  C   UNL A   1      33.451  15.334  25.543  1.00  0.00     0.003 C 
ATOM     20  C   UNL A   1      34.806  15.884  25.105  1.00  0.00     0.032 C 
BRANCH  18  21
ATOM     21  O   UNL A   1      34.191  16.294  22.838  1.00  0.00    -0.393 OA
ATOM     22  H   UNL A   1      34.963  15.763  22.586  1.00  0.00     0.210 HD
ENDBRANCH  18  21
ENDBRANCH  15  16
ENDBRANCH  14  15
ENDBRANCH   7   9
ENDBRANCH   4   7
ENDBRANCH   2   3
ENDBRANCH   1   2
BRANCH   1  23
ATOM     23  C   UNL A   1      36.809  22.265  24.310  1.00  0.00     0.002 C 
BRANCH  23  24
ATOM     24  C   UNL A   1      36.539  20.916  24.982  1.00  0.00     0.002 C 
BRANCH  24  25
ATOM     25  C   UNL A   1      37.712  19.938  24.922  1.00  0.00     0.021 C 
BRANCH  25  26
ATOM     26  C   UNL A   1      38.940  20.396  25.697  1.00  0.00     0.116 C 
BRANCH  26  27
ATOM     27  N   UNL A   1      39.909  19.325  25.859  1.00  0.00    -0.352 N 
ATOM     28  C   UNL A   1      41.264  19.411  26.064  1.00  0.00     0.251 C 
ATOM     29  H   UNL A   1      39.543  18.412  25.817  1.00  0.00     0.163 HD
ATOM     30  O   UNL A   1      41.974  18.418  25.965  1.00  0.00    -0.269 OA
BRANCH  28  31
ATOM     31  C   UNL A   1      41.864  20.721  26.388  1.00  0.00     0.039 A 
ATOM     32  C   UNL A   1      42.135  21.617  25.351  1.00  0.00     0.014 A 
ATOM     33  C   UNL A   1      42.153  21.064  27.712  1.00  0.00     0.014 A 
ATOM     34  C   UNL A   1      42.645  22.880  25.649  1.00  0.00     0.010 A 
ATOM     35  C   UNL A   1      42.582  22.352  28.014  1.00  0.00     0.010 A 
ATOM     36  C   UNL A   1      42.842  23.270  26.985  1.00  0.00    -0.014 A 
BRANCH  36  37
ATOM     37  C   UNL A   1      43.332  24.629  27.326  1.00  0.00     0.031 A 
ATOM     38  C   UNL A   1      42.386  25.647  27.898  1.00  0.00     0.074 A 
ATOM     39  C   UNL A   1      44.610  24.963  27.064  1.00  0.00     0.049 A 
ATOM     40  N   UNL A   1      42.603  26.904  28.197  1.00  0.00    -0.248 NA
ATOM     41  C   UNL A   1      41.005  25.204  28.143  1.00  0.00     0.031 C 
ATOM     42  C   UNL A   1      45.612  24.076  26.470  1.00  0.00     0.029 A 
ATOM     43  N   UNL A   1      45.285  26.143  27.254  1.00  0.00    -0.354 N 
ATOM     44  C   UNL A   1      41.388  27.399  28.650  1.00  0.00     0.074 A 
ATOM     45  C   UNL A   1      40.423  26.328  28.531  1.00  0.00     0.031 C 
ATOM     46  C   UNL A   1      46.777  24.734  26.367  1.00  0.00     0.029 A 
ATOM     47  C   UNL A   1      46.594  26.101  26.845  1.00  0.00     0.049 A 
ATOM     48  H   UNL A   1      44.867  26.945  27.646  1.00  0.00     0.167 HD
ATOM     49  C   UNL A   1      41.108  28.629  29.145  1.00  0.00     0.037 A 
ATOM     50  C   UNL A   1      47.539  27.061  26.846  1.00  0.00     0.037 A 
ATOM     51  C   UNL A   1      42.077  29.685  29.278  1.00  0.00     0.049 A 
ATOM     52  C   UNL A   1      47.196  28.426  27.379  1.00  0.00     0.074 A 
ATOM     53  C   UNL A   1      41.908  30.948  29.818  1.00  0.00     0.029 A 
ATOM     54  N   UNL A   1      43.398  29.602  28.860  1.00  0.00    -0.354 N 
ATOM     55  N   UNL A   1      46.062  28.862  27.869  1.00  0.00    -0.248 NA
ATOM     56  C   UNL A   1      48.269  29.430  27.366  1.00  0.00     0.031 C 
ATOM     57  C   UNL A   1      43.108  31.650  29.671  1.00  0.00     0.029 A 
ATOM     58  C   UNL A   1      44.046  30.803  29.104  1.00  0.00     0.049 A 
ATOM     59  H   UNL A   1      43.812  28.809  28.451  1.00  0.00     0.167 HD
ATOM     60  C   UNL A   1      46.291  30.178  28.253  1.00  0.00     0.074 A 
ATOM     61  C   UNL A   1      47.678  30.463  27.951  1.00  0.00     0.031 C 
ATOM     62  C   UNL A   1      45.431  31.069  28.804  1.00  0.00     0.037 A 
BRANCH  49  63
ATOM     63  C   UNL A   1      39.694  28.900  29.576  1.00  0.00     0.064 A 
ATOM     64  C   UNL A   1      38.735  29.411  28.687  1.00  0.00     0.173 A 
ATOM     65  C   UNL A   1      39.282  28.615  30.887  1.00  0.00     0.173 A 
ATOM     66  F   UNL A   1      39.078  29.712  27.425  1.00  0.00    -0.203 F 
ATOM     67  C   UNL A   1      37.429  29.657  29.102  1.00  0.00     0.198 A 
ATOM     68  C   UNL A   1      37.967  28.828  31.289  1.00  0.00     0.198 A 
ATOM     69  F   UNL A   1      40.155  28.119  31.778  1.00  0.00    -0.203 F 
ATOM     70  F   UNL A   1      36.548  30.198  28.250  1.00  0.00    -0.200 F 
ATOM     71  C   UNL A   1      37.044  29.357  30.400  1.00  0.00     0.200 A 
ATOM     72  F   UNL A   1      37.592  28.523  32.539  1.00  0.00    -0.200 F 
ATOM     73  F   UNL A   1      35.785  29.587  30.797  1.00  0.00    -0.200 F 
ENDBRANCH  49  63
BRANCH  50  74
ATOM     74  C   UNL A   1      48.905  26.761  26.339  1.00  0.00     0.064 A 
ATOM     75  C   UNL A   1      49.253  27.025  25.007  1.00  0.00     0.173 A 
ATOM     76  C   UNL A   1      49.885  26.195  27.167  1.00  0.00     0.173 A 
ATOM     77  F   UNL A   1      48.346  27.547  24.168  1.00  0.00    -0.203 F 
ATOM     78  C   UNL A   1      50.520  26.713  24.518  1.00  0.00     0.198 A 
ATOM     79  C   UNL A   1      51.162  25.915  26.687  1.00  0.00     0.198 A 
ATOM     80  F   UNL A   1      49.606  25.928  28.453  1.00  0.00    -0.203 F 
ATOM     81  F   UNL A   1      50.809  26.929  23.226  1.00  0.00    -0.200 F 
ATOM     82  C   UNL A   1      51.475  26.164  25.359  1.00  0.00     0.200 A 
ATOM     83  F   UNL A   1      52.087  25.400  27.507  1.00  0.00    -0.200 F 
ATOM     84  F   UNL A   1      52.695  25.867  24.889  1.00  0.00    -0.200 F 
ENDBRANCH  50  74
BRANCH  62  85
ATOM     85  C   UNL A   1      45.974  32.424  29.161  1.00  0.00     0.064 A 
ATOM     86  C   UNL A   1      46.571  32.679  30.404  1.00  0.00     0.173 A 
ATOM     87  C   UNL A   1      45.934  33.471  28.226  1.00  0.00     0.173 A 
ATOM     88  F   UNL A   1      46.624  31.718  31.338  1.00  0.00    -0.203 F 
ATOM     89  C   UNL A   1      47.079  33.939  30.709  1.00  0.00     0.198 A 
ATOM     90  C   UNL A   1      46.475  34.719  28.521  1.00  0.00     0.198 A 
ATOM     91  F   UNL A   1      45.381  33.278  27.018  1.00  0.00    -0.203 F 
ATOM     92  F   UNL A   1      47.596  34.175  31.923  1.00  0.00    -0.200 F 
ATOM     93  C   UNL A   1      47.039  34.954  29.765  1.00  0.00     0.200 A 
ATOM     94  F   UNL A   1      46.451  35.692  27.600  1.00  0.00    -0.200 F 
ATOM     95  F   UNL A   1      47.538  36.163  30.056  1.00  0.00    -0.200 F 
ENDBRANCH  62  85
ENDBRANCH  36  37
ENDBRANCH  28  31
ENDBRANCH  26  27
ENDBRANCH  25  26
ENDBRANCH  24  25
ENDBRANCH  23  24
ENDBRANCH   1  23
TORSDOF 17
ENDMDL
