MODEL 1
REMARK VINA RESULT:     -11.9      0.000      0.000
REMARK SMILES C[C@@H](C(=O)NCCCCCCNC(=O)c1ccc(-c2c3nc(c(-c4c(F)c(F)c(F)c(F)c4F)c4ccc([nH]4)c(-c4c(F)c(F)c(F)c(F)c4F)c4nc(c(-c5c(F)c(F)c(F)c(F)c5F)c5ccc2[nH]5)C=C4)C=C3)cc1)c1ccc(Cc2cccs2)cc1F
REMARK SMILES IDX 8 1 7 2 6 3 5 4 3 5 4 6 2 8 1 9 78 10 79 11 89 12 80 13
REMARK SMILES IDX 88 14 90 15 81 16 82 17 83 18 84 19 87 20 85 21 86 22 9 23
REMARK SMILES IDX 10 24 11 25 12 26 13 27 14 29 15 30 16 31 77 32 17 33 76 34
REMARK SMILES IDX 18 35 19 36 20 37 70 38 21 39 75 40 69 41 71 42 22 43 74 44
REMARK SMILES IDX 68 45 67 46 23 48 55 49 35 50 54 51 36 52 39 53 53 54 72 55
REMARK SMILES IDX 37 56 38 57 52 59 73 60 40 61 24 62 25 63 33 64 26 65 27 66
REMARK SMILES IDX 31 67 34 68 28 69 29 70 32 71 30 72 56 73 57 74 65 75 58 76
REMARK SMILES IDX 59 77 63 78 66 79 60 80 61 81 64 82 62 83 41 84 42 85 50 86
REMARK SMILES IDX 43 87 44 88 48 89 51 90 45 91 46 92 49 93 47 94
REMARK H PARENT 5 7 12 28 71 47 39 58
REMARK Flexibility Score: inf
ROOT
ATOM      1  C   UNL A   1      32.064  29.057  26.136  1.00  0.00     0.002 C 
ENDROOT
BRANCH   1   2
ATOM      2  C   UNL A   1      33.480  28.686  25.675  1.00  0.00     0.021 C 
BRANCH   2   3
ATOM      3  C   UNL A   1      33.748  27.179  25.590  1.00  0.00     0.116 C 
BRANCH   3   4
ATOM      4  N   UNL A   1      33.976  26.791  24.212  1.00  0.00    -0.356 N 
ATOM      5  C   UNL A   1      33.380  25.795  23.492  1.00  0.00     0.227 C 
ATOM      6  O   UNL A   1      34.033  25.332  22.555  1.00  0.00    -0.274 OA
ATOM      7  H   UNL A   1      34.655  27.315  23.730  1.00  0.00     0.163 HD
BRANCH   5   8
ATOM      8  C   UNL A   1      31.966  25.315  23.876  1.00  0.00     0.108 C 
ATOM      9  C   UNL A   1      31.714  23.998  23.126  1.00  0.00     0.023 C 
BRANCH   8  10
ATOM     10  C   UNL A   1      30.855  26.348  23.648  1.00  0.00    -0.000 A 
ATOM     11  C   UNL A   1      31.003  27.417  22.750  1.00  0.00     0.008 A 
ATOM     12  C   UNL A   1      29.644  26.288  24.353  1.00  0.00     0.127 A 
ATOM     13  C   UNL A   1      29.943  28.284  22.467  1.00  0.00     0.004 A 
ATOM     14  C   UNL A   1      28.588  27.167  24.097  1.00  0.00     0.043 A 
ATOM     15  F   UNL A   1      29.459  25.368  25.310  1.00  0.00    -0.207 F 
ATOM     16  C   UNL A   1      28.714  28.156  23.119  1.00  0.00    -0.040 A 
BRANCH  16  17
ATOM     17  C   UNL A   1      27.547  29.044  22.751  1.00  0.00     0.082 C 
BRANCH  17  18
ATOM     18  C   UNL A   1      27.907  30.495  22.594  1.00  0.00     0.009 A 
ATOM     19  C   UNL A   1      28.217  31.419  23.575  1.00  0.00     0.016 A 
ATOM     20  S   UNL A   1      28.028  31.187  21.030  1.00  0.00    -0.149 S 
ATOM     21  C   UNL A   1      28.547  32.696  23.039  1.00  0.00     0.012 A 
ATOM     22  C   UNL A   1      28.496  32.703  21.664  1.00  0.00     0.065 A 
ENDBRANCH  17  18
ENDBRANCH  16  17
ENDBRANCH   8  10
ENDBRANCH   5   8
ENDBRANCH   3   4
ENDBRANCH   2   3
ENDBRANCH   1   2
BRANCH   1  23
ATOM     23  C   UNL A   1      31.414  30.215  25.377  1.00  0.00     0.002 C 
BRANCH  23  24
ATOM     24  C   UNL A   1      31.193  31.486  26.201  1.00  0.00     0.021 C 
BRANCH  24  25
ATOM     25  C   UNL A   1      32.435  32.018  26.913  1.00  0.00     0.116 C 
BRANCH  25  26
ATOM     26  N   UNL A   1      32.317  33.428  27.250  1.00  0.00    -0.352 N 
ATOM     27  C   UNL A   1      33.030  34.170  28.153  1.00  0.00     0.251 C 
ATOM     28  H   UNL A   1      31.623  33.921  26.757  1.00  0.00     0.163 HD
ATOM     29  O   UNL A   1      32.672  35.316  28.427  1.00  0.00    -0.269 OA
BRANCH  27  30
ATOM     30  C   UNL A   1      34.217  33.598  28.824  1.00  0.00     0.039 A 
ATOM     31  C   UNL A   1      34.029  32.822  29.971  1.00  0.00     0.014 A 
ATOM     32  C   UNL A   1      35.510  33.841  28.347  1.00  0.00     0.014 A 
ATOM     33  C   UNL A   1      35.129  32.243  30.606  1.00  0.00     0.010 A 
ATOM     34  C   UNL A   1      36.601  33.213  28.946  1.00  0.00     0.010 A 
ATOM     35  C   UNL A   1      36.421  32.406  30.081  1.00  0.00    -0.014 A 
BRANCH  35  36
ATOM     36  C   UNL A   1      37.583  31.725  30.705  1.00  0.00     0.031 A 
ATOM     37  C   UNL A   1      38.018  32.076  32.100  1.00  0.00     0.074 A 
ATOM     38  C   UNL A   1      38.274  30.813  29.993  1.00  0.00     0.049 A 
ATOM     39  N   UNL A   1      39.021  31.602  32.798  1.00  0.00    -0.248 NA
ATOM     40  C   UNL A   1      37.237  33.108  32.799  1.00  0.00     0.031 C 
ATOM     41  C   UNL A   1      37.984  30.425  28.612  1.00  0.00     0.029 A 
ATOM     42  N   UNL A   1      39.364  30.050  30.330  1.00  0.00    -0.354 N 
ATOM     43  C   UNL A   1      38.990  32.276  34.011  1.00  0.00     0.074 A 
ATOM     44  C   UNL A   1      37.904  33.229  33.938  1.00  0.00     0.031 C 
ATOM     45  C   UNL A   1      38.861  29.483  28.226  1.00  0.00     0.029 A 
ATOM     46  C   UNL A   1      39.789  29.222  29.321  1.00  0.00     0.049 A 
ATOM     47  H   UNL A   1      39.800  30.092  31.211  1.00  0.00     0.167 HD
ATOM     48  C   UNL A   1      39.781  32.098  35.096  1.00  0.00     0.037 A 
ATOM     49  C   UNL A   1      40.816  28.350  29.282  1.00  0.00     0.037 A 
ATOM     50  C   UNL A   1      40.851  31.138  35.176  1.00  0.00     0.049 A 
ATOM     51  C   UNL A   1      41.673  28.171  30.505  1.00  0.00     0.074 A 
ATOM     52  C   UNL A   1      41.681  30.856  36.248  1.00  0.00     0.029 A 
ATOM     53  N   UNL A   1      41.237  30.300  34.141  1.00  0.00    -0.354 N 
ATOM     54  N   UNL A   1      41.593  28.770  31.668  1.00  0.00    -0.248 NA
ATOM     55  C   UNL A   1      42.758  27.184  30.412  1.00  0.00     0.031 C 
ATOM     56  C   UNL A   1      42.592  29.872  35.850  1.00  0.00     0.029 A 
ATOM     57  C   UNL A   1      42.303  29.511  34.545  1.00  0.00     0.049 A 
ATOM     58  H   UNL A   1      40.817  30.270  33.251  1.00  0.00     0.167 HD
ATOM     59  C   UNL A   1      42.598  28.219  32.450  1.00  0.00     0.074 A 
ATOM     60  C   UNL A   1      43.260  27.220  31.637  1.00  0.00     0.031 C 
ATOM     61  C   UNL A   1      42.948  28.519  33.725  1.00  0.00     0.037 A 
BRANCH  48  62
ATOM     62  C   UNL A   1      39.509  32.949  36.303  1.00  0.00     0.064 A 
ATOM     63  C   UNL A   1      40.141  34.189  36.477  1.00  0.00     0.173 A 
ATOM     64  C   UNL A   1      38.566  32.551  37.262  1.00  0.00     0.173 A 
ATOM     65  F   UNL A   1      41.059  34.608  35.595  1.00  0.00    -0.203 F 
ATOM     66  C   UNL A   1      39.850  34.993  37.577  1.00  0.00     0.198 A 
ATOM     67  C   UNL A   1      38.258  33.370  38.346  1.00  0.00     0.198 A 
ATOM     68  F   UNL A   1      37.929  31.377  37.139  1.00  0.00    -0.203 F 
ATOM     69  F   UNL A   1      40.492  36.158  37.740  1.00  0.00    -0.200 F 
ATOM     70  C   UNL A   1      38.903  34.587  38.504  1.00  0.00     0.200 A 
ATOM     71  F   UNL A   1      37.334  32.983  39.235  1.00  0.00    -0.200 F 
ATOM     72  F   UNL A   1      38.614  35.368  39.555  1.00  0.00    -0.200 F 
ENDBRANCH  48  62
BRANCH  49  73
ATOM     73  C   UNL A   1      41.081  27.564  28.049  1.00  0.00     0.064 A 
ATOM     74  C   UNL A   1      40.540  26.282  27.880  1.00  0.00     0.173 A 
ATOM     75  C   UNL A   1      41.898  28.068  27.026  1.00  0.00     0.173 A 
ATOM     76  F   UNL A   1      39.769  25.750  28.841  1.00  0.00    -0.203 F 
ATOM     77  C   UNL A   1      40.829  25.521  26.751  1.00  0.00     0.198 A 
ATOM     78  C   UNL A   1      42.164  27.318  25.883  1.00  0.00     0.198 A 
ATOM     79  F   UNL A   1      42.435  29.292  27.136  1.00  0.00    -0.203 F 
ATOM     80  F   UNL A   1      40.344  24.277  26.641  1.00  0.00    -0.200 F 
ATOM     81  C   UNL A   1      41.638  26.041  25.751  1.00  0.00     0.200 A 
ATOM     82  F   UNL A   1      42.934  27.829  24.913  1.00  0.00    -0.200 F 
ATOM     83  F   UNL A   1      41.919  25.308  24.665  1.00  0.00    -0.200 F 
ENDBRANCH  49  73
BRANCH  61  84
ATOM     84  C   UNL A   1      44.081  27.738  34.323  1.00  0.00     0.064 A 
ATOM     85  C   UNL A   1      43.865  26.514  34.973  1.00  0.00     0.173 A 
ATOM     86  C   UNL A   1      45.399  28.212  34.232  1.00  0.00     0.173 A 
ATOM     87  F   UNL A   1      42.622  26.027  35.101  1.00  0.00    -0.203 F 
ATOM     88  C   UNL A   1      44.925  25.808  35.536  1.00  0.00     0.198 A 
ATOM     89  C   UNL A   1      46.458  27.489  34.771  1.00  0.00     0.198 A 
ATOM     90  F   UNL A   1      45.658  29.376  33.615  1.00  0.00    -0.203 F 
ATOM     91  F   UNL A   1      44.688  24.667  36.199  1.00  0.00    -0.200 F 
ATOM     92  C   UNL A   1      46.220  26.293  35.431  1.00  0.00     0.200 A 
ATOM     93  F   UNL A   1      47.710  27.953  34.659  1.00  0.00    -0.200 F 
ATOM     94  F   UNL A   1      47.238  25.612  35.974  1.00  0.00    -0.200 F 
ENDBRANCH  61  84
ENDBRANCH  35  36
ENDBRANCH  27  30
ENDBRANCH  25  26
ENDBRANCH  24  25
ENDBRANCH  23  24
ENDBRANCH   1  23
TORSDOF 16
ENDMDL
MODEL 2
REMARK VINA RESULT:     -11.6      5.755     11.263
REMARK SMILES C[C@@H](C(=O)NCCCCCCNC(=O)c1ccc(-c2c3nc(c(-c4c(F)c(F)c(F)c(F)c4F)c4ccc([nH]4)c(-c4c(F)c(F)c(F)c(F)c4F)c4nc(c(-c5c(F)c(F)c(F)c(F)c5F)c5ccc2[nH]5)C=C4)C=C3)cc1)c1ccc(Cc2cccs2)cc1F
REMARK SMILES IDX 8 1 7 2 6 3 5 4 3 5 4 6 2 8 1 9 78 10 79 11 89 12 80 13
REMARK SMILES IDX 88 14 90 15 81 16 82 17 83 18 84 19 87 20 85 21 86 22 9 23
REMARK SMILES IDX 10 24 11 25 12 26 13 27 14 29 15 30 16 31 77 32 17 33 76 34
REMARK SMILES IDX 18 35 19 36 20 37 70 38 21 39 75 40 69 41 71 42 22 43 74 44
REMARK SMILES IDX 68 45 67 46 23 48 55 49 35 50 54 51 36 52 39 53 53 54 72 55
REMARK SMILES IDX 37 56 38 57 52 59 73 60 40 61 24 62 25 63 33 64 26 65 27 66
REMARK SMILES IDX 31 67 34 68 28 69 29 70 32 71 30 72 56 73 57 74 65 75 58 76
REMARK SMILES IDX 59 77 63 78 66 79 60 80 61 81 64 82 62 83 41 84 42 85 50 86
REMARK SMILES IDX 43 87 44 88 48 89 51 90 45 91 46 92 49 93 47 94
REMARK H PARENT 5 7 12 28 71 47 39 58
REMARK Flexibility Score: inf
ROOT
ATOM      1  C   UNL A   1      36.816  21.981  24.862  1.00  0.00     0.002 C 
ENDROOT
BRANCH   1   2
ATOM      2  C   UNL A   1      36.453  22.589  23.501  1.00  0.00     0.021 C 
BRANCH   2   3
ATOM      3  C   UNL A   1      35.407  23.709  23.562  1.00  0.00     0.116 C 
BRANCH   3   4
ATOM      4  N   UNL A   1      34.915  23.858  24.917  1.00  0.00    -0.356 N 
ATOM      5  C   UNL A   1      33.648  24.136  25.343  1.00  0.00     0.227 C 
ATOM      6  O   UNL A   1      33.549  24.684  26.442  1.00  0.00    -0.274 OA
ATOM      7  H   UNL A   1      35.586  23.744  25.628  1.00  0.00     0.163 HD
BRANCH   5   8
ATOM      8  C   UNL A   1      32.444  23.763  24.456  1.00  0.00     0.108 C 
ATOM      9  C   UNL A   1      31.179  24.252  25.178  1.00  0.00     0.023 C 
BRANCH   8  10
ATOM     10  C   UNL A   1      32.368  22.281  24.067  1.00  0.00    -0.000 A 
ATOM     11  C   UNL A   1      32.109  21.868  22.751  1.00  0.00     0.008 A 
ATOM     12  C   UNL A   1      32.527  21.265  25.021  1.00  0.00     0.127 A 
ATOM     13  C   UNL A   1      32.155  20.518  22.388  1.00  0.00     0.004 A 
ATOM     14  C   UNL A   1      32.549  19.912  24.672  1.00  0.00     0.043 A 
ATOM     15  F   UNL A   1      32.668  21.567  26.320  1.00  0.00    -0.207 F 
ATOM     16  C   UNL A   1      32.400  19.524  23.339  1.00  0.00    -0.040 A 
BRANCH  16  17
ATOM     17  C   UNL A   1      32.529  18.075  22.927  1.00  0.00     0.082 C 
BRANCH  17  18
ATOM     18  C   UNL A   1      33.351  17.241  23.870  1.00  0.00     0.009 A 
ATOM     19  C   UNL A   1      34.726  17.123  23.944  1.00  0.00     0.016 A 
ATOM     20  S   UNL A   1      32.582  16.315  25.091  1.00  0.00    -0.149 S 
ATOM     21  C   UNL A   1      35.146  16.265  25.000  1.00  0.00     0.012 A 
ATOM     22  C   UNL A   1      34.078  15.768  25.712  1.00  0.00     0.065 A 
ENDBRANCH  17  18
ENDBRANCH  16  17
ENDBRANCH   8  10
ENDBRANCH   5   8
ENDBRANCH   3   4
ENDBRANCH   2   3
ENDBRANCH   1   2
BRANCH   1  23
ATOM     23  C   UNL A   1      36.535  20.483  25.001  1.00  0.00     0.002 C 
BRANCH  23  24
ATOM     24  C   UNL A   1      37.778  19.590  25.001  1.00  0.00     0.021 C 
BRANCH  24  25
ATOM     25  C   UNL A   1      38.987  20.165  25.734  1.00  0.00     0.116 C 
BRANCH  25  26
ATOM     26  N   UNL A   1      40.056  19.190  25.887  1.00  0.00    -0.352 N 
ATOM     27  C   UNL A   1      41.389  19.390  26.124  1.00  0.00     0.251 C 
ATOM     28  H   UNL A   1      39.780  18.248  25.809  1.00  0.00     0.163 HD
ATOM     29  O   UNL A   1      42.175  18.443  26.052  1.00  0.00    -0.269 OA
BRANCH  27  30
ATOM     30  C   UNL A   1      41.902  20.739  26.444  1.00  0.00     0.039 A 
ATOM     31  C   UNL A   1      42.108  21.642  25.396  1.00  0.00     0.014 A 
ATOM     32  C   UNL A   1      42.202  21.111  27.758  1.00  0.00     0.014 A 
ATOM     33  C   UNL A   1      42.560  22.933  25.673  1.00  0.00     0.010 A 
ATOM     34  C   UNL A   1      42.595  22.419  28.038  1.00  0.00     0.010 A 
ATOM     35  C   UNL A   1      42.776  23.344  26.998  1.00  0.00    -0.014 A 
BRANCH  35  36
ATOM     36  C   UNL A   1      43.177  24.741  27.302  1.00  0.00     0.031 A 
ATOM     37  C   UNL A   1      44.584  25.206  27.048  1.00  0.00     0.074 A 
ATOM     38  C   UNL A   1      42.277  25.582  27.846  1.00  0.00     0.049 A 
ATOM     39  N   UNL A   1      45.119  26.380  27.272  1.00  0.00    -0.248 NA
ATOM     40  C   UNL A   1      45.519  24.218  26.488  1.00  0.00     0.031 C 
ATOM     41  C   UNL A   1      40.896  25.235  28.187  1.00  0.00     0.029 A 
ATOM     42  N   UNL A   1      42.388  26.901  28.211  1.00  0.00    -0.354 N 
ATOM     43  C   UNL A   1      46.448  26.272  26.882  1.00  0.00     0.074 A 
ATOM     44  C   UNL A   1      46.653  24.904  26.456  1.00  0.00     0.031 C 
ATOM     45  C   UNL A   1      40.283  26.318  28.694  1.00  0.00     0.029 A 
ATOM     46  C   UNL A   1      41.233  27.425  28.738  1.00  0.00     0.049 A 
ATOM     47  H   UNL A   1      43.216  27.422  28.105  1.00  0.00     0.167 HD
ATOM     48  C   UNL A   1      47.402  27.233  26.857  1.00  0.00     0.037 A 
ATOM     49  C   UNL A   1      40.970  28.660  29.207  1.00  0.00     0.037 A 
ATOM     50  C   UNL A   1      47.194  28.598  27.264  1.00  0.00     0.049 A 
ATOM     51  C   UNL A   1      42.049  29.707  29.162  1.00  0.00     0.074 A 
ATOM     52  C   UNL A   1      48.089  29.654  27.236  1.00  0.00     0.029 A 
ATOM     53  N   UNL A   1      46.004  29.097  27.771  1.00  0.00    -0.354 N 
ATOM     54  N   UNL A   1      43.283  29.607  28.731  1.00  0.00    -0.248 NA
ATOM     55  C   UNL A   1      41.694  31.043  29.659  1.00  0.00     0.031 C 
ATOM     56  C   UNL A   1      47.452  30.783  27.759  1.00  0.00     0.029 A 
ATOM     57  C   UNL A   1      46.146  30.443  28.073  1.00  0.00     0.049 A 
ATOM     58  H   UNL A   1      45.180  28.574  27.898  1.00  0.00     0.167 HD
ATOM     59  C   UNL A   1      43.842  30.868  28.883  1.00  0.00     0.074 A 
ATOM     60  C   UNL A   1      42.807  31.723  29.424  1.00  0.00     0.031 C 
ATOM     61  C   UNL A   1      45.104  31.280  28.607  1.00  0.00     0.037 A 
BRANCH  48  62
ATOM     62  C   UNL A   1      48.763  26.849  26.354  1.00  0.00     0.064 A 
ATOM     63  C   UNL A   1      49.720  26.276  27.205  1.00  0.00     0.173 A 
ATOM     64  C   UNL A   1      49.094  26.998  24.999  1.00  0.00     0.173 A 
ATOM     65  F   UNL A   1      49.456  26.124  28.511  1.00  0.00    -0.203 F 
ATOM     66  C   UNL A   1      50.965  25.882  26.722  1.00  0.00     0.198 A 
ATOM     67  C   UNL A   1      50.330  26.578  24.514  1.00  0.00     0.198 A 
ATOM     68  F   UNL A   1      48.213  27.534  24.142  1.00  0.00    -0.203 F 
ATOM     69  F   UNL A   1      51.875  25.369  27.561  1.00  0.00    -0.200 F 
ATOM     70  C   UNL A   1      51.265  26.024  25.375  1.00  0.00     0.200 A 
ATOM     71  F   UNL A   1      50.616  26.705  23.211  1.00  0.00    -0.200 F 
ATOM     72  F   UNL A   1      52.459  25.632  24.909  1.00  0.00    -0.200 F 
ENDBRANCH  48  62
BRANCH  49  73
ATOM     73  C   UNL A   1      39.623  28.983  29.743  1.00  0.00     0.064 A 
ATOM     74  C   UNL A   1      39.314  28.772  31.094  1.00  0.00     0.173 A 
ATOM     75  C   UNL A   1      38.610  29.486  28.913  1.00  0.00     0.173 A 
ATOM     76  F   UNL A   1      40.244  28.273  31.923  1.00  0.00    -0.203 F 
ATOM     77  C   UNL A   1      38.037  29.023  31.589  1.00  0.00     0.198 A 
ATOM     78  C   UNL A   1      37.341  29.763  29.414  1.00  0.00     0.198 A 
ATOM     79  F   UNL A   1      38.856  29.710  27.614  1.00  0.00    -0.203 F 
ATOM     80  F   UNL A   1      37.753  28.760  32.872  1.00  0.00    -0.200 F 
ATOM     81  C   UNL A   1      37.052  29.522  30.749  1.00  0.00     0.200 A 
ATOM     82  F   UNL A   1      36.396  30.259  28.604  1.00  0.00    -0.200 F 
ATOM     83  F   UNL A   1      35.822  29.761  31.225  1.00  0.00    -0.200 F 
ENDBRANCH  49  73
BRANCH  61  84
ATOM     84  C   UNL A   1      45.422  32.723  28.864  1.00  0.00     0.064 A 
ATOM     85  C   UNL A   1      45.961  33.149  30.088  1.00  0.00     0.173 A 
ATOM     86  C   UNL A   1      45.200  33.690  27.872  1.00  0.00     0.173 A 
ATOM     87  F   UNL A   1      46.176  32.265  31.075  1.00  0.00    -0.203 F 
ATOM     88  C   UNL A   1      46.237  34.494  30.318  1.00  0.00     0.198 A 
ATOM     89  C   UNL A   1      45.505  35.029  28.095  1.00  0.00     0.198 A 
ATOM     90  F   UNL A   1      44.691  33.332  26.682  1.00  0.00    -0.203 F 
ATOM     91  F   UNL A   1      46.701  34.884  31.513  1.00  0.00    -0.200 F 
ATOM     92  C   UNL A   1      46.013  35.431  29.321  1.00  0.00     0.200 A 
ATOM     93  F   UNL A   1      45.298  35.932  27.127  1.00  0.00    -0.200 F 
ATOM     94  F   UNL A   1      46.279  36.725  29.544  1.00  0.00    -0.200 F 
ENDBRANCH  61  84
ENDBRANCH  35  36
ENDBRANCH  27  30
ENDBRANCH  25  26
ENDBRANCH  24  25
ENDBRANCH  23  24
ENDBRANCH   1  23
TORSDOF 16
ENDMDL
MODEL 3
REMARK VINA RESULT:     -11.6      5.725     11.259
REMARK SMILES C[C@@H](C(=O)NCCCCCCNC(=O)c1ccc(-c2c3nc(c(-c4c(F)c(F)c(F)c(F)c4F)c4ccc([nH]4)c(-c4c(F)c(F)c(F)c(F)c4F)c4nc(c(-c5c(F)c(F)c(F)c(F)c5F)c5ccc2[nH]5)C=C4)C=C3)cc1)c1ccc(Cc2cccs2)cc1F
REMARK SMILES IDX 8 1 7 2 6 3 5 4 3 5 4 6 2 8 1 9 78 10 79 11 89 12 80 13
REMARK SMILES IDX 88 14 90 15 81 16 82 17 83 18 84 19 87 20 85 21 86 22 9 23
REMARK SMILES IDX 10 24 11 25 12 26 13 27 14 29 15 30 16 31 77 32 17 33 76 34
REMARK SMILES IDX 18 35 19 36 20 37 70 38 21 39 75 40 69 41 71 42 22 43 74 44
REMARK SMILES IDX 68 45 67 46 23 48 55 49 35 50 54 51 36 52 39 53 53 54 72 55
REMARK SMILES IDX 37 56 38 57 52 59 73 60 40 61 24 62 25 63 33 64 26 65 27 66
REMARK SMILES IDX 31 67 34 68 28 69 29 70 32 71 30 72 56 73 57 74 65 75 58 76
REMARK SMILES IDX 59 77 63 78 66 79 60 80 61 81 64 82 62 83 41 84 42 85 50 86
REMARK SMILES IDX 43 87 44 88 48 89 51 90 45 91 46 92 49 93 47 94
REMARK H PARENT 5 7 12 28 71 47 39 58
REMARK Flexibility Score: inf
ROOT
ATOM      1  C   UNL A   1      36.658  21.927  24.949  1.00  0.00     0.002 C 
ENDROOT
BRANCH   1   2
ATOM      2  C   UNL A   1      36.294  22.581  23.609  1.00  0.00     0.021 C 
BRANCH   2   3
ATOM      3  C   UNL A   1      35.438  23.848  23.731  1.00  0.00     0.116 C 
BRANCH   3   4
ATOM      4  N   UNL A   1      34.843  23.922  25.050  1.00  0.00    -0.356 N 
ATOM      5  C   UNL A   1      33.539  24.148  25.391  1.00  0.00     0.227 C 
ATOM      6  O   UNL A   1      33.343  24.643  26.502  1.00  0.00    -0.274 OA
ATOM      7  H   UNL A   1      35.462  23.793  25.804  1.00  0.00     0.163 HD
BRANCH   5   8
ATOM      8  C   UNL A   1      32.416  23.785  24.400  1.00  0.00     0.108 C 
ATOM      9  C   UNL A   1      31.099  24.307  24.994  1.00  0.00     0.023 C 
BRANCH   8  10
ATOM     10  C   UNL A   1      32.348  22.299  24.024  1.00  0.00    -0.000 A 
ATOM     11  C   UNL A   1      32.101  21.873  22.710  1.00  0.00     0.008 A 
ATOM     12  C   UNL A   1      32.501  21.292  24.989  1.00  0.00     0.127 A 
ATOM     13  C   UNL A   1      32.153  20.520  22.359  1.00  0.00     0.004 A 
ATOM     14  C   UNL A   1      32.529  19.936  24.653  1.00  0.00     0.043 A 
ATOM     15  F   UNL A   1      32.630  21.607  26.286  1.00  0.00    -0.207 F 
ATOM     16  C   UNL A   1      32.392  19.535  23.322  1.00  0.00    -0.040 A 
BRANCH  16  17
ATOM     17  C   UNL A   1      32.529  18.083  22.925  1.00  0.00     0.082 C 
BRANCH  17  18
ATOM     18  C   UNL A   1      33.342  17.259  23.884  1.00  0.00     0.009 A 
ATOM     19  C   UNL A   1      34.716  17.144  23.974  1.00  0.00     0.016 A 
ATOM     20  S   UNL A   1      32.562  16.343  25.106  1.00  0.00    -0.149 S 
ATOM     21  C   UNL A   1      35.127  16.297  25.042  1.00  0.00     0.012 A 
ATOM     22  C   UNL A   1      34.052  15.805  25.747  1.00  0.00     0.065 A 
ENDBRANCH  17  18
ENDBRANCH  16  17
ENDBRANCH   8  10
ENDBRANCH   5   8
ENDBRANCH   3   4
ENDBRANCH   2   3
ENDBRANCH   1   2
BRANCH   1  23
ATOM     23  C   UNL A   1      36.474  20.409  25.002  1.00  0.00     0.002 C 
BRANCH  23  24
ATOM     24  C   UNL A   1      37.768  19.597  24.903  1.00  0.00     0.021 C 
BRANCH  24  25
ATOM     25  C   UNL A   1      38.939  20.147  25.714  1.00  0.00     0.116 C 
BRANCH  25  26
ATOM     26  N   UNL A   1      40.010  19.175  25.868  1.00  0.00    -0.352 N 
ATOM     27  C   UNL A   1      41.342  19.376  26.109  1.00  0.00     0.251 C 
ATOM     28  H   UNL A   1      39.736  18.232  25.787  1.00  0.00     0.163 HD
ATOM     29  O   UNL A   1      42.130  18.432  26.037  1.00  0.00    -0.269 OA
BRANCH  27  30
ATOM     30  C   UNL A   1      41.850  20.726  26.432  1.00  0.00     0.039 A 
ATOM     31  C   UNL A   1      42.082  21.623  25.385  1.00  0.00     0.014 A 
ATOM     32  C   UNL A   1      42.123  21.105  27.752  1.00  0.00     0.014 A 
ATOM     33  C   UNL A   1      42.530  22.915  25.665  1.00  0.00     0.010 A 
ATOM     34  C   UNL A   1      42.512  22.414  28.033  1.00  0.00     0.010 A 
ATOM     35  C   UNL A   1      42.718  23.332  26.992  1.00  0.00    -0.014 A 
BRANCH  35  36
ATOM     36  C   UNL A   1      43.116  24.730  27.297  1.00  0.00     0.031 A 
ATOM     37  C   UNL A   1      44.517  25.202  27.033  1.00  0.00     0.074 A 
ATOM     38  C   UNL A   1      42.216  25.565  27.853  1.00  0.00     0.049 A 
ATOM     39  N   UNL A   1      45.050  26.379  27.256  1.00  0.00    -0.248 NA
ATOM     40  C   UNL A   1      45.452  24.221  26.460  1.00  0.00     0.031 C 
ATOM     41  C   UNL A   1      40.841  25.210  28.206  1.00  0.00     0.029 A 
ATOM     42  N   UNL A   1      42.325  26.883  28.222  1.00  0.00    -0.354 N 
ATOM     43  C   UNL A   1      46.375  26.278  26.853  1.00  0.00     0.074 A 
ATOM     44  C   UNL A   1      46.583  24.912  26.420  1.00  0.00     0.031 C 
ATOM     45  C   UNL A   1      40.227  26.288  28.723  1.00  0.00     0.029 A 
ATOM     46  C   UNL A   1      41.172  27.400  28.762  1.00  0.00     0.049 A 
ATOM     47  H   UNL A   1      43.149  27.408  28.111  1.00  0.00     0.167 HD
ATOM     48  C   UNL A   1      47.324  27.243  26.823  1.00  0.00     0.037 A 
ATOM     49  C   UNL A   1      40.908  28.632  29.238  1.00  0.00     0.037 A 
ATOM     50  C   UNL A   1      47.114  28.606  27.237  1.00  0.00     0.049 A 
ATOM     51  C   UNL A   1      41.982  29.684  29.187  1.00  0.00     0.074 A 
ATOM     52  C   UNL A   1      48.004  29.666  27.205  1.00  0.00     0.029 A 
ATOM     53  N   UNL A   1      45.926  29.098  27.757  1.00  0.00    -0.354 N 
ATOM     54  N   UNL A   1      43.212  29.591  28.744  1.00  0.00    -0.248 NA
ATOM     55  C   UNL A   1      41.625  31.017  29.692  1.00  0.00     0.031 C 
ATOM     56  C   UNL A   1      47.366  30.791  27.738  1.00  0.00     0.029 A 
ATOM     57  C   UNL A   1      46.066  30.443  28.063  1.00  0.00     0.049 A 
ATOM     58  H   UNL A   1      45.106  28.570  27.889  1.00  0.00     0.167 HD
ATOM     59  C   UNL A   1      43.767  30.854  28.896  1.00  0.00     0.074 A 
ATOM     60  C   UNL A   1      42.733  31.702  29.449  1.00  0.00     0.031 C 
ATOM     61  C   UNL A   1      45.025  31.273  28.610  1.00  0.00     0.037 A 
BRANCH  48  62
ATOM     62  C   UNL A   1      48.683  26.867  26.306  1.00  0.00     0.064 A 
ATOM     63  C   UNL A   1      49.012  27.012  24.950  1.00  0.00     0.173 A 
ATOM     64  C   UNL A   1      49.683  26.417  27.180  1.00  0.00     0.173 A 
ATOM     65  F   UNL A   1      48.087  27.427  24.072  1.00  0.00    -0.203 F 
ATOM     66  C   UNL A   1      50.288  26.704  24.485  1.00  0.00     0.198 A 
ATOM     67  C   UNL A   1      50.965  26.135  26.717  1.00  0.00     0.198 A 
ATOM     68  F   UNL A   1      49.422  26.267  28.487  1.00  0.00    -0.203 F 
ATOM     69  F   UNL A   1      50.569  26.817  23.180  1.00  0.00    -0.200 F 
ATOM     70  C   UNL A   1      51.266  26.275  25.370  1.00  0.00     0.200 A 
ATOM     71  F   UNL A   1      51.913  25.732  27.574  1.00  0.00    -0.200 F 
ATOM     72  F   UNL A   1      52.497  25.991  24.924  1.00  0.00    -0.200 F 
ENDBRANCH  48  62
BRANCH  49  73
ATOM     73  C   UNL A   1      39.564  28.947  29.788  1.00  0.00     0.064 A 
ATOM     74  C   UNL A   1      38.558  29.480  28.972  1.00  0.00     0.173 A 
ATOM     75  C   UNL A   1      39.267  28.744  31.143  1.00  0.00     0.173 A 
ATOM     76  F   UNL A   1      38.802  29.711  27.672  1.00  0.00    -0.203 F 
ATOM     77  C   UNL A   1      37.314  29.827  29.495  1.00  0.00     0.198 A 
ATOM     78  C   UNL A   1      38.014  29.064  31.660  1.00  0.00     0.198 A 
ATOM     79  F   UNL A   1      40.194  28.231  31.966  1.00  0.00    -0.203 F 
ATOM     80  F   UNL A   1      36.389  30.386  28.704  1.00  0.00    -0.200 F 
ATOM     81  C   UNL A   1      37.042  29.615  30.838  1.00  0.00     0.200 A 
ATOM     82  F   UNL A   1      37.750  28.845  32.956  1.00  0.00    -0.200 F 
ATOM     83  F   UNL A   1      35.847  29.950  31.342  1.00  0.00    -0.200 F 
ENDBRANCH  49  73
BRANCH  61  84
ATOM     84  C   UNL A   1      45.338  32.717  28.869  1.00  0.00     0.064 A 
ATOM     85  C   UNL A   1      45.106  33.703  27.898  1.00  0.00     0.173 A 
ATOM     86  C   UNL A   1      45.862  33.121  30.106  1.00  0.00     0.173 A 
ATOM     87  F   UNL A   1      44.622  33.365  26.694  1.00  0.00    -0.203 F 
ATOM     88  C   UNL A   1      45.415  35.038  28.148  1.00  0.00     0.198 A 
ATOM     89  C   UNL A   1      46.143  34.460  30.361  1.00  0.00     0.198 A 
ATOM     90  F   UNL A   1      46.097  32.217  31.069  1.00  0.00    -0.203 F 
ATOM     91  F   UNL A   1      45.235  35.955  27.187  1.00  0.00    -0.200 F 
ATOM     92  C   UNL A   1      45.929  35.415  29.379  1.00  0.00     0.200 A 
ATOM     93  F   UNL A   1      46.629  34.826  31.555  1.00  0.00    -0.200 F 
ATOM     94  F   UNL A   1      46.226  36.700  29.616  1.00  0.00    -0.200 F 
ENDBRANCH  61  84
ENDBRANCH  35  36
ENDBRANCH  27  30
ENDBRANCH  25  26
ENDBRANCH  24  25
ENDBRANCH  23  24
ENDBRANCH   1  23
TORSDOF 16
ENDMDL
