MODEL 1
REMARK VINA RESULT:     -13.1      0.000      0.000
REMARK SMILES O=C(NCCCCCCNC(=O)c1nccnc1C(=O)Nc1ccc2c(c1)OCO2)c1ccc(-c2c3nc(c(-c4c(F)c(F)c(F)c(F)c4F)c4ccc([nH]4)c(-c4c(F)c(F)c(F)c(F)c4F)c4nc(c(-c5c(F)c(F)c(F)c(F)c5F)c5ccc2[nH]5)C=C4)C=C3)cc1
REMARK SMILES IDX 6 1 5 2 4 3 3 4 1 5 2 6 31 8 32 9 93 10 33 11 92 12 34 13
REMARK SMILES IDX 35 14 36 15 86 16 37 17 91 18 85 19 87 20 38 21 90 22 84 23
REMARK SMILES IDX 83 24 39 26 71 27 51 28 70 29 52 30 55 31 69 32 88 33 53 34
REMARK SMILES IDX 54 35 68 37 89 38 56 39 40 40 41 41 49 42 42 43 43 44 47 45
REMARK SMILES IDX 50 46 44 47 45 48 48 49 46 50 72 51 73 52 81 53 74 54 75 55
REMARK SMILES IDX 79 56 82 57 76 58 77 59 80 60 78 61 57 62 58 63 66 64 59 65
REMARK SMILES IDX 60 66 64 67 67 68 61 69 62 70 65 71 63 72 7 73 8 74 9 75
REMARK SMILES IDX 10 76 11 77 12 79 13 80 14 81 18 82 15 83 17 84 16 85 19 86
REMARK SMILES IDX 20 87 21 88 22 90 23 91 27 92 24 93 26 94 25 95 28 96 30 97
REMARK SMILES IDX 29 98
REMARK H PARENT 3 7 87 25 55 36 10 78 21 89
REMARK Flexibility Score: inf
ROOT
ATOM      1  C   UNL A   1      31.782  30.639  26.304  1.00  0.00     0.002 C 
ENDROOT
BRANCH   1   2
ATOM      2  C   UNL A   1      31.473  32.073  26.715  1.00  0.00     0.021 C 
BRANCH   2   3
ATOM      3  C   UNL A   1      32.659  32.824  27.288  1.00  0.00     0.116 C 
BRANCH   3   4
ATOM      4  N   UNL A   1      32.362  34.212  27.608  1.00  0.00    -0.352 N 
ATOM      5  O   UNL A   1      32.552  36.116  28.828  1.00  0.00    -0.269 OA
ATOM      6  C   UNL A   1      32.964  34.997  28.568  1.00  0.00     0.251 C 
ATOM      7  H   UNL A   1      31.652  34.639  27.079  1.00  0.00     0.163 HD
BRANCH   6   8
ATOM      8  C   UNL A   1      34.109  34.426  29.309  1.00  0.00     0.039 A 
ATOM      9  C   UNL A   1      35.405  34.590  28.813  1.00  0.00     0.014 A 
ATOM     10  C   UNL A   1      33.875  33.652  30.447  1.00  0.00     0.014 A 
ATOM     11  C   UNL A   1      36.444  33.852  29.358  1.00  0.00     0.010 A 
ATOM     12  C   UNL A   1      34.944  32.993  31.059  1.00  0.00     0.010 A 
ATOM     13  C   UNL A   1      36.231  33.064  30.501  1.00  0.00    -0.014 A 
BRANCH  13  14
ATOM     14  C   UNL A   1      37.393  32.395  31.137  1.00  0.00     0.031 A 
ATOM     15  C   UNL A   1      37.861  32.767  32.515  1.00  0.00     0.074 A 
ATOM     16  C   UNL A   1      38.012  31.415  30.449  1.00  0.00     0.049 A 
ATOM     17  N   UNL A   1      38.861  32.276  33.205  1.00  0.00    -0.248 NA
ATOM     18  C   UNL A   1      37.122  33.832  33.208  1.00  0.00     0.031 C 
ATOM     19  C   UNL A   1      37.648  30.979  29.099  1.00  0.00     0.029 A 
ATOM     20  N   UNL A   1      39.061  30.601  30.789  1.00  0.00    -0.354 N 
ATOM     21  C   UNL A   1      38.886  32.983  34.400  1.00  0.00     0.074 A 
ATOM     22  C   UNL A   1      37.813  33.955  34.333  1.00  0.00     0.031 C 
ATOM     23  C   UNL A   1      38.425  29.949  28.743  1.00  0.00     0.029 A 
ATOM     24  C   UNL A   1      39.392  29.702  29.805  1.00  0.00     0.049 A 
ATOM     25  H   UNL A   1      39.530  30.654  31.652  1.00  0.00     0.167 HD
ATOM     26  C   UNL A   1      39.725  32.828  35.452  1.00  0.00     0.037 A 
ATOM     27  C   UNL A   1      40.384  28.796  29.748  1.00  0.00     0.037 A 
ATOM     28  C   UNL A   1      40.782  31.848  35.508  1.00  0.00     0.049 A 
ATOM     29  C   UNL A   1      41.314  28.668  30.919  1.00  0.00     0.074 A 
ATOM     30  C   UNL A   1      41.663  31.587  36.544  1.00  0.00     0.029 A 
ATOM     31  N   UNL A   1      41.107  30.972  34.481  1.00  0.00    -0.354 N 
ATOM     32  N   UNL A   1      41.305  29.319  32.056  1.00  0.00    -0.248 NA
ATOM     33  C   UNL A   1      42.393  27.681  30.796  1.00  0.00     0.031 C 
ATOM     34  C   UNL A   1      42.554  30.594  36.123  1.00  0.00     0.029 A 
ATOM     35  C   UNL A   1      42.191  30.189  34.848  1.00  0.00     0.049 A 
ATOM     36  H   UNL A   1      40.636  30.916  33.617  1.00  0.00     0.167 HD
ATOM     37  C   UNL A   1      42.364  28.810  32.793  1.00  0.00     0.074 A 
ATOM     38  C   UNL A   1      42.977  27.778  31.981  1.00  0.00     0.031 C 
ATOM     39  C   UNL A   1      42.791  29.167  34.028  1.00  0.00     0.037 A 
BRANCH  26  40
ATOM     40  C   UNL A   1      39.557  33.750  36.627  1.00  0.00     0.064 A 
ATOM     41  C   UNL A   1      38.785  33.395  37.744  1.00  0.00     0.173 A 
ATOM     42  C   UNL A   1      40.228  34.983  36.663  1.00  0.00     0.173 A 
ATOM     43  F   UNL A   1      38.117  32.232  37.761  1.00  0.00    -0.203 F 
ATOM     44  C   UNL A   1      38.674  34.249  38.841  1.00  0.00     0.198 A 
ATOM     45  C   UNL A   1      40.138  35.820  37.772  1.00  0.00     0.198 A 
ATOM     46  F   UNL A   1      40.987  35.370  35.626  1.00  0.00    -0.203 F 
ATOM     47  F   UNL A   1      37.898  33.904  39.878  1.00  0.00    -0.200 F 
ATOM     48  C   UNL A   1      39.356  35.456  38.857  1.00  0.00     0.200 A 
ATOM     49  F   UNL A   1      40.811  36.980  37.793  1.00  0.00    -0.200 F 
ATOM     50  F   UNL A   1      39.256  36.269  39.917  1.00  0.00    -0.200 F 
ENDBRANCH  26  40
BRANCH  27  51
ATOM     51  C   UNL A   1      40.546  27.958  28.532  1.00  0.00     0.064 A 
ATOM     52  C   UNL A   1      41.306  28.403  27.444  1.00  0.00     0.173 A 
ATOM     53  C   UNL A   1      39.959  26.687  28.443  1.00  0.00     0.173 A 
ATOM     54  F   UNL A   1      41.875  29.618  27.477  1.00  0.00    -0.203 F 
ATOM     55  C   UNL A   1      41.458  27.617  26.304  1.00  0.00     0.198 A 
ATOM     56  C   UNL A   1      40.140  25.887  27.319  1.00  0.00     0.198 A 
ATOM     57  F   UNL A   1      39.230  26.210  29.463  1.00  0.00    -0.203 F 
ATOM     58  F   UNL A   1      42.154  28.085  25.259  1.00  0.00    -0.200 F 
ATOM     59  C   UNL A   1      40.882  26.356  26.246  1.00  0.00     0.200 A 
ATOM     60  F   UNL A   1      39.601  24.662  27.277  1.00  0.00    -0.200 F 
ATOM     61  F   UNL A   1      41.038  25.596  25.154  1.00  0.00    -0.200 F 
ENDBRANCH  27  51
BRANCH  39  62
ATOM     62  C   UNL A   1      43.960  28.410  34.589  1.00  0.00     0.064 A 
ATOM     63  C   UNL A   1      43.790  27.217  35.306  1.00  0.00     0.173 A 
ATOM     64  C   UNL A   1      45.268  28.878  34.391  1.00  0.00     0.173 A 
ATOM     65  F   UNL A   1      42.559  26.737  35.539  1.00  0.00    -0.203 F 
ATOM     66  C   UNL A   1      44.886  26.537  35.832  1.00  0.00     0.198 A 
ATOM     67  C   UNL A   1      46.362  28.178  34.888  1.00  0.00     0.198 A 
ATOM     68  F   UNL A   1      45.485  30.012  33.708  1.00  0.00    -0.203 F 
ATOM     69  F   UNL A   1      44.697  25.430  36.563  1.00  0.00    -0.200 F 
ATOM     70  C   UNL A   1      46.170  27.013  35.617  1.00  0.00     0.200 A 
ATOM     71  F   UNL A   1      47.604  28.632  34.667  1.00  0.00    -0.200 F 
ATOM     72  F   UNL A   1      47.223  26.355  36.120  1.00  0.00    -0.200 F 
ENDBRANCH  39  62
ENDBRANCH  13  14
ENDBRANCH   6   8
ENDBRANCH   3   4
ENDBRANCH   2   3
ENDBRANCH   1   2
BRANCH   1  73
ATOM     73  C   UNL A   1      32.675  29.858  27.272  1.00  0.00     0.002 C 
BRANCH  73  74
ATOM     74  C   UNL A   1      32.568  28.332  27.271  1.00  0.00     0.021 C 
BRANCH  74  75
ATOM     75  C   UNL A   1      31.430  27.689  26.478  1.00  0.00     0.116 C 
BRANCH  75  76
ATOM     76  N   UNL A   1      31.044  26.360  26.912  1.00  0.00    -0.351 N 
ATOM     77  C   UNL A   1      31.602  25.149  26.576  1.00  0.00     0.272 C 
ATOM     78  H   UNL A   1      30.277  26.319  27.529  1.00  0.00     0.163 HD
ATOM     79  O   UNL A   1      31.490  24.183  27.324  1.00  0.00    -0.267 OA
BRANCH  77  80
ATOM     80  C   UNL A   1      32.433  25.034  25.378  1.00  0.00     0.159 A 
ATOM     81  N   UNL A   1      33.775  25.070  25.697  1.00  0.00    -0.247 NA
ATOM     82  C   UNL A   1      31.958  24.881  24.083  1.00  0.00     0.159 A 
ATOM     83  C   UNL A   1      34.637  24.921  24.678  1.00  0.00     0.132 A 
ATOM     84  N   UNL A   1      32.882  24.755  23.067  1.00  0.00    -0.247 NA
ATOM     85  C   UNL A   1      34.197  24.764  23.385  1.00  0.00     0.132 A 
BRANCH  82  86
ATOM     86  C   UNL A   1      30.542  24.819  23.531  1.00  0.00     0.276 C 
ATOM     87  O   UNL A   1      30.130  23.733  23.108  1.00  0.00    -0.267 OA
ATOM     88  N   UNL A   1      29.589  25.786  23.755  1.00  0.00    -0.320 N 
ATOM     89  H   UNL A   1      28.816  25.484  24.286  1.00  0.00     0.170 HD
BRANCH  88  90
ATOM     90  C   UNL A   1      29.528  27.125  23.356  1.00  0.00     0.045 A 
ATOM     91  C   UNL A   1      30.666  27.859  22.976  1.00  0.00     0.030 A 
ATOM     92  C   UNL A   1      28.261  27.718  23.336  1.00  0.00     0.076 A 
ATOM     93  C   UNL A   1      30.554  29.227  22.691  1.00  0.00     0.053 A 
ATOM     94  C   UNL A   1      28.201  29.079  23.145  1.00  0.00     0.167 A 
ATOM     95  C   UNL A   1      29.322  29.819  22.853  1.00  0.00     0.165 A 
ATOM     96  O   UNL A   1      27.093  29.857  23.286  1.00  0.00    -0.454 OA
ATOM     97  O   UNL A   1      29.061  31.152  22.794  1.00  0.00    -0.454 OA
ATOM     98  C   UNL A   1      27.699  31.166  23.278  1.00  0.00     0.468 C 
ENDBRANCH  88  90
ENDBRANCH  82  86
ENDBRANCH  77  80
ENDBRANCH  75  76
ENDBRANCH  74  75
ENDBRANCH  73  74
ENDBRANCH   1  73
TORSDOF 15
ENDMDL
MODEL 2
REMARK VINA RESULT:     -13.0      0.269      7.165
REMARK SMILES O=C(NCCCCCCNC(=O)c1nccnc1C(=O)Nc1ccc2c(c1)OCO2)c1ccc(-c2c3nc(c(-c4c(F)c(F)c(F)c(F)c4F)c4ccc([nH]4)c(-c4c(F)c(F)c(F)c(F)c4F)c4nc(c(-c5c(F)c(F)c(F)c(F)c5F)c5ccc2[nH]5)C=C4)C=C3)cc1
REMARK SMILES IDX 6 1 5 2 4 3 3 4 1 5 2 6 31 8 32 9 93 10 33 11 92 12 34 13
REMARK SMILES IDX 35 14 36 15 86 16 37 17 91 18 85 19 87 20 38 21 90 22 84 23
REMARK SMILES IDX 83 24 39 26 71 27 51 28 70 29 52 30 55 31 69 32 88 33 53 34
REMARK SMILES IDX 54 35 68 37 89 38 56 39 40 40 41 41 49 42 42 43 43 44 47 45
REMARK SMILES IDX 50 46 44 47 45 48 48 49 46 50 72 51 73 52 81 53 74 54 75 55
REMARK SMILES IDX 79 56 82 57 76 58 77 59 80 60 78 61 57 62 58 63 66 64 59 65
REMARK SMILES IDX 60 66 64 67 67 68 61 69 62 70 65 71 63 72 7 73 8 74 9 75
REMARK SMILES IDX 10 76 11 77 12 79 13 80 14 81 18 82 15 83 17 84 16 85 19 86
REMARK SMILES IDX 20 87 21 88 22 90 23 91 27 92 24 93 26 94 25 95 28 96 30 97
REMARK SMILES IDX 29 98
REMARK H PARENT 3 7 87 25 55 36 10 78 21 89
REMARK Flexibility Score: inf
ROOT
ATOM      1  C   UNL A   1      31.799  30.695  26.170  1.00  0.00     0.002 C 
ENDROOT
BRANCH   1   2
ATOM      2  C   UNL A   1      31.493  32.129  26.582  1.00  0.00     0.021 C 
BRANCH   2   3
ATOM      3  C   UNL A   1      32.629  32.822  27.309  1.00  0.00     0.116 C 
BRANCH   3   4
ATOM      4  N   UNL A   1      32.343  34.211  27.635  1.00  0.00    -0.352 N 
ATOM      5  O   UNL A   1      32.554  36.112  28.857  1.00  0.00    -0.269 OA
ATOM      6  C   UNL A   1      32.958  34.991  28.590  1.00  0.00     0.251 C 
ATOM      7  H   UNL A   1      31.628  34.642  27.114  1.00  0.00     0.163 HD
BRANCH   6   8
ATOM      8  C   UNL A   1      34.108  34.413  29.318  1.00  0.00     0.039 A 
ATOM      9  C   UNL A   1      35.401  34.589  28.819  1.00  0.00     0.014 A 
ATOM     10  C   UNL A   1      33.881  33.622  30.446  1.00  0.00     0.014 A 
ATOM     11  C   UNL A   1      36.444  33.846  29.349  1.00  0.00     0.010 A 
ATOM     12  C   UNL A   1      34.954  32.957  31.043  1.00  0.00     0.010 A 
ATOM     13  C   UNL A   1      36.238  33.041  30.482  1.00  0.00    -0.014 A 
BRANCH  13  14
ATOM     14  C   UNL A   1      37.405  32.366  31.103  1.00  0.00     0.031 A 
ATOM     15  C   UNL A   1      38.170  31.292  30.383  1.00  0.00     0.074 A 
ATOM     16  C   UNL A   1      37.783  32.763  32.334  1.00  0.00     0.049 A 
ATOM     17  N   UNL A   1      39.209  30.607  30.792  1.00  0.00    -0.248 NA
ATOM     18  C   UNL A   1      37.707  30.928  29.036  1.00  0.00     0.031 C 
ATOM     19  C   UNL A   1      37.106  33.790  33.129  1.00  0.00     0.029 A 
ATOM     20  N   UNL A   1      38.830  32.367  33.126  1.00  0.00    -0.354 N 
ATOM     21  C   UNL A   1      39.512  29.721  29.767  1.00  0.00     0.074 A 
ATOM     22  C   UNL A   1      38.532  29.937  28.724  1.00  0.00     0.031 C 
ATOM     23  C   UNL A   1      37.779  33.979  34.271  1.00  0.00     0.029 A 
ATOM     24  C   UNL A   1      38.886  33.033  34.325  1.00  0.00     0.049 A 
ATOM     25  H   UNL A   1      39.477  31.675  32.861  1.00  0.00     0.167 HD
ATOM     26  C   UNL A   1      40.519  28.816  29.708  1.00  0.00     0.037 A 
ATOM     27  C   UNL A   1      39.720  32.882  35.370  1.00  0.00     0.037 A 
ATOM     28  C   UNL A   1      41.495  28.619  30.751  1.00  0.00     0.049 A 
ATOM     29  C   UNL A   1      40.807  31.851  35.283  1.00  0.00     0.074 A 
ATOM     30  C   UNL A   1      42.575  27.753  30.771  1.00  0.00     0.029 A 
ATOM     31  N   UNL A   1      41.505  29.292  31.966  1.00  0.00    -0.354 N 
ATOM     32  N   UNL A   1      41.103  31.043  34.295  1.00  0.00    -0.248 NA
ATOM     33  C   UNL A   1      41.674  31.710  36.459  1.00  0.00     0.031 C 
ATOM     34  C   UNL A   1      43.204  27.863  32.016  1.00  0.00     0.029 A 
ATOM     35  C   UNL A   1      42.556  28.842  32.751  1.00  0.00     0.049 A 
ATOM     36  H   UNL A   1      40.859  29.988  32.230  1.00  0.00     0.167 HD
ATOM     37  C   UNL A   1      42.200  30.310  34.720  1.00  0.00     0.074 A 
ATOM     38  C   UNL A   1      42.531  30.789  36.047  1.00  0.00     0.031 C 
ATOM     39  C   UNL A   1      42.871  29.327  34.071  1.00  0.00     0.037 A 
BRANCH  26  40
ATOM     40  C   UNL A   1      40.612  27.947  28.484  1.00  0.00     0.064 A 
ATOM     41  C   UNL A   1      41.362  28.326  27.361  1.00  0.00     0.173 A 
ATOM     42  C   UNL A   1      39.989  26.688  28.460  1.00  0.00     0.173 A 
ATOM     43  F   UNL A   1      41.972  29.520  27.328  1.00  0.00    -0.203 F 
ATOM     44  C   UNL A   1      41.466  27.488  26.252  1.00  0.00     0.198 A 
ATOM     45  C   UNL A   1      40.120  25.842  27.361  1.00  0.00     0.198 A 
ATOM     46  F   UNL A   1      39.266  26.271  29.510  1.00  0.00    -0.203 F 
ATOM     47  F   UNL A   1      42.156  27.890  25.175  1.00  0.00    -0.200 F 
ATOM     48  C   UNL A   1      40.853  26.245  26.256  1.00  0.00     0.200 A 
ATOM     49  F   UNL A   1      39.539  24.633  27.374  1.00  0.00    -0.200 F 
ATOM     50  F   UNL A   1      40.964  25.437  25.192  1.00  0.00    -0.200 F 
ENDBRANCH  26  40
BRANCH  27  51
ATOM     51  C   UNL A   1      39.539  33.720  36.582  1.00  0.00     0.064 A 
ATOM     52  C   UNL A   1      40.098  35.002  36.664  1.00  0.00     0.173 A 
ATOM     53  C   UNL A   1      38.786  33.264  37.674  1.00  0.00     0.173 A 
ATOM     54  F   UNL A   1      40.838  35.476  35.651  1.00  0.00    -0.203 F 
ATOM     55  C   UNL A   1      39.927  35.788  37.801  1.00  0.00     0.198 A 
ATOM     56  C   UNL A   1      38.586  34.064  38.796  1.00  0.00     0.198 A 
ATOM     57  F   UNL A   1      38.221  32.048  37.640  1.00  0.00    -0.203 F 
ATOM     58  F   UNL A   1      40.509  36.993  37.873  1.00  0.00    -0.200 F 
ATOM     59  C   UNL A   1      39.164  35.322  38.863  1.00  0.00     0.200 A 
ATOM     60  F   UNL A   1      37.830  33.619  39.808  1.00  0.00    -0.200 F 
ATOM     61  F   UNL A   1      38.992  36.084  39.951  1.00  0.00    -0.200 F 
ENDBRANCH  27  51
BRANCH  39  62
ATOM     62  C   UNL A   1      44.052  28.729  34.778  1.00  0.00     0.064 A 
ATOM     63  C   UNL A   1      43.926  27.595  35.593  1.00  0.00     0.173 A 
ATOM     64  C   UNL A   1      45.329  29.290  34.623  1.00  0.00     0.173 A 
ATOM     65  F   UNL A   1      42.724  27.033  35.789  1.00  0.00    -0.203 F 
ATOM     66  C   UNL A   1      45.031  27.063  36.254  1.00  0.00     0.198 A 
ATOM     67  C   UNL A   1      46.436  28.735  35.257  1.00  0.00     0.198 A 
ATOM     68  F   UNL A   1      45.505  30.372  33.850  1.00  0.00    -0.203 F 
ATOM     69  F   UNL A   1      44.878  26.014  37.074  1.00  0.00    -0.200 F 
ATOM     70  C   UNL A   1      46.285  27.628  36.080  1.00  0.00     0.200 A 
ATOM     71  F   UNL A   1      47.650  29.274  35.076  1.00  0.00    -0.200 F 
ATOM     72  F   UNL A   1      47.348  27.112  36.713  1.00  0.00    -0.200 F 
ENDBRANCH  39  62
ENDBRANCH  13  14
ENDBRANCH   6   8
ENDBRANCH   3   4
ENDBRANCH   2   3
ENDBRANCH   1   2
BRANCH   1  73
ATOM     73  C   UNL A   1      32.293  29.782  27.295  1.00  0.00     0.002 C 
BRANCH  73  74
ATOM     74  C   UNL A   1      32.414  28.285  27.000  1.00  0.00     0.021 C 
BRANCH  74  75
ATOM     75  C   UNL A   1      31.221  27.577  26.358  1.00  0.00     0.116 C 
BRANCH  75  76
ATOM     76  N   UNL A   1      30.953  26.240  26.852  1.00  0.00    -0.351 N 
ATOM     77  C   UNL A   1      31.615  25.068  26.566  1.00  0.00     0.272 C 
ATOM     78  H   UNL A   1      30.195  26.159  27.475  1.00  0.00     0.163 HD
ATOM     79  O   UNL A   1      31.588  24.130  27.355  1.00  0.00    -0.267 OA
BRANCH  77  80
ATOM     80  C   UNL A   1      32.449  24.974  25.369  1.00  0.00     0.159 A 
ATOM     81  N   UNL A   1      33.790  25.032  25.690  1.00  0.00    -0.247 NA
ATOM     82  C   UNL A   1      31.979  24.820  24.072  1.00  0.00     0.159 A 
ATOM     83  C   UNL A   1      34.656  24.902  24.672  1.00  0.00     0.132 A 
ATOM     84  N   UNL A   1      32.907  24.715  23.057  1.00  0.00    -0.247 NA
ATOM     85  C   UNL A   1      34.222  24.744  23.378  1.00  0.00     0.132 A 
BRANCH  82  86
ATOM     86  C   UNL A   1      30.566  24.737  23.517  1.00  0.00     0.276 C 
ATOM     87  O   UNL A   1      30.163  23.640  23.111  1.00  0.00    -0.267 OA
ATOM     88  N   UNL A   1      29.604  25.700  23.721  1.00  0.00    -0.320 N 
ATOM     89  H   UNL A   1      28.833  25.402  24.254  1.00  0.00     0.170 HD
BRANCH  88  90
ATOM     90  C   UNL A   1      29.534  27.031  23.298  1.00  0.00     0.045 A 
ATOM     91  C   UNL A   1      30.656  27.745  22.841  1.00  0.00     0.030 A 
ATOM     92  C   UNL A   1      28.273  27.636  23.335  1.00  0.00     0.076 A 
ATOM     93  C   UNL A   1      30.542  29.109  22.534  1.00  0.00     0.053 A 
ATOM     94  C   UNL A   1      28.216  28.995  23.119  1.00  0.00     0.167 A 
ATOM     95  C   UNL A   1      29.326  29.716  22.751  1.00  0.00     0.165 A 
ATOM     96  O   UNL A   1      27.125  29.787  23.305  1.00  0.00    -0.454 OA
ATOM     97  O   UNL A   1      29.075  31.051  22.679  1.00  0.00    -0.454 OA
ATOM     98  C   UNL A   1      27.741  31.088  23.236  1.00  0.00     0.468 C 
ENDBRANCH  88  90
ENDBRANCH  82  86
ENDBRANCH  77  80
ENDBRANCH  75  76
ENDBRANCH  74  75
ENDBRANCH  73  74
ENDBRANCH   1  73
TORSDOF 15
ENDMDL
MODEL 3
REMARK VINA RESULT:     -12.9      1.521      3.629
REMARK SMILES O=C(NCCCCCCNC(=O)c1nccnc1C(=O)Nc1ccc2c(c1)OCO2)c1ccc(-c2c3nc(c(-c4c(F)c(F)c(F)c(F)c4F)c4ccc([nH]4)c(-c4c(F)c(F)c(F)c(F)c4F)c4nc(c(-c5c(F)c(F)c(F)c(F)c5F)c5ccc2[nH]5)C=C4)C=C3)cc1
REMARK SMILES IDX 6 1 5 2 4 3 3 4 1 5 2 6 31 8 32 9 93 10 33 11 92 12 34 13
REMARK SMILES IDX 35 14 36 15 86 16 37 17 91 18 85 19 87 20 38 21 90 22 84 23
REMARK SMILES IDX 83 24 39 26 71 27 51 28 70 29 52 30 55 31 69 32 88 33 53 34
REMARK SMILES IDX 54 35 68 37 89 38 56 39 40 40 41 41 49 42 42 43 43 44 47 45
REMARK SMILES IDX 50 46 44 47 45 48 48 49 46 50 72 51 73 52 81 53 74 54 75 55
REMARK SMILES IDX 79 56 82 57 76 58 77 59 80 60 78 61 57 62 58 63 66 64 59 65
REMARK SMILES IDX 60 66 64 67 67 68 61 69 62 70 65 71 63 72 7 73 8 74 9 75
REMARK SMILES IDX 10 76 11 77 12 79 13 80 14 81 18 82 15 83 17 84 16 85 19 86
REMARK SMILES IDX 20 87 21 88 22 90 23 91 27 92 24 93 26 94 25 95 28 96 30 97
REMARK SMILES IDX 29 98
REMARK H PARENT 3 7 87 25 55 36 10 78 21 89
REMARK Flexibility Score: inf
ROOT
ATOM      1  C   UNL A   1      31.762  30.713  26.126  1.00  0.00     0.002 C 
ENDROOT
BRANCH   1   2
ATOM      2  C   UNL A   1      31.424  32.110  26.630  1.00  0.00     0.021 C 
BRANCH   2   3
ATOM      3  C   UNL A   1      32.569  32.810  27.335  1.00  0.00     0.116 C 
BRANCH   3   4
ATOM      4  N   UNL A   1      32.299  34.210  27.623  1.00  0.00    -0.352 N 
ATOM      5  O   UNL A   1      32.529  36.140  28.796  1.00  0.00    -0.269 OA
ATOM      6  C   UNL A   1      32.919  35.008  28.561  1.00  0.00     0.251 C 
ATOM      7  H   UNL A   1      31.594  34.637  27.087  1.00  0.00     0.163 HD
BRANCH   6   8
ATOM      8  C   UNL A   1      34.058  34.434  29.310  1.00  0.00     0.039 A 
ATOM      9  C   UNL A   1      35.353  34.556  28.800  1.00  0.00     0.014 A 
ATOM     10  C   UNL A   1      33.816  33.699  30.473  1.00  0.00     0.014 A 
ATOM     11  C   UNL A   1      36.380  33.812  29.360  1.00  0.00     0.010 A 
ATOM     12  C   UNL A   1      34.875  33.035  31.096  1.00  0.00     0.010 A 
ATOM     13  C   UNL A   1      36.159  33.062  30.528  1.00  0.00    -0.014 A 
BRANCH  13  14
ATOM     14  C   UNL A   1      37.311  32.387  31.175  1.00  0.00     0.031 A 
ATOM     15  C   UNL A   1      37.764  32.754  32.559  1.00  0.00     0.074 A 
ATOM     16  C   UNL A   1      37.935  31.408  30.491  1.00  0.00     0.049 A 
ATOM     17  N   UNL A   1      38.754  32.257  33.259  1.00  0.00    -0.248 NA
ATOM     18  C   UNL A   1      37.021  33.819  33.247  1.00  0.00     0.031 C 
ATOM     19  C   UNL A   1      37.586  30.978  29.135  1.00  0.00     0.029 A 
ATOM     20  N   UNL A   1      38.977  30.589  30.840  1.00  0.00    -0.354 N 
ATOM     21  C   UNL A   1      38.767  32.960  34.457  1.00  0.00     0.074 A 
ATOM     22  C   UNL A   1      37.699  33.935  34.381  1.00  0.00     0.031 C 
ATOM     23  C   UNL A   1      38.363  29.945  28.785  1.00  0.00     0.029 A 
ATOM     24  C   UNL A   1      39.317  29.692  29.858  1.00  0.00     0.049 A 
ATOM     25  H   UNL A   1      39.436  30.637  31.709  1.00  0.00     0.167 HD
ATOM     26  C   UNL A   1      39.593  32.798  35.519  1.00  0.00     0.037 A 
ATOM     27  C   UNL A   1      40.307  28.783  29.809  1.00  0.00     0.037 A 
ATOM     28  C   UNL A   1      40.646  31.815  35.584  1.00  0.00     0.049 A 
ATOM     29  C   UNL A   1      41.222  28.648  30.990  1.00  0.00     0.074 A 
ATOM     30  C   UNL A   1      41.515  31.547  36.629  1.00  0.00     0.029 A 
ATOM     31  N   UNL A   1      40.981  30.941  34.557  1.00  0.00    -0.354 N 
ATOM     32  N   UNL A   1      41.202  29.296  32.129  1.00  0.00    -0.248 NA
ATOM     33  C   UNL A   1      42.299  27.658  30.877  1.00  0.00     0.031 C 
ATOM     34  C   UNL A   1      42.407  30.552  36.215  1.00  0.00     0.029 A 
ATOM     35  C   UNL A   1      42.058  30.153  34.935  1.00  0.00     0.049 A 
ATOM     36  H   UNL A   1      40.520  30.889  33.688  1.00  0.00     0.167 HD
ATOM     37  C   UNL A   1      42.251  28.780  32.877  1.00  0.00     0.074 A 
ATOM     38  C   UNL A   1      42.870  27.749  32.069  1.00  0.00     0.031 C 
ATOM     39  C   UNL A   1      42.664  29.132  34.119  1.00  0.00     0.037 A 
BRANCH  26  40
ATOM     40  C   UNL A   1      39.415  33.717  36.695  1.00  0.00     0.064 A 
ATOM     41  C   UNL A   1      38.660  33.346  37.817  1.00  0.00     0.173 A 
ATOM     42  C   UNL A   1      40.059  34.965  36.724  1.00  0.00     0.173 A 
ATOM     43  F   UNL A   1      38.017  32.169  37.840  1.00  0.00    -0.203 F 
ATOM     44  C   UNL A   1      38.538  34.198  38.914  1.00  0.00     0.198 A 
ATOM     45  C   UNL A   1      39.959  35.800  37.834  1.00  0.00     0.198 A 
ATOM     46  F   UNL A   1      40.802  35.368  35.682  1.00  0.00    -0.203 F 
ATOM     47  F   UNL A   1      37.778  33.837  39.958  1.00  0.00    -0.200 F 
ATOM     48  C   UNL A   1      39.194  35.419  38.925  1.00  0.00     0.200 A 
ATOM     49  F   UNL A   1      40.608  36.973  37.850  1.00  0.00    -0.200 F 
ATOM     50  F   UNL A   1      39.085  36.231  39.986  1.00  0.00    -0.200 F 
ENDBRANCH  26  40
BRANCH  27  51
ATOM     51  C   UNL A   1      40.480  27.949  28.593  1.00  0.00     0.064 A 
ATOM     52  C   UNL A   1      39.878  26.688  28.489  1.00  0.00     0.173 A 
ATOM     53  C   UNL A   1      41.235  28.405  27.502  1.00  0.00     0.173 A 
ATOM     54  F   UNL A   1      39.159  26.204  29.512  1.00  0.00    -0.203 F 
ATOM     55  C   UNL A   1      40.040  25.907  27.347  1.00  0.00     0.198 A 
ATOM     56  C   UNL A   1      41.367  27.638  26.347  1.00  0.00     0.198 A 
ATOM     57  F   UNL A   1      41.823  29.609  27.547  1.00  0.00    -0.203 F 
ATOM     58  F   UNL A   1      39.491  24.686  27.291  1.00  0.00    -0.200 F 
ATOM     59  C   UNL A   1      40.778  26.386  26.274  1.00  0.00     0.200 A 
ATOM     60  F   UNL A   1      42.061  28.115  25.305  1.00  0.00    -0.200 F 
ATOM     61  F   UNL A   1      40.924  25.638  25.172  1.00  0.00    -0.200 F 
ENDBRANCH  27  51
BRANCH  39  62
ATOM     62  C   UNL A   1      43.824  28.369  34.691  1.00  0.00     0.064 A 
ATOM     63  C   UNL A   1      45.142  28.833  34.572  1.00  0.00     0.173 A 
ATOM     64  C   UNL A   1      43.609  27.165  35.380  1.00  0.00     0.173 A 
ATOM     65  F   UNL A   1      45.402  29.967  33.906  1.00  0.00    -0.203 F 
ATOM     66  C   UNL A   1      46.206  28.103  35.096  1.00  0.00     0.198 A 
ATOM     67  C   UNL A   1      44.671  26.457  35.931  1.00  0.00     0.198 A 
ATOM     68  F   UNL A   1      42.367  26.681  35.525  1.00  0.00    -0.203 F 
ATOM     69  F   UNL A   1      47.463  28.535  34.921  1.00  0.00    -0.200 F 
ATOM     70  C   UNL A   1      45.970  26.920  35.781  1.00  0.00     0.200 A 
ATOM     71  F   UNL A   1      44.439  25.321  36.605  1.00  0.00    -0.200 F 
ATOM     72  F   UNL A   1      46.995  26.222  36.287  1.00  0.00    -0.200 F 
ENDBRANCH  39  62
ENDBRANCH  13  14
ENDBRANCH   6   8
ENDBRANCH   3   4
ENDBRANCH   2   3
ENDBRANCH   1   2
BRANCH   1  73
ATOM     73  C   UNL A   1      32.428  29.791  27.151  1.00  0.00     0.002 C 
BRANCH  73  74
ATOM     74  C   UNL A   1      33.857  29.321  26.868  1.00  0.00     0.021 C 
BRANCH  74  75
ATOM     75  C   UNL A   1      34.053  28.144  25.911  1.00  0.00     0.116 C 
BRANCH  75  76
ATOM     76  N   UNL A   1      33.536  26.872  26.378  1.00  0.00    -0.351 N 
ATOM     77  C   UNL A   1      32.708  25.987  25.728  1.00  0.00     0.272 C 
ATOM     78  H   UNL A   1      33.816  26.605  27.284  1.00  0.00     0.163 HD
ATOM     79  O   UNL A   1      32.711  24.797  26.025  1.00  0.00    -0.267 OA
BRANCH  77  80
ATOM     80  C   UNL A   1      31.900  26.441  24.596  1.00  0.00     0.159 A 
ATOM     81  N   UNL A   1      30.759  27.087  25.027  1.00  0.00    -0.247 NA
ATOM     82  C   UNL A   1      32.228  26.277  23.258  1.00  0.00     0.159 A 
ATOM     83  C   UNL A   1      29.962  27.594  24.072  1.00  0.00     0.132 A 
ATOM     84  N   UNL A   1      31.366  26.795  22.314  1.00  0.00    -0.247 NA
ATOM     85  C   UNL A   1      30.262  27.452  22.738  1.00  0.00     0.132 A 
BRANCH  82  86
ATOM     86  C   UNL A   1      33.416  25.606  22.588  1.00  0.00     0.276 C 
ATOM     87  O   UNL A   1      34.028  26.238  21.719  1.00  0.00    -0.267 OA
ATOM     88  N   UNL A   1      34.050  24.491  23.088  1.00  0.00    -0.320 N 
ATOM     89  H   UNL A   1      34.982  24.641  23.368  1.00  0.00     0.170 HD
BRANCH  88  90
ATOM     90  C   UNL A   1      33.597  23.180  23.265  1.00  0.00     0.045 A 
ATOM     91  C   UNL A   1      32.565  22.620  22.492  1.00  0.00     0.030 A 
ATOM     92  C   UNL A   1      34.234  22.425  24.256  1.00  0.00     0.076 A 
ATOM     93  C   UNL A   1      32.083  21.337  22.791  1.00  0.00     0.053 A 
ATOM     94  C   UNL A   1      33.674  21.211  24.585  1.00  0.00     0.167 A 
ATOM     95  C   UNL A   1      32.611  20.691  23.886  1.00  0.00     0.165 A 
ATOM     96  O   UNL A   1      34.026  20.430  25.642  1.00  0.00    -0.454 OA
ATOM     97  O   UNL A   1      32.152  19.531  24.428  1.00  0.00    -0.454 OA
ATOM     98  C   UNL A   1      32.923  19.501  25.650  1.00  0.00     0.468 C 
ENDBRANCH  88  90
ENDBRANCH  82  86
ENDBRANCH  77  80
ENDBRANCH  75  76
ENDBRANCH  74  75
ENDBRANCH  73  74
ENDBRANCH   1  73
TORSDOF 15
ENDMDL
