MODEL 1
REMARK VINA RESULT:     -12.1      0.000      0.000
REMARK SMILES CC(C)[C@@H](CNC(=O)[C@@H]1CC[C@@H]2CCCC[C@@H]2[NH2+]1)C(=O)NCCCCCCNC(=O)c1ccc(-c2c3nc(c(-c4c(F)c(F)c(F)c(F)c4F)c4ccc([nH]4)c(-c4c(F)c(F)c(F)c(F)c4F)c4nc(c(-c5c(F)c(F)c(F)c(F)c5F)c5ccc2[nH]5)C=C4)C=C3)cc1
REMARK SMILES IDX 24 1 23 2 22 3 21 4 19 5 20 6 4 8 2 9 1 10 3 11 5 12 6 13
REMARK SMILES IDX 7 14 8 16 9 17 10 18 18 19 11 20 17 21 12 24 16 25 13 26
REMARK SMILES IDX 15 27 14 28 25 29 26 30 27 31 28 32 29 33 30 35 31 36 32 37
REMARK SMILES IDX 93 38 33 39 92 40 34 41 35 42 36 43 86 44 37 45 91 46 85 47
REMARK SMILES IDX 87 48 38 49 90 50 84 51 83 52 39 54 71 55 51 56 70 57 52 58
REMARK SMILES IDX 55 59 69 60 88 61 53 62 54 63 68 65 89 66 56 67 40 68 41 69
REMARK SMILES IDX 49 70 42 71 43 72 47 73 50 74 44 75 45 76 48 77 46 78 72 79
REMARK SMILES IDX 73 80 81 81 74 82 75 83 79 84 82 85 76 86 77 87 80 88 78 89
REMARK SMILES IDX 57 90 58 91 66 92 59 93 60 94 64 95 67 96 61 97 62 98 65 99
REMARK SMILES IDX 63 100
REMARK H PARENT 21 7 6 15 18 22 18 23 28 34 87 53 55 64
REMARK Flexibility Score: inf
ROOT
ATOM      1  C   UNL A   1      32.758  30.004  27.189  1.00  0.00     0.002 C 
ENDROOT
BRANCH   1   2
ATOM      2  C   UNL A   1      32.729  28.477  27.186  1.00  0.00     0.021 C 
BRANCH   2   3
ATOM      3  C   UNL A   1      33.844  27.873  26.358  1.00  0.00     0.116 C 
BRANCH   3   4
ATOM      4  N   UNL A   1      34.060  28.602  25.134  1.00  0.00    -0.356 N 
ATOM      5  C   UNL A   1      33.420  28.486  23.946  1.00  0.00     0.225 C 
ATOM      6  O   UNL A   1      33.680  29.305  23.062  1.00  0.00    -0.275 OA
ATOM      7  H   UNL A   1      34.773  29.280  25.166  1.00  0.00     0.163 HD
BRANCH   5   8
ATOM      8  C   UNL A   1      32.388  27.401  23.708  1.00  0.00     0.100 C 
BRANCH   8   9
ATOM      9  C   UNL A   1      30.919  27.734  24.103  1.00  0.00    -0.003 C 
ATOM     10  C   UNL A   1      30.105  28.348  22.954  1.00  0.00     0.008 C 
ATOM     11  C   UNL A   1      30.210  26.455  24.574  1.00  0.00     0.008 C 
ENDBRANCH   8   9
BRANCH   8  12
ATOM     12  C   UNL A   1      32.658  26.674  22.388  1.00  0.00     0.129 C 
BRANCH  12  13
ATOM     13  N   UNL A   1      32.501  25.245  22.214  1.00  0.00    -0.350 N 
ATOM     14  C   UNL A   1      33.183  24.178  22.732  1.00  0.00     0.278 C 
ATOM     15  H   UNL A   1      31.765  24.994  21.609  1.00  0.00     0.163 HD
ATOM     16  O   UNL A   1      32.619  23.090  22.539  1.00  0.00    -0.268 OA
BRANCH  14  17
ATOM     17  C   UNL A   1      34.599  24.207  23.401  1.00  0.00     0.272 C 
ATOM     18  C   UNL A   1      35.185  22.785  23.559  1.00  0.00     0.076 C 
ATOM     19  N   UNL A   1      34.772  24.926  24.669  1.00  0.00    -0.333 N 
ATOM     20  C   UNL A   1      34.631  22.054  24.788  1.00  0.00     0.016 C 
ATOM     21  C   UNL A   1      34.296  24.297  25.899  1.00  0.00     0.186 C 
ATOM     22  H   UNL A   1      34.284  25.818  24.578  1.00  0.00     0.347 HD
ATOM     23  H   UNL A   1      35.784  24.977  24.789  1.00  0.00     0.347 HD
ATOM     24  C   UNL A   1      34.862  22.884  26.061  1.00  0.00     0.048 C 
ATOM     25  C   UNL A   1      32.774  24.323  26.030  1.00  0.00     0.065 C 
ATOM     26  C   UNL A   1      34.282  22.238  27.331  1.00  0.00     0.010 C 
ATOM     27  C   UNL A   1      32.131  23.521  27.143  1.00  0.00     0.006 C 
ATOM     28  C   UNL A   1      32.761  22.153  27.321  1.00  0.00     0.001 C 
ENDBRANCH  14  17
ENDBRANCH  12  13
ENDBRANCH   8  12
ENDBRANCH   5   8
ENDBRANCH   3   4
ENDBRANCH   2   3
ENDBRANCH   1   2
BRANCH   1  29
ATOM     29  C   UNL A   1      31.645  30.681  26.376  1.00  0.00     0.002 C 
BRANCH  29  30
ATOM     30  C   UNL A   1      31.510  32.194  26.569  1.00  0.00     0.021 C 
BRANCH  30  31
ATOM     31  C   UNL A   1      32.619  32.835  27.389  1.00  0.00     0.116 C 
BRANCH  31  32
ATOM     32  N   UNL A   1      32.357  34.231  27.691  1.00  0.00    -0.352 N 
ATOM     33  C   UNL A   1      32.988  35.038  28.598  1.00  0.00     0.251 C 
ATOM     34  H   UNL A   1      31.629  34.652  27.178  1.00  0.00     0.163 HD
ATOM     35  O   UNL A   1      32.584  36.173  28.825  1.00  0.00    -0.269 OA
BRANCH  33  36
ATOM     36  C   UNL A   1      34.153  34.504  29.321  1.00  0.00     0.039 A 
ATOM     37  C   UNL A   1      33.946  33.836  30.528  1.00  0.00     0.014 A 
ATOM     38  C   UNL A   1      35.436  34.628  28.778  1.00  0.00     0.014 A 
ATOM     39  C   UNL A   1      35.031  33.253  31.180  1.00  0.00     0.010 A 
ATOM     40  C   UNL A   1      36.501  33.983  29.389  1.00  0.00     0.010 A 
ATOM     41  C   UNL A   1      36.309  33.302  30.603  1.00  0.00    -0.014 A 
BRANCH  41  42
ATOM     42  C   UNL A   1      37.483  32.694  31.269  1.00  0.00     0.031 A 
ATOM     43  C   UNL A   1      38.208  31.568  30.590  1.00  0.00     0.074 A 
ATOM     44  C   UNL A   1      37.841  33.099  32.501  1.00  0.00     0.049 A 
ATOM     45  N   UNL A   1      39.167  30.804  31.046  1.00  0.00    -0.248 NA
ATOM     46  C   UNL A   1      37.770  31.235  29.225  1.00  0.00     0.031 C 
ATOM     47  C   UNL A   1      37.191  34.164  33.266  1.00  0.00     0.029 A 
ATOM     48  N   UNL A   1      38.833  32.647  33.334  1.00  0.00    -0.354 N 
ATOM     49  C   UNL A   1      39.427  29.889  30.036  1.00  0.00     0.074 A 
ATOM     50  C   UNL A   1      38.491  30.155  28.966  1.00  0.00     0.031 C 
ATOM     51  C   UNL A   1      37.810  34.293  34.451  1.00  0.00     0.029 A 
ATOM     52  C   UNL A   1      38.869  33.293  34.545  1.00  0.00     0.049 A 
ATOM     53  H   UNL A   1      39.460  31.929  33.087  1.00  0.00     0.167 HD
ATOM     54  C   UNL A   1      40.379  28.927  29.997  1.00  0.00     0.037 A 
ATOM     55  C   UNL A   1      39.660  33.084  35.615  1.00  0.00     0.037 A 
ATOM     56  C   UNL A   1      41.324  28.691  31.054  1.00  0.00     0.049 A 
ATOM     57  C   UNL A   1      40.702  31.999  35.552  1.00  0.00     0.074 A 
ATOM     58  C   UNL A   1      42.359  27.775  31.099  1.00  0.00     0.029 A 
ATOM     59  N   UNL A   1      41.348  29.385  32.256  1.00  0.00    -0.354 N 
ATOM     60  N   UNL A   1      40.974  31.169  34.575  1.00  0.00    -0.248 NA
ATOM     61  C   UNL A   1      41.550  31.826  36.739  1.00  0.00     0.031 C 
ATOM     62  C   UNL A   1      42.982  27.883  32.346  1.00  0.00     0.029 A 
ATOM     63  C   UNL A   1      42.372  28.905  33.057  1.00  0.00     0.049 A 
ATOM     64  H   UNL A   1      40.730  30.110  32.503  1.00  0.00     0.167 HD
ATOM     65  C   UNL A   1      42.046  30.403  35.011  1.00  0.00     0.074 A 
ATOM     66  C   UNL A   1      42.378  30.870  36.341  1.00  0.00     0.031 C 
ATOM     67  C   UNL A   1      42.700  29.405  34.367  1.00  0.00     0.037 A 
BRANCH  54  68
ATOM     68  C   UNL A   1      40.439  28.060  28.772  1.00  0.00     0.064 A 
ATOM     69  C   UNL A   1      39.757  26.836  28.700  1.00  0.00     0.173 A 
ATOM     70  C   UNL A   1      41.172  28.468  27.648  1.00  0.00     0.173 A 
ATOM     71  F   UNL A   1      39.053  26.392  29.753  1.00  0.00    -0.203 F 
ATOM     72  C   UNL A   1      39.833  26.037  27.562  1.00  0.00     0.198 A 
ATOM     73  C   UNL A   1      41.218  27.683  26.498  1.00  0.00     0.198 A 
ATOM     74  F   UNL A   1      41.841  29.631  27.661  1.00  0.00    -0.203 F 
ATOM     75  F   UNL A   1      39.220  24.846  27.540  1.00  0.00    -0.200 F 
ATOM     76  C   UNL A   1      40.557  26.465  26.460  1.00  0.00     0.200 A 
ATOM     77  F   UNL A   1      41.908  28.103  25.429  1.00  0.00    -0.200 F 
ATOM     78  F   UNL A   1      40.624  25.698  25.363  1.00  0.00    -0.200 F 
ENDBRANCH  54  68
BRANCH  55  79
ATOM     79  C   UNL A   1      39.514  33.933  36.826  1.00  0.00     0.064 A 
ATOM     80  C   UNL A   1      38.770  33.489  37.928  1.00  0.00     0.173 A 
ATOM     81  C   UNL A   1      40.106  35.203  36.908  1.00  0.00     0.173 A 
ATOM     82  F   UNL A   1      38.169  32.291  37.891  1.00  0.00    -0.203 F 
ATOM     83  C   UNL A   1      38.603  34.291  39.055  1.00  0.00     0.198 A 
ATOM     84  C   UNL A   1      39.962  35.992  38.047  1.00  0.00     0.198 A 
ATOM     85  F   UNL A   1      40.831  35.673  35.883  1.00  0.00    -0.203 F 
ATOM     86  F   UNL A   1      37.846  33.862  40.074  1.00  0.00    -0.200 F 
ATOM     87  C   UNL A   1      39.204  35.539  39.116  1.00  0.00     0.200 A 
ATOM     88  F   UNL A   1      40.555  37.192  38.107  1.00  0.00    -0.200 F 
ATOM     89  F   UNL A   1      39.044  36.310  40.201  1.00  0.00    -0.200 F 
ENDBRANCH  55  79
BRANCH  67  90
ATOM     90  C   UNL A   1      43.880  28.790  35.061  1.00  0.00     0.064 A 
ATOM     91  C   UNL A   1      43.746  27.681  35.908  1.00  0.00     0.173 A 
ATOM     92  C   UNL A   1      45.173  29.281  34.818  1.00  0.00     0.173 A 
ATOM     93  F   UNL A   1      42.531  27.184  36.181  1.00  0.00    -0.203 F 
ATOM     94  C   UNL A   1      44.862  27.097  36.502  1.00  0.00     0.198 A 
ATOM     95  C   UNL A   1      46.288  28.677  35.389  1.00  0.00     0.198 A 
ATOM     96  F   UNL A   1      45.354  30.336  34.009  1.00  0.00    -0.203 F 
ATOM     97  F   UNL A   1      44.708  26.063  37.339  1.00  0.00    -0.200 F 
ATOM     98  C   UNL A   1      46.131  27.589  36.234  1.00  0.00     0.200 A 
ATOM     99  F   UNL A   1      47.515  29.142  35.116  1.00  0.00    -0.200 F 
ATOM    100  F   UNL A   1      47.205  27.015  36.794  1.00  0.00    -0.200 F 
ENDBRANCH  67  90
ENDBRANCH  41  42
ENDBRANCH  33  36
ENDBRANCH  31  32
ENDBRANCH  30  31
ENDBRANCH  29  30
ENDBRANCH   1  29
TORSDOF 17
ENDMDL
MODEL 2
REMARK VINA RESULT:     -11.9      5.385     10.970
REMARK SMILES CC(C)[C@@H](CNC(=O)[C@@H]1CC[C@@H]2CCCC[C@@H]2[NH2+]1)C(=O)NCCCCCCNC(=O)c1ccc(-c2c3nc(c(-c4c(F)c(F)c(F)c(F)c4F)c4ccc([nH]4)c(-c4c(F)c(F)c(F)c(F)c4F)c4nc(c(-c5c(F)c(F)c(F)c(F)c5F)c5ccc2[nH]5)C=C4)C=C3)cc1
REMARK SMILES IDX 24 1 23 2 22 3 21 4 19 5 20 6 4 8 2 9 1 10 3 11 5 12 6 13
REMARK SMILES IDX 7 14 8 16 9 17 10 18 18 19 11 20 17 21 12 24 16 25 13 26
REMARK SMILES IDX 15 27 14 28 25 29 26 30 27 31 28 32 29 33 30 35 31 36 32 37
REMARK SMILES IDX 93 38 33 39 92 40 34 41 35 42 36 43 86 44 37 45 91 46 85 47
REMARK SMILES IDX 87 48 38 49 90 50 84 51 83 52 39 54 71 55 51 56 70 57 52 58
REMARK SMILES IDX 55 59 69 60 88 61 53 62 54 63 68 65 89 66 56 67 40 68 41 69
REMARK SMILES IDX 49 70 42 71 43 72 47 73 50 74 44 75 45 76 48 77 46 78 72 79
REMARK SMILES IDX 73 80 81 81 74 82 75 83 79 84 82 85 76 86 77 87 80 88 78 89
REMARK SMILES IDX 57 90 58 91 66 92 59 93 60 94 64 95 67 96 61 97 62 98 65 99
REMARK SMILES IDX 63 100
REMARK H PARENT 21 7 6 15 18 22 18 23 28 34 87 53 55 64
REMARK Flexibility Score: inf
ROOT
ATOM      1  C   UNL A   1      37.430  22.057  25.149  1.00  0.00     0.002 C 
ENDROOT
BRANCH   1   2
ATOM      2  C   UNL A   1      36.480  23.148  24.660  1.00  0.00     0.021 C 
BRANCH   2   3
ATOM      3  C   UNL A   1      35.726  23.815  25.792  1.00  0.00     0.116 C 
BRANCH   3   4
ATOM      4  N   UNL A   1      35.207  22.855  26.731  1.00  0.00    -0.356 N 
ATOM      5  C   UNL A   1      33.948  22.369  26.851  1.00  0.00     0.225 C 
ATOM      6  O   UNL A   1      33.751  21.450  27.649  1.00  0.00    -0.275 OA
ATOM      7  H   UNL A   1      35.859  22.502  27.379  1.00  0.00     0.163 HD
BRANCH   5   8
ATOM      8  C   UNL A   1      32.810  22.912  26.008  1.00  0.00     0.100 C 
BRANCH   8   9
ATOM      9  C   UNL A   1      32.268  21.983  24.883  1.00  0.00    -0.003 C 
ATOM     10  C   UNL A   1      31.724  22.752  23.669  1.00  0.00     0.008 C 
ATOM     11  C   UNL A   1      33.387  21.046  24.405  1.00  0.00     0.008 C 
ENDBRANCH   8   9
BRANCH   8  12
ATOM     12  C   UNL A   1      31.816  23.690  26.875  1.00  0.00     0.129 C 
BRANCH  12  13
ATOM     13  N   UNL A   1      30.828  24.601  26.338  1.00  0.00    -0.350 N 
ATOM     14  C   UNL A   1      30.883  25.932  26.024  1.00  0.00     0.278 C 
ATOM     15  H   UNL A   1      29.952  24.186  26.166  1.00  0.00     0.163 HD
ATOM     16  O   UNL A   1      29.906  26.326  25.367  1.00  0.00    -0.268 OA
BRANCH  14  17
ATOM     17  C   UNL A   1      31.956  26.965  26.506  1.00  0.00     0.272 C 
ATOM     18  C   UNL A   1      31.612  28.402  26.052  1.00  0.00     0.076 C 
ATOM     19  N   UNL A   1      33.372  26.710  26.211  1.00  0.00    -0.333 N 
ATOM     20  C   UNL A   1      32.020  28.673  24.599  1.00  0.00     0.016 C 
ATOM     21  C   UNL A   1      33.859  26.962  24.856  1.00  0.00     0.186 C 
ATOM     22  H   UNL A   1      33.549  25.726  26.416  1.00  0.00     0.347 HD
ATOM     23  H   UNL A   1      33.872  27.387  26.787  1.00  0.00     0.347 HD
ATOM     24  C   UNL A   1      33.514  28.379  24.393  1.00  0.00     0.048 C 
ATOM     25  C   UNL A   1      33.403  25.904  23.853  1.00  0.00     0.065 C 
ATOM     26  C   UNL A   1      33.986  28.576  22.942  1.00  0.00     0.010 C 
ATOM     27  C   UNL A   1      33.651  26.151  22.379  1.00  0.00     0.006 C 
ATOM     28  C   UNL A   1      33.365  27.582  21.968  1.00  0.00     0.001 C 
ENDBRANCH  14  17
ENDBRANCH  12  13
ENDBRANCH   8  12
ENDBRANCH   5   8
ENDBRANCH   3   4
ENDBRANCH   2   3
ENDBRANCH   1   2
BRANCH   1  29
ATOM     29  C   UNL A   1      37.040  20.626  24.756  1.00  0.00     0.002 C 
BRANCH  29  30
ATOM     30  C   UNL A   1      38.110  19.557  24.997  1.00  0.00     0.021 C 
BRANCH  30  31
ATOM     31  C   UNL A   1      39.226  19.973  25.944  1.00  0.00     0.116 C 
BRANCH  31  32
ATOM     32  N   UNL A   1      40.347  19.050  25.928  1.00  0.00    -0.352 N 
ATOM     33  C   UNL A   1      41.678  19.326  26.081  1.00  0.00     0.251 C 
ATOM     34  H   UNL A   1      40.120  18.102  25.787  1.00  0.00     0.163 HD
ATOM     35  O   UNL A   1      42.527  18.453  25.934  1.00  0.00    -0.269 OA
BRANCH  33  36
ATOM     36  C   UNL A   1      42.077  20.705  26.402  1.00  0.00     0.039 A 
ATOM     37  C   UNL A   1      42.288  21.051  27.736  1.00  0.00     0.014 A 
ATOM     38  C   UNL A   1      42.284  21.633  25.376  1.00  0.00     0.014 A 
ATOM     39  C   UNL A   1      42.748  22.329  28.046  1.00  0.00     0.010 A 
ATOM     40  C   UNL A   1      42.813  22.879  25.681  1.00  0.00     0.010 A 
ATOM     41  C   UNL A   1      43.036  23.242  27.020  1.00  0.00    -0.014 A 
BRANCH  41  42
ATOM     42  C   UNL A   1      43.525  24.608  27.314  1.00  0.00     0.031 A 
ATOM     43  C   UNL A   1      42.567  25.626  27.862  1.00  0.00     0.074 A 
ATOM     44  C   UNL A   1      44.794  24.946  27.019  1.00  0.00     0.049 A 
ATOM     45  N   UNL A   1      42.742  26.907  28.061  1.00  0.00    -0.248 NA
ATOM     46  C   UNL A   1      41.218  25.144  28.197  1.00  0.00     0.031 C 
ATOM     47  C   UNL A   1      45.802  24.045  26.458  1.00  0.00     0.029 A 
ATOM     48  N   UNL A   1      45.446  26.147  27.134  1.00  0.00    -0.354 N 
ATOM     49  C   UNL A   1      41.522  27.384  28.520  1.00  0.00     0.074 A 
ATOM     50  C   UNL A   1      40.600  26.270  28.519  1.00  0.00     0.031 C 
ATOM     51  C   UNL A   1      46.950  24.723  26.291  1.00  0.00     0.029 A 
ATOM     52  C   UNL A   1      46.745  26.111  26.692  1.00  0.00     0.049 A 
ATOM     53  H   UNL A   1      45.022  26.957  27.501  1.00  0.00     0.167 HD
ATOM     54  C   UNL A   1      41.208  28.635  28.929  1.00  0.00     0.037 A 
ATOM     55  C   UNL A   1      47.658  27.097  26.605  1.00  0.00     0.037 A 
ATOM     56  C   UNL A   1      42.142  29.728  28.956  1.00  0.00     0.049 A 
ATOM     57  C   UNL A   1      47.279  28.484  27.053  1.00  0.00     0.074 A 
ATOM     58  C   UNL A   1      41.943  31.024  29.395  1.00  0.00     0.029 A 
ATOM     59  N   UNL A   1      43.459  29.647  28.526  1.00  0.00    -0.354 N 
ATOM     60  N   UNL A   1      46.138  28.917  27.531  1.00  0.00    -0.248 NA
ATOM     61  C   UNL A   1      48.318  29.518  26.954  1.00  0.00     0.031 C 
ATOM     62  C   UNL A   1      43.126  31.740  29.189  1.00  0.00     0.029 A 
ATOM     63  C   UNL A   1      44.080  30.876  28.674  1.00  0.00     0.049 A 
ATOM     64  H   UNL A   1      43.888  28.836  28.168  1.00  0.00     0.167 HD
ATOM     65  C   UNL A   1      46.331  30.259  27.826  1.00  0.00     0.074 A 
ATOM     66  C   UNL A   1      47.702  30.570  27.476  1.00  0.00     0.031 C 
ATOM     67  C   UNL A   1      45.454  31.154  28.344  1.00  0.00     0.037 A 
BRANCH  54  68
ATOM     68  C   UNL A   1      39.797  28.885  29.377  1.00  0.00     0.064 A 
ATOM     69  C   UNL A   1      38.810  29.341  28.489  1.00  0.00     0.173 A 
ATOM     70  C   UNL A   1      39.420  28.645  30.706  1.00  0.00     0.173 A 
ATOM     71  F   UNL A   1      39.121  29.599  27.209  1.00  0.00    -0.203 F 
ATOM     72  C   UNL A   1      37.509  29.579  28.922  1.00  0.00     0.198 A 
ATOM     73  C   UNL A   1      38.109  28.852  31.130  1.00  0.00     0.198 A 
ATOM     74  F   UNL A   1      40.322  28.205  31.598  1.00  0.00    -0.203 F 
ATOM     75  F   UNL A   1      36.600  30.070  28.069  1.00  0.00    -0.200 F 
ATOM     76  C   UNL A   1      37.158  29.328  30.240  1.00  0.00     0.200 A 
ATOM     77  F   UNL A   1      37.768  28.596  32.400  1.00  0.00    -0.200 F 
ATOM     78  F   UNL A   1      35.904  29.552  30.654  1.00  0.00    -0.200 F 
ENDBRANCH  54  68
BRANCH  55  79
ATOM     79  C   UNL A   1      49.023  26.805  26.094  1.00  0.00     0.064 A 
ATOM     80  C   UNL A   1      49.342  27.004  24.744  1.00  0.00     0.173 A 
ATOM     81  C   UNL A   1      50.033  26.318  26.937  1.00  0.00     0.173 A 
ATOM     82  F   UNL A   1      48.405  27.450  23.894  1.00  0.00    -0.203 F 
ATOM     83  C   UNL A   1      50.610  26.705  24.251  1.00  0.00     0.198 A 
ATOM     84  C   UNL A   1      51.309  26.047  26.450  1.00  0.00     0.198 A 
ATOM     85  F   UNL A   1      49.781  26.114  28.239  1.00  0.00    -0.203 F 
ATOM     86  F   UNL A   1      50.872  26.858  22.946  1.00  0.00    -0.200 F 
ATOM     87  C   UNL A   1      51.594  26.232  25.105  1.00  0.00     0.200 A 
ATOM     88  F   UNL A   1      52.261  25.601  27.281  1.00  0.00    -0.200 F 
ATOM     89  F   UNL A   1      52.814  25.945  24.631  1.00  0.00    -0.200 F 
ENDBRANCH  55  79
BRANCH  67  90
ATOM     90  C   UNL A   1      45.962  32.538  28.624  1.00  0.00     0.064 A 
ATOM     91  C   UNL A   1      46.578  32.868  29.840  1.00  0.00     0.173 A 
ATOM     92  C   UNL A   1      45.890  33.527  27.631  1.00  0.00     0.173 A 
ATOM     93  F   UNL A   1      46.659  31.961  30.824  1.00  0.00    -0.203 F 
ATOM     94  C   UNL A   1      47.086  34.146  30.058  1.00  0.00     0.198 A 
ATOM     95  C   UNL A   1      46.426  34.794  27.842  1.00  0.00     0.198 A 
ATOM     96  F   UNL A   1      45.318  33.258  26.448  1.00  0.00    -0.203 F 
ATOM     97  F   UNL A   1      47.635  34.454  31.241  1.00  0.00    -0.200 F 
ATOM     98  C   UNL A   1      47.019  35.104  29.056  1.00  0.00     0.200 A 
ATOM     99  F   UNL A   1      46.376  35.712  26.867  1.00  0.00    -0.200 F 
ATOM    100  F   UNL A   1      47.523  36.328  29.263  1.00  0.00    -0.200 F 
ENDBRANCH  67  90
ENDBRANCH  41  42
ENDBRANCH  33  36
ENDBRANCH  31  32
ENDBRANCH  30  31
ENDBRANCH  29  30
ENDBRANCH   1  29
TORSDOF 17
ENDMDL
MODEL 3
REMARK VINA RESULT:     -11.9      5.451     11.039
REMARK SMILES CC(C)[C@@H](CNC(=O)[C@@H]1CC[C@@H]2CCCC[C@@H]2[NH2+]1)C(=O)NCCCCCCNC(=O)c1ccc(-c2c3nc(c(-c4c(F)c(F)c(F)c(F)c4F)c4ccc([nH]4)c(-c4c(F)c(F)c(F)c(F)c4F)c4nc(c(-c5c(F)c(F)c(F)c(F)c5F)c5ccc2[nH]5)C=C4)C=C3)cc1
REMARK SMILES IDX 24 1 23 2 22 3 21 4 19 5 20 6 4 8 2 9 1 10 3 11 5 12 6 13
REMARK SMILES IDX 7 14 8 16 9 17 10 18 18 19 11 20 17 21 12 24 16 25 13 26
REMARK SMILES IDX 15 27 14 28 25 29 26 30 27 31 28 32 29 33 30 35 31 36 32 37
REMARK SMILES IDX 93 38 33 39 92 40 34 41 35 42 36 43 86 44 37 45 91 46 85 47
REMARK SMILES IDX 87 48 38 49 90 50 84 51 83 52 39 54 71 55 51 56 70 57 52 58
REMARK SMILES IDX 55 59 69 60 88 61 53 62 54 63 68 65 89 66 56 67 40 68 41 69
REMARK SMILES IDX 49 70 42 71 43 72 47 73 50 74 44 75 45 76 48 77 46 78 72 79
REMARK SMILES IDX 73 80 81 81 74 82 75 83 79 84 82 85 76 86 77 87 80 88 78 89
REMARK SMILES IDX 57 90 58 91 66 92 59 93 60 94 64 95 67 96 61 97 62 98 65 99
REMARK SMILES IDX 63 100
REMARK H PARENT 21 7 6 15 18 22 18 23 28 34 87 53 55 64
REMARK Flexibility Score: inf
ROOT
ATOM      1  C   UNL A   1      37.574  22.140  25.273  1.00  0.00     0.002 C 
ENDROOT
BRANCH   1   2
ATOM      2  C   UNL A   1      36.782  23.313  24.700  1.00  0.00     0.021 C 
BRANCH   2   3
ATOM      3  C   UNL A   1      35.972  24.041  25.752  1.00  0.00     0.116 C 
BRANCH   3   4
ATOM      4  N   UNL A   1      35.520  23.152  26.791  1.00  0.00    -0.356 N 
ATOM      5  C   UNL A   1      34.379  22.424  26.859  1.00  0.00     0.225 C 
ATOM      6  O   UNL A   1      34.252  21.623  27.788  1.00  0.00    -0.275 OA
ATOM      7  H   UNL A   1      36.125  23.060  27.562  1.00  0.00     0.163 HD
BRANCH   5   8
ATOM      8  C   UNL A   1      33.295  22.559  25.808  1.00  0.00     0.100 C 
BRANCH   8   9
ATOM      9  C   UNL A   1      33.326  21.536  24.634  1.00  0.00    -0.003 C 
ATOM     10  C   UNL A   1      32.215  20.478  24.720  1.00  0.00     0.008 C 
ATOM     11  C   UNL A   1      33.188  22.281  23.298  1.00  0.00     0.008 C 
ENDBRANCH   8   9
BRANCH   8  12
ATOM     12  C   UNL A   1      31.951  22.909  26.455  1.00  0.00     0.129 C 
BRANCH  12  13
ATOM     13  N   UNL A   1      31.602  24.240  26.903  1.00  0.00    -0.350 N 
ATOM     14  C   UNL A   1      31.846  25.479  26.375  1.00  0.00     0.278 C 
ATOM     15  H   UNL A   1      31.096  24.258  27.747  1.00  0.00     0.163 HD
ATOM     16  O   UNL A   1      31.193  26.385  26.918  1.00  0.00    -0.268 OA
BRANCH  14  17
ATOM     17  C   UNL A   1      32.911  25.840  25.286  1.00  0.00     0.272 C 
ATOM     18  C   UNL A   1      33.470  27.268  25.485  1.00  0.00     0.076 C 
ATOM     19  N   UNL A   1      32.568  25.667  23.869  1.00  0.00    -0.333 N 
ATOM     20  C   UNL A   1      32.541  28.348  24.918  1.00  0.00     0.016 C 
ATOM     21  C   UNL A   1      31.704  26.662  23.234  1.00  0.00     0.186 C 
ATOM     22  H   UNL A   1      32.102  24.764  23.780  1.00  0.00     0.347 HD
ATOM     23  H   UNL A   1      33.459  25.764  23.383  1.00  0.00     0.347 HD
ATOM     24  C   UNL A   1      32.243  28.080  23.434  1.00  0.00     0.048 C 
ATOM     25  C   UNL A   1      30.242  26.539  23.659  1.00  0.00     0.065 C 
ATOM     26  C   UNL A   1      31.270  29.094  22.809  1.00  0.00     0.010 C 
ATOM     27  C   UNL A   1      29.276  27.632  23.250  1.00  0.00     0.006 C 
ATOM     28  C   UNL A   1      29.866  29.021  23.397  1.00  0.00     0.001 C 
ENDBRANCH  14  17
ENDBRANCH  12  13
ENDBRANCH   8  12
ENDBRANCH   5   8
ENDBRANCH   3   4
ENDBRANCH   2   3
ENDBRANCH   1   2
BRANCH   1  29
ATOM     29  C   UNL A   1      37.180  20.759  24.732  1.00  0.00     0.002 C 
BRANCH  29  30
ATOM     30  C   UNL A   1      38.165  19.624  25.030  1.00  0.00     0.021 C 
BRANCH  30  31
ATOM     31  C   UNL A   1      39.424  20.050  25.772  1.00  0.00     0.116 C 
BRANCH  31  32
ATOM     32  N   UNL A   1      40.406  18.984  25.866  1.00  0.00    -0.352 N 
ATOM     33  C   UNL A   1      41.749  19.084  26.102  1.00  0.00     0.251 C 
ATOM     34  H   UNL A   1      40.059  18.070  25.743  1.00  0.00     0.163 HD
ATOM     35  O   UNL A   1      42.477  18.100  26.044  1.00  0.00    -0.269 OA
BRANCH  33  36
ATOM     36  C   UNL A   1      42.312  20.410  26.401  1.00  0.00     0.039 A 
ATOM     37  C   UNL A   1      42.804  21.184  25.350  1.00  0.00     0.014 A 
ATOM     38  C   UNL A   1      42.308  20.897  27.712  1.00  0.00     0.014 A 
ATOM     39  C   UNL A   1      43.262  22.475  25.607  1.00  0.00     0.010 A 
ATOM     40  C   UNL A   1      42.693  22.207  27.954  1.00  0.00     0.010 A 
ATOM     41  C   UNL A   1      43.187  23.001  26.906  1.00  0.00    -0.014 A 
BRANCH  41  42
ATOM     42  C   UNL A   1      43.666  24.368  27.215  1.00  0.00     0.031 A 
ATOM     43  C   UNL A   1      42.697  25.378  27.759  1.00  0.00     0.074 A 
ATOM     44  C   UNL A   1      44.937  24.714  26.938  1.00  0.00     0.049 A 
ATOM     45  N   UNL A   1      42.862  26.658  27.969  1.00  0.00    -0.248 NA
ATOM     46  C   UNL A   1      41.346  24.886  28.075  1.00  0.00     0.031 C 
ATOM     47  C   UNL A   1      45.956  23.823  26.383  1.00  0.00     0.029 A 
ATOM     48  N   UNL A   1      45.581  25.917  27.070  1.00  0.00    -0.354 N 
ATOM     49  C   UNL A   1      41.635  27.125  28.417  1.00  0.00     0.074 A 
ATOM     50  C   UNL A   1      40.718  26.007  28.396  1.00  0.00     0.031 C 
ATOM     51  C   UNL A   1      47.102  24.507  26.234  1.00  0.00     0.029 A 
ATOM     52  C   UNL A   1      46.885  25.892  26.642  1.00  0.00     0.049 A 
ATOM     53  H   UNL A   1      45.149  26.723  27.437  1.00  0.00     0.167 HD
ATOM     54  C   UNL A   1      41.310  28.372  28.830  1.00  0.00     0.037 A 
ATOM     55  C   UNL A   1      47.795  26.883  26.573  1.00  0.00     0.037 A 
ATOM     56  C   UNL A   1      42.238  29.470  28.876  1.00  0.00     0.049 A 
ATOM     57  C   UNL A   1      47.404  28.265  27.026  1.00  0.00     0.074 A 
ATOM     58  C   UNL A   1      42.027  30.762  29.321  1.00  0.00     0.029 A 
ATOM     59  N   UNL A   1      43.560  29.398  28.461  1.00  0.00    -0.354 N 
ATOM     60  N   UNL A   1      46.254  28.688  27.494  1.00  0.00    -0.248 NA
ATOM     61  C   UNL A   1      48.438  29.304  26.947  1.00  0.00     0.031 C 
ATOM     62  C   UNL A   1      43.208  31.485  29.134  1.00  0.00     0.029 A 
ATOM     63  C   UNL A   1      44.173  30.630  28.625  1.00  0.00     0.049 A 
ATOM     64  H   UNL A   1      43.998  28.592  28.103  1.00  0.00     0.167 HD
ATOM     65  C   UNL A   1      46.438  30.030  27.800  1.00  0.00     0.074 A 
ATOM     66  C   UNL A   1      47.811  30.349  27.469  1.00  0.00     0.031 C 
ATOM     67  C   UNL A   1      45.550  30.916  28.313  1.00  0.00     0.037 A 
BRANCH  54  68
ATOM     68  C   UNL A   1      39.892  28.612  29.263  1.00  0.00     0.064 A 
ATOM     69  C   UNL A   1      39.475  28.386  30.584  1.00  0.00     0.173 A 
ATOM     70  C   UNL A   1      38.942  29.094  28.351  1.00  0.00     0.173 A 
ATOM     71  F   UNL A   1      40.341  27.911  31.493  1.00  0.00    -0.203 F 
ATOM     72  C   UNL A   1      38.154  28.601  30.967  1.00  0.00     0.198 A 
ATOM     73  C   UNL A   1      37.629  29.341  28.745  1.00  0.00     0.198 A 
ATOM     74  F   UNL A   1      39.286  29.331  27.076  1.00  0.00    -0.203 F 
ATOM     75  F   UNL A   1      37.768  28.322  32.219  1.00  0.00    -0.200 F 
ATOM     76  C   UNL A   1      37.234  29.085  30.049  1.00  0.00     0.200 A 
ATOM     77  F   UNL A   1      36.744  29.821  27.861  1.00  0.00    -0.200 F 
ATOM     78  F   UNL A   1      35.965  29.297  30.421  1.00  0.00    -0.200 F 
ENDBRANCH  54  68
BRANCH  55  79
ATOM     79  C   UNL A   1      49.167  26.601  26.077  1.00  0.00     0.064 A 
ATOM     80  C   UNL A   1      50.132  26.032  26.919  1.00  0.00     0.173 A 
ATOM     81  C   UNL A   1      49.545  26.896  24.758  1.00  0.00     0.173 A 
ATOM     82  F   UNL A   1      49.824  25.750  28.194  1.00  0.00    -0.203 F 
ATOM     83  C   UNL A   1      51.429  25.792  26.471  1.00  0.00     0.198 A 
ATOM     84  C   UNL A   1      50.833  26.628  24.302  1.00  0.00     0.198 A 
ATOM     85  F   UNL A   1      48.658  27.437  23.910  1.00  0.00    -0.203 F 
ATOM     86  F   UNL A   1      52.345  25.293  27.312  1.00  0.00    -0.200 F 
ATOM     87  C   UNL A   1      51.777  26.085  25.161  1.00  0.00     0.200 A 
ATOM     88  F   UNL A   1      51.163  26.901  23.032  1.00  0.00    -0.200 F 
ATOM     89  F   UNL A   1      53.024  25.852  24.729  1.00  0.00    -0.200 F 
ENDBRANCH  55  79
BRANCH  67  90
ATOM     90  C   UNL A   1      46.047  32.301  28.610  1.00  0.00     0.064 A 
ATOM     91  C   UNL A   1      46.642  32.627  29.837  1.00  0.00     0.173 A 
ATOM     92  C   UNL A   1      45.987  33.295  27.620  1.00  0.00     0.173 A 
ATOM     93  F   UNL A   1      46.711  31.715  30.817  1.00  0.00    -0.203 F 
ATOM     94  C   UNL A   1      47.141  33.906  30.070  1.00  0.00     0.198 A 
ATOM     95  C   UNL A   1      46.514  34.563  27.846  1.00  0.00     0.198 A 
ATOM     96  F   UNL A   1      45.435  33.030  26.427  1.00  0.00    -0.203 F 
ATOM     97  F   UNL A   1      47.670  34.209  31.263  1.00  0.00    -0.200 F 
ATOM     98  C   UNL A   1      47.086  34.869  29.072  1.00  0.00     0.200 A 
ATOM     99  F   UNL A   1      46.476  35.486  26.876  1.00  0.00    -0.200 F 
ATOM    100  F   UNL A   1      47.581  36.094  29.294  1.00  0.00    -0.200 F 
ENDBRANCH  67  90
ENDBRANCH  41  42
ENDBRANCH  33  36
ENDBRANCH  31  32
ENDBRANCH  30  31
ENDBRANCH  29  30
ENDBRANCH   1  29
TORSDOF 17
ENDMDL
