MODEL 1
REMARK VINA RESULT:     -12.3      0.000      0.000
REMARK SMILES Cn1c(=O)[nH]c(=O)c2c1nc(NC1CCCC1)n2CC(=O)NCCCCCCNC(=O)c1ccc(-c2c3nc(c(-c4c(F)c(F)c(F)c(F)c4F)c4ccc([nH]4)c(-c4c(F)c(F)c(F)c(F)c4F)c4nc(c(-c5c(F)c(F)c(F)c(F)c5F)c5ccc2[nH]5)C=C4)C=C3)cc1
REMARK SMILES IDX 25 1 24 2 23 3 22 4 20 5 21 6 19 8 18 9 1 10 2 11 3 12 9 13
REMARK SMILES IDX 4 14 5 15 8 16 10 17 6 18 11 20 7 21 12 22 13 24 14 25 17 26
REMARK SMILES IDX 15 27 16 28 26 29 27 30 28 31 29 32 30 33 31 35 32 36 33 37
REMARK SMILES IDX 94 38 34 39 93 40 35 41 36 42 37 43 87 44 38 45 92 46 86 47
REMARK SMILES IDX 88 48 39 49 91 50 85 51 84 52 40 54 72 55 52 56 71 57 53 58
REMARK SMILES IDX 56 59 70 60 89 61 54 62 55 63 69 65 90 66 57 67 41 68 42 69
REMARK SMILES IDX 50 70 43 71 44 72 48 73 51 74 45 75 46 76 49 77 47 78 73 79
REMARK SMILES IDX 74 80 82 81 75 82 76 83 80 84 83 85 77 86 78 87 81 88 79 89
REMARK SMILES IDX 58 90 59 91 67 92 60 93 61 94 65 95 68 96 62 97 63 98 66 99
REMARK SMILES IDX 64 100
REMARK H PARENT 22 7 5 19 12 23 29 34 88 53 56 64
REMARK Flexibility Score: inf
ROOT
ATOM      1  C   UNL A   1      40.470  20.816  26.605  1.00  0.00     0.002 C 
ENDROOT
BRANCH   1   2
ATOM      2  C   UNL A   1      40.268  22.289  26.230  1.00  0.00     0.021 C 
BRANCH   2   3
ATOM      3  C   UNL A   1      38.817  22.763  26.339  1.00  0.00     0.116 C 
BRANCH   3   4
ATOM      4  N   UNL A   1      38.124  22.642  25.071  1.00  0.00    -0.355 N 
ATOM      5  C   UNL A   1      36.937  22.026  24.800  1.00  0.00     0.240 C 
ATOM      6  O   UNL A   1      36.587  21.910  23.622  1.00  0.00    -0.273 OA
ATOM      7  H   UNL A   1      38.572  23.062  24.301  1.00  0.00     0.163 HD
BRANCH   5   8
ATOM      8  C   UNL A   1      36.054  21.521  25.923  1.00  0.00     0.226 C 
BRANCH   8   9
ATOM      9  N   UNL A   1      34.660  21.874  25.751  1.00  0.00    -0.295 N 
ATOM     10  C   UNL A   1      30.464  23.805  25.706  1.00  0.00     0.157 C 
ATOM     11  N   UNL A   1      31.898  24.011  25.724  1.00  0.00    -0.279 N 
ATOM     12  C   UNL A   1      32.399  25.297  25.876  1.00  0.00     0.329 A 
ATOM     13  C   UNL A   1      32.784  22.959  25.660  1.00  0.00     0.170 A 
ATOM     14  O   UNL A   1      31.691  26.295  26.014  1.00  0.00    -0.248 OA
ATOM     15  N   UNL A   1      33.772  25.440  25.897  1.00  0.00    -0.272 N 
ATOM     16  C   UNL A   1      34.132  23.142  25.731  1.00  0.00     0.154 A 
ATOM     17  N   UNL A   1      32.460  21.649  25.567  1.00  0.00    -0.194 NA
ATOM     18  C   UNL A   1      34.719  24.437  25.841  1.00  0.00     0.279 A 
ATOM     19  H   UNL A   1      34.114  26.361  25.958  1.00  0.00     0.175 HD
ATOM     20  C   UNL A   1      33.599  20.992  25.623  1.00  0.00     0.206 A 
ATOM     21  O   UNL A   1      35.910  24.670  25.925  1.00  0.00    -0.267 OA
BRANCH  20  22
ATOM     22  N   UNL A   1      33.776  19.655  25.594  1.00  0.00    -0.353 N 
ATOM     23  H   UNL A   1      33.794  19.163  26.447  1.00  0.00     0.163 HD
BRANCH  22  24
ATOM     24  C   UNL A   1      33.940  18.908  24.356  1.00  0.00     0.082 C 
ATOM     25  C   UNL A   1      34.516  17.506  24.532  1.00  0.00     0.025 C 
ATOM     26  C   UNL A   1      32.637  18.703  23.587  1.00  0.00     0.025 C 
ATOM     27  C   UNL A   1      34.152  16.802  23.231  1.00  0.00     0.002 C 
ATOM     28  C   UNL A   1      32.858  17.449  22.745  1.00  0.00     0.002 C 
ENDBRANCH  22  24
ENDBRANCH  20  22
ENDBRANCH   8   9
ENDBRANCH   5   8
ENDBRANCH   3   4
ENDBRANCH   2   3
ENDBRANCH   1   2
BRANCH   1  29
ATOM     29  C   UNL A   1      41.705  20.509  27.467  1.00  0.00     0.002 C 
BRANCH  29  30
ATOM     30  C   UNL A   1      42.636  19.395  26.964  1.00  0.00     0.021 C 
BRANCH  30  31
ATOM     31  C   UNL A   1      42.730  19.299  25.449  1.00  0.00     0.116 C 
BRANCH  31  32
ATOM     32  N   UNL A   1      44.109  19.158  24.979  1.00  0.00    -0.352 N 
ATOM     33  C   UNL A   1      45.006  20.144  24.619  1.00  0.00     0.251 C 
ATOM     34  H   UNL A   1      44.442  18.234  24.910  1.00  0.00     0.163 HD
ATOM     35  O   UNL A   1      45.966  19.893  23.900  1.00  0.00    -0.269 OA
BRANCH  33  36
ATOM     36  C   UNL A   1      44.793  21.511  25.120  1.00  0.00     0.039 A 
ATOM     37  C   UNL A   1      43.815  22.350  24.581  1.00  0.00     0.014 A 
ATOM     38  C   UNL A   1      45.593  21.939  26.173  1.00  0.00     0.014 A 
ATOM     39  C   UNL A   1      43.607  23.596  25.168  1.00  0.00     0.010 A 
ATOM     40  C   UNL A   1      45.255  23.065  26.871  1.00  0.00     0.010 A 
ATOM     41  C   UNL A   1      44.324  23.937  26.327  1.00  0.00    -0.014 A 
BRANCH  41  42
ATOM     42  C   UNL A   1      44.076  25.185  27.033  1.00  0.00     0.031 A 
ATOM     43  C   UNL A   1      45.049  26.267  26.743  1.00  0.00     0.074 A 
ATOM     44  C   UNL A   1      42.948  25.414  27.741  1.00  0.00     0.049 A 
ATOM     45  N   UNL A   1      45.924  26.771  27.548  1.00  0.00    -0.248 NA
ATOM     46  C   UNL A   1      45.156  26.758  25.360  1.00  0.00     0.031 C 
ATOM     47  C   UNL A   1      41.751  24.571  27.864  1.00  0.00     0.029 A 
ATOM     48  N   UNL A   1      42.600  26.523  28.447  1.00  0.00    -0.354 N 
ATOM     49  C   UNL A   1      46.573  27.774  26.834  1.00  0.00     0.074 A 
ATOM     50  C   UNL A   1      46.185  27.602  25.459  1.00  0.00     0.031 C 
ATOM     51  C   UNL A   1      40.741  25.287  28.405  1.00  0.00     0.029 A 
ATOM     52  C   UNL A   1      41.269  26.566  28.837  1.00  0.00     0.049 A 
ATOM     53  H   UNL A   1      43.242  27.239  28.663  1.00  0.00     0.167 HD
ATOM     54  C   UNL A   1      47.188  28.801  27.484  1.00  0.00     0.037 A 
ATOM     55  C   UNL A   1      40.646  27.591  29.466  1.00  0.00     0.037 A 
ATOM     56  C   UNL A   1      47.383  28.478  28.878  1.00  0.00     0.049 A 
ATOM     57  C   UNL A   1      41.706  28.409  30.103  1.00  0.00     0.074 A 
ATOM     58  C   UNL A   1      48.093  27.513  29.565  1.00  0.00     0.029 A 
ATOM     59  N   UNL A   1      46.477  28.985  29.775  1.00  0.00    -0.354 N 
ATOM     60  N   UNL A   1      42.446  27.997  31.095  1.00  0.00    -0.248 NA
ATOM     61  C   UNL A   1      42.237  29.533  29.350  1.00  0.00     0.031 C 
ATOM     62  C   UNL A   1      47.272  27.171  30.680  1.00  0.00     0.029 A 
ATOM     63  C   UNL A   1      46.139  27.986  30.648  1.00  0.00     0.049 A 
ATOM     64  H   UNL A   1      46.131  29.906  29.789  1.00  0.00     0.167 HD
ATOM     65  C   UNL A   1      43.707  28.506  30.825  1.00  0.00     0.074 A 
ATOM     66  C   UNL A   1      43.492  29.529  29.805  1.00  0.00     0.031 C 
ATOM     67  C   UNL A   1      44.829  27.851  31.245  1.00  0.00     0.037 A 
BRANCH  54  68
ATOM     68  C   UNL A   1      47.264  30.225  26.980  1.00  0.00     0.064 A 
ATOM     69  C   UNL A   1      48.493  30.914  27.070  1.00  0.00     0.173 A 
ATOM     70  C   UNL A   1      46.141  31.033  26.704  1.00  0.00     0.173 A 
ATOM     71  F   UNL A   1      49.630  30.254  27.337  1.00  0.00    -0.203 F 
ATOM     72  C   UNL A   1      48.571  32.307  26.987  1.00  0.00     0.198 A 
ATOM     73  C   UNL A   1      46.230  32.418  26.567  1.00  0.00     0.198 A 
ATOM     74  F   UNL A   1      44.898  30.544  26.666  1.00  0.00    -0.203 F 
ATOM     75  F   UNL A   1      49.738  32.922  27.217  1.00  0.00    -0.200 F 
ATOM     76  C   UNL A   1      47.437  33.059  26.744  1.00  0.00     0.200 A 
ATOM     77  F   UNL A   1      45.117  33.131  26.348  1.00  0.00    -0.200 F 
ATOM     78  F   UNL A   1      47.497  34.396  26.730  1.00  0.00    -0.200 F 
ENDBRANCH  54  68
BRANCH  55  79
ATOM     79  C   UNL A   1      39.258  28.082  29.303  1.00  0.00     0.064 A 
ATOM     80  C   UNL A   1      38.419  28.235  30.420  1.00  0.00     0.173 A 
ATOM     81  C   UNL A   1      38.834  28.701  28.112  1.00  0.00     0.173 A 
ATOM     82  F   UNL A   1      38.766  27.704  31.602  1.00  0.00    -0.203 F 
ATOM     83  C   UNL A   1      37.255  29.007  30.362  1.00  0.00     0.198 A 
ATOM     84  C   UNL A   1      37.667  29.466  28.054  1.00  0.00     0.198 A 
ATOM     85  F   UNL A   1      39.596  28.665  27.008  1.00  0.00    -0.203 F 
ATOM     86  F   UNL A   1      36.524  29.197  31.470  1.00  0.00    -0.200 F 
ATOM     87  C   UNL A   1      36.889  29.635  29.184  1.00  0.00     0.200 A 
ATOM     88  F   UNL A   1      37.343  30.099  26.917  1.00  0.00    -0.200 F 
ATOM     89  F   UNL A   1      35.815  30.438  29.148  1.00  0.00    -0.200 F 
ENDBRANCH  55  79
BRANCH  67  90
ATOM     90  C   UNL A   1      44.659  26.742  32.250  1.00  0.00     0.064 A 
ATOM     91  C   UNL A   1      44.487  25.388  31.914  1.00  0.00     0.173 A 
ATOM     92  C   UNL A   1      44.833  27.050  33.605  1.00  0.00     0.173 A 
ATOM     93  F   UNL A   1      44.399  24.998  30.638  1.00  0.00    -0.203 F 
ATOM     94  C   UNL A   1      44.463  24.396  32.894  1.00  0.00     0.198 A 
ATOM     95  C   UNL A   1      44.847  26.055  34.578  1.00  0.00     0.198 A 
ATOM     96  F   UNL A   1      45.048  28.321  33.983  1.00  0.00    -0.203 F 
ATOM     97  F   UNL A   1      44.293  23.111  32.547  1.00  0.00    -0.200 F 
ATOM     98  C   UNL A   1      44.655  24.729  34.224  1.00  0.00     0.200 A 
ATOM     99  F   UNL A   1      45.079  26.377  35.858  1.00  0.00    -0.200 F 
ATOM    100  F   UNL A   1      44.682  23.771  35.161  1.00  0.00    -0.200 F 
ENDBRANCH  67  90
ENDBRANCH  41  42
ENDBRANCH  33  36
ENDBRANCH  31  32
ENDBRANCH  30  31
ENDBRANCH  29  30
ENDBRANCH   1  29
TORSDOF 16
ENDMDL
MODEL 2
REMARK VINA RESULT:     -12.2      1.375      2.999
REMARK SMILES Cn1c(=O)[nH]c(=O)c2c1nc(NC1CCCC1)n2CC(=O)NCCCCCCNC(=O)c1ccc(-c2c3nc(c(-c4c(F)c(F)c(F)c(F)c4F)c4ccc([nH]4)c(-c4c(F)c(F)c(F)c(F)c4F)c4nc(c(-c5c(F)c(F)c(F)c(F)c5F)c5ccc2[nH]5)C=C4)C=C3)cc1
REMARK SMILES IDX 25 1 24 2 23 3 22 4 20 5 21 6 19 8 18 9 1 10 2 11 3 12 9 13
REMARK SMILES IDX 4 14 5 15 8 16 10 17 6 18 11 20 7 21 12 22 13 24 14 25 17 26
REMARK SMILES IDX 15 27 16 28 26 29 27 30 28 31 29 32 30 33 31 35 32 36 33 37
REMARK SMILES IDX 94 38 34 39 93 40 35 41 36 42 37 43 87 44 38 45 92 46 86 47
REMARK SMILES IDX 88 48 39 49 91 50 85 51 84 52 40 54 72 55 52 56 71 57 53 58
REMARK SMILES IDX 56 59 70 60 89 61 54 62 55 63 69 65 90 66 57 67 41 68 42 69
REMARK SMILES IDX 50 70 43 71 44 72 48 73 51 74 45 75 46 76 49 77 47 78 73 79
REMARK SMILES IDX 74 80 82 81 75 82 76 83 80 84 83 85 77 86 78 87 81 88 79 89
REMARK SMILES IDX 58 90 59 91 67 92 60 93 61 94 65 95 68 96 62 97 63 98 66 99
REMARK SMILES IDX 64 100
REMARK H PARENT 22 7 5 19 12 23 29 34 88 53 56 64
REMARK Flexibility Score: inf
ROOT
ATOM      1  C   UNL A   1      40.092  21.484  26.512  1.00  0.00     0.002 C 
ENDROOT
BRANCH   1   2
ATOM      2  C   UNL A   1      39.502  22.898  26.590  1.00  0.00     0.021 C 
BRANCH   2   3
ATOM      3  C   UNL A   1      38.230  23.086  25.761  1.00  0.00     0.116 C 
BRANCH   3   4
ATOM      4  N   UNL A   1      37.056  23.178  26.606  1.00  0.00    -0.355 N 
ATOM      5  C   UNL A   1      35.740  23.183  26.246  1.00  0.00     0.240 C 
ATOM      6  O   UNL A   1      34.891  23.416  27.111  1.00  0.00    -0.273 OA
ATOM      7  H   UNL A   1      37.233  23.248  27.573  1.00  0.00     0.163 HD
BRANCH   5   8
ATOM      8  C   UNL A   1      35.328  22.881  24.820  1.00  0.00     0.226 C 
BRANCH   8   9
ATOM      9  N   UNL A   1      34.384  21.786  24.721  1.00  0.00    -0.295 N 
ATOM     10  C   UNL A   1      32.145  17.802  24.053  1.00  0.00     0.157 C 
ATOM     11  N   UNL A   1      33.400  18.455  24.363  1.00  0.00    -0.279 N 
ATOM     12  C   UNL A   1      34.559  17.695  24.451  1.00  0.00     0.329 A 
ATOM     13  C   UNL A   1      33.491  19.821  24.512  1.00  0.00     0.170 A 
ATOM     14  O   UNL A   1      34.594  16.478  24.263  1.00  0.00    -0.248 OA
ATOM     15  N   UNL A   1      35.730  18.364  24.740  1.00  0.00    -0.272 N 
ATOM     16  C   UNL A   1      34.678  20.445  24.752  1.00  0.00     0.154 A 
ATOM     17  N   UNL A   1      32.473  20.704  24.404  1.00  0.00    -0.194 NA
ATOM     18  C   UNL A   1      35.900  19.725  24.900  1.00  0.00     0.279 A 
ATOM     19  H   UNL A   1      36.536  17.808  24.846  1.00  0.00     0.175 HD
ATOM     20  C   UNL A   1      33.016  21.896  24.530  1.00  0.00     0.206 A 
ATOM     21  O   UNL A   1      36.995  20.219  25.098  1.00  0.00    -0.267 OA
BRANCH  20  22
ATOM     22  N   UNL A   1      32.394  23.091  24.464  1.00  0.00    -0.353 N 
ATOM     23  H   UNL A   1      32.159  23.548  25.304  1.00  0.00     0.163 HD
BRANCH  22  24
ATOM     24  C   UNL A   1      32.054  23.734  23.204  1.00  0.00     0.082 C 
ATOM     25  C   UNL A   1      31.332  25.071  23.346  1.00  0.00     0.025 C 
ATOM     26  C   UNL A   1      33.264  24.034  22.322  1.00  0.00     0.025 C 
ATOM     27  C   UNL A   1      31.515  25.726  21.984  1.00  0.00     0.002 C 
ATOM     28  C   UNL A   1      32.838  25.199  21.432  1.00  0.00     0.002 C 
ENDBRANCH  22  24
ENDBRANCH  20  22
ENDBRANCH   8   9
ENDBRANCH   5   8
ENDBRANCH   3   4
ENDBRANCH   2   3
ENDBRANCH   1   2
BRANCH   1  29
ATOM     29  C   UNL A   1      41.141  21.137  27.580  1.00  0.00     0.002 C 
BRANCH  29  30
ATOM     30  C   UNL A   1      42.177  20.066  27.206  1.00  0.00     0.021 C 
BRANCH  30  31
ATOM     31  C   UNL A   1      42.219  19.734  25.722  1.00  0.00     0.116 C 
BRANCH  31  32
ATOM     32  N   UNL A   1      43.585  19.561  25.224  1.00  0.00    -0.352 N 
ATOM     33  C   UNL A   1      44.491  20.526  24.828  1.00  0.00     0.251 C 
ATOM     34  H   UNL A   1      43.900  18.632  25.162  1.00  0.00     0.163 HD
ATOM     35  O   UNL A   1      45.430  20.248  24.093  1.00  0.00    -0.269 OA
BRANCH  33  36
ATOM     36  C   UNL A   1      44.312  21.905  25.313  1.00  0.00     0.039 A 
ATOM     37  C   UNL A   1      43.423  22.792  24.701  1.00  0.00     0.014 A 
ATOM     38  C   UNL A   1      45.050  22.294  26.424  1.00  0.00     0.014 A 
ATOM     39  C   UNL A   1      43.238  24.050  25.271  1.00  0.00     0.010 A 
ATOM     40  C   UNL A   1      44.720  23.438  27.094  1.00  0.00     0.010 A 
ATOM     41  C   UNL A   1      43.881  24.356  26.482  1.00  0.00    -0.014 A 
BRANCH  41  42
ATOM     42  C   UNL A   1      43.645  25.618  27.167  1.00  0.00     0.031 A 
ATOM     43  C   UNL A   1      44.589  26.705  26.809  1.00  0.00     0.074 A 
ATOM     44  C   UNL A   1      42.546  25.849  27.919  1.00  0.00     0.049 A 
ATOM     45  N   UNL A   1      45.490  27.241  27.562  1.00  0.00    -0.248 NA
ATOM     46  C   UNL A   1      44.628  27.163  25.411  1.00  0.00     0.031 C 
ATOM     47  C   UNL A   1      41.368  24.993  28.115  1.00  0.00     0.029 A 
ATOM     48  N   UNL A   1      42.214  26.970  28.612  1.00  0.00    -0.354 N 
ATOM     49  C   UNL A   1      46.093  28.235  26.796  1.00  0.00     0.074 A 
ATOM     50  C   UNL A   1      45.648  28.023  25.443  1.00  0.00     0.031 C 
ATOM     51  C   UNL A   1      40.373  25.708  28.683  1.00  0.00     0.029 A 
ATOM     52  C   UNL A   1      40.900  27.005  29.060  1.00  0.00     0.049 A 
ATOM     53  H   UNL A   1      42.853  27.700  28.782  1.00  0.00     0.167 HD
ATOM     54  C   UNL A   1      46.721  29.286  27.393  1.00  0.00     0.037 A 
ATOM     55  C   UNL A   1      40.290  28.037  29.690  1.00  0.00     0.037 A 
ATOM     56  C   UNL A   1      46.982  29.000  28.784  1.00  0.00     0.049 A 
ATOM     57  C   UNL A   1      41.364  28.884  30.260  1.00  0.00     0.074 A 
ATOM     58  C   UNL A   1      47.735  28.063  29.462  1.00  0.00     0.029 A 
ATOM     59  N   UNL A   1      46.108  29.517  29.708  1.00  0.00    -0.354 N 
ATOM     60  N   UNL A   1      42.154  28.507  31.228  1.00  0.00    -0.248 NA
ATOM     61  C   UNL A   1      41.846  29.997  29.457  1.00  0.00     0.031 C 
ATOM     62  C   UNL A   1      46.968  27.737  30.620  1.00  0.00     0.029 A 
ATOM     63  C   UNL A   1      45.823  28.535  30.619  1.00  0.00     0.049 A 
ATOM     64  H   UNL A   1      45.749  30.434  29.714  1.00  0.00     0.167 HD
ATOM     65  C   UNL A   1      43.394  29.026  30.890  1.00  0.00     0.074 A 
ATOM     66  C   UNL A   1      43.120  30.021  29.856  1.00  0.00     0.031 C 
ATOM     67  C   UNL A   1      44.543  28.398  31.276  1.00  0.00     0.037 A 
BRANCH  54  68
ATOM     68  C   UNL A   1      46.753  30.698  26.852  1.00  0.00     0.064 A 
ATOM     69  C   UNL A   1      47.976  31.404  26.868  1.00  0.00     0.173 A 
ATOM     70  C   UNL A   1      45.608  31.484  26.607  1.00  0.00     0.173 A 
ATOM     71  F   UNL A   1      49.133  30.767  27.100  1.00  0.00    -0.203 F 
ATOM     72  C   UNL A   1      48.030  32.796  26.748  1.00  0.00     0.198 A 
ATOM     73  C   UNL A   1      45.671  32.866  26.433  1.00  0.00     0.198 A 
ATOM     74  F   UNL A   1      44.371  30.978  26.638  1.00  0.00    -0.203 F 
ATOM     75  F   UNL A   1      49.198  33.432  26.910  1.00  0.00    -0.200 F 
ATOM     76  C   UNL A   1      46.876  33.527  26.539  1.00  0.00     0.200 A 
ATOM     77  F   UNL A   1      44.539  33.559  26.248  1.00  0.00    -0.200 F 
ATOM     78  F   UNL A   1      46.916  34.864  26.490  1.00  0.00    -0.200 F 
ENDBRANCH  54  68
BRANCH  55  79
ATOM     79  C   UNL A   1      38.889  28.505  29.576  1.00  0.00     0.064 A 
ATOM     80  C   UNL A   1      38.109  28.708  30.728  1.00  0.00     0.173 A 
ATOM     81  C   UNL A   1      38.395  29.055  28.379  1.00  0.00     0.173 A 
ATOM     82  F   UNL A   1      38.525  28.244  31.915  1.00  0.00    -0.203 F 
ATOM     83  C   UNL A   1      36.934  29.465  30.693  1.00  0.00     0.198 A 
ATOM     84  C   UNL A   1      37.217  29.805  28.344  1.00  0.00     0.198 A 
ATOM     85  F   UNL A   1      39.097  28.968  27.240  1.00  0.00    -0.203 F 
ATOM     86  F   UNL A   1      36.261  29.706  31.827  1.00  0.00    -0.200 F 
ATOM     87  C   UNL A   1      36.498  30.026  29.505  1.00  0.00     0.200 A 
ATOM     88  F   UNL A   1      36.824  30.373  27.195  1.00  0.00    -0.200 F 
ATOM     89  F   UNL A   1      35.414  30.815  29.485  1.00  0.00    -0.200 F 
ENDBRANCH  55  79
BRANCH  67  90
ATOM     90  C   UNL A   1      44.433  27.313  32.314  1.00  0.00     0.064 A 
ATOM     91  C   UNL A   1      44.276  27.546  33.692  1.00  0.00     0.173 A 
ATOM     92  C   UNL A   1      44.328  25.988  31.872  1.00  0.00     0.173 A 
ATOM     93  F   UNL A   1      44.277  28.788  34.188  1.00  0.00    -0.203 F 
ATOM     94  C   UNL A   1      44.052  26.497  34.584  1.00  0.00     0.198 A 
ATOM     95  C   UNL A   1      44.068  24.946  32.758  1.00  0.00     0.198 A 
ATOM     96  F   UNL A   1      44.423  25.708  30.562  1.00  0.00    -0.203 F 
ATOM     97  F   UNL A   1      43.910  26.746  35.894  1.00  0.00    -0.200 F 
ATOM     98  C   UNL A   1      43.937  25.200  34.114  1.00  0.00     0.200 A 
ATOM     99  F   UNL A   1      43.910  23.700  32.293  1.00  0.00    -0.200 F 
ATOM    100  F   UNL A   1      43.672  24.197  34.963  1.00  0.00    -0.200 F 
ENDBRANCH  67  90
ENDBRANCH  41  42
ENDBRANCH  33  36
ENDBRANCH  31  32
ENDBRANCH  30  31
ENDBRANCH  29  30
ENDBRANCH   1  29
TORSDOF 16
ENDMDL
MODEL 3
REMARK VINA RESULT:     -11.9      3.123      5.638
REMARK SMILES Cn1c(=O)[nH]c(=O)c2c1nc(NC1CCCC1)n2CC(=O)NCCCCCCNC(=O)c1ccc(-c2c3nc(c(-c4c(F)c(F)c(F)c(F)c4F)c4ccc([nH]4)c(-c4c(F)c(F)c(F)c(F)c4F)c4nc(c(-c5c(F)c(F)c(F)c(F)c5F)c5ccc2[nH]5)C=C4)C=C3)cc1
REMARK SMILES IDX 25 1 24 2 23 3 22 4 20 5 21 6 19 8 18 9 1 10 2 11 3 12 9 13
REMARK SMILES IDX 4 14 5 15 8 16 10 17 6 18 11 20 7 21 12 22 13 24 14 25 17 26
REMARK SMILES IDX 15 27 16 28 26 29 27 30 28 31 29 32 30 33 31 35 32 36 33 37
REMARK SMILES IDX 94 38 34 39 93 40 35 41 36 42 37 43 87 44 38 45 92 46 86 47
REMARK SMILES IDX 88 48 39 49 91 50 85 51 84 52 40 54 72 55 52 56 71 57 53 58
REMARK SMILES IDX 56 59 70 60 89 61 54 62 55 63 69 65 90 66 57 67 41 68 42 69
REMARK SMILES IDX 50 70 43 71 44 72 48 73 51 74 45 75 46 76 49 77 47 78 73 79
REMARK SMILES IDX 74 80 82 81 75 82 76 83 80 84 83 85 77 86 78 87 81 88 79 89
REMARK SMILES IDX 58 90 59 91 67 92 60 93 61 94 65 95 68 96 62 97 63 98 66 99
REMARK SMILES IDX 64 100
REMARK H PARENT 22 7 5 19 12 23 29 34 88 53 56 64
REMARK Flexibility Score: inf
ROOT
ATOM      1  C   UNL A   1      35.601  22.975  23.833  1.00  0.00     0.002 C 
ENDROOT
BRANCH   1   2
ATOM      2  C   UNL A   1      34.669  22.582  24.986  1.00  0.00     0.021 C 
BRANCH   2   3
ATOM      3  C   UNL A   1      34.599  23.619  26.108  1.00  0.00     0.116 C 
BRANCH   3   4
ATOM      4  N   UNL A   1      33.227  23.948  26.442  1.00  0.00    -0.355 N 
ATOM      5  C   UNL A   1      32.563  25.127  26.270  1.00  0.00     0.240 C 
ATOM      6  O   UNL A   1      31.434  25.246  26.754  1.00  0.00    -0.273 OA
ATOM      7  H   UNL A   1      32.703  23.220  26.848  1.00  0.00     0.163 HD
BRANCH   5   8
ATOM      8  C   UNL A   1      33.188  26.257  25.477  1.00  0.00     0.226 C 
BRANCH   8   9
ATOM      9  N   UNL A   1      32.304  27.394  25.316  1.00  0.00    -0.295 N 
ATOM     10  C   UNL A   1      29.715  30.928  23.853  1.00  0.00     0.157 C 
ATOM     11  N   UNL A   1      30.285  29.631  23.551  1.00  0.00    -0.279 N 
ATOM     12  C   UNL A   1      30.160  29.114  22.269  1.00  0.00     0.329 A 
ATOM     13  C   UNL A   1      31.008  28.920  24.484  1.00  0.00     0.170 A 
ATOM     14  O   UNL A   1      29.596  29.703  21.346  1.00  0.00    -0.248 OA
ATOM     15  N   UNL A   1      30.729  27.880  22.029  1.00  0.00    -0.272 N 
ATOM     16  C   UNL A   1      31.592  27.725  24.189  1.00  0.00     0.154 A 
ATOM     17  N   UNL A   1      31.268  29.307  25.753  1.00  0.00    -0.194 NA
ATOM     18  C   UNL A   1      31.466  27.112  22.908  1.00  0.00     0.279 A 
ATOM     19  H   UNL A   1      30.593  27.503  21.129  1.00  0.00     0.175 HD
ATOM     20  C   UNL A   1      32.055  28.380  26.257  1.00  0.00     0.206 A 
ATOM     21  O   UNL A   1      31.974  26.058  22.574  1.00  0.00    -0.267 OA
BRANCH  20  22
ATOM     22  N   UNL A   1      32.599  28.349  27.491  1.00  0.00    -0.353 N 
ATOM     23  H   UNL A   1      32.240  27.709  28.149  1.00  0.00     0.163 HD
BRANCH  22  24
ATOM     24  C   UNL A   1      33.692  29.222  27.893  1.00  0.00     0.082 C 
ATOM     25  C   UNL A   1      35.034  28.899  27.243  1.00  0.00     0.025 C 
ATOM     26  C   UNL A   1      33.448  30.695  27.577  1.00  0.00     0.025 C 
ATOM     27  C   UNL A   1      35.844  30.173  27.439  1.00  0.00     0.002 C 
ATOM     28  C   UNL A   1      34.836  31.320  27.461  1.00  0.00     0.002 C 
ENDBRANCH  22  24
ENDBRANCH  20  22
ENDBRANCH   8   9
ENDBRANCH   5   8
ENDBRANCH   3   4
ENDBRANCH   2   3
ENDBRANCH   1   2
BRANCH   1  29
ATOM     29  C   UNL A   1      37.032  22.420  23.912  1.00  0.00     0.002 C 
BRANCH  29  30
ATOM     30  C   UNL A   1      37.454  21.790  25.248  1.00  0.00     0.021 C 
BRANCH  30  31
ATOM     31  C   UNL A   1      38.431  22.633  26.052  1.00  0.00     0.116 C 
BRANCH  31  32
ATOM     32  N   UNL A   1      39.801  22.123  25.986  1.00  0.00    -0.352 N 
ATOM     33  C   UNL A   1      40.988  22.797  26.200  1.00  0.00     0.251 C 
ATOM     34  H   UNL A   1      39.889  21.170  25.756  1.00  0.00     0.163 HD
ATOM     35  O   UNL A   1      42.046  22.371  25.753  1.00  0.00    -0.269 OA
BRANCH  33  36
ATOM     36  C   UNL A   1      40.962  24.041  26.985  1.00  0.00     0.039 A 
ATOM     37  C   UNL A   1      41.694  24.184  28.165  1.00  0.00     0.014 A 
ATOM     38  C   UNL A   1      40.191  25.090  26.498  1.00  0.00     0.014 A 
ATOM     39  C   UNL A   1      41.695  25.422  28.805  1.00  0.00     0.010 A 
ATOM     40  C   UNL A   1      40.354  26.348  27.006  1.00  0.00     0.010 A 
ATOM     41  C   UNL A   1      41.033  26.505  28.204  1.00  0.00    -0.014 A 
BRANCH  41  42
ATOM     42  C   UNL A   1      41.085  27.840  28.781  1.00  0.00     0.031 A 
ATOM     43  C   UNL A   1      42.237  28.664  28.340  1.00  0.00     0.074 A 
ATOM     44  C   UNL A   1      40.071  28.366  29.504  1.00  0.00     0.049 A 
ATOM     45  N   UNL A   1      43.242  29.051  29.052  1.00  0.00    -0.248 NA
ATOM     46  C   UNL A   1      42.358  28.985  26.909  1.00  0.00     0.031 C 
ATOM     47  C   UNL A   1      38.738  27.805  29.762  1.00  0.00     0.029 A 
ATOM     48  N   UNL A   1      39.997  29.585  30.099  1.00  0.00    -0.354 N 
ATOM     49  C   UNL A   1      44.037  29.824  28.209  1.00  0.00     0.074 A 
ATOM     50  C   UNL A   1      43.541  29.604  26.876  1.00  0.00     0.031 C 
ATOM     51  C   UNL A   1      37.928  28.763  30.262  1.00  0.00     0.029 A 
ATOM     52  C   UNL A   1      38.728  29.941  30.534  1.00  0.00     0.049 A 
ATOM     53  H   UNL A   1      40.782  30.171  30.213  1.00  0.00     0.167 HD
ATOM     54  C   UNL A   1      44.885  30.759  28.722  1.00  0.00     0.037 A 
ATOM     55  C   UNL A   1      38.364  31.129  31.073  1.00  0.00     0.037 A 
ATOM     56  C   UNL A   1      45.094  30.539  30.133  1.00  0.00     0.049 A 
ATOM     57  C   UNL A   1      39.603  31.767  31.577  1.00  0.00     0.074 A 
ATOM     58  C   UNL A   1      45.634  29.520  30.891  1.00  0.00     0.029 A 
ATOM     59  N   UNL A   1      44.364  31.307  31.005  1.00  0.00    -0.354 N 
ATOM     60  N   UNL A   1      40.303  31.309  32.578  1.00  0.00    -0.248 NA
ATOM     61  C   UNL A   1      40.304  32.679  30.688  1.00  0.00     0.031 C 
ATOM     62  C   UNL A   1      44.828  29.465  32.068  1.00  0.00     0.029 A 
ATOM     63  C   UNL A   1      43.884  30.490  31.992  1.00  0.00     0.049 A 
ATOM     64  H   UNL A   1      44.213  32.278  30.934  1.00  0.00     0.167 HD
ATOM     65  C   UNL A   1      41.622  31.517  32.207  1.00  0.00     0.074 A 
ATOM     66  C   UNL A   1      41.558  32.459  31.092  1.00  0.00     0.031 C 
ATOM     67  C   UNL A   1      42.612  30.688  32.651  1.00  0.00     0.037 A 
BRANCH  54  68
ATOM     68  C   UNL A   1      45.217  32.081  28.065  1.00  0.00     0.064 A 
ATOM     69  C   UNL A   1      44.176  33.008  27.841  1.00  0.00     0.173 A 
ATOM     70  C   UNL A   1      46.421  32.352  27.383  1.00  0.00     0.173 A 
ATOM     71  F   UNL A   1      42.980  32.852  28.428  1.00  0.00    -0.203 F 
ATOM     72  C   UNL A   1      44.304  34.061  26.930  1.00  0.00     0.198 A 
ATOM     73  C   UNL A   1      46.563  33.436  26.516  1.00  0.00     0.198 A 
ATOM     74  F   UNL A   1      47.472  31.528  27.429  1.00  0.00    -0.203 F 
ATOM     75  F   UNL A   1      43.243  34.829  26.649  1.00  0.00    -0.200 F 
ATOM     76  C   UNL A   1      45.495  34.269  26.262  1.00  0.00     0.200 A 
ATOM     77  F   UNL A   1      47.722  33.611  25.865  1.00  0.00    -0.200 F 
ATOM     78  F   UNL A   1      45.601  35.235  25.341  1.00  0.00    -0.200 F 
ENDBRANCH  54  68
BRANCH  55  79
ATOM     79  C   UNL A   1      37.097  31.879  30.912  1.00  0.00     0.064 A 
ATOM     80  C   UNL A   1      36.172  31.953  31.968  1.00  0.00     0.173 A 
ATOM     81  C   UNL A   1      36.910  32.785  29.851  1.00  0.00     0.173 A 
ATOM     82  F   UNL A   1      36.298  31.147  33.032  1.00  0.00    -0.203 F 
ATOM     83  C   UNL A   1      35.156  32.914  31.987  1.00  0.00     0.198 A 
ATOM     84  C   UNL A   1      35.891  33.740  29.868  1.00  0.00     0.198 A 
ATOM     85  F   UNL A   1      37.775  32.834  28.827  1.00  0.00    -0.203 F 
ATOM     86  F   UNL A   1      34.345  33.007  33.050  1.00  0.00    -0.200 F 
ATOM     87  C   UNL A   1      35.027  33.817  30.945  1.00  0.00     0.200 A 
ATOM     88  F   UNL A   1      35.799  34.631  28.871  1.00  0.00    -0.200 F 
ATOM     89  F   UNL A   1      34.103  34.787  30.999  1.00  0.00    -0.200 F 
ENDBRANCH  55  79
BRANCH  67  90
ATOM     90  C   UNL A   1      42.282  29.741  33.775  1.00  0.00     0.064 A 
ATOM     91  C   UNL A   1      41.775  28.442  33.593  1.00  0.00     0.173 A 
ATOM     92  C   UNL A   1      42.641  30.114  35.076  1.00  0.00     0.173 A 
ATOM     93  F   UNL A   1      41.488  27.976  32.373  1.00  0.00    -0.203 F 
ATOM     94  C   UNL A   1      41.611  27.572  34.671  1.00  0.00     0.198 A 
ATOM     95  C   UNL A   1      42.512  29.231  36.144  1.00  0.00     0.198 A 
ATOM     96  F   UNL A   1      43.174  31.325  35.305  1.00  0.00    -0.203 F 
ATOM     97  F   UNL A   1      41.121  26.339  34.471  1.00  0.00    -0.200 F 
ATOM     98  C   UNL A   1      41.991  27.963  35.943  1.00  0.00     0.200 A 
ATOM     99  F   UNL A   1      42.924  29.598  37.365  1.00  0.00    -0.200 F 
ATOM    100  F   UNL A   1      41.881  27.110  36.971  1.00  0.00    -0.200 F 
ENDBRANCH  67  90
ENDBRANCH  41  42
ENDBRANCH  33  36
ENDBRANCH  31  32
ENDBRANCH  30  31
ENDBRANCH  29  30
ENDBRANCH   1  29
TORSDOF 16
ENDMDL
