MODEL 1
REMARK VINA RESULT:     -11.3      0.000      0.000
REMARK SMILES CSCc1ccc(C(=O)N[C@@H](Cc2cnc[nH]2)C(=O)NCCCCCCNC(=O)c2ccc(-c3c4nc(c(-c5c(F)c(F)c(F)c(F)c5F)c5ccc([nH]5)c(-c5c(F)c(F)c(F)c(F)c5F)c5nc(c(-c6c(F)c(F)c(F)c(F)c6F)c6ccc3[nH]6)C=C5)C=C4)cc2)o1
REMARK SMILES IDX 22 1 21 2 20 3 18 4 19 5 11 7 10 8 8 9 9 10 7 12 4 13 5 14
REMARK SMILES IDX 93 15 6 16 3 17 2 18 1 19 12 20 13 21 14 22 17 23 15 24
REMARK SMILES IDX 16 25 23 27 24 28 25 29 26 30 27 31 28 32 29 34 30 35 31 36
REMARK SMILES IDX 92 37 32 38 91 39 33 40 34 41 35 42 85 43 36 44 90 45 84 46
REMARK SMILES IDX 86 47 37 48 89 49 83 50 82 51 38 53 70 54 50 55 69 56 51 57
REMARK SMILES IDX 54 58 68 59 87 60 52 61 53 62 67 64 88 65 55 66 39 67 40 68
REMARK SMILES IDX 48 69 41 70 42 71 46 72 49 73 43 74 44 75 47 76 45 77 71 78
REMARK SMILES IDX 72 79 80 80 73 81 74 82 78 83 81 84 75 85 76 86 79 87 77 88
REMARK SMILES IDX 56 89 57 90 65 91 58 92 59 93 63 94 66 95 60 96 61 97 64 98
REMARK SMILES IDX 62 99
REMARK H PARENT 20 6 10 11 17 26 27 33 86 52 54 63
REMARK Flexibility Score: inf
ROOT
ATOM      1  C   UNL A   1      32.858  28.854  27.186  1.00  0.00     0.021 C 
ENDROOT
BRANCH   1   2
ATOM      2  C   UNL A   1      32.600  27.486  26.568  1.00  0.00     0.116 C 
BRANCH   2   3
ATOM      3  N   UNL A   1      31.222  27.055  26.671  1.00  0.00    -0.354 N 
ATOM      4  C   UNL A   1      30.590  25.991  26.110  1.00  0.00     0.242 C 
ATOM      5  O   UNL A   1      29.584  25.578  26.703  1.00  0.00    -0.273 OA
ATOM      6  H   UNL A   1      30.653  27.623  27.239  1.00  0.00     0.163 HD
BRANCH   4   7
ATOM      7  C   UNL A   1      31.123  25.204  24.891  1.00  0.00     0.177 C 
BRANCH   7   8
ATOM      8  N   UNL A   1      31.036  23.750  24.977  1.00  0.00    -0.337 N 
ATOM      9  C   UNL A   1      32.000  22.769  24.923  1.00  0.00     0.287 C 
ATOM     10  O   UNL A   1      31.613  21.655  25.294  1.00  0.00    -0.266 OA
ATOM     11  H   UNL A   1      30.120  23.408  25.097  1.00  0.00     0.164 HD
BRANCH   9  12
ATOM     12  C   UNL A   1      33.350  22.998  24.429  1.00  0.00     0.191 A 
ATOM     13  C   UNL A   1      35.535  23.247  24.779  1.00  0.00     0.114 A 
ATOM     14  C   UNL A   1      35.364  23.229  23.416  1.00  0.00     0.047 A 
ATOM     15  O   UNL A   1      34.325  23.148  25.395  1.00  0.00    -0.455 OA
ATOM     16  C   UNL A   1      33.976  23.044  23.193  1.00  0.00     0.056 A 
BRANCH  13  17
ATOM     17  C   UNL A   1      36.733  23.341  25.649  1.00  0.00     0.144 C 
BRANCH  17  18
ATOM     18  S   UNL A   1      37.868  21.937  25.403  1.00  0.00    -0.157 SA
ATOM     19  C   UNL A   1      36.646  20.628  25.121  1.00  0.00     0.085 C 
ENDBRANCH  17  18
ENDBRANCH  13  17
ENDBRANCH   9  12
ENDBRANCH   7   8
BRANCH   7  20
ATOM     20  C   UNL A   1      30.665  25.762  23.532  1.00  0.00     0.090 C 
BRANCH  20  21
ATOM     21  C   UNL A   1      31.717  25.907  22.485  1.00  0.00     0.037 A 
ATOM     22  C   UNL A   1      32.889  26.631  22.429  1.00  0.00     0.134 A 
ATOM     23  N   UNL A   1      31.619  25.312  21.247  1.00  0.00    -0.348 N 
ATOM     24  N   UNL A   1      33.531  26.426  21.234  1.00  0.00    -0.245 NA
ATOM     25  C   UNL A   1      32.735  25.648  20.537  1.00  0.00     0.196 A 
ATOM     26  H   UNL A   1      30.878  24.746  20.932  1.00  0.00     0.167 HD
ENDBRANCH  20  21
ENDBRANCH   7  20
ENDBRANCH   4   7
ENDBRANCH   2   3
ENDBRANCH   1   2
BRANCH   1  27
ATOM     27  C   UNL A   1      32.739  30.037  26.219  1.00  0.00     0.002 C 
BRANCH  27  28
ATOM     28  C   UNL A   1      31.360  30.699  26.119  1.00  0.00     0.002 C 
BRANCH  28  29
ATOM     29  C   UNL A   1      31.300  32.193  26.450  1.00  0.00     0.021 C 
BRANCH  29  30
ATOM     30  C   UNL A   1      32.560  32.785  27.073  1.00  0.00     0.116 C 
BRANCH  30  31
ATOM     31  N   UNL A   1      32.347  34.113  27.616  1.00  0.00    -0.352 N 
ATOM     32  C   UNL A   1      33.021  34.783  28.604  1.00  0.00     0.251 C 
ATOM     33  H   UNL A   1      31.601  34.612  27.211  1.00  0.00     0.163 HD
ATOM     34  O   UNL A   1      32.587  35.858  29.007  1.00  0.00    -0.269 OA
BRANCH  32  35
ATOM     35  C   UNL A   1      34.248  34.216  29.209  1.00  0.00     0.039 A 
ATOM     36  C   UNL A   1      34.101  33.318  30.270  1.00  0.00     0.014 A 
ATOM     37  C   UNL A   1      35.528  34.582  28.782  1.00  0.00     0.014 A 
ATOM     38  C   UNL A   1      35.230  32.758  30.871  1.00  0.00     0.010 A 
ATOM     39  C   UNL A   1      36.653  33.964  29.331  1.00  0.00     0.010 A 
ATOM     40  C   UNL A   1      36.515  33.054  30.388  1.00  0.00    -0.014 A 
BRANCH  40  41
ATOM     41  C   UNL A   1      37.704  32.398  30.989  1.00  0.00     0.031 A 
ATOM     42  C   UNL A   1      38.182  32.772  32.364  1.00  0.00     0.074 A 
ATOM     43  C   UNL A   1      38.360  31.458  30.280  1.00  0.00     0.049 A 
ATOM     44  N   UNL A   1      39.152  32.250  33.072  1.00  0.00    -0.248 NA
ATOM     45  C   UNL A   1      37.496  33.893  33.024  1.00  0.00     0.031 C 
ATOM     46  C   UNL A   1      38.037  31.059  28.909  1.00  0.00     0.029 A 
ATOM     47  N   UNL A   1      39.425  30.661  30.616  1.00  0.00    -0.354 N 
ATOM     48  C   UNL A   1      39.193  32.978  34.254  1.00  0.00     0.074 A 
ATOM     49  C   UNL A   1      38.193  34.016  34.145  1.00  0.00     0.031 C 
ATOM     50  C   UNL A   1      38.855  30.064  28.537  1.00  0.00     0.029 A 
ATOM     51  C   UNL A   1      39.777  29.772  29.630  1.00  0.00     0.049 A 
ATOM     52  H   UNL A   1      39.892  30.721  31.480  1.00  0.00     0.167 HD
ATOM     53  C   UNL A   1      39.976  32.779  35.343  1.00  0.00     0.037 A 
ATOM     54  C   UNL A   1      40.727  28.819  29.615  1.00  0.00     0.037 A 
ATOM     55  C   UNL A   1      40.963  31.735  35.451  1.00  0.00     0.049 A 
ATOM     56  C   UNL A   1      41.568  28.607  30.843  1.00  0.00     0.074 A 
ATOM     57  C   UNL A   1      41.764  31.411  36.532  1.00  0.00     0.029 A 
ATOM     58  N   UNL A   1      41.288  30.848  34.435  1.00  0.00    -0.354 N 
ATOM     59  N   UNL A   1      41.534  29.239  31.991  1.00  0.00    -0.248 NA
ATOM     60  C   UNL A   1      42.570  27.534  30.777  1.00  0.00     0.031 C 
ATOM     61  C   UNL A   1      42.610  30.362  36.153  1.00  0.00     0.029 A 
ATOM     62  C   UNL A   1      42.297  29.993  34.855  1.00  0.00     0.049 A 
ATOM     63  H   UNL A   1      40.866  30.828  33.545  1.00  0.00     0.167 HD
ATOM     64  C   UNL A   1      42.493  28.632  32.790  1.00  0.00     0.074 A 
ATOM     65  C   UNL A   1      43.070  27.560  32.005  1.00  0.00     0.031 C 
ATOM     66  C   UNL A   1      42.867  28.937  34.057  1.00  0.00     0.037 A 
BRANCH  53  67
ATOM     67  C   UNL A   1      39.794  33.709  36.509  1.00  0.00     0.064 A 
ATOM     68  C   UNL A   1      40.437  34.955  36.564  1.00  0.00     0.173 A 
ATOM     69  C   UNL A   1      38.936  33.370  37.566  1.00  0.00     0.173 A 
ATOM     70  F   UNL A   1      41.277  35.327  35.585  1.00  0.00    -0.203 F 
ATOM     71  C   UNL A   1      40.255  35.812  37.648  1.00  0.00     0.198 A 
ATOM     72  C   UNL A   1      38.730  34.242  38.633  1.00  0.00     0.198 A 
ATOM     73  F   UNL A   1      38.289  32.194  37.563  1.00  0.00    -0.203 F 
ATOM     74  F   UNL A   1      40.920  36.973  37.701  1.00  0.00    -0.200 F 
ATOM     75  C   UNL A   1      39.395  35.457  38.676  1.00  0.00     0.200 A 
ATOM     76  F   UNL A   1      37.889  33.904  39.619  1.00  0.00    -0.200 F 
ATOM     77  F   UNL A   1      39.214  36.286  39.715  1.00  0.00    -0.200 F 
ENDBRANCH  53  67
BRANCH  54  78
ATOM     78  C   UNL A   1      40.902  27.965  28.411  1.00  0.00     0.064 A 
ATOM     79  C   UNL A   1      41.723  28.373  27.350  1.00  0.00     0.173 A 
ATOM     80  C   UNL A   1      40.255  26.726  28.296  1.00  0.00     0.173 A 
ATOM     81  F   UNL A   1      42.348  29.558  27.405  1.00  0.00    -0.203 F 
ATOM     82  C   UNL A   1      41.870  27.586  26.210  1.00  0.00     0.198 A 
ATOM     83  C   UNL A   1      40.428  25.925  27.169  1.00  0.00     0.198 A 
ATOM     84  F   UNL A   1      39.465  26.286  29.286  1.00  0.00    -0.203 F 
ATOM     85  F   UNL A   1      42.622  28.022  25.191  1.00  0.00    -0.200 F 
ATOM     86  C   UNL A   1      41.229  26.359  26.123  1.00  0.00     0.200 A 
ATOM     87  F   UNL A   1      39.819  24.734  27.096  1.00  0.00    -0.200 F 
ATOM     88  F   UNL A   1      41.375  25.601  25.029  1.00  0.00    -0.200 F 
ENDBRANCH  54  78
BRANCH  66  89
ATOM     89  C   UNL A   1      43.941  28.084  34.672  1.00  0.00     0.064 A 
ATOM     90  C   UNL A   1      45.296  28.442  34.601  1.00  0.00     0.173 A 
ATOM     91  C   UNL A   1      43.611  26.896  35.340  1.00  0.00     0.173 A 
ATOM     92  F   UNL A   1      45.666  29.561  33.959  1.00  0.00    -0.203 F 
ATOM     93  C   UNL A   1      46.283  27.620  35.136  1.00  0.00     0.198 A 
ATOM     94  C   UNL A   1      44.598  26.094  35.907  1.00  0.00     0.198 A 
ATOM     95  F   UNL A   1      42.330  26.511  35.447  1.00  0.00    -0.203 F 
ATOM     96  F   UNL A   1      47.575  27.947  34.995  1.00  0.00    -0.200 F 
ATOM     97  C   UNL A   1      45.934  26.449  35.792  1.00  0.00     0.200 A 
ATOM     98  F   UNL A   1      44.257  24.970  36.554  1.00  0.00    -0.200 F 
ATOM     99  F   UNL A   1      46.886  25.657  36.305  1.00  0.00    -0.200 F 
ENDBRANCH  66  89
ENDBRANCH  40  41
ENDBRANCH  32  35
ENDBRANCH  30  31
ENDBRANCH  29  30
ENDBRANCH  28  29
ENDBRANCH  27  28
ENDBRANCH   1  27
TORSDOF 19
ENDMDL
MODEL 2
REMARK VINA RESULT:     -11.2      2.552      4.361
REMARK SMILES CSCc1ccc(C(=O)N[C@@H](Cc2cnc[nH]2)C(=O)NCCCCCCNC(=O)c2ccc(-c3c4nc(c(-c5c(F)c(F)c(F)c(F)c5F)c5ccc([nH]5)c(-c5c(F)c(F)c(F)c(F)c5F)c5nc(c(-c6c(F)c(F)c(F)c(F)c6F)c6ccc3[nH]6)C=C5)C=C4)cc2)o1
REMARK SMILES IDX 22 1 21 2 20 3 18 4 19 5 11 7 10 8 8 9 9 10 7 12 4 13 5 14
REMARK SMILES IDX 93 15 6 16 3 17 2 18 1 19 12 20 13 21 14 22 17 23 15 24
REMARK SMILES IDX 16 25 23 27 24 28 25 29 26 30 27 31 28 32 29 34 30 35 31 36
REMARK SMILES IDX 92 37 32 38 91 39 33 40 34 41 35 42 85 43 36 44 90 45 84 46
REMARK SMILES IDX 86 47 37 48 89 49 83 50 82 51 38 53 70 54 50 55 69 56 51 57
REMARK SMILES IDX 54 58 68 59 87 60 52 61 53 62 67 64 88 65 55 66 39 67 40 68
REMARK SMILES IDX 48 69 41 70 42 71 46 72 49 73 43 74 44 75 47 76 45 77 71 78
REMARK SMILES IDX 72 79 80 80 73 81 74 82 78 83 81 84 75 85 76 86 79 87 77 88
REMARK SMILES IDX 56 89 57 90 65 91 58 92 59 93 63 94 66 95 60 96 61 97 64 98
REMARK SMILES IDX 62 99
REMARK H PARENT 20 6 10 11 17 26 27 33 86 52 54 63
REMARK Flexibility Score: inf
ROOT
ATOM      1  C   UNL A   1      34.779  24.556  25.882  1.00  0.00     0.021 C 
ENDROOT
BRANCH   1   2
ATOM      2  C   UNL A   1      35.722  23.698  25.050  1.00  0.00     0.116 C 
BRANCH   2   3
ATOM      3  N   UNL A   1      35.701  22.296  25.410  1.00  0.00    -0.354 N 
ATOM      4  C   UNL A   1      34.800  21.324  25.108  1.00  0.00     0.242 C 
ATOM      5  O   UNL A   1      35.226  20.161  25.120  1.00  0.00    -0.273 OA
ATOM      6  H   UNL A   1      36.460  21.999  25.963  1.00  0.00     0.163 HD
BRANCH   4   7
ATOM      7  C   UNL A   1      33.357  21.593  24.625  1.00  0.00     0.177 C 
BRANCH   7   8
ATOM      8  N   UNL A   1      33.190  21.816  23.192  1.00  0.00    -0.337 N 
ATOM      9  C   UNL A   1      32.675  22.877  22.483  1.00  0.00     0.287 C 
ATOM     10  O   UNL A   1      32.926  22.850  21.273  1.00  0.00    -0.266 OA
ATOM     11  H   UNL A   1      33.504  21.071  22.630  1.00  0.00     0.164 HD
BRANCH   9  12
ATOM     12  C   UNL A   1      31.862  23.924  23.085  1.00  0.00     0.191 A 
ATOM     13  C   UNL A   1      30.960  25.959  23.033  1.00  0.00     0.114 A 
ATOM     14  C   UNL A   1      30.451  25.343  24.151  1.00  0.00     0.047 A 
ATOM     15  O   UNL A   1      31.838  25.128  22.409  1.00  0.00    -0.455 OA
ATOM     16  C   UNL A   1      31.005  24.037  24.169  1.00  0.00     0.056 A 
BRANCH  13  17
ATOM     17  C   UNL A   1      30.731  27.290  22.417  1.00  0.00     0.144 C 
BRANCH  17  18
ATOM     18  S   UNL A   1      29.281  28.132  23.132  1.00  0.00    -0.157 SA
ATOM     19  C   UNL A   1      30.041  29.734  23.511  1.00  0.00     0.085 C 
ENDBRANCH  17  18
ENDBRANCH  13  17
ENDBRANCH   9  12
ENDBRANCH   7   8
BRANCH   7  20
ATOM     20  C   UNL A   1      32.305  20.640  25.219  1.00  0.00     0.090 C 
BRANCH  20  21
ATOM     21  C   UNL A   1      32.570  19.181  25.069  1.00  0.00     0.037 A 
ATOM     22  C   UNL A   1      32.525  18.327  23.987  1.00  0.00     0.134 A 
ATOM     23  N   UNL A   1      32.873  18.367  26.138  1.00  0.00    -0.348 N 
ATOM     24  N   UNL A   1      32.867  17.053  24.359  1.00  0.00    -0.245 NA
ATOM     25  C   UNL A   1      33.049  17.102  25.658  1.00  0.00     0.196 A 
ATOM     26  H   UNL A   1      32.949  18.648  27.079  1.00  0.00     0.167 HD
ENDBRANCH  20  21
ENDBRANCH   7  20
ENDBRANCH   4   7
ENDBRANCH   2   3
ENDBRANCH   1   2
BRANCH   1  27
ATOM     27  C   UNL A   1      34.237  25.801  25.174  1.00  0.00     0.002 C 
BRANCH  27  28
ATOM     28  C   UNL A   1      33.508  26.823  26.054  1.00  0.00     0.002 C 
BRANCH  28  29
ATOM     29  C   UNL A   1      32.829  27.985  25.324  1.00  0.00     0.021 C 
BRANCH  29  30
ATOM     30  C   UNL A   1      33.661  29.255  25.182  1.00  0.00     0.116 C 
BRANCH  30  31
ATOM     31  N   UNL A   1      33.001  30.423  25.733  1.00  0.00    -0.352 N 
ATOM     32  C   UNL A   1      33.311  31.176  26.836  1.00  0.00     0.251 C 
ATOM     33  H   UNL A   1      32.205  30.723  25.237  1.00  0.00     0.163 HD
ATOM     34  O   UNL A   1      32.533  32.051  27.207  1.00  0.00    -0.269 OA
BRANCH  32  35
ATOM     35  C   UNL A   1      34.554  30.930  27.602  1.00  0.00     0.039 A 
ATOM     36  C   UNL A   1      34.712  29.683  28.213  1.00  0.00     0.014 A 
ATOM     37  C   UNL A   1      35.538  31.912  27.761  1.00  0.00     0.014 A 
ATOM     38  C   UNL A   1      35.869  29.408  28.945  1.00  0.00     0.010 A 
ATOM     39  C   UNL A   1      36.727  31.610  28.427  1.00  0.00     0.010 A 
ATOM     40  C   UNL A   1      36.899  30.359  29.035  1.00  0.00    -0.014 A 
BRANCH  40  41
ATOM     41  C   UNL A   1      38.155  30.028  29.756  1.00  0.00     0.031 A 
ATOM     42  C   UNL A   1      38.408  30.544  31.144  1.00  0.00     0.074 A 
ATOM     43  C   UNL A   1      39.076  29.257  29.145  1.00  0.00     0.049 A 
ATOM     44  N   UNL A   1      39.411  30.294  31.949  1.00  0.00    -0.248 NA
ATOM     45  C   UNL A   1      37.420  31.483  31.696  1.00  0.00     0.031 C 
ATOM     46  C   UNL A   1      38.977  28.753  27.774  1.00  0.00     0.029 A 
ATOM     47  N   UNL A   1      40.267  28.752  29.599  1.00  0.00    -0.354 N 
ATOM     48  C   UNL A   1      39.174  31.042  33.095  1.00  0.00     0.074 A 
ATOM     49  C   UNL A   1      37.967  31.803  32.860  1.00  0.00     0.031 C 
ATOM     50  C   UNL A   1      40.038  27.976  27.513  1.00  0.00     0.029 A 
ATOM     51  C   UNL A   1      40.906  27.948  28.687  1.00  0.00     0.049 A 
ATOM     52  H   UNL A   1      40.631  28.947  30.493  1.00  0.00     0.167 HD
ATOM     53  C   UNL A   1      39.885  31.070  34.249  1.00  0.00     0.037 A 
ATOM     54  C   UNL A   1      42.054  27.254  28.791  1.00  0.00     0.037 A 
ATOM     55  C   UNL A   1      41.081  30.300  34.482  1.00  0.00     0.049 A 
ATOM     56  C   UNL A   1      42.813  27.287  30.088  1.00  0.00     0.074 A 
ATOM     57  C   UNL A   1      41.840  30.211  35.636  1.00  0.00     0.029 A 
ATOM     58  N   UNL A   1      41.695  29.491  33.537  1.00  0.00    -0.354 N 
ATOM     59  N   UNL A   1      42.530  27.924  31.199  1.00  0.00    -0.248 NA
ATOM     60  C   UNL A   1      44.045  26.489  30.151  1.00  0.00     0.031 C 
ATOM     61  C   UNL A   1      42.943  29.389  35.373  1.00  0.00     0.029 A 
ATOM     62  C   UNL A   1      42.840  28.919  34.074  1.00  0.00     0.049 A 
ATOM     63  H   UNL A   1      41.369  29.345  32.620  1.00  0.00     0.167 HD
ATOM     64  C   UNL A   1      43.534  27.590  32.097  1.00  0.00     0.074 A 
ATOM     65  C   UNL A   1      44.416  26.670  31.410  1.00  0.00     0.031 C 
ATOM     66  C   UNL A   1      43.713  28.012  33.373  1.00  0.00     0.037 A 
BRANCH  53  67
ATOM     67  C   UNL A   1      39.385  31.959  35.351  1.00  0.00     0.064 A 
ATOM     68  C   UNL A   1      38.528  31.479  36.354  1.00  0.00     0.173 A 
ATOM     69  C   UNL A   1      39.795  33.298  35.430  1.00  0.00     0.173 A 
ATOM     70  F   UNL A   1      38.096  30.208  36.322  1.00  0.00    -0.203 F 
ATOM     71  C   UNL A   1      38.076  32.312  37.374  1.00  0.00     0.198 A 
ATOM     72  C   UNL A   1      39.367  34.122  36.470  1.00  0.00     0.198 A 
ATOM     73  F   UNL A   1      40.619  33.810  34.503  1.00  0.00    -0.203 F 
ATOM     74  F   UNL A   1      37.218  31.843  38.290  1.00  0.00    -0.200 F 
ATOM     75  C   UNL A   1      38.502  33.630  37.435  1.00  0.00     0.200 A 
ATOM     76  F   UNL A   1      39.792  35.391  36.536  1.00  0.00    -0.200 F 
ATOM     77  F   UNL A   1      38.073  34.429  38.422  1.00  0.00    -0.200 F 
ENDBRANCH  53  67
BRANCH  54  78
ATOM     78  C   UNL A   1      42.532  26.435  27.645  1.00  0.00     0.064 A 
ATOM     79  C   UNL A   1      43.503  26.928  26.762  1.00  0.00     0.173 A 
ATOM     80  C   UNL A   1      42.031  25.147  27.412  1.00  0.00     0.173 A 
ATOM     81  F   UNL A   1      44.001  28.161  26.933  1.00  0.00    -0.203 F 
ATOM     82  C   UNL A   1      43.936  26.172  25.674  1.00  0.00     0.198 A 
ATOM     83  C   UNL A   1      42.487  24.380  26.342  1.00  0.00     0.198 A 
ATOM     84  F   UNL A   1      41.107  24.627  28.232  1.00  0.00    -0.203 F 
ATOM     85  F   UNL A   1      44.830  26.686  24.818  1.00  0.00    -0.200 F 
ATOM     86  C   UNL A   1      43.433  24.896  25.469  1.00  0.00     0.200 A 
ATOM     87  F   UNL A   1      42.010  23.142  26.156  1.00  0.00    -0.200 F 
ATOM     88  F   UNL A   1      43.853  24.168  24.426  1.00  0.00    -0.200 F 
ENDBRANCH  54  78
BRANCH  66  89
ATOM     89  C   UNL A   1      44.903  27.463  34.108  1.00  0.00     0.064 A 
ATOM     90  C   UNL A   1      44.830  26.267  34.839  1.00  0.00     0.173 A 
ATOM     91  C   UNL A   1      46.132  28.141  34.081  1.00  0.00     0.173 A 
ATOM     92  F   UNL A   1      43.674  25.589  34.910  1.00  0.00    -0.203 F 
ATOM     93  C   UNL A   1      45.929  25.794  35.551  1.00  0.00     0.198 A 
ATOM     94  C   UNL A   1      47.239  27.646  34.765  1.00  0.00     0.198 A 
ATOM     95  F   UNL A   1      46.260  29.283  33.390  1.00  0.00    -0.203 F 
ATOM     96  F   UNL A   1      45.815  24.688  36.298  1.00  0.00    -0.200 F 
ATOM     97  C   UNL A   1      47.133  26.481  35.510  1.00  0.00     0.200 A 
ATOM     98  F   UNL A   1      48.406  28.303  34.712  1.00  0.00    -0.200 F 
ATOM     99  F   UNL A   1      48.189  26.026  36.199  1.00  0.00    -0.200 F 
ENDBRANCH  66  89
ENDBRANCH  40  41
ENDBRANCH  32  35
ENDBRANCH  30  31
ENDBRANCH  29  30
ENDBRANCH  28  29
ENDBRANCH  27  28
ENDBRANCH   1  27
TORSDOF 19
ENDMDL
MODEL 3
REMARK VINA RESULT:     -11.2      5.459      9.889
REMARK SMILES CSCc1ccc(C(=O)N[C@@H](Cc2cnc[nH]2)C(=O)NCCCCCCNC(=O)c2ccc(-c3c4nc(c(-c5c(F)c(F)c(F)c(F)c5F)c5ccc([nH]5)c(-c5c(F)c(F)c(F)c(F)c5F)c5nc(c(-c6c(F)c(F)c(F)c(F)c6F)c6ccc3[nH]6)C=C5)C=C4)cc2)o1
REMARK SMILES IDX 22 1 21 2 20 3 18 4 19 5 11 7 10 8 8 9 9 10 7 12 4 13 5 14
REMARK SMILES IDX 93 15 6 16 3 17 2 18 1 19 12 20 13 21 14 22 17 23 15 24
REMARK SMILES IDX 16 25 23 27 24 28 25 29 26 30 27 31 28 32 29 34 30 35 31 36
REMARK SMILES IDX 92 37 32 38 91 39 33 40 34 41 35 42 85 43 36 44 90 45 84 46
REMARK SMILES IDX 86 47 37 48 89 49 83 50 82 51 38 53 70 54 50 55 69 56 51 57
REMARK SMILES IDX 54 58 68 59 87 60 52 61 53 62 67 64 88 65 55 66 39 67 40 68
REMARK SMILES IDX 48 69 41 70 42 71 46 72 49 73 43 74 44 75 47 76 45 77 71 78
REMARK SMILES IDX 72 79 80 80 73 81 74 82 78 83 81 84 75 85 76 86 79 87 77 88
REMARK SMILES IDX 56 89 57 90 65 91 58 92 59 93 63 94 66 95 60 96 61 97 64 98
REMARK SMILES IDX 62 99
REMARK H PARENT 20 6 10 11 17 26 27 33 86 52 54 63
REMARK Flexibility Score: inf
ROOT
ATOM      1  C   UNL A   1      36.976  22.550  23.902  1.00  0.00     0.021 C 
ENDROOT
BRANCH   1   2
ATOM      2  C   UNL A   1      35.612  23.186  23.671  1.00  0.00     0.116 C 
BRANCH   2   3
ATOM      3  N   UNL A   1      34.516  22.241  23.721  1.00  0.00    -0.354 N 
ATOM      4  C   UNL A   1      33.233  22.360  23.292  1.00  0.00     0.242 C 
ATOM      5  O   UNL A   1      32.648  21.304  23.016  1.00  0.00    -0.273 OA
ATOM      6  H   UNL A   1      34.738  21.373  24.130  1.00  0.00     0.163 HD
BRANCH   4   7
ATOM      7  C   UNL A   1      32.533  23.707  23.001  1.00  0.00     0.177 C 
BRANCH   7   8
ATOM      8  N   UNL A   1      32.667  24.221  21.641  1.00  0.00    -0.337 N 
ATOM      9  C   UNL A   1      32.746  25.503  21.150  1.00  0.00     0.287 C 
ATOM     10  O   UNL A   1      33.121  25.575  19.974  1.00  0.00    -0.266 OA
ATOM     11  H   UNL A   1      32.709  23.521  20.949  1.00  0.00     0.164 HD
BRANCH   9  12
ATOM     12  C   UNL A   1      32.379  26.682  21.921  1.00  0.00     0.191 A 
ATOM     13  C   UNL A   1      30.843  28.074  22.735  1.00  0.00     0.114 A 
ATOM     14  C   UNL A   1      32.043  28.468  23.277  1.00  0.00     0.047 A 
ATOM     15  O   UNL A   1      31.042  27.027  21.890  1.00  0.00    -0.455 OA
ATOM     16  C   UNL A   1      33.017  27.564  22.779  1.00  0.00     0.056 A 
BRANCH  13  17
ATOM     17  C   UNL A   1      29.450  28.555  22.904  1.00  0.00     0.144 C 
BRANCH  17  18
ATOM     18  S   UNL A   1      29.145  30.100  21.987  1.00  0.00    -0.157 SA
ATOM     19  C   UNL A   1      27.993  30.893  23.141  1.00  0.00     0.085 C 
ENDBRANCH  17  18
ENDBRANCH  13  17
ENDBRANCH   9  12
ENDBRANCH   7   8
BRANCH   7  20
ATOM     20  C   UNL A   1      31.098  23.803  23.549  1.00  0.00     0.090 C 
BRANCH  20  21
ATOM     21  C   UNL A   1      30.884  24.737  24.692  1.00  0.00     0.037 A 
ATOM     22  C   UNL A   1      31.738  25.289  25.622  1.00  0.00     0.134 A 
ATOM     23  N   UNL A   1      29.635  25.184  25.061  1.00  0.00    -0.348 N 
ATOM     24  N   UNL A   1      31.056  26.110  26.483  1.00  0.00    -0.245 NA
ATOM     25  C   UNL A   1      29.793  26.011  26.136  1.00  0.00     0.196 A 
ATOM     26  H   UNL A   1      28.783  24.950  24.628  1.00  0.00     0.167 HD
ENDBRANCH  20  21
ENDBRANCH   7  20
ENDBRANCH   4   7
ENDBRANCH   2   3
ENDBRANCH   1   2
BRANCH   1  27
ATOM     27  C   UNL A   1      37.034  21.532  25.046  1.00  0.00     0.002 C 
BRANCH  27  28
ATOM     28  C   UNL A   1      36.935  20.055  24.650  1.00  0.00     0.002 C 
BRANCH  28  29
ATOM     29  C   UNL A   1      38.032  19.133  25.190  1.00  0.00     0.021 C 
BRANCH  29  30
ATOM     30  C   UNL A   1      39.305  19.826  25.666  1.00  0.00     0.116 C 
BRANCH  30  31
ATOM     31  N   UNL A   1      40.410  18.904  25.851  1.00  0.00    -0.352 N 
ATOM     32  C   UNL A   1      41.735  19.151  26.096  1.00  0.00     0.251 C 
ATOM     33  H   UNL A   1      40.169  17.951  25.791  1.00  0.00     0.163 HD
ATOM     34  O   UNL A   1      42.534  18.220  26.085  1.00  0.00    -0.269 OA
BRANCH  32  35
ATOM     35  C   UNL A   1      42.221  20.528  26.347  1.00  0.00     0.039 A 
ATOM     36  C   UNL A   1      42.549  21.318  25.243  1.00  0.00     0.014 A 
ATOM     37  C   UNL A   1      42.394  21.033  27.640  1.00  0.00     0.014 A 
ATOM     38  C   UNL A   1      43.011  22.622  25.433  1.00  0.00     0.010 A 
ATOM     39  C   UNL A   1      42.781  22.361  27.826  1.00  0.00     0.010 A 
ATOM     40  C   UNL A   1      43.103  23.165  26.725  1.00  0.00    -0.014 A 
BRANCH  40  41
ATOM     41  C   UNL A   1      43.527  24.577  26.909  1.00  0.00     0.031 A 
ATOM     42  C   UNL A   1      42.565  25.613  27.418  1.00  0.00     0.074 A 
ATOM     43  C   UNL A   1      44.794  24.924  26.607  1.00  0.00     0.049 A 
ATOM     44  N   UNL A   1      42.784  26.871  27.710  1.00  0.00    -0.248 NA
ATOM     45  C   UNL A   1      41.168  25.190  27.603  1.00  0.00     0.031 C 
ATOM     46  C   UNL A   1      45.800  24.025  26.039  1.00  0.00     0.029 A 
ATOM     47  N   UNL A   1      45.454  26.117  26.746  1.00  0.00    -0.354 N 
ATOM     48  C   UNL A   1      41.557  27.387  28.110  1.00  0.00     0.074 A 
ATOM     49  C   UNL A   1      40.586  26.325  27.966  1.00  0.00     0.031 C 
ATOM     50  C   UNL A   1      46.961  24.686  25.920  1.00  0.00     0.029 A 
ATOM     51  C   UNL A   1      46.776  26.060  26.376  1.00  0.00     0.049 A 
ATOM     52  H   UNL A   1      45.023  26.938  27.079  1.00  0.00     0.167 HD
ATOM     53  C   UNL A   1      41.274  28.626  28.582  1.00  0.00     0.037 A 
ATOM     54  C   UNL A   1      47.733  27.004  26.414  1.00  0.00     0.037 A 
ATOM     55  C   UNL A   1      42.247  29.676  28.735  1.00  0.00     0.049 A 
ATOM     56  C   UNL A   1      47.396  28.364  26.960  1.00  0.00     0.074 A 
ATOM     57  C   UNL A   1      42.075  30.945  29.259  1.00  0.00     0.029 A 
ATOM     58  N   UNL A   1      43.579  29.579  28.356  1.00  0.00    -0.354 N 
ATOM     59  N   UNL A   1      46.256  28.812  27.424  1.00  0.00    -0.248 NA
ATOM     60  C   UNL A   1      48.489  29.345  27.002  1.00  0.00     0.031 C 
ATOM     61  C   UNL A   1      43.289  31.634  29.150  1.00  0.00     0.029 A 
ATOM     62  C   UNL A   1      44.233  30.776  28.611  1.00  0.00     0.049 A 
ATOM     63  H   UNL A   1      43.998  28.780  27.963  1.00  0.00     0.167 HD
ATOM     64  C   UNL A   1      46.495  30.118  27.830  1.00  0.00     0.074 A 
ATOM     65  C   UNL A   1      47.898  30.378  27.586  1.00  0.00     0.031 C 
ATOM     66  C   UNL A   1      45.630  31.022  28.353  1.00  0.00     0.037 A 
BRANCH  53  67
ATOM     67  C   UNL A   1      39.851  28.912  28.971  1.00  0.00     0.064 A 
ATOM     68  C   UNL A   1      38.904  29.347  28.030  1.00  0.00     0.173 A 
ATOM     69  C   UNL A   1      39.417  28.713  30.290  1.00  0.00     0.173 A 
ATOM     70  F   UNL A   1      39.267  29.564  26.756  1.00  0.00    -0.203 F 
ATOM     71  C   UNL A   1      37.586  29.603  28.402  1.00  0.00     0.198 A 
ATOM     72  C   UNL A   1      38.091  28.939  30.653  1.00  0.00     0.198 A 
ATOM     73  F   UNL A   1      40.278  28.291  31.230  1.00  0.00    -0.203 F 
ATOM     74  F   UNL A   1      36.714  30.066  27.497  1.00  0.00    -0.200 F 
ATOM     75  C   UNL A   1      37.180  29.391  29.711  1.00  0.00     0.200 A 
ATOM     76  F   UNL A   1      37.696  28.719  31.913  1.00  0.00    -0.200 F 
ATOM     77  F   UNL A   1      35.909  29.629  30.066  1.00  0.00    -0.200 F 
ENDBRANCH  53  67
BRANCH  54  78
ATOM     78  C   UNL A   1      49.113  26.681  25.962  1.00  0.00     0.064 A 
ATOM     79  C   UNL A   1      50.024  26.048  26.819  1.00  0.00     0.173 A 
ATOM     80  C   UNL A   1      49.547  26.996  24.666  1.00  0.00     0.173 A 
ATOM     81  F   UNL A   1      49.661  25.743  28.074  1.00  0.00    -0.203 F 
ATOM     82  C   UNL A   1      51.324  25.765  26.406  1.00  0.00     0.198 A 
ATOM     83  C   UNL A   1      50.837  26.685  24.244  1.00  0.00     0.198 A 
ATOM     84  F   UNL A   1      48.711  27.595  23.805  1.00  0.00    -0.203 F 
ATOM     85  F   UNL A   1      52.188  25.204  27.261  1.00  0.00    -0.200 F 
ATOM     86  C   UNL A   1      51.727  26.077  25.116  1.00  0.00     0.200 A 
ATOM     87  F   UNL A   1      51.219  26.973  22.992  1.00  0.00    -0.200 F 
ATOM     88  F   UNL A   1      52.976  25.800  24.718  1.00  0.00    -0.200 F 
ENDBRANCH  54  78
BRANCH  66  89
ATOM     89  C   UNL A   1      46.190  32.370  28.708  1.00  0.00     0.064 A 
ATOM     90  C   UNL A   1      46.732  32.631  29.976  1.00  0.00     0.173 A 
ATOM     91  C   UNL A   1      46.186  33.413  27.769  1.00  0.00     0.173 A 
ATOM     92  F   UNL A   1      46.746  31.672  30.915  1.00  0.00    -0.203 F 
ATOM     93  C   UNL A   1      47.207  33.898  30.305  1.00  0.00     0.198 A 
ATOM     94  C   UNL A   1      46.695  34.669  28.090  1.00  0.00     0.198 A 
ATOM     95  F   UNL A   1      45.688  33.216  26.539  1.00  0.00    -0.203 F 
ATOM     96  F   UNL A   1      47.655  34.142  31.544  1.00  0.00    -0.200 F 
ATOM     97  C   UNL A   1      47.192  34.914  29.361  1.00  0.00     0.200 A 
ATOM     98  F   UNL A   1      46.693  35.645  27.172  1.00  0.00    -0.200 F 
ATOM     99  F   UNL A   1      47.647  36.134  29.681  1.00  0.00    -0.200 F 
ENDBRANCH  66  89
ENDBRANCH  40  41
ENDBRANCH  32  35
ENDBRANCH  30  31
ENDBRANCH  29  30
ENDBRANCH  28  29
ENDBRANCH  27  28
ENDBRANCH   1  27
TORSDOF 19
ENDMDL
