MODEL 1
REMARK VINA RESULT:      -9.8      0.000      0.000
REMARK SMILES CC(=O)NS(=O)(=O)c1cc(-c2ccn(C(F)F)c(=O)c2)ccc1C(=O)NCCCCCCNC(=O)c1ccc(-c2c3nc(c(-c4c(F)c(F)c(F)c(F)c4F)c4ccc([nH]4)c(-c4c(F)c(F)c(F)c(F)c4F)c4nc(c(-c5c(F)c(F)c(F)c(F)c5F)c5ccc2[nH]5)C=C4)C=C3)cc1
REMARK SMILES IDX 29 1 28 2 27 3 26 4 24 5 25 6 23 8 8 9 9 10 10 11 22 12
REMARK SMILES IDX 21 13 5 14 6 15 7 16 4 17 1 18 2 19 3 20 11 22 12 23 20 24
REMARK SMILES IDX 13 25 18 26 14 27 19 28 15 29 16 30 17 31 30 32 31 33 32 34
REMARK SMILES IDX 33 35 34 36 35 38 36 39 37 40 98 41 38 42 97 43 39 44 40 45
REMARK SMILES IDX 41 46 91 47 42 48 96 49 90 50 92 51 43 52 95 53 89 54 88 55
REMARK SMILES IDX 44 57 76 58 56 59 75 60 57 61 60 62 74 63 93 64 58 65 59 66
REMARK SMILES IDX 73 68 94 69 61 70 45 71 46 72 54 73 47 74 48 75 52 76 55 77
REMARK SMILES IDX 49 78 50 79 53 80 51 81 77 82 78 83 86 84 79 85 80 86 84 87
REMARK SMILES IDX 87 88 81 89 82 90 85 91 83 92 62 93 63 94 71 95 64 96 65 97
REMARK SMILES IDX 69 98 72 99 66 100 67 101 70 102 68 103
REMARK H PARENT 26 7 4 21 33 37 92 56 60 67
REMARK Flexibility Score: inf
ROOT
ATOM      1  C   UNL A   1      37.219  33.518  30.626  1.00  0.00     0.002 C 
ENDROOT
BRANCH   1   2
ATOM      2  C   UNL A   1      38.396  34.308  31.207  1.00  0.00     0.021 C 
BRANCH   2   3
ATOM      3  C   UNL A   1      38.357  34.489  32.727  1.00  0.00     0.116 C 
BRANCH   3   4
ATOM      4  N   UNL A   1      37.047  34.136  33.245  1.00  0.00    -0.352 N 
ATOM      5  C   UNL A   1      36.604  33.024  33.904  1.00  0.00     0.252 C 
ATOM      6  O   UNL A   1      35.433  32.957  34.272  1.00  0.00    -0.269 OA
ATOM      7  H   UNL A   1      36.355  34.819  33.094  1.00  0.00     0.163 HD
BRANCH   5   8
ATOM      8  C   UNL A   1      37.500  31.917  34.292  1.00  0.00     0.060 A 
ATOM      9  C   UNL A   1      38.277  31.878  35.453  1.00  0.00     0.101 A 
ATOM     10  C   UNL A   1      39.257  30.882  35.609  1.00  0.00     0.031 A 
ATOM     11  C   UNL A   1      39.515  29.966  34.581  1.00  0.00    -0.017 A 
ATOM     12  C   UNL A   1      37.721  30.953  33.292  1.00  0.00     0.016 A 
ATOM     13  C   UNL A   1      38.725  29.989  33.431  1.00  0.00     0.009 A 
BRANCH   9  14
ATOM     14  S   UNL A   1      38.151  33.122  36.697  1.00  0.00     0.264 S 
ATOM     15  O   UNL A   1      36.844  32.973  37.288  1.00  0.00    -0.201 OA
ATOM     16  O   UNL A   1      38.622  34.384  36.171  1.00  0.00    -0.201 OA
BRANCH  14  17
ATOM     17  N   UNL A   1      39.210  32.659  37.887  1.00  0.00    -0.249 N 
ATOM     18  C   UNL A   1      38.863  34.523  39.520  1.00  0.00     0.115 C 
ATOM     19  C   UNL A   1      39.300  33.121  39.206  1.00  0.00     0.230 C 
ATOM     20  O   UNL A   1      39.837  32.404  40.038  1.00  0.00    -0.274 OA
ATOM     21  H   UNL A   1      39.862  31.967  37.633  1.00  0.00     0.183 HD
ENDBRANCH  14  17
ENDBRANCH   9  14
BRANCH  11  22
ATOM     22  C   UNL A   1      40.729  29.133  34.654  1.00  0.00    -0.011 A 
ATOM     23  C   UNL A   1      41.236  28.443  33.482  1.00  0.00     0.027 A 
ATOM     24  C   UNL A   1      41.434  29.089  35.796  1.00  0.00     0.080 A 
ATOM     25  C   UNL A   1      42.414  27.813  33.520  1.00  0.00     0.095 A 
ATOM     26  C   UNL A   1      42.738  28.365  35.860  1.00  0.00     0.255 A 
ATOM     27  N   UNL A   1      43.166  27.780  34.678  1.00  0.00    -0.258 N 
ATOM     28  O   UNL A   1      43.347  28.356  36.925  1.00  0.00    -0.269 OA
BRANCH  27  29
ATOM     29  C   UNL A   1      44.454  27.132  34.693  1.00  0.00     0.451 C 
ATOM     30  F   UNL A   1      44.533  26.189  33.724  1.00  0.00    -0.185 F 
ATOM     31  F   UNL A   1      45.453  28.025  34.496  1.00  0.00    -0.185 F 
ENDBRANCH  27  29
ENDBRANCH  11  22
ENDBRANCH   5   8
ENDBRANCH   3   4
ENDBRANCH   2   3
ENDBRANCH   1   2
BRANCH   1  32
ATOM     32  C   UNL A   1      37.113  33.560  29.098  1.00  0.00     0.002 C 
BRANCH  32  33
ATOM     33  C   UNL A   1      35.697  33.482  28.505  1.00  0.00     0.021 C 
BRANCH  33  34
ATOM     34  C   UNL A   1      34.672  32.658  29.287  1.00  0.00     0.116 C 
BRANCH  34  35
ATOM     35  N   UNL A   1      34.049  31.625  28.481  1.00  0.00    -0.352 N 
ATOM     36  C   UNL A   1      34.595  30.466  27.989  1.00  0.00     0.251 C 
ATOM     37  H   UNL A   1      33.102  31.776  28.258  1.00  0.00     0.163 HD
ATOM     38  O   UNL A   1      33.947  29.754  27.226  1.00  0.00    -0.269 OA
BRANCH  36  39
ATOM     39  C   UNL A   1      35.978  30.074  28.343  1.00  0.00     0.039 A 
ATOM     40  C   UNL A   1      36.973  30.200  27.368  1.00  0.00     0.014 A 
ATOM     41  C   UNL A   1      36.288  29.529  29.593  1.00  0.00     0.014 A 
ATOM     42  C   UNL A   1      38.288  29.827  27.657  1.00  0.00     0.010 A 
ATOM     43  C   UNL A   1      37.605  29.163  29.887  1.00  0.00     0.010 A 
ATOM     44  C   UNL A   1      38.614  29.314  28.922  1.00  0.00    -0.014 A 
BRANCH  44  45
ATOM     45  C   UNL A   1      40.016  28.955  29.243  1.00  0.00     0.031 A 
ATOM     46  C   UNL A   1      40.869  29.869  30.072  1.00  0.00     0.074 A 
ATOM     47  C   UNL A   1      40.526  27.802  28.777  1.00  0.00     0.049 A 
ATOM     48  N   UNL A   1      42.125  29.733  30.419  1.00  0.00    -0.248 NA
ATOM     49  C   UNL A   1      40.233  31.096  30.571  1.00  0.00     0.031 C 
ATOM     50  C   UNL A   1      39.804  26.831  27.955  1.00  0.00     0.029 A 
ATOM     51  N   UNL A   1      41.774  27.253  28.928  1.00  0.00    -0.354 N 
ATOM     52  C   UNL A   1      42.436  30.863  31.159  1.00  0.00     0.074 A 
ATOM     53  C   UNL A   1      41.235  31.672  31.221  1.00  0.00     0.031 C 
ATOM     54  C   UNL A   1      40.621  25.801  27.678  1.00  0.00     0.029 A 
ATOM     55  C   UNL A   1      41.922  26.046  28.296  1.00  0.00     0.049 A 
ATOM     56  H   UNL A   1      42.494  27.685  29.441  1.00  0.00     0.167 HD
ATOM     57  C   UNL A   1      43.617  31.199  31.730  1.00  0.00     0.037 A 
ATOM     58  C   UNL A   1      42.988  25.228  28.223  1.00  0.00     0.037 A 
ATOM     59  C   UNL A   1      44.810  30.398  31.693  1.00  0.00     0.049 A 
ATOM     60  C   UNL A   1      44.269  25.599  28.908  1.00  0.00     0.074 A 
ATOM     61  C   UNL A   1      46.052  30.669  32.244  1.00  0.00     0.029 A 
ATOM     62  N   UNL A   1      44.908  29.161  31.077  1.00  0.00    -0.354 N 
ATOM     63  N   UNL A   1      44.553  26.676  29.596  1.00  0.00    -0.248 NA
ATOM     64  C   UNL A   1      45.378  24.639  28.805  1.00  0.00     0.031 C 
ATOM     65  C   UNL A   1      46.902  29.592  31.963  1.00  0.00     0.029 A 
ATOM     66  C   UNL A   1      46.187  28.653  31.238  1.00  0.00     0.049 A 
ATOM     67  H   UNL A   1      44.177  28.711  30.595  1.00  0.00     0.167 HD
ATOM     68  C   UNL A   1      45.868  26.529  30.006  1.00  0.00     0.074 A 
ATOM     69  C   UNL A   1      46.329  25.253  29.498  1.00  0.00     0.031 C 
ATOM     70  C   UNL A   1      46.628  27.381  30.733  1.00  0.00     0.037 A 
BRANCH  57  71
ATOM     71  C   UNL A   1      43.679  32.512  32.440  1.00  0.00     0.064 A 
ATOM     72  C   UNL A   1      43.965  33.695  31.746  1.00  0.00     0.173 A 
ATOM     73  C   UNL A   1      43.412  32.593  33.812  1.00  0.00     0.173 A 
ATOM     74  F   UNL A   1      44.233  33.658  30.432  1.00  0.00    -0.203 F 
ATOM     75  C   UNL A   1      43.986  34.919  32.406  1.00  0.00     0.198 A 
ATOM     76  C   UNL A   1      43.431  33.819  34.470  1.00  0.00     0.198 A 
ATOM     77  F   UNL A   1      43.138  31.483  34.513  1.00  0.00    -0.203 F 
ATOM     78  F   UNL A   1      44.270  36.041  31.730  1.00  0.00    -0.200 F 
ATOM     79  C   UNL A   1      43.717  34.981  33.767  1.00  0.00     0.200 A 
ATOM     80  F   UNL A   1      43.175  33.878  35.784  1.00  0.00    -0.200 F 
ATOM     81  F   UNL A   1      43.738  36.161  34.402  1.00  0.00    -0.200 F 
ENDBRANCH  57  71
BRANCH  58  82
ATOM     82  C   UNL A   1      42.879  23.961  27.467  1.00  0.00     0.064 A 
ATOM     83  C   UNL A   1      43.173  23.915  26.099  1.00  0.00     0.173 A 
ATOM     84  C   UNL A   1      42.496  22.775  28.105  1.00  0.00     0.173 A 
ATOM     85  F   UNL A   1      43.528  25.035  25.453  1.00  0.00    -0.203 F 
ATOM     86  C   UNL A   1      43.087  22.720  25.391  1.00  0.00     0.198 A 
ATOM     87  C   UNL A   1      42.414  21.580  27.397  1.00  0.00     0.198 A 
ATOM     88  F   UNL A   1      42.200  22.781  29.413  1.00  0.00    -0.203 F 
ATOM     89  F   UNL A   1      43.363  22.698  24.081  1.00  0.00    -0.200 F 
ATOM     90  C   UNL A   1      42.711  21.552  26.041  1.00  0.00     0.200 A 
ATOM     91  F   UNL A   1      42.049  20.454  28.024  1.00  0.00    -0.200 F 
ATOM     92  F   UNL A   1      42.627  20.403  25.358  1.00  0.00    -0.200 F 
ENDBRANCH  58  82
BRANCH  70  93
ATOM     93  C   UNL A   1      48.033  26.961  31.020  1.00  0.00     0.064 A 
ATOM     94  C   UNL A   1      48.334  26.193  32.153  1.00  0.00     0.173 A 
ATOM     95  C   UNL A   1      49.075  27.301  30.149  1.00  0.00     0.173 A 
ATOM     96  F   UNL A   1      47.366  25.858  33.019  1.00  0.00    -0.203 F 
ATOM     97  C   UNL A   1      49.639  25.783  32.407  1.00  0.00     0.198 A 
ATOM     98  C   UNL A   1      50.378  26.887  30.404  1.00  0.00     0.198 A 
ATOM     99  F   UNL A   1      48.829  28.043  29.059  1.00  0.00    -0.203 F 
ATOM    100  F   UNL A   1      49.912  25.061  33.501  1.00  0.00    -0.200 F 
ATOM    101  C   UNL A   1      50.660  26.129  31.532  1.00  0.00     0.200 A 
ATOM    102  F   UNL A   1      51.366  27.228  29.565  1.00  0.00    -0.200 F 
ATOM    103  F   UNL A   1      51.917  25.736  31.781  1.00  0.00    -0.200 F 
ENDBRANCH  70  93
ENDBRANCH  44  45
ENDBRANCH  36  39
ENDBRANCH  34  35
ENDBRANCH  33  34
ENDBRANCH  32  33
ENDBRANCH   1  32
TORSDOF 17
ENDMDL
MODEL 2
REMARK VINA RESULT:      -9.6      5.113     11.622
REMARK SMILES CC(=O)NS(=O)(=O)c1cc(-c2ccn(C(F)F)c(=O)c2)ccc1C(=O)NCCCCCCNC(=O)c1ccc(-c2c3nc(c(-c4c(F)c(F)c(F)c(F)c4F)c4ccc([nH]4)c(-c4c(F)c(F)c(F)c(F)c4F)c4nc(c(-c5c(F)c(F)c(F)c(F)c5F)c5ccc2[nH]5)C=C4)C=C3)cc1
REMARK SMILES IDX 29 1 28 2 27 3 26 4 24 5 25 6 23 8 8 9 9 10 10 11 22 12
REMARK SMILES IDX 21 13 5 14 6 15 7 16 4 17 1 18 2 19 3 20 11 22 12 23 20 24
REMARK SMILES IDX 13 25 18 26 14 27 19 28 15 29 16 30 17 31 30 32 31 33 32 34
REMARK SMILES IDX 33 35 34 36 35 38 36 39 37 40 98 41 38 42 97 43 39 44 40 45
REMARK SMILES IDX 41 46 91 47 42 48 96 49 90 50 92 51 43 52 95 53 89 54 88 55
REMARK SMILES IDX 44 57 76 58 56 59 75 60 57 61 60 62 74 63 93 64 58 65 59 66
REMARK SMILES IDX 73 68 94 69 61 70 45 71 46 72 54 73 47 74 48 75 52 76 55 77
REMARK SMILES IDX 49 78 50 79 53 80 51 81 77 82 78 83 86 84 79 85 80 86 84 87
REMARK SMILES IDX 87 88 81 89 82 90 85 91 83 92 62 93 63 94 71 95 64 96 65 97
REMARK SMILES IDX 69 98 72 99 66 100 67 101 70 102 68 103
REMARK H PARENT 26 7 4 21 33 37 92 56 60 67
REMARK Flexibility Score: inf
ROOT
ATOM      1  C   UNL A   1      32.966  30.027  27.247  1.00  0.00     0.002 C 
ENDROOT
BRANCH   1   2
ATOM      2  C   UNL A   1      33.852  29.140  26.366  1.00  0.00     0.021 C 
BRANCH   2   3
ATOM      3  C   UNL A   1      33.592  27.637  26.505  1.00  0.00     0.116 C 
BRANCH   3   4
ATOM      4  N   UNL A   1      32.195  27.340  26.245  1.00  0.00    -0.352 N 
ATOM      5  C   UNL A   1      31.582  26.215  25.770  1.00  0.00     0.252 C 
ATOM      6  O   UNL A   1      30.359  26.187  25.652  1.00  0.00    -0.269 OA
ATOM      7  H   UNL A   1      31.579  28.080  26.448  1.00  0.00     0.163 HD
BRANCH   5   8
ATOM      8  C   UNL A   1      32.318  24.969  25.477  1.00  0.00     0.060 A 
ATOM      9  C   UNL A   1      32.967  24.680  24.273  1.00  0.00     0.101 A 
ATOM     10  C   UNL A   1      33.441  23.380  24.025  1.00  0.00     0.031 A 
ATOM     11  C   UNL A   1      33.210  22.348  24.944  1.00  0.00    -0.017 A 
ATOM     12  C   UNL A   1      32.148  23.942  26.422  1.00  0.00     0.016 A 
ATOM     13  C   UNL A   1      32.583  22.640  26.157  1.00  0.00     0.009 A 
BRANCH   9  14
ATOM     14  S   UNL A   1      33.109  25.876  22.984  1.00  0.00     0.264 S 
ATOM     15  O   UNL A   1      33.387  25.138  21.777  1.00  0.00    -0.201 OA
ATOM     16  O   UNL A   1      33.941  26.972  23.428  1.00  0.00    -0.201 OA
BRANCH  14  17
ATOM     17  N   UNL A   1      31.577  26.474  22.772  1.00  0.00    -0.249 N 
ATOM     18  C   UNL A   1      32.030  28.920  23.046  1.00  0.00     0.115 C 
ATOM     19  C   UNL A   1      31.180  27.795  22.529  1.00  0.00     0.230 C 
ATOM     20  O   UNL A   1      30.094  27.988  22.001  1.00  0.00    -0.274 OA
ATOM     21  H   UNL A   1      30.849  25.813  22.823  1.00  0.00     0.183 HD
ENDBRANCH  14  17
ENDBRANCH   9  14
BRANCH  11  22
ATOM     22  C   UNL A   1      33.457  20.955  24.531  1.00  0.00    -0.011 A 
ATOM     23  C   UNL A   1      34.643  20.242  24.971  1.00  0.00     0.027 A 
ATOM     24  C   UNL A   1      32.526  20.300  23.817  1.00  0.00     0.080 A 
ATOM     25  C   UNL A   1      34.787  18.938  24.714  1.00  0.00     0.095 A 
ATOM     26  C   UNL A   1      32.688  18.850  23.501  1.00  0.00     0.255 A 
ATOM     27  N   UNL A   1      33.827  18.243  24.006  1.00  0.00    -0.258 N 
ATOM     28  O   UNL A   1      31.809  18.296  22.850  1.00  0.00    -0.269 OA
BRANCH  27  29
ATOM     29  C   UNL A   1      33.975  16.827  23.773  1.00  0.00     0.451 C 
ATOM     30  F   UNL A   1      34.403  16.587  22.510  1.00  0.00    -0.185 F 
ATOM     31  F   UNL A   1      34.867  16.281  24.633  1.00  0.00    -0.185 F 
ENDBRANCH  27  29
ENDBRANCH  11  22
ENDBRANCH   5   8
ENDBRANCH   3   4
ENDBRANCH   2   3
ENDBRANCH   1   2
BRANCH   1  32
ATOM     32  C   UNL A   1      31.770  30.655  26.524  1.00  0.00     0.002 C 
BRANCH  32  33
ATOM     33  C   UNL A   1      31.502  32.143  26.804  1.00  0.00     0.021 C 
BRANCH  33  34
ATOM     34  C   UNL A   1      32.729  33.039  26.982  1.00  0.00     0.116 C 
BRANCH  34  35
ATOM     35  N   UNL A   1      32.415  34.300  27.626  1.00  0.00    -0.352 N 
ATOM     36  C   UNL A   1      32.998  34.878  28.725  1.00  0.00     0.251 C 
ATOM     37  H   UNL A   1      31.682  34.813  27.216  1.00  0.00     0.163 HD
ATOM     38  O   UNL A   1      32.528  35.907  29.204  1.00  0.00    -0.269 OA
BRANCH  36  39
ATOM     39  C   UNL A   1      34.179  34.257  29.368  1.00  0.00     0.039 A 
ATOM     40  C   UNL A   1      33.967  33.377  30.434  1.00  0.00     0.014 A 
ATOM     41  C   UNL A   1      35.482  34.580  28.973  1.00  0.00     0.014 A 
ATOM     42  C   UNL A   1      35.055  32.782  31.076  1.00  0.00     0.010 A 
ATOM     43  C   UNL A   1      36.571  33.978  29.611  1.00  0.00     0.010 A 
ATOM     44  C   UNL A   1      36.364  33.071  30.663  1.00  0.00    -0.014 A 
BRANCH  44  45
ATOM     45  C   UNL A   1      37.518  32.410  31.317  1.00  0.00     0.031 A 
ATOM     46  C   UNL A   1      38.280  31.327  30.613  1.00  0.00     0.074 A 
ATOM     47  C   UNL A   1      37.875  32.781  32.559  1.00  0.00     0.049 A 
ATOM     48  N   UNL A   1      39.290  30.615  31.047  1.00  0.00    -0.248 NA
ATOM     49  C   UNL A   1      37.850  30.997  29.248  1.00  0.00     0.031 C 
ATOM     50  C   UNL A   1      37.212  33.814  33.355  1.00  0.00     0.029 A 
ATOM     51  N   UNL A   1      38.885  32.328  33.370  1.00  0.00    -0.354 N 
ATOM     52  C   UNL A   1      39.605  29.740  30.019  1.00  0.00     0.074 A 
ATOM     53  C   UNL A   1      38.685  30.015  28.933  1.00  0.00     0.031 C 
ATOM     54  C   UNL A   1      37.837  33.920  34.539  1.00  0.00     0.029 A 
ATOM     55  C   UNL A   1      38.936  32.959  34.586  1.00  0.00     0.049 A 
ATOM     56  H   UNL A   1      39.513  31.618  33.103  1.00  0.00     0.167 HD
ATOM     57  C   UNL A   1      40.568  28.788  29.985  1.00  0.00     0.037 A 
ATOM     58  C   UNL A   1      39.775  32.781  35.623  1.00  0.00     0.037 A 
ATOM     59  C   UNL A   1      41.499  28.517  31.046  1.00  0.00     0.049 A 
ATOM     60  C   UNL A   1      40.867  31.757  35.539  1.00  0.00     0.074 A 
ATOM     61  C   UNL A   1      42.505  27.566  31.094  1.00  0.00     0.029 A 
ATOM     62  N   UNL A   1      41.544  29.206  32.248  1.00  0.00    -0.354 N 
ATOM     63  N   UNL A   1      41.146  30.928  34.565  1.00  0.00    -0.248 NA
ATOM     64  C   UNL A   1      41.759  31.643  36.703  1.00  0.00     0.031 C 
ATOM     65  C   UNL A   1      43.162  27.681  32.325  1.00  0.00     0.029 A 
ATOM     66  C   UNL A   1      42.564  28.706  33.041  1.00  0.00     0.049 A 
ATOM     67  H   UNL A   1      40.940  29.941  32.500  1.00  0.00     0.167 HD
ATOM     68  C   UNL A   1      42.240  30.193  34.993  1.00  0.00     0.074 A 
ATOM     69  C   UNL A   1      42.583  30.678  36.315  1.00  0.00     0.031 C 
ATOM     70  C   UNL A   1      42.896  29.201  34.349  1.00  0.00     0.037 A 
BRANCH  57  71
ATOM     71  C   UNL A   1      40.653  27.952  28.750  1.00  0.00     0.064 A 
ATOM     72  C   UNL A   1      41.479  28.325  27.682  1.00  0.00     0.173 A 
ATOM     73  C   UNL A   1      39.935  26.753  28.651  1.00  0.00     0.173 A 
ATOM     74  F   UNL A   1      42.177  29.470  27.736  1.00  0.00    -0.203 F 
ATOM     75  C   UNL A   1      41.581  27.524  26.549  1.00  0.00     0.198 A 
ATOM     76  C   UNL A   1      40.041  25.953  27.517  1.00  0.00     0.198 A 
ATOM     77  F   UNL A   1      39.130  26.364  29.650  1.00  0.00    -0.203 F 
ATOM     78  F   UNL A   1      42.369  27.899  25.532  1.00  0.00    -0.200 F 
ATOM     79  C   UNL A   1      40.865  26.338  26.468  1.00  0.00     0.200 A 
ATOM     80  F   UNL A   1      39.346  24.810  27.439  1.00  0.00    -0.200 F 
ATOM     81  F   UNL A   1      40.963  25.567  25.376  1.00  0.00    -0.200 F 
ENDBRANCH  57  71
BRANCH  58  82
ATOM     82  C   UNL A   1      39.612  33.609  36.837  1.00  0.00     0.064 A 
ATOM     83  C   UNL A   1      40.281  34.832  36.966  1.00  0.00     0.173 A 
ATOM     84  C   UNL A   1      38.773  33.198  37.880  1.00  0.00     0.173 A 
ATOM     85  F   UNL A   1      41.105  35.250  35.994  1.00  0.00    -0.203 F 
ATOM     86  C   UNL A   1      40.116  35.620  38.102  1.00  0.00     0.198 A 
ATOM     87  C   UNL A   1      38.605  33.989  39.013  1.00  0.00     0.198 A 
ATOM     88  F   UNL A   1      38.121  32.030  37.795  1.00  0.00    -0.203 F 
ATOM     89  F   UNL A   1      40.772  36.782  38.210  1.00  0.00    -0.200 F 
ATOM     90  C   UNL A   1      39.275  35.199  39.123  1.00  0.00     0.200 A 
ATOM     91  F   UNL A   1      37.795  33.580  39.999  1.00  0.00    -0.200 F 
ATOM     92  F   UNL A   1      39.117  35.957  40.216  1.00  0.00    -0.200 F 
ENDBRANCH  58  82
BRANCH  70  93
ATOM     93  C   UNL A   1      44.048  28.573  35.064  1.00  0.00     0.064 A 
ATOM     94  C   UNL A   1      43.857  27.462  35.897  1.00  0.00     0.173 A 
ATOM     95  C   UNL A   1      45.350  29.064  34.896  1.00  0.00     0.173 A 
ATOM     96  F   UNL A   1      42.625  26.970  36.093  1.00  0.00    -0.203 F 
ATOM     97  C   UNL A   1      44.934  26.864  36.543  1.00  0.00     0.198 A 
ATOM     98  C   UNL A   1      46.425  28.462  35.543  1.00  0.00     0.198 A 
ATOM     99  F   UNL A   1      45.574  30.131  34.116  1.00  0.00    -0.203 F 
ATOM    100  F   UNL A   1      44.732  25.811  37.346  1.00  0.00    -0.200 F 
ATOM    101  C   UNL A   1      46.217  27.364  36.364  1.00  0.00     0.200 A 
ATOM    102  F   UNL A   1      47.662  28.949  35.378  1.00  0.00    -0.200 F 
ATOM    103  F   UNL A   1      47.253  26.789  36.992  1.00  0.00    -0.200 F 
ENDBRANCH  70  93
ENDBRANCH  44  45
ENDBRANCH  36  39
ENDBRANCH  34  35
ENDBRANCH  33  34
ENDBRANCH  32  33
ENDBRANCH   1  32
TORSDOF 17
ENDMDL
MODEL 3
REMARK VINA RESULT:      -9.5      5.372      9.649
REMARK SMILES CC(=O)NS(=O)(=O)c1cc(-c2ccn(C(F)F)c(=O)c2)ccc1C(=O)NCCCCCCNC(=O)c1ccc(-c2c3nc(c(-c4c(F)c(F)c(F)c(F)c4F)c4ccc([nH]4)c(-c4c(F)c(F)c(F)c(F)c4F)c4nc(c(-c5c(F)c(F)c(F)c(F)c5F)c5ccc2[nH]5)C=C4)C=C3)cc1
REMARK SMILES IDX 29 1 28 2 27 3 26 4 24 5 25 6 23 8 8 9 9 10 10 11 22 12
REMARK SMILES IDX 21 13 5 14 6 15 7 16 4 17 1 18 2 19 3 20 11 22 12 23 20 24
REMARK SMILES IDX 13 25 18 26 14 27 19 28 15 29 16 30 17 31 30 32 31 33 32 34
REMARK SMILES IDX 33 35 34 36 35 38 36 39 37 40 98 41 38 42 97 43 39 44 40 45
REMARK SMILES IDX 41 46 91 47 42 48 96 49 90 50 92 51 43 52 95 53 89 54 88 55
REMARK SMILES IDX 44 57 76 58 56 59 75 60 57 61 60 62 74 63 93 64 58 65 59 66
REMARK SMILES IDX 73 68 94 69 61 70 45 71 46 72 54 73 47 74 48 75 52 76 55 77
REMARK SMILES IDX 49 78 50 79 53 80 51 81 77 82 78 83 86 84 79 85 80 86 84 87
REMARK SMILES IDX 87 88 81 89 82 90 85 91 83 92 62 93 63 94 71 95 64 96 65 97
REMARK SMILES IDX 69 98 72 99 66 100 67 101 70 102 68 103
REMARK H PARENT 26 7 4 21 33 37 92 56 60 67
REMARK Flexibility Score: inf
ROOT
ATOM      1  C   UNL A   1      32.171  29.570  27.245  1.00  0.00     0.002 C 
ENDROOT
BRANCH   1   2
ATOM      2  C   UNL A   1      31.519  28.227  27.595  1.00  0.00     0.021 C 
BRANCH   2   3
ATOM      3  C   UNL A   1      31.866  27.080  26.642  1.00  0.00     0.116 C 
BRANCH   3   4
ATOM      4  N   UNL A   1      30.796  26.879  25.681  1.00  0.00    -0.352 N 
ATOM      5  C   UNL A   1      30.491  25.821  24.873  1.00  0.00     0.252 C 
ATOM      6  O   UNL A   1      29.503  25.871  24.144  1.00  0.00    -0.269 OA
ATOM      7  H   UNL A   1      30.179  27.642  25.598  1.00  0.00     0.163 HD
BRANCH   5   8
ATOM      8  C   UNL A   1      31.248  24.553  24.900  1.00  0.00     0.060 A 
ATOM      9  C   UNL A   1      32.286  24.215  24.028  1.00  0.00     0.101 A 
ATOM     10  C   UNL A   1      32.781  22.899  24.002  1.00  0.00     0.031 A 
ATOM     11  C   UNL A   1      32.198  21.901  24.794  1.00  0.00    -0.017 A 
ATOM     12  C   UNL A   1      30.712  23.560  25.739  1.00  0.00     0.016 A 
ATOM     13  C   UNL A   1      31.177  22.242  25.683  1.00  0.00     0.009 A 
BRANCH   9  14
ATOM     14  S   UNL A   1      32.927  25.366  22.855  1.00  0.00     0.264 S 
ATOM     15  O   UNL A   1      31.788  25.913  22.161  1.00  0.00    -0.201 OA
ATOM     16  O   UNL A   1      34.047  24.774  22.157  1.00  0.00    -0.201 OA
BRANCH  14  17
ATOM     17  N   UNL A   1      33.519  26.625  23.758  1.00  0.00    -0.249 N 
ATOM     18  C   UNL A   1      34.073  28.242  21.929  1.00  0.00     0.115 C 
ATOM     19  C   UNL A   1      33.748  27.950  23.366  1.00  0.00     0.230 C 
ATOM     20  O   UNL A   1      33.787  28.814  24.231  1.00  0.00    -0.274 OA
ATOM     21  H   UNL A   1      33.738  26.414  24.694  1.00  0.00     0.183 HD
ENDBRANCH  14  17
ENDBRANCH   9  14
BRANCH  11  22
ATOM     22  C   UNL A   1      32.540  20.491  24.532  1.00  0.00    -0.011 A 
ATOM     23  C   UNL A   1      32.984  19.617  25.603  1.00  0.00     0.027 A 
ATOM     24  C   UNL A   1      32.346  19.978  23.306  1.00  0.00     0.080 A 
ATOM     25  C   UNL A   1      33.150  18.308  25.388  1.00  0.00     0.095 A 
ATOM     26  C   UNL A   1      32.554  18.523  23.046  1.00  0.00     0.255 A 
ATOM     27  N   UNL A   1      32.928  17.759  24.141  1.00  0.00    -0.258 N 
ATOM     28  O   UNL A   1      32.360  18.102  21.911  1.00  0.00    -0.269 OA
BRANCH  27  29
ATOM     29  C   UNL A   1      33.070  16.339  23.933  1.00  0.00     0.451 C 
ATOM     30  F   UNL A   1      34.187  16.064  23.217  1.00  0.00    -0.185 F 
ATOM     31  F   UNL A   1      33.151  15.678  25.112  1.00  0.00    -0.185 F 
ENDBRANCH  27  29
ENDBRANCH  11  22
ENDBRANCH   5   8
ENDBRANCH   3   4
ENDBRANCH   2   3
ENDBRANCH   1   2
BRANCH   1  32
ATOM     32  C   UNL A   1      31.357  30.444  26.286  1.00  0.00     0.002 C 
BRANCH  32  33
ATOM     33  C   UNL A   1      31.319  31.950  26.594  1.00  0.00     0.021 C 
BRANCH  33  34
ATOM     34  C   UNL A   1      32.653  32.611  26.945  1.00  0.00     0.116 C 
BRANCH  34  35
ATOM     35  N   UNL A   1      32.491  33.936  27.513  1.00  0.00    -0.352 N 
ATOM     36  C   UNL A   1      33.182  34.526  28.541  1.00  0.00     0.251 C 
ATOM     37  H   UNL A   1      31.788  34.489  27.102  1.00  0.00     0.163 HD
ATOM     38  O   UNL A   1      32.835  35.624  28.968  1.00  0.00    -0.269 OA
BRANCH  36  39
ATOM     39  C   UNL A   1      34.333  33.838  29.169  1.00  0.00     0.039 A 
ATOM     40  C   UNL A   1      35.624  34.266  28.838  1.00  0.00     0.014 A 
ATOM     41  C   UNL A   1      34.156  32.746  30.025  1.00  0.00     0.014 A 
ATOM     42  C   UNL A   1      36.735  33.635  29.399  1.00  0.00     0.010 A 
ATOM     43  C   UNL A   1      35.269  32.118  30.593  1.00  0.00     0.010 A 
ATOM     44  C   UNL A   1      36.566  32.562  30.287  1.00  0.00    -0.014 A 
BRANCH  44  45
ATOM     45  C   UNL A   1      37.744  31.917  30.913  1.00  0.00     0.031 A 
ATOM     46  C   UNL A   1      38.176  32.292  32.300  1.00  0.00     0.074 A 
ATOM     47  C   UNL A   1      38.435  30.993  30.223  1.00  0.00     0.049 A 
ATOM     48  N   UNL A   1      39.202  31.858  32.989  1.00  0.00    -0.248 NA
ATOM     49  C   UNL A   1      37.353  33.287  33.002  1.00  0.00     0.031 C 
ATOM     50  C   UNL A   1      38.125  30.545  28.866  1.00  0.00     0.029 A 
ATOM     51  N   UNL A   1      39.545  30.265  30.572  1.00  0.00    -0.354 N 
ATOM     52  C   UNL A   1      39.161  32.538  34.196  1.00  0.00     0.074 A 
ATOM     53  C   UNL A   1      38.003  33.409  34.152  1.00  0.00     0.031 C 
ATOM     54  C   UNL A   1      39.020  29.615  28.498  1.00  0.00     0.029 A 
ATOM     55  C   UNL A   1      39.970  29.409  29.589  1.00  0.00     0.049 A 
ATOM     56  H   UNL A   1      39.994  30.351  31.444  1.00  0.00     0.167 HD
ATOM     57  C   UNL A   1      40.015  32.451  35.243  1.00  0.00     0.037 A 
ATOM     58  C   UNL A   1      41.008  28.554  29.571  1.00  0.00     0.037 A 
ATOM     59  C   UNL A   1      41.156  31.579  35.309  1.00  0.00     0.049 A 
ATOM     60  C   UNL A   1      41.908  28.438  30.765  1.00  0.00     0.074 A 
ATOM     61  C   UNL A   1      42.076  31.432  36.334  1.00  0.00     0.029 A 
ATOM     62  N   UNL A   1      41.529  30.696  34.308  1.00  0.00    -0.354 N 
ATOM     63  N   UNL A   1      41.864  29.095  31.896  1.00  0.00    -0.248 NA
ATOM     64  C   UNL A   1      43.003  27.460  30.676  1.00  0.00     0.031 C 
ATOM     65  C   UNL A   1      43.006  30.456  35.954  1.00  0.00     0.029 A 
ATOM     66  C   UNL A   1      42.661  29.997  34.693  1.00  0.00     0.049 A 
ATOM     67  H   UNL A   1      41.059  30.583  33.451  1.00  0.00     0.167 HD
ATOM     68  C   UNL A   1      42.922  28.618  32.653  1.00  0.00     0.074 A 
ATOM     69  C   UNL A   1      43.588  27.607  31.859  1.00  0.00     0.031 C 
ATOM     70  C   UNL A   1      43.308  28.991  33.895  1.00  0.00     0.037 A 
BRANCH  57  71
ATOM     71  C   UNL A   1      39.749  33.344  36.412  1.00  0.00     0.064 A 
ATOM     72  C   UNL A   1      40.365  34.598  36.516  1.00  0.00     0.173 A 
ATOM     73  C   UNL A   1      38.846  32.959  37.411  1.00  0.00     0.173 A 
ATOM     74  F   UNL A   1      41.242  34.999  35.584  1.00  0.00    -0.203 F 
ATOM     75  C   UNL A   1      40.086  35.439  37.589  1.00  0.00     0.198 A 
ATOM     76  C   UNL A   1      38.567  33.803  38.481  1.00  0.00     0.198 A 
ATOM     77  F   UNL A   1      38.239  31.764  37.349  1.00  0.00    -0.203 F 
ATOM     78  F   UNL A   1      40.690  36.632  37.679  1.00  0.00    -0.200 F 
ATOM     79  C   UNL A   1      39.186  35.043  38.569  1.00  0.00     0.200 A 
ATOM     80  F   UNL A   1      37.701  33.419  39.429  1.00  0.00    -0.200 F 
ATOM     81  F   UNL A   1      38.919  35.853  39.602  1.00  0.00    -0.200 F 
ENDBRANCH  57  71
BRANCH  58  82
ATOM     82  C   UNL A   1      41.246  27.728  28.367  1.00  0.00     0.064 A 
ATOM     83  C   UNL A   1      42.129  28.155  27.368  1.00  0.00     0.173 A 
ATOM     84  C   UNL A   1      40.607  26.492  28.205  1.00  0.00     0.173 A 
ATOM     85  F   UNL A   1      42.746  29.341  27.482  1.00  0.00    -0.203 F 
ATOM     86  C   UNL A   1      42.366  27.372  26.242  1.00  0.00     0.198 A 
ATOM     87  C   UNL A   1      40.849  25.708  27.082  1.00  0.00     0.198 A 
ATOM     88  F   UNL A   1      39.750  26.053  29.138  1.00  0.00    -0.203 F 
ATOM     89  F   UNL A   1      43.207  27.802  25.294  1.00  0.00    -0.200 F 
ATOM     90  C   UNL A   1      41.728  26.147  26.102  1.00  0.00     0.200 A 
ATOM     91  F   UNL A   1      40.231  24.527  26.946  1.00  0.00    -0.200 F 
ATOM     92  F   UNL A   1      41.956  25.393  25.018  1.00  0.00    -0.200 F 
ENDBRANCH  58  82
BRANCH  70  93
ATOM     93  C   UNL A   1      44.505  28.304  34.469  1.00  0.00     0.064 A 
ATOM     94  C   UNL A   1      44.369  27.114  35.196  1.00  0.00     0.173 A 
ATOM     95  C   UNL A   1      45.792  28.819  34.268  1.00  0.00     0.173 A 
ATOM     96  F   UNL A   1      43.152  26.595  35.420  1.00  0.00    -0.203 F 
ATOM     97  C   UNL A   1      45.486  26.462  35.708  1.00  0.00     0.198 A 
ATOM     98  C   UNL A   1      46.907  28.163  34.780  1.00  0.00     0.198 A 
ATOM     99  F   UNL A   1      45.964  29.961  33.586  1.00  0.00    -0.203 F 
ATOM    100  F   UNL A   1      45.337  25.332  36.412  1.00  0.00    -0.200 F 
ATOM    101  C   UNL A   1      46.754  26.987  35.499  1.00  0.00     0.200 A 
ATOM    102  F   UNL A   1      48.131  28.674  34.586  1.00  0.00    -0.200 F 
ATOM    103  F   UNL A   1      47.829  26.360  35.998  1.00  0.00    -0.200 F 
ENDBRANCH  70  93
ENDBRANCH  44  45
ENDBRANCH  36  39
ENDBRANCH  34  35
ENDBRANCH  33  34
ENDBRANCH  32  33
ENDBRANCH   1  32
TORSDOF 17
ENDMDL
