MODEL 1
REMARK VINA RESULT:     -12.5      0.000      0.000
REMARK SMILES Cc1cc(C[N@H+]2CCN(C)C(=O)C2(C)C)oc1C(=O)NCCCCCCNC(=O)c1ccc(-c2c3nc(c(-c4c(F)c(F)c(F)c(F)c4F)c4ccc([nH]4)c(-c4c(F)c(F)c(F)c(F)c4F)c4nc(c(-c5c(F)c(F)c(F)c(F)c5F)c5ccc2[nH]5)C=C4)C=C3)cc1
REMARK SMILES IDX 23 1 22 2 21 3 20 4 18 5 19 6 17 8 1 9 2 10 3 11 4 12 16 13
REMARK SMILES IDX 5 14 6 15 7 16 13 17 8 19 11 20 14 21 15 22 9 23 12 24 10 25
REMARK SMILES IDX 24 26 25 27 26 28 27 29 28 30 29 32 30 33 31 34 92 35 32 36
REMARK SMILES IDX 91 37 33 38 34 39 35 40 85 41 36 42 90 43 84 44 86 45 37 46
REMARK SMILES IDX 89 47 83 48 82 49 38 51 70 52 50 53 69 54 51 55 54 56 68 57
REMARK SMILES IDX 87 58 52 59 53 60 67 62 88 63 55 64 39 65 40 66 48 67 41 68
REMARK SMILES IDX 42 69 46 70 49 71 43 72 44 73 47 74 45 75 71 76 72 77 80 78
REMARK SMILES IDX 73 79 74 80 78 81 81 82 75 83 76 84 79 85 77 86 56 87 57 88
REMARK SMILES IDX 65 89 58 90 59 91 63 92 66 93 60 94 61 95 64 96 62 97
REMARK H PARENT 20 7 6 18 27 31 86 50 54 61
REMARK Flexibility Score: inf
ROOT
ATOM      1  C   UNL A   1      32.137  29.786  27.171  1.00  0.00     0.002 C 
ENDROOT
BRANCH   1   2
ATOM      2  C   UNL A   1      33.632  29.477  27.052  1.00  0.00     0.021 C 
BRANCH   2   3
ATOM      3  C   UNL A   1      34.014  28.381  26.064  1.00  0.00     0.116 C 
BRANCH   3   4
ATOM      4  N   UNL A   1      34.150  28.840  24.706  1.00  0.00    -0.349 N 
ATOM      5  C   UNL A   1      33.644  28.294  23.545  1.00  0.00     0.287 C 
ATOM      6  O   UNL A   1      34.028  28.821  22.501  1.00  0.00    -0.266 OA
ATOM      7  H   UNL A   1      34.679  29.663  24.589  1.00  0.00     0.163 HD
BRANCH   5   8
ATOM      8  C   UNL A   1      32.747  27.146  23.562  1.00  0.00     0.194 A 
ATOM      9  C   UNL A   1      30.225  27.879  23.595  1.00  0.00     0.049 C 
ATOM     10  C   UNL A   1      31.369  26.938  23.554  1.00  0.00     0.001 A 
ATOM     11  C   UNL A   1      31.184  25.531  23.477  1.00  0.00     0.056 A 
ATOM     12  C   UNL A   1      32.420  24.946  23.573  1.00  0.00     0.159 A 
ATOM     13  O   UNL A   1      33.375  25.914  23.555  1.00  0.00    -0.450 OA
BRANCH  12  14
ATOM     14  C   UNL A   1      32.873  23.528  23.683  1.00  0.00     0.339 C 
BRANCH  14  15
ATOM     15  N   UNL A   1      32.924  22.947  25.044  1.00  0.00    -0.315 N 
ATOM     16  C   UNL A   1      31.907  21.908  25.252  1.00  0.00     0.285 C 
ATOM     17  C   UNL A   1      34.260  22.519  25.560  1.00  0.00     0.172 C 
ATOM     18  H   UNL A   1      32.703  23.756  25.624  1.00  0.00     0.349 HD
ATOM     19  C   UNL A   1      32.291  20.509  24.761  1.00  0.00     0.180 C 
ATOM     20  C   UNL A   1      34.699  21.135  24.979  1.00  0.00     0.283 C 
ATOM     21  C   UNL A   1      35.343  23.603  25.366  1.00  0.00     0.090 C 
ATOM     22  C   UNL A   1      34.197  22.297  27.096  1.00  0.00     0.090 C 
ATOM     23  N   UNL A   1      33.704  20.160  24.888  1.00  0.00    -0.335 N 
ATOM     24  O   UNL A   1      35.883  20.881  24.741  1.00  0.00    -0.268 OA
ATOM     25  C   UNL A   1      34.061  18.782  24.616  1.00  0.00     0.147 C 
ENDBRANCH  14  15
ENDBRANCH  12  14
ENDBRANCH   5   8
ENDBRANCH   3   4
ENDBRANCH   2   3
ENDBRANCH   1   2
BRANCH   1  26
ATOM     26  C   UNL A   1      31.531  30.725  26.122  1.00  0.00     0.002 C 
BRANCH  26  27
ATOM     27  C   UNL A   1      31.376  32.196  26.512  1.00  0.00     0.021 C 
BRANCH  27  28
ATOM     28  C   UNL A   1      32.578  32.852  27.183  1.00  0.00     0.116 C 
BRANCH  28  29
ATOM     29  N   UNL A   1      32.321  34.207  27.632  1.00  0.00    -0.352 N 
ATOM     30  C   UNL A   1      32.957  34.954  28.593  1.00  0.00     0.251 C 
ATOM     31  H   UNL A   1      31.575  34.662  27.177  1.00  0.00     0.163 HD
ATOM     32  O   UNL A   1      32.520  36.062  28.892  1.00  0.00    -0.269 OA
BRANCH  30  33
ATOM     33  C   UNL A   1      34.146  34.425  29.300  1.00  0.00     0.039 A 
ATOM     34  C   UNL A   1      33.961  33.803  30.538  1.00  0.00     0.014 A 
ATOM     35  C   UNL A   1      35.435  34.555  28.775  1.00  0.00     0.014 A 
ATOM     36  C   UNL A   1      35.052  33.256  31.219  1.00  0.00     0.010 A 
ATOM     37  C   UNL A   1      36.514  33.953  29.421  1.00  0.00     0.010 A 
ATOM     38  C   UNL A   1      36.335  33.297  30.648  1.00  0.00    -0.014 A 
BRANCH  38  39
ATOM     39  C   UNL A   1      37.494  32.654  31.320  1.00  0.00     0.031 A 
ATOM     40  C   UNL A   1      38.222  31.517  30.658  1.00  0.00     0.074 A 
ATOM     41  C   UNL A   1      37.854  33.053  32.556  1.00  0.00     0.049 A 
ATOM     42  N   UNL A   1      39.203  30.782  31.117  1.00  0.00    -0.248 NA
ATOM     43  C   UNL A   1      37.770  31.141  29.310  1.00  0.00     0.031 C 
ATOM     44  C   UNL A   1      37.203  34.116  33.323  1.00  0.00     0.029 A 
ATOM     45  N   UNL A   1      38.846  32.602  33.391  1.00  0.00    -0.354 N 
ATOM     46  C   UNL A   1      39.475  29.850  30.124  1.00  0.00     0.074 A 
ATOM     47  C   UNL A   1      38.525  30.082  29.056  1.00  0.00     0.031 C 
ATOM     48  C   UNL A   1      37.822  34.246  34.508  1.00  0.00     0.029 A 
ATOM     49  C   UNL A   1      38.889  33.253  34.599  1.00  0.00     0.049 A 
ATOM     50  H   UNL A   1      39.469  31.880  33.146  1.00  0.00     0.167 HD
ATOM     51  C   UNL A   1      40.440  28.900  30.097  1.00  0.00     0.037 A 
ATOM     52  C   UNL A   1      39.689  33.064  35.665  1.00  0.00     0.037 A 
ATOM     53  C   UNL A   1      41.402  28.688  31.147  1.00  0.00     0.049 A 
ATOM     54  C   UNL A   1      40.754  32.002  35.609  1.00  0.00     0.074 A 
ATOM     55  C   UNL A   1      42.454  27.790  31.185  1.00  0.00     0.029 A 
ATOM     56  N   UNL A   1      41.427  29.384  32.347  1.00  0.00    -0.354 N 
ATOM     57  N   UNL A   1      41.041  31.170  34.638  1.00  0.00    -0.248 NA
ATOM     58  C   UNL A   1      41.610  31.858  36.795  1.00  0.00     0.031 C 
ATOM     59  C   UNL A   1      43.092  27.915  32.424  1.00  0.00     0.029 A 
ATOM     60  C   UNL A   1      42.466  28.922  33.139  1.00  0.00     0.049 A 
ATOM     61  H   UNL A   1      40.799  30.100  32.598  1.00  0.00     0.167 HD
ATOM     62  C   UNL A   1      42.126  30.425  35.082  1.00  0.00     0.074 A 
ATOM     63  C   UNL A   1      42.453  30.913  36.404  1.00  0.00     0.031 C 
ATOM     64  C   UNL A   1      42.788  29.427  34.450  1.00  0.00     0.037 A 
BRANCH  51  65
ATOM     65  C   UNL A   1      40.510  28.014  28.887  1.00  0.00     0.064 A 
ATOM     66  C   UNL A   1      39.775  26.822  28.806  1.00  0.00     0.173 A 
ATOM     67  C   UNL A   1      41.285  28.384  27.778  1.00  0.00     0.173 A 
ATOM     68  F   UNL A   1      39.028  26.417  29.844  1.00  0.00    -0.203 F 
ATOM     69  C   UNL A   1      39.835  26.019  27.669  1.00  0.00     0.198 A 
ATOM     70  C   UNL A   1      41.318  27.594  26.631  1.00  0.00     0.198 A 
ATOM     71  F   UNL A   1      42.001  29.518  27.800  1.00  0.00    -0.203 F 
ATOM     72  F   UNL A   1      39.159  24.862  27.632  1.00  0.00    -0.200 F 
ATOM     73  C   UNL A   1      40.599  26.409  26.581  1.00  0.00     0.200 A 
ATOM     74  F   UNL A   1      42.048  27.979  25.575  1.00  0.00    -0.200 F 
ATOM     75  F   UNL A   1      40.648  25.640  25.484  1.00  0.00    -0.200 F 
ENDBRANCH  51  65
BRANCH  52  76
ATOM     76  C   UNL A   1      39.533  33.917  36.873  1.00  0.00     0.064 A 
ATOM     77  C   UNL A   1      38.790  33.472  37.975  1.00  0.00     0.173 A 
ATOM     78  C   UNL A   1      40.111  35.192  36.946  1.00  0.00     0.173 A 
ATOM     79  F   UNL A   1      38.200  32.269  37.942  1.00  0.00    -0.203 F 
ATOM     80  C   UNL A   1      38.616  34.278  39.098  1.00  0.00     0.198 A 
ATOM     81  C   UNL A   1      39.959  35.987  38.080  1.00  0.00     0.198 A 
ATOM     82  F   UNL A   1      40.835  35.662  35.919  1.00  0.00    -0.203 F 
ATOM     83  F   UNL A   1      37.863  33.848  40.119  1.00  0.00    -0.200 F 
ATOM     84  C   UNL A   1      39.204  35.533  39.151  1.00  0.00     0.200 A 
ATOM     85  F   UNL A   1      40.540  37.192  38.135  1.00  0.00    -0.200 F 
ATOM     86  F   UNL A   1      39.037  36.307  40.233  1.00  0.00    -0.200 F 
ENDBRANCH  52  76
BRANCH  64  87
ATOM     87  C   UNL A   1      43.962  28.821  35.162  1.00  0.00     0.064 A 
ATOM     88  C   UNL A   1      45.264  29.306  34.981  1.00  0.00     0.173 A 
ATOM     89  C   UNL A   1      43.772  27.767  36.070  1.00  0.00     0.173 A 
ATOM     90  F   UNL A   1      45.499  30.301  34.113  1.00  0.00    -0.203 F 
ATOM     91  C   UNL A   1      46.338  28.743  35.664  1.00  0.00     0.198 A 
ATOM     92  C   UNL A   1      44.844  27.225  36.772  1.00  0.00     0.198 A 
ATOM     93  F   UNL A   1      42.544  27.271  36.283  1.00  0.00    -0.203 F 
ATOM     94  F   UNL A   1      47.582  29.193  35.442  1.00  0.00    -0.200 F 
ATOM     95  C   UNL A   1      46.127  27.709  36.564  1.00  0.00     0.200 A 
ATOM     96  F   UNL A   1      44.636  26.234  37.651  1.00  0.00    -0.200 F 
ATOM     97  F   UNL A   1      47.162  27.174  37.227  1.00  0.00    -0.200 F 
ENDBRANCH  64  87
ENDBRANCH  38  39
ENDBRANCH  30  33
ENDBRANCH  28  29
ENDBRANCH  27  28
ENDBRANCH  26  27
ENDBRANCH   1  26
TORSDOF 15
ENDMDL
MODEL 2
REMARK VINA RESULT:     -12.5      5.329     11.219
REMARK SMILES Cc1cc(C[N@H+]2CCN(C)C(=O)C2(C)C)oc1C(=O)NCCCCCCNC(=O)c1ccc(-c2c3nc(c(-c4c(F)c(F)c(F)c(F)c4F)c4ccc([nH]4)c(-c4c(F)c(F)c(F)c(F)c4F)c4nc(c(-c5c(F)c(F)c(F)c(F)c5F)c5ccc2[nH]5)C=C4)C=C3)cc1
REMARK SMILES IDX 23 1 22 2 21 3 20 4 18 5 19 6 17 8 1 9 2 10 3 11 4 12 16 13
REMARK SMILES IDX 5 14 6 15 7 16 13 17 8 19 11 20 14 21 15 22 9 23 12 24 10 25
REMARK SMILES IDX 24 26 25 27 26 28 27 29 28 30 29 32 30 33 31 34 92 35 32 36
REMARK SMILES IDX 91 37 33 38 34 39 35 40 85 41 36 42 90 43 84 44 86 45 37 46
REMARK SMILES IDX 89 47 83 48 82 49 38 51 70 52 50 53 69 54 51 55 54 56 68 57
REMARK SMILES IDX 87 58 52 59 53 60 67 62 88 63 55 64 39 65 40 66 48 67 41 68
REMARK SMILES IDX 42 69 46 70 49 71 43 72 44 73 47 74 45 75 71 76 72 77 80 78
REMARK SMILES IDX 73 79 74 80 78 81 81 82 75 83 76 84 79 85 77 86 56 87 57 88
REMARK SMILES IDX 65 89 58 90 59 91 63 92 66 93 60 94 61 95 64 96 62 97
REMARK H PARENT 20 7 6 18 27 31 86 50 54 61
REMARK Flexibility Score: inf
ROOT
ATOM      1  C   UNL A   1      37.009  21.846  24.361  1.00  0.00     0.002 C 
ENDROOT
BRANCH   1   2
ATOM      2  C   UNL A   1      37.400  22.997  25.293  1.00  0.00     0.021 C 
BRANCH   2   3
ATOM      3  C   UNL A   1      36.248  23.754  25.943  1.00  0.00     0.116 C 
BRANCH   3   4
ATOM      4  N   UNL A   1      35.484  22.968  26.876  1.00  0.00    -0.349 N 
ATOM      5  C   UNL A   1      34.130  22.704  26.892  1.00  0.00     0.287 C 
ATOM      6  O   UNL A   1      33.719  22.108  27.888  1.00  0.00    -0.266 OA
ATOM      7  H   UNL A   1      36.002  22.558  27.607  1.00  0.00     0.163 HD
BRANCH   5   8
ATOM      8  C   UNL A   1      33.248  23.139  25.818  1.00  0.00     0.194 A 
ATOM      9  C   UNL A   1      32.977  21.293  23.969  1.00  0.00     0.049 C 
ATOM     10  C   UNL A   1      32.738  22.592  24.641  1.00  0.00     0.001 A 
ATOM     11  C   UNL A   1      31.837  23.558  24.116  1.00  0.00     0.056 A 
ATOM     12  C   UNL A   1      31.932  24.680  24.900  1.00  0.00     0.159 A 
ATOM     13  O   UNL A   1      32.728  24.411  25.969  1.00  0.00    -0.450 OA
BRANCH  12  14
ATOM     14  C   UNL A   1      31.350  26.050  24.794  1.00  0.00     0.339 C 
BRANCH  14  15
ATOM     15  N   UNL A   1      31.938  26.949  23.777  1.00  0.00    -0.315 N 
ATOM     16  C   UNL A   1      31.077  27.105  22.597  1.00  0.00     0.285 C 
ATOM     17  C   UNL A   1      32.471  28.265  24.245  1.00  0.00     0.172 C 
ATOM     18  H   UNL A   1      32.782  26.441  23.513  1.00  0.00     0.349 HD
ATOM     19  C   UNL A   1      29.972  28.158  22.727  1.00  0.00     0.180 C 
ATOM     20  C   UNL A   1      31.332  29.311  24.476  1.00  0.00     0.283 C 
ATOM     21  C   UNL A   1      33.392  28.123  25.477  1.00  0.00     0.090 C 
ATOM     22  C   UNL A   1      33.372  28.901  23.151  1.00  0.00     0.090 C 
ATOM     23  N   UNL A   1      30.313  29.335  23.523  1.00  0.00    -0.335 N 
ATOM     24  O   UNL A   1      31.403  30.154  25.374  1.00  0.00    -0.268 OA
ATOM     25  C   UNL A   1      29.364  30.431  23.501  1.00  0.00     0.147 C 
ENDBRANCH  14  15
ENDBRANCH  12  14
ENDBRANCH   5   8
ENDBRANCH   3   4
ENDBRANCH   2   3
ENDBRANCH   1   2
BRANCH   1  26
ATOM     26  C   UNL A   1      36.831  20.462  24.995  1.00  0.00     0.002 C 
BRANCH  26  27
ATOM     27  C   UNL A   1      38.051  19.538  25.001  1.00  0.00     0.021 C 
BRANCH  27  28
ATOM     28  C   UNL A   1      39.224  19.968  25.876  1.00  0.00     0.116 C 
BRANCH  28  29
ATOM     29  N   UNL A   1      40.299  18.995  25.917  1.00  0.00    -0.352 N 
ATOM     30  C   UNL A   1      41.644  19.174  26.126  1.00  0.00     0.251 C 
ATOM     31  H   UNL A   1      40.021  18.061  25.774  1.00  0.00     0.163 HD
ATOM     32  O   UNL A   1      42.410  18.220  26.028  1.00  0.00    -0.269 OA
BRANCH  30  33
ATOM     33  C   UNL A   1      42.191  20.517  26.434  1.00  0.00     0.039 A 
ATOM     34  C   UNL A   1      42.652  21.306  25.376  1.00  0.00     0.014 A 
ATOM     35  C   UNL A   1      42.278  20.994  27.745  1.00  0.00     0.014 A 
ATOM     36  C   UNL A   1      43.138  22.593  25.622  1.00  0.00     0.010 A 
ATOM     37  C   UNL A   1      42.701  22.301  27.984  1.00  0.00     0.010 A 
ATOM     38  C   UNL A   1      43.135  23.114  26.925  1.00  0.00    -0.014 A 
BRANCH  38  39
ATOM     39  C   UNL A   1      43.576  24.507  27.195  1.00  0.00     0.031 A 
ATOM     40  C   UNL A   1      42.601  25.527  27.716  1.00  0.00     0.074 A 
ATOM     41  C   UNL A   1      44.843  24.872  26.913  1.00  0.00     0.049 A 
ATOM     42  N   UNL A   1      42.778  26.805  27.939  1.00  0.00    -0.248 NA
ATOM     43  C   UNL A   1      41.239  25.050  28.001  1.00  0.00     0.031 C 
ATOM     44  C   UNL A   1      45.874  23.990  26.366  1.00  0.00     0.029 A 
ATOM     45  N   UNL A   1      45.475  26.085  27.033  1.00  0.00    -0.354 N 
ATOM     46  C   UNL A   1      41.550  27.286  28.374  1.00  0.00     0.074 A 
ATOM     47  C   UNL A   1      40.624  26.174  28.340  1.00  0.00     0.031 C 
ATOM     48  C   UNL A   1      47.012  24.685  26.212  1.00  0.00     0.029 A 
ATOM     49  C   UNL A   1      46.783  26.070  26.616  1.00  0.00     0.049 A 
ATOM     50  H   UNL A   1      45.032  26.890  27.386  1.00  0.00     0.167 HD
ATOM     51  C   UNL A   1      41.229  28.537  28.782  1.00  0.00     0.037 A 
ATOM     52  C   UNL A   1      47.692  27.060  26.555  1.00  0.00     0.037 A 
ATOM     53  C   UNL A   1      42.158  29.636  28.843  1.00  0.00     0.049 A 
ATOM     54  C   UNL A   1      47.309  28.441  27.015  1.00  0.00     0.074 A 
ATOM     55  C   UNL A   1      41.941  30.925  29.298  1.00  0.00     0.029 A 
ATOM     56  N   UNL A   1      43.482  29.574  28.433  1.00  0.00    -0.354 N 
ATOM     57  N   UNL A   1      46.162  28.869  27.483  1.00  0.00    -0.248 NA
ATOM     58  C   UNL A   1      48.351  29.476  26.943  1.00  0.00     0.031 C 
ATOM     59  C   UNL A   1      43.123  31.654  29.126  1.00  0.00     0.029 A 
ATOM     60  C   UNL A   1      44.088  30.808  28.608  1.00  0.00     0.049 A 
ATOM     61  H   UNL A   1      43.924  28.773  28.070  1.00  0.00     0.167 HD
ATOM     62  C   UNL A   1      46.351  30.210  27.789  1.00  0.00     0.074 A 
ATOM     63  C   UNL A   1      47.727  30.522  27.465  1.00  0.00     0.031 C 
ATOM     64  C   UNL A   1      45.463  31.101  28.293  1.00  0.00     0.037 A 
BRANCH  51  65
ATOM     65  C   UNL A   1      39.811  28.789  29.203  1.00  0.00     0.064 A 
ATOM     66  C   UNL A   1      39.402  28.639  30.537  1.00  0.00     0.173 A 
ATOM     67  C   UNL A   1      38.859  29.231  28.272  1.00  0.00     0.173 A 
ATOM     68  F   UNL A   1      40.271  28.208  31.464  1.00  0.00    -0.203 F 
ATOM     69  C   UNL A   1      38.088  28.895  30.917  1.00  0.00     0.198 A 
ATOM     70  C   UNL A   1      37.552  29.514  28.662  1.00  0.00     0.198 A 
ATOM     71  F   UNL A   1      39.199  29.399  26.985  1.00  0.00    -0.203 F 
ATOM     72  F   UNL A   1      37.710  28.700  32.189  1.00  0.00    -0.200 F 
ATOM     73  C   UNL A   1      37.166  29.339  29.982  1.00  0.00     0.200 A 
ATOM     74  F   UNL A   1      36.666  29.956  27.759  1.00  0.00    -0.200 F 
ATOM     75  F   UNL A   1      35.903  29.594  30.352  1.00  0.00    -0.200 F 
ENDBRANCH  51  65
BRANCH  52  76
ATOM     76  C   UNL A   1      49.065  26.780  26.059  1.00  0.00     0.064 A 
ATOM     77  C   UNL A   1      49.401  26.995  24.715  1.00  0.00     0.173 A 
ATOM     78  C   UNL A   1      50.062  26.285  26.910  1.00  0.00     0.173 A 
ATOM     79  F   UNL A   1      48.475  27.447  23.858  1.00  0.00    -0.203 F 
ATOM     80  C   UNL A   1      50.678  26.707  24.238  1.00  0.00     0.198 A 
ATOM     81  C   UNL A   1      51.347  26.023  26.438  1.00  0.00     0.198 A 
ATOM     82  F   UNL A   1      49.792  26.066  28.206  1.00  0.00    -0.203 F 
ATOM     83  F   UNL A   1      50.960  26.877  22.939  1.00  0.00    -0.200 F 
ATOM     84  C   UNL A   1      51.651  26.225  25.100  1.00  0.00     0.200 A 
ATOM     85  F   UNL A   1      52.288  25.571  27.278  1.00  0.00    -0.200 F 
ATOM     86  F   UNL A   1      52.880  25.950  24.642  1.00  0.00    -0.200 F 
ENDBRANCH  52  76
BRANCH  64  87
ATOM     87  C   UNL A   1      45.961  32.490  28.564  1.00  0.00     0.064 A 
ATOM     88  C   UNL A   1      46.538  32.839  29.793  1.00  0.00     0.173 A 
ATOM     89  C   UNL A   1      45.897  33.473  27.563  1.00  0.00     0.173 A 
ATOM     90  F   UNL A   1      46.608  31.940  30.785  1.00  0.00    -0.203 F 
ATOM     91  C   UNL A   1      47.011  34.129  30.019  1.00  0.00     0.198 A 
ATOM     92  C   UNL A   1      46.396  34.753  27.784  1.00  0.00     0.198 A 
ATOM     93  F   UNL A   1      45.360  33.188  26.368  1.00  0.00    -0.203 F 
ATOM     94  F   UNL A   1      47.518  34.454  31.218  1.00  0.00    -0.200 F 
ATOM     95  C   UNL A   1      46.947  35.082  29.014  1.00  0.00     0.200 A 
ATOM     96  F   UNL A   1      46.345  35.669  26.807  1.00  0.00    -0.200 F 
ATOM     97  F   UNL A   1      47.410  36.321  29.232  1.00  0.00    -0.200 F 
ENDBRANCH  64  87
ENDBRANCH  38  39
ENDBRANCH  30  33
ENDBRANCH  28  29
ENDBRANCH  27  28
ENDBRANCH  26  27
ENDBRANCH   1  26
TORSDOF 15
ENDMDL
MODEL 3
REMARK VINA RESULT:     -12.4      0.428      1.627
REMARK SMILES Cc1cc(C[N@H+]2CCN(C)C(=O)C2(C)C)oc1C(=O)NCCCCCCNC(=O)c1ccc(-c2c3nc(c(-c4c(F)c(F)c(F)c(F)c4F)c4ccc([nH]4)c(-c4c(F)c(F)c(F)c(F)c4F)c4nc(c(-c5c(F)c(F)c(F)c(F)c5F)c5ccc2[nH]5)C=C4)C=C3)cc1
REMARK SMILES IDX 23 1 22 2 21 3 20 4 18 5 19 6 17 8 1 9 2 10 3 11 4 12 16 13
REMARK SMILES IDX 5 14 6 15 7 16 13 17 8 19 11 20 14 21 15 22 9 23 12 24 10 25
REMARK SMILES IDX 24 26 25 27 26 28 27 29 28 30 29 32 30 33 31 34 92 35 32 36
REMARK SMILES IDX 91 37 33 38 34 39 35 40 85 41 36 42 90 43 84 44 86 45 37 46
REMARK SMILES IDX 89 47 83 48 82 49 38 51 70 52 50 53 69 54 51 55 54 56 68 57
REMARK SMILES IDX 87 58 52 59 53 60 67 62 88 63 55 64 39 65 40 66 48 67 41 68
REMARK SMILES IDX 42 69 46 70 49 71 43 72 44 73 47 74 45 75 71 76 72 77 80 78
REMARK SMILES IDX 73 79 74 80 78 81 81 82 75 83 76 84 79 85 77 86 56 87 57 88
REMARK SMILES IDX 65 89 58 90 59 91 63 92 66 93 60 94 61 95 64 96 62 97
REMARK H PARENT 20 7 6 18 27 31 86 50 54 61
REMARK Flexibility Score: inf
ROOT
ATOM      1  C   UNL A   1      33.060  30.169  27.103  1.00  0.00     0.002 C 
ENDROOT
BRANCH   1   2
ATOM      2  C   UNL A   1      33.675  29.431  25.909  1.00  0.00     0.021 C 
BRANCH   2   3
ATOM      3  C   UNL A   1      32.807  29.338  24.659  1.00  0.00     0.116 C 
BRANCH   3   4
ATOM      4  N   UNL A   1      33.557  29.236  23.434  1.00  0.00    -0.349 N 
ATOM      5  C   UNL A   1      33.653  28.177  22.556  1.00  0.00     0.287 C 
ATOM      6  O   UNL A   1      34.477  28.314  21.650  1.00  0.00    -0.266 OA
ATOM      7  H   UNL A   1      34.075  30.037  23.188  1.00  0.00     0.163 HD
BRANCH   5   8
ATOM      8  C   UNL A   1      32.859  26.967  22.718  1.00  0.00     0.194 A 
ATOM      9  C   UNL A   1      30.282  27.476  22.660  1.00  0.00     0.049 C 
ATOM     10  C   UNL A   1      31.504  26.640  22.738  1.00  0.00     0.001 A 
ATOM     11  C   UNL A   1      31.442  25.224  22.839  1.00  0.00     0.056 A 
ATOM     12  C   UNL A   1      32.724  24.766  23.008  1.00  0.00     0.159 A 
ATOM     13  O   UNL A   1      33.591  25.804  22.867  1.00  0.00    -0.450 OA
BRANCH  12  14
ATOM     14  C   UNL A   1      33.296  23.418  23.296  1.00  0.00     0.339 C 
BRANCH  14  15
ATOM     15  N   UNL A   1      33.138  22.907  24.676  1.00  0.00    -0.315 N 
ATOM     16  C   UNL A   1      32.028  21.952  24.800  1.00  0.00     0.285 C 
ATOM     17  C   UNL A   1      34.365  22.415  25.374  1.00  0.00     0.172 C 
ATOM     18  H   UNL A   1      32.908  23.758  25.189  1.00  0.00     0.349 HD
ATOM     19  C   UNL A   1      32.364  20.506  24.422  1.00  0.00     0.180 C 
ATOM     20  C   UNL A   1      34.767  20.976  24.912  1.00  0.00     0.283 C 
ATOM     21  C   UNL A   1      35.542  23.411  25.270  1.00  0.00     0.090 C 
ATOM     22  C   UNL A   1      34.100  22.278  26.898  1.00  0.00     0.090 C 
ATOM     23  N   UNL A   1      33.720  20.069  24.740  1.00  0.00    -0.335 N 
ATOM     24  O   UNL A   1      35.948  20.629  24.836  1.00  0.00    -0.268 OA
ATOM     25  C   UNL A   1      34.004  18.656  24.575  1.00  0.00     0.147 C 
ENDBRANCH  14  15
ENDBRANCH  12  14
ENDBRANCH   5   8
ENDBRANCH   3   4
ENDBRANCH   2   3
ENDBRANCH   1   2
BRANCH   1  26
ATOM     26  C   UNL A   1      31.635  30.707  26.934  1.00  0.00     0.002 C 
BRANCH  26  27
ATOM     27  C   UNL A   1      31.470  32.225  26.844  1.00  0.00     0.021 C 
BRANCH  27  28
ATOM     28  C   UNL A   1      32.712  33.061  27.134  1.00  0.00     0.116 C 
BRANCH  28  29
ATOM     29  N   UNL A   1      32.411  34.378  27.663  1.00  0.00    -0.352 N 
ATOM     30  C   UNL A   1      33.005  35.076  28.685  1.00  0.00     0.251 C 
ATOM     31  H   UNL A   1      31.664  34.844  27.219  1.00  0.00     0.163 HD
ATOM     32  O   UNL A   1      32.534  36.151  29.044  1.00  0.00    -0.269 OA
BRANCH  30  33
ATOM     33  C   UNL A   1      34.190  34.529  29.387  1.00  0.00     0.039 A 
ATOM     34  C   UNL A   1      33.995  33.862  30.600  1.00  0.00     0.014 A 
ATOM     35  C   UNL A   1      35.484  34.688  28.882  1.00  0.00     0.014 A 
ATOM     36  C   UNL A   1      35.083  33.299  31.272  1.00  0.00     0.010 A 
ATOM     37  C   UNL A   1      36.560  34.070  29.517  1.00  0.00     0.010 A 
ATOM     38  C   UNL A   1      36.372  33.369  30.718  1.00  0.00    -0.014 A 
BRANCH  38  39
ATOM     39  C   UNL A   1      37.528  32.710  31.380  1.00  0.00     0.031 A 
ATOM     40  C   UNL A   1      38.231  31.560  30.714  1.00  0.00     0.074 A 
ATOM     41  C   UNL A   1      37.907  33.108  32.610  1.00  0.00     0.049 A 
ATOM     42  N   UNL A   1      39.205  30.810  31.166  1.00  0.00    -0.248 NA
ATOM     43  C   UNL A   1      37.758  31.186  29.372  1.00  0.00     0.031 C 
ATOM     44  C   UNL A   1      37.282  34.184  33.381  1.00  0.00     0.029 A 
ATOM     45  N   UNL A   1      38.902  32.644  33.436  1.00  0.00    -0.354 N 
ATOM     46  C   UNL A   1      39.451  29.871  30.173  1.00  0.00     0.074 A 
ATOM     47  C   UNL A   1      38.494  30.114  29.114  1.00  0.00     0.031 C 
ATOM     48  C   UNL A   1      37.916  34.308  34.558  1.00  0.00     0.029 A 
ATOM     49  C   UNL A   1      38.968  33.299  34.642  1.00  0.00     0.049 A 
ATOM     50  H   UNL A   1      39.510  31.912  33.187  1.00  0.00     0.167 HD
ATOM     51  C   UNL A   1      40.400  28.906  30.139  1.00  0.00     0.037 A 
ATOM     52  C   UNL A   1      39.777  33.101  35.699  1.00  0.00     0.037 A 
ATOM     53  C   UNL A   1      41.371  28.682  31.179  1.00  0.00     0.049 A 
ATOM     54  C   UNL A   1      40.824  32.022  35.635  1.00  0.00     0.074 A 
ATOM     55  C   UNL A   1      42.409  27.768  31.209  1.00  0.00     0.029 A 
ATOM     56  N   UNL A   1      41.420  29.382  32.376  1.00  0.00    -0.354 N 
ATOM     57  N   UNL A   1      41.087  31.182  34.665  1.00  0.00    -0.248 NA
ATOM     58  C   UNL A   1      41.690  31.869  36.813  1.00  0.00     0.031 C 
ATOM     59  C   UNL A   1      43.062  27.887  32.441  1.00  0.00     0.029 A 
ATOM     60  C   UNL A   1      42.459  28.907  33.159  1.00  0.00     0.049 A 
ATOM     61  H   UNL A   1      40.806  30.108  32.631  1.00  0.00     0.167 HD
ATOM     62  C   UNL A   1      42.165  30.421  35.100  1.00  0.00     0.074 A 
ATOM     63  C   UNL A   1      42.514  30.909  36.417  1.00  0.00     0.031 C 
ATOM     64  C   UNL A   1      42.804  29.411  34.464  1.00  0.00     0.037 A 
BRANCH  51  65
ATOM     65  C   UNL A   1      40.444  28.014  28.932  1.00  0.00     0.064 A 
ATOM     66  C   UNL A   1      41.228  28.331  27.812  1.00  0.00     0.173 A 
ATOM     67  C   UNL A   1      39.729  26.807  28.912  1.00  0.00     0.173 A 
ATOM     68  F   UNL A   1      41.921  29.479  27.777  1.00  0.00    -0.203 F 
ATOM     69  C   UNL A   1      41.274  27.485  26.707  1.00  0.00     0.198 A 
ATOM     70  C   UNL A   1      39.802  25.950  27.817  1.00  0.00     0.198 A 
ATOM     71  F   UNL A   1      38.970  26.453  29.959  1.00  0.00    -0.203 F 
ATOM     72  F   UNL A   1      41.995  27.831  25.631  1.00  0.00    -0.200 F 
ATOM     73  C   UNL A   1      40.568  26.293  26.713  1.00  0.00     0.200 A 
ATOM     74  F   UNL A   1      39.129  24.791  27.829  1.00  0.00    -0.200 F 
ATOM     75  F   UNL A   1      40.621  25.475  25.652  1.00  0.00    -0.200 F 
ENDBRANCH  51  65
BRANCH  52  76
ATOM     76  C   UNL A   1      39.647  33.961  36.905  1.00  0.00     0.064 A 
ATOM     77  C   UNL A   1      40.322  35.187  36.990  1.00  0.00     0.173 A 
ATOM     78  C   UNL A   1      38.856  33.574  37.996  1.00  0.00     0.173 A 
ATOM     79  F   UNL A   1      41.107  35.589  35.981  1.00  0.00    -0.203 F 
ATOM     80  C   UNL A   1      40.227  35.983  38.129  1.00  0.00     0.198 A 
ATOM     81  C   UNL A   1      38.741  34.384  39.124  1.00  0.00     0.198 A 
ATOM     82  F   UNL A   1      38.187  32.412  37.962  1.00  0.00    -0.203 F 
ATOM     83  F   UNL A   1      40.920  37.127  38.204  1.00  0.00    -0.200 F 
ATOM     84  C   UNL A   1      39.433  35.583  39.193  1.00  0.00     0.200 A 
ATOM     85  F   UNL A   1      37.961  34.001  40.144  1.00  0.00    -0.200 F 
ATOM     86  F   UNL A   1      39.340  36.350  40.288  1.00  0.00    -0.200 F 
ENDBRANCH  52  76
BRANCH  64  87
ATOM     87  C   UNL A   1      43.976  28.789  35.166  1.00  0.00     0.064 A 
ATOM     88  C   UNL A   1      45.285  29.245  34.959  1.00  0.00     0.173 A 
ATOM     89  C   UNL A   1      43.778  27.749  36.088  1.00  0.00     0.173 A 
ATOM     90  F   UNL A   1      45.527  30.226  34.077  1.00  0.00    -0.203 F 
ATOM     91  C   UNL A   1      46.358  28.668  35.634  1.00  0.00     0.198 A 
ATOM     92  C   UNL A   1      44.850  27.194  36.781  1.00  0.00     0.198 A 
ATOM     93  F   UNL A   1      42.544  27.281  36.326  1.00  0.00    -0.203 F 
ATOM     94  F   UNL A   1      47.607  29.090  35.388  1.00  0.00    -0.200 F 
ATOM     95  C   UNL A   1      46.139  27.648  36.548  1.00  0.00     0.200 A 
ATOM     96  F   UNL A   1      44.635  26.217  37.674  1.00  0.00    -0.200 F 
ATOM     97  F   UNL A   1      47.172  27.100  37.202  1.00  0.00    -0.200 F 
ENDBRANCH  64  87
ENDBRANCH  38  39
ENDBRANCH  30  33
ENDBRANCH  28  29
ENDBRANCH  27  28
ENDBRANCH  26  27
ENDBRANCH   1  26
TORSDOF 15
ENDMDL
