MODEL 1
REMARK VINA RESULT:     -10.6      0.000      0.000
REMARK SMILES CCNC(=O)C[NH2+][C@@H](C)[C@@H](C)C(=O)NCCCCCCNC(=O)c1ccc(-c2c3nc(c(-c4c(F)c(F)c(F)c(F)c4F)c4ccc([nH]4)c(-c4c(F)c(F)c(F)c(F)c4F)c4nc(c(-c5c(F)c(F)c(F)c(F)c5F)c5ccc2[nH]5)C=C4)C=C3)cc1
REMARK SMILES IDX 16 1 15 2 14 3 12 4 13 5 10 7 11 8 8 9 9 10 7 11 6 14 4 15
REMARK SMILES IDX 3 16 5 18 2 19 1 20 17 21 18 22 19 23 20 24 21 25 22 26
REMARK SMILES IDX 23 28 24 29 25 30 86 31 26 32 85 33 27 34 28 35 29 36 79 37
REMARK SMILES IDX 30 38 84 39 78 40 80 41 31 42 83 43 77 44 76 45 32 47 64 48
REMARK SMILES IDX 44 49 63 50 45 51 48 52 62 53 81 54 46 55 47 56 61 58 82 59
REMARK SMILES IDX 49 60 33 61 34 62 42 63 35 64 36 65 40 66 43 67 37 68 38 69
REMARK SMILES IDX 41 70 39 71 65 72 66 73 74 74 67 75 68 76 72 77 75 78 69 79
REMARK SMILES IDX 70 80 73 81 71 82 50 83 51 84 59 85 52 86 53 87 57 88 60 89
REMARK SMILES IDX 54 90 55 91 58 92 56 93
REMARK H PARENT 14 6 7 12 7 13 3 17 21 27 80 46 48 57
REMARK Flexibility Score: inf
ROOT
ATOM      1  C   UNL A   1      32.627  28.461  27.258  1.00  0.00     0.021 C 
ENDROOT
BRANCH   1   2
ATOM      2  C   UNL A   1      31.222  27.870  27.150  1.00  0.00     0.116 C 
BRANCH   2   3
ATOM      3  N   UNL A   1      31.240  26.592  26.467  1.00  0.00    -0.356 N 
ATOM      4  C   UNL A   1      30.769  26.212  25.251  1.00  0.00     0.228 C 
ATOM      5  O   UNL A   1      30.878  25.018  24.955  1.00  0.00    -0.275 OA
ATOM      6  H   UNL A   1      31.670  25.869  26.977  1.00  0.00     0.163 HD
BRANCH   4   7
ATOM      7  C   UNL A   1      30.150  27.195  24.261  1.00  0.00     0.133 C 
ATOM      8  C   UNL A   1      28.747  26.720  23.868  1.00  0.00     0.024 C 
BRANCH   7   9
ATOM      9  C   UNL A   1      31.095  27.544  23.082  1.00  0.00     0.191 C 
ATOM     10  C   UNL A   1      32.288  28.375  23.578  1.00  0.00     0.076 C 
BRANCH   9  11
ATOM     11  N   UNL A   1      30.350  28.256  22.029  1.00  0.00    -0.336 N 
ATOM     12  H   UNL A   1      30.812  28.091  21.134  1.00  0.00     0.346 HD
ATOM     13  H   UNL A   1      29.394  27.898  22.032  1.00  0.00     0.346 HD
BRANCH  11  14
ATOM     14  C   UNL A   1      30.279  29.709  22.262  1.00  0.00     0.362 C 
BRANCH  14  15
ATOM     15  C   UNL A   1      28.873  30.226  21.953  1.00  0.00     0.275 C 
ATOM     16  N   UNL A   1      28.358  31.261  22.683  1.00  0.00    -0.351 N 
ATOM     17  H   UNL A   1      27.415  31.483  22.503  1.00  0.00     0.163 HD
ATOM     18  O   UNL A   1      28.179  29.716  21.071  1.00  0.00    -0.269 OA
BRANCH  16  19
ATOM     19  C   UNL A   1      29.017  32.074  23.686  1.00  0.00     0.112 C 
ATOM     20  C   UNL A   1      29.125  33.515  23.226  1.00  0.00     0.027 C 
ENDBRANCH  16  19
ENDBRANCH  14  15
ENDBRANCH  11  14
ENDBRANCH   9  11
ENDBRANCH   7   9
ENDBRANCH   4   7
ENDBRANCH   2   3
ENDBRANCH   1   2
BRANCH   1  21
ATOM     21  C   UNL A   1      32.673  29.993  27.211  1.00  0.00     0.002 C 
BRANCH  21  22
ATOM     22  C   UNL A   1      31.531  30.658  26.437  1.00  0.00     0.002 C 
BRANCH  22  23
ATOM     23  C   UNL A   1      31.413  32.173  26.621  1.00  0.00     0.021 C 
BRANCH  23  24
ATOM     24  C   UNL A   1      32.672  32.854  27.143  1.00  0.00     0.116 C 
BRANCH  24  25
ATOM     25  N   UNL A   1      32.421  34.219  27.577  1.00  0.00    -0.352 N 
ATOM     26  C   UNL A   1      32.994  34.922  28.604  1.00  0.00     0.251 C 
ATOM     27  H   UNL A   1      31.741  34.708  27.060  1.00  0.00     0.163 HD
ATOM     28  O   UNL A   1      32.530  36.010  28.946  1.00  0.00    -0.269 OA
BRANCH  26  29
ATOM     29  C   UNL A   1      34.161  34.369  29.321  1.00  0.00     0.039 A 
ATOM     30  C   UNL A   1      33.951  33.638  30.493  1.00  0.00     0.014 A 
ATOM     31  C   UNL A   1      35.460  34.579  28.847  1.00  0.00     0.014 A 
ATOM     32  C   UNL A   1      35.038  33.068  31.158  1.00  0.00     0.010 A 
ATOM     33  C   UNL A   1      36.535  33.953  29.470  1.00  0.00     0.010 A 
ATOM     34  C   UNL A   1      36.336  33.196  30.636  1.00  0.00    -0.014 A 
BRANCH  34  35
ATOM     35  C   UNL A   1      37.497  32.553  31.298  1.00  0.00     0.031 A 
ATOM     36  C   UNL A   1      38.238  31.441  30.611  1.00  0.00     0.074 A 
ATOM     37  C   UNL A   1      37.846  32.929  32.544  1.00  0.00     0.049 A 
ATOM     38  N   UNL A   1      39.239  30.718  31.047  1.00  0.00    -0.248 NA
ATOM     39  C   UNL A   1      37.774  31.075  29.264  1.00  0.00     0.031 C 
ATOM     40  C   UNL A   1      37.182  33.970  33.328  1.00  0.00     0.029 A 
ATOM     41  N   UNL A   1      38.845  32.475  33.368  1.00  0.00    -0.354 N 
ATOM     42  C   UNL A   1      39.515  29.808  30.036  1.00  0.00     0.074 A 
ATOM     43  C   UNL A   1      38.539  30.029  28.990  1.00  0.00     0.031 C 
ATOM     44  C   UNL A   1      37.813  34.099  34.508  1.00  0.00     0.029 A 
ATOM     45  C   UNL A   1      38.897  33.124  34.577  1.00  0.00     0.049 A 
ATOM     46  H   UNL A   1      39.464  31.753  33.117  1.00  0.00     0.167 HD
ATOM     47  C   UNL A   1      40.507  28.887  29.973  1.00  0.00     0.037 A 
ATOM     48  C   UNL A   1      39.728  32.952  35.621  1.00  0.00     0.037 A 
ATOM     49  C   UNL A   1      41.488  28.682  31.007  1.00  0.00     0.049 A 
ATOM     50  C   UNL A   1      40.804  31.903  35.540  1.00  0.00     0.074 A 
ATOM     51  C   UNL A   1      42.567  27.816  31.017  1.00  0.00     0.029 A 
ATOM     52  N   UNL A   1      41.503  29.353  32.222  1.00  0.00    -0.354 N 
ATOM     53  N   UNL A   1      41.096  31.092  34.553  1.00  0.00    -0.248 NA
ATOM     54  C   UNL A   1      41.665  31.749  36.721  1.00  0.00     0.031 C 
ATOM     55  C   UNL A   1      43.207  27.928  32.256  1.00  0.00     0.029 A 
ATOM     56  C   UNL A   1      42.557  28.901  33.000  1.00  0.00     0.049 A 
ATOM     57  H   UNL A   1      40.859  30.048  32.491  1.00  0.00     0.167 HD
ATOM     58  C   UNL A   1      42.194  30.355  34.978  1.00  0.00     0.074 A 
ATOM     59  C   UNL A   1      42.518  30.822  36.310  1.00  0.00     0.031 C 
ATOM     60  C   UNL A   1      42.872  29.382  34.322  1.00  0.00     0.037 A 
BRANCH  47  61
ATOM     61  C   UNL A   1      40.570  28.027  28.743  1.00  0.00     0.064 A 
ATOM     62  C   UNL A   1      39.884  26.805  28.662  1.00  0.00     0.173 A 
ATOM     63  C   UNL A   1      41.322  28.429  27.629  1.00  0.00     0.173 A 
ATOM     64  F   UNL A   1      39.160  26.367  29.703  1.00  0.00    -0.203 F 
ATOM     65  C   UNL A   1      39.984  26.000  27.530  1.00  0.00     0.198 A 
ATOM     66  C   UNL A   1      41.392  27.638  26.485  1.00  0.00     0.198 A 
ATOM     67  F   UNL A   1      41.992  29.592  27.649  1.00  0.00    -0.203 F 
ATOM     68  F   UNL A   1      39.372  24.807  27.503  1.00  0.00    -0.200 F 
ATOM     69  C   UNL A   1      40.733  26.419  26.442  1.00  0.00     0.200 A 
ATOM     70  F   UNL A   1      42.108  28.050  25.430  1.00  0.00    -0.200 F 
ATOM     71  F   UNL A   1      40.831  25.641  25.355  1.00  0.00    -0.200 F 
ENDBRANCH  47  61
BRANCH  48  72
ATOM     72  C   UNL A   1      39.606  33.825  36.817  1.00  0.00     0.064 A 
ATOM     73  C   UNL A   1      40.258  35.065  36.863  1.00  0.00     0.173 A 
ATOM     74  C   UNL A   1      38.838  33.449  37.928  1.00  0.00     0.173 A 
ATOM     75  F   UNL A   1      41.020  35.459  35.832  1.00  0.00    -0.203 F 
ATOM     76  C   UNL A   1      40.158  35.890  37.981  1.00  0.00     0.198 A 
ATOM     77  C   UNL A   1      38.718  34.286  39.034  1.00  0.00     0.198 A 
ATOM     78  F   UNL A   1      38.192  32.274  37.931  1.00  0.00    -0.203 F 
ATOM     79  F   UNL A   1      40.821  37.054  38.014  1.00  0.00    -0.200 F 
ATOM     80  C   UNL A   1      39.383  35.503  39.064  1.00  0.00     0.200 A 
ATOM     81  F   UNL A   1      37.956  33.915  40.073  1.00  0.00    -0.200 F 
ATOM     82  F   UNL A   1      39.281  36.300  40.136  1.00  0.00    -0.200 F 
ENDBRANCH  48  72
BRANCH  60  83
ATOM     83  C   UNL A   1      44.058  28.782  35.020  1.00  0.00     0.064 A 
ATOM     84  C   UNL A   1      45.342  29.332  34.898  1.00  0.00     0.173 A 
ATOM     85  C   UNL A   1      43.900  27.660  35.849  1.00  0.00     0.173 A 
ATOM     86  F   UNL A   1      45.549  30.394  34.104  1.00  0.00    -0.203 F 
ATOM     87  C   UNL A   1      46.429  28.766  35.559  1.00  0.00     0.198 A 
ATOM     88  C   UNL A   1      44.983  27.115  36.532  1.00  0.00     0.198 A 
ATOM     89  F   UNL A   1      42.692  27.098  36.004  1.00  0.00    -0.203 F 
ATOM     90  F   UNL A   1      47.655  29.279  35.390  1.00  0.00    -0.200 F 
ATOM     91  C   UNL A   1      46.247  27.664  36.382  1.00  0.00     0.200 A 
ATOM     92  F   UNL A   1      44.803  26.057  37.336  1.00  0.00    -0.200 F 
ATOM     93  F   UNL A   1      47.293  27.125  37.022  1.00  0.00    -0.200 F 
ENDBRANCH  60  83
ENDBRANCH  34  35
ENDBRANCH  26  29
ENDBRANCH  24  25
ENDBRANCH  23  24
ENDBRANCH  22  23
ENDBRANCH  21  22
ENDBRANCH   1  21
TORSDOF 18
ENDMDL
MODEL 2
REMARK VINA RESULT:     -10.5      1.742      7.904
REMARK SMILES CCNC(=O)C[NH2+][C@@H](C)[C@@H](C)C(=O)NCCCCCCNC(=O)c1ccc(-c2c3nc(c(-c4c(F)c(F)c(F)c(F)c4F)c4ccc([nH]4)c(-c4c(F)c(F)c(F)c(F)c4F)c4nc(c(-c5c(F)c(F)c(F)c(F)c5F)c5ccc2[nH]5)C=C4)C=C3)cc1
REMARK SMILES IDX 16 1 15 2 14 3 12 4 13 5 10 7 11 8 8 9 9 10 7 11 6 14 4 15
REMARK SMILES IDX 3 16 5 18 2 19 1 20 17 21 18 22 19 23 20 24 21 25 22 26
REMARK SMILES IDX 23 28 24 29 25 30 86 31 26 32 85 33 27 34 28 35 29 36 79 37
REMARK SMILES IDX 30 38 84 39 78 40 80 41 31 42 83 43 77 44 76 45 32 47 64 48
REMARK SMILES IDX 44 49 63 50 45 51 48 52 62 53 81 54 46 55 47 56 61 58 82 59
REMARK SMILES IDX 49 60 33 61 34 62 42 63 35 64 36 65 40 66 43 67 37 68 38 69
REMARK SMILES IDX 41 70 39 71 65 72 66 73 74 74 67 75 68 76 72 77 75 78 69 79
REMARK SMILES IDX 70 80 73 81 71 82 50 83 51 84 59 85 52 86 53 87 57 88 60 89
REMARK SMILES IDX 54 90 55 91 58 92 56 93
REMARK H PARENT 14 6 7 12 7 13 3 17 21 27 80 46 48 57
REMARK Flexibility Score: inf
ROOT
ATOM      1  C   UNL A   1      35.015  31.714  27.998  1.00  0.00     0.021 C 
ENDROOT
BRANCH   1   2
ATOM      2  C   UNL A   1      35.221  30.253  28.401  1.00  0.00     0.116 C 
BRANCH   2   3
ATOM      3  N   UNL A   1      35.054  29.366  27.267  1.00  0.00    -0.356 N 
ATOM      4  C   UNL A   1      33.946  28.962  26.593  1.00  0.00     0.228 C 
ATOM      5  O   UNL A   1      34.110  28.139  25.687  1.00  0.00    -0.275 OA
ATOM      6  H   UNL A   1      35.895  28.989  26.925  1.00  0.00     0.163 HD
BRANCH   4   7
ATOM      7  C   UNL A   1      32.551  29.499  26.900  1.00  0.00     0.133 C 
ATOM      8  C   UNL A   1      31.694  28.390  27.522  1.00  0.00     0.024 C 
BRANCH   7   9
ATOM      9  C   UNL A   1      31.912  30.247  25.702  1.00  0.00     0.191 C 
ATOM     10  C   UNL A   1      31.083  31.442  26.196  1.00  0.00     0.076 C 
BRANCH   9  11
ATOM     11  N   UNL A   1      31.088  29.319  24.906  1.00  0.00    -0.336 N 
ATOM     12  H   UNL A   1      31.176  28.383  25.301  1.00  0.00     0.346 HD
ATOM     13  H   UNL A   1      30.126  29.656  24.940  1.00  0.00     0.346 HD
BRANCH  11  14
ATOM     14  C   UNL A   1      31.490  29.271  23.489  1.00  0.00     0.362 C 
BRANCH  14  15
ATOM     15  C   UNL A   1      30.304  28.855  22.617  1.00  0.00     0.275 C 
ATOM     16  N   UNL A   1      29.223  29.683  22.506  1.00  0.00    -0.351 N 
ATOM     17  H   UNL A   1      28.454  29.318  22.011  1.00  0.00     0.163 HD
ATOM     18  O   UNL A   1      30.290  27.774  22.024  1.00  0.00    -0.269 OA
BRANCH  16  19
ATOM     19  C   UNL A   1      29.059  31.029  23.021  1.00  0.00     0.112 C 
ATOM     20  C   UNL A   1      27.662  31.226  23.579  1.00  0.00     0.027 C 
ENDBRANCH  16  19
ENDBRANCH  14  15
ENDBRANCH  11  14
ENDBRANCH   9  11
ENDBRANCH   7   9
ENDBRANCH   4   7
ENDBRANCH   2   3
ENDBRANCH   1   2
BRANCH   1  21
ATOM     21  C   UNL A   1      34.604  32.636  29.152  1.00  0.00     0.002 C 
BRANCH  21  22
ATOM     22  C   UNL A   1      34.708  34.135  28.860  1.00  0.00     0.002 C 
BRANCH  22  23
ATOM     23  C   UNL A   1      33.385  34.902  28.898  1.00  0.00     0.021 C 
BRANCH  23  24
ATOM     24  C   UNL A   1      33.422  36.204  29.690  1.00  0.00     0.116 C 
BRANCH  24  25
ATOM     25  N   UNL A   1      32.449  36.220  30.770  1.00  0.00    -0.352 N 
ATOM     26  C   UNL A   1      32.492  35.591  31.986  1.00  0.00     0.251 C 
ATOM     27  H   UNL A   1      31.643  36.760  30.604  1.00  0.00     0.163 HD
ATOM     28  O   UNL A   1      31.494  35.567  32.708  1.00  0.00    -0.269 OA
BRANCH  26  29
ATOM     29  C   UNL A   1      33.730  34.918  32.429  1.00  0.00     0.039 A 
ATOM     30  C   UNL A   1      33.656  33.605  32.898  1.00  0.00     0.014 A 
ATOM     31  C   UNL A   1      34.960  35.584  32.394  1.00  0.00     0.014 A 
ATOM     32  C   UNL A   1      34.823  32.938  33.278  1.00  0.00     0.010 A 
ATOM     33  C   UNL A   1      36.129  34.897  32.705  1.00  0.00     0.010 A 
ATOM     34  C   UNL A   1      36.072  33.568  33.156  1.00  0.00    -0.014 A 
BRANCH  34  35
ATOM     35  C   UNL A   1      37.328  32.859  33.503  1.00  0.00     0.031 A 
ATOM     36  C   UNL A   1      38.037  33.165  34.791  1.00  0.00     0.074 A 
ATOM     37  C   UNL A   1      37.861  31.984  32.629  1.00  0.00     0.049 A 
ATOM     38  N   UNL A   1      39.171  32.695  35.246  1.00  0.00    -0.248 NA
ATOM     39  C   UNL A   1      37.400  34.154  35.675  1.00  0.00     0.031 C 
ATOM     40  C   UNL A   1      37.287  31.629  31.331  1.00  0.00     0.029 A 
ATOM     41  N   UNL A   1      39.009  31.235  32.702  1.00  0.00    -0.354 N 
ATOM     42  C   UNL A   1      39.387  33.337  36.458  1.00  0.00     0.074 A 
ATOM     43  C   UNL A   1      38.299  34.273  36.640  1.00  0.00     0.031 C 
ATOM     44  C   UNL A   1      38.067  30.707  30.744  1.00  0.00     0.029 A 
ATOM     45  C   UNL A   1      39.214  30.436  31.604  1.00  0.00     0.049 A 
ATOM     46  H   UNL A   1      39.627  31.269  33.467  1.00  0.00     0.167 HD
ATOM     47  C   UNL A   1      40.389  33.146  37.350  1.00  0.00     0.037 A 
ATOM     48  C   UNL A   1      40.215  29.580  31.326  1.00  0.00     0.037 A 
ATOM     49  C   UNL A   1      41.460  32.199  37.175  1.00  0.00     0.049 A 
ATOM     50  C   UNL A   1      41.331  29.406  32.320  1.00  0.00     0.074 A 
ATOM     51  C   UNL A   1      42.490  31.888  38.044  1.00  0.00     0.029 A 
ATOM     52  N   UNL A   1      41.639  31.413  36.045  1.00  0.00    -0.354 N 
ATOM     53  N   UNL A   1      41.492  29.970  33.493  1.00  0.00    -0.248 NA
ATOM     54  C   UNL A   1      42.405  28.475  31.949  1.00  0.00     0.031 C 
ATOM     55  C   UNL A   1      43.320  30.949  37.421  1.00  0.00     0.029 A 
ATOM     56  C   UNL A   1      42.778  30.637  36.184  1.00  0.00     0.049 A 
ATOM     57  H   UNL A   1      41.044  31.408  35.261  1.00  0.00     0.167 HD
ATOM     58  C   UNL A   1      42.663  29.439  34.014  1.00  0.00     0.074 A 
ATOM     59  C   UNL A   1      43.169  28.501  33.032  1.00  0.00     0.031 C 
ATOM     60  C   UNL A   1      43.264  29.702  35.200  1.00  0.00     0.037 A 
BRANCH  47  61
ATOM     61  C   UNL A   1      40.370  33.987  38.595  1.00  0.00     0.064 A 
ATOM     62  C   UNL A   1      41.069  35.203  38.673  1.00  0.00     0.173 A 
ATOM     63  C   UNL A   1      39.644  33.577  39.722  1.00  0.00     0.173 A 
ATOM     64  F   UNL A   1      41.789  35.635  37.627  1.00  0.00    -0.203 F 
ATOM     65  C   UNL A   1      41.075  35.953  39.846  1.00  0.00     0.198 A 
ATOM     66  C   UNL A   1      39.624  34.347  40.883  1.00  0.00     0.198 A 
ATOM     67  F   UNL A   1      38.952  32.427  39.701  1.00  0.00    -0.203 F 
ATOM     68  F   UNL A   1      41.803  37.077  39.916  1.00  0.00    -0.200 F 
ATOM     69  C   UNL A   1      40.349  35.527  40.948  1.00  0.00     0.200 A 
ATOM     70  F   UNL A   1      38.913  33.940  41.943  1.00  0.00    -0.200 F 
ATOM     71  F   UNL A   1      40.359  36.249  42.077  1.00  0.00    -0.200 F 
ENDBRANCH  47  61
BRANCH  48  72
ATOM     72  C   UNL A   1      40.183  28.786  30.071  1.00  0.00     0.064 A 
ATOM     73  C   UNL A   1      39.543  27.539  30.033  1.00  0.00     0.173 A 
ATOM     74  C   UNL A   1      40.780  29.251  28.891  1.00  0.00     0.173 A 
ATOM     75  F   UNL A   1      38.975  27.045  31.143  1.00  0.00    -0.203 F 
ATOM     76  C   UNL A   1      39.513  26.781  28.864  1.00  0.00     0.198 A 
ATOM     77  C   UNL A   1      40.727  28.503  27.717  1.00  0.00     0.198 A 
ATOM     78  F   UNL A   1      41.402  30.439  28.875  1.00  0.00    -0.203 F 
ATOM     79  F   UNL A   1      38.926  25.577  28.865  1.00  0.00    -0.200 F 
ATOM     80  C   UNL A   1      40.099  27.266  27.705  1.00  0.00     0.200 A 
ATOM     81  F   UNL A   1      41.283  28.982  26.595  1.00  0.00    -0.200 F 
ATOM     82  F   UNL A   1      40.064  26.540  26.580  1.00  0.00    -0.200 F 
ENDBRANCH  48  72
BRANCH  60  83
ATOM     83  C   UNL A   1      44.516  28.938  35.520  1.00  0.00     0.064 A 
ATOM     84  C   UNL A   1      45.787  29.430  35.186  1.00  0.00     0.173 A 
ATOM     85  C   UNL A   1      44.444  27.712  36.199  1.00  0.00     0.173 A 
ATOM     86  F   UNL A   1      45.908  30.589  34.521  1.00  0.00    -0.203 F 
ATOM     87  C   UNL A   1      46.937  28.711  35.498  1.00  0.00     0.198 A 
ATOM     88  C   UNL A   1      45.598  27.010  36.535  1.00  0.00     0.198 A 
ATOM     89  F   UNL A   1      43.254  27.199  36.546  1.00  0.00    -0.203 F 
ATOM     90  F   UNL A   1      48.137  29.177  35.127  1.00  0.00    -0.200 F 
ATOM     91  C   UNL A   1      46.843  27.506  36.179  1.00  0.00     0.200 A 
ATOM     92  F   UNL A   1      45.505  25.852  37.205  1.00  0.00    -0.200 F 
ATOM     93  F   UNL A   1      47.951  26.818  36.484  1.00  0.00    -0.200 F 
ENDBRANCH  60  83
ENDBRANCH  34  35
ENDBRANCH  26  29
ENDBRANCH  24  25
ENDBRANCH  23  24
ENDBRANCH  22  23
ENDBRANCH  21  22
ENDBRANCH   1  21
TORSDOF 18
ENDMDL
MODEL 3
REMARK VINA RESULT:     -10.3      2.068      3.973
REMARK SMILES CCNC(=O)C[NH2+][C@@H](C)[C@@H](C)C(=O)NCCCCCCNC(=O)c1ccc(-c2c3nc(c(-c4c(F)c(F)c(F)c(F)c4F)c4ccc([nH]4)c(-c4c(F)c(F)c(F)c(F)c4F)c4nc(c(-c5c(F)c(F)c(F)c(F)c5F)c5ccc2[nH]5)C=C4)C=C3)cc1
REMARK SMILES IDX 16 1 15 2 14 3 12 4 13 5 10 7 11 8 8 9 9 10 7 11 6 14 4 15
REMARK SMILES IDX 3 16 5 18 2 19 1 20 17 21 18 22 19 23 20 24 21 25 22 26
REMARK SMILES IDX 23 28 24 29 25 30 86 31 26 32 85 33 27 34 28 35 29 36 79 37
REMARK SMILES IDX 30 38 84 39 78 40 80 41 31 42 83 43 77 44 76 45 32 47 64 48
REMARK SMILES IDX 44 49 63 50 45 51 48 52 62 53 81 54 46 55 47 56 61 58 82 59
REMARK SMILES IDX 49 60 33 61 34 62 42 63 35 64 36 65 40 66 43 67 37 68 38 69
REMARK SMILES IDX 41 70 39 71 65 72 66 73 74 74 67 75 68 76 72 77 75 78 69 79
REMARK SMILES IDX 70 80 73 81 71 82 50 83 51 84 59 85 52 86 53 87 57 88 60 89
REMARK SMILES IDX 54 90 55 91 58 92 56 93
REMARK H PARENT 14 6 7 12 7 13 3 17 21 27 80 46 48 57
REMARK Flexibility Score: inf
ROOT
ATOM      1  C   UNL A   1      32.208  28.387  26.177  1.00  0.00     0.021 C 
ENDROOT
BRANCH   1   2
ATOM      2  C   UNL A   1      31.302  27.320  25.562  1.00  0.00     0.116 C 
BRANCH   2   3
ATOM      3  N   UNL A   1      31.106  26.209  26.472  1.00  0.00    -0.356 N 
ATOM      4  C   UNL A   1      31.410  24.889  26.364  1.00  0.00     0.228 C 
ATOM      5  O   UNL A   1      31.063  24.156  27.296  1.00  0.00    -0.275 OA
ATOM      6  H   UNL A   1      30.674  26.456  27.321  1.00  0.00     0.163 HD
BRANCH   4   7
ATOM      7  C   UNL A   1      32.165  24.311  25.170  1.00  0.00     0.133 C 
ATOM      8  C   UNL A   1      31.285  23.282  24.451  1.00  0.00     0.024 C 
BRANCH   7   9
ATOM      9  C   UNL A   1      33.595  23.834  25.532  1.00  0.00     0.191 C 
ATOM     10  C   UNL A   1      34.601  24.982  25.366  1.00  0.00     0.076 C 
BRANCH   9  11
ATOM     11  N   UNL A   1      33.968  22.674  24.703  1.00  0.00    -0.336 N 
ATOM     12  H   UNL A   1      33.115  22.211  24.387  1.00  0.00     0.346 HD
ATOM     13  H   UNL A   1      34.523  23.021  23.920  1.00  0.00     0.346 HD
BRANCH  11  14
ATOM     14  C   UNL A   1      34.793  21.694  25.430  1.00  0.00     0.362 C 
BRANCH  14  15
ATOM     15  C   UNL A   1      34.015  21.125  26.618  1.00  0.00     0.275 C 
ATOM     16  N   UNL A   1      33.214  20.032  26.441  1.00  0.00    -0.351 N 
ATOM     17  H   UNL A   1      32.665  19.774  27.217  1.00  0.00     0.163 HD
ATOM     18  O   UNL A   1      34.076  21.643  27.734  1.00  0.00    -0.269 OA
BRANCH  16  19
ATOM     19  C   UNL A   1      33.064  19.203  25.260  1.00  0.00     0.112 C 
ATOM     20  C   UNL A   1      32.612  17.805  25.637  1.00  0.00     0.027 C 
ENDBRANCH  16  19
ENDBRANCH  14  15
ENDBRANCH  11  14
ENDBRANCH   9  11
ENDBRANCH   7   9
ENDBRANCH   4   7
ENDBRANCH   2   3
ENDBRANCH   1   2
BRANCH   1  21
ATOM     21  C   UNL A   1      31.870  29.822  25.753  1.00  0.00     0.002 C 
BRANCH  21  22
ATOM     22  C   UNL A   1      31.373  30.735  26.877  1.00  0.00     0.002 C 
BRANCH  22  23
ATOM     23  C   UNL A   1      31.483  32.235  26.597  1.00  0.00     0.021 C 
BRANCH  23  24
ATOM     24  C   UNL A   1      32.724  32.905  27.178  1.00  0.00     0.116 C 
BRANCH  24  25
ATOM     25  N   UNL A   1      32.461  34.266  27.616  1.00  0.00    -0.352 N 
ATOM     26  C   UNL A   1      33.019  34.967  28.654  1.00  0.00     0.251 C 
ATOM     27  H   UNL A   1      31.785  34.755  27.094  1.00  0.00     0.163 HD
ATOM     28  O   UNL A   1      32.545  36.051  28.996  1.00  0.00    -0.269 OA
BRANCH  26  29
ATOM     29  C   UNL A   1      34.179  34.414  29.382  1.00  0.00     0.039 A 
ATOM     30  C   UNL A   1      33.966  33.760  30.597  1.00  0.00     0.014 A 
ATOM     31  C   UNL A   1      35.475  34.551  28.875  1.00  0.00     0.014 A 
ATOM     32  C   UNL A   1      35.045  33.191  31.277  1.00  0.00     0.010 A 
ATOM     33  C   UNL A   1      36.540  33.925  29.516  1.00  0.00     0.010 A 
ATOM     34  C   UNL A   1      36.336  33.243  30.726  1.00  0.00    -0.014 A 
BRANCH  34  35
ATOM     35  C   UNL A   1      37.487  32.599  31.405  1.00  0.00     0.031 A 
ATOM     36  C   UNL A   1      38.214  31.463  30.745  1.00  0.00     0.074 A 
ATOM     37  C   UNL A   1      37.839  32.997  32.643  1.00  0.00     0.049 A 
ATOM     38  N   UNL A   1      39.205  30.736  31.198  1.00  0.00    -0.248 NA
ATOM     39  C   UNL A   1      37.749  31.074  29.405  1.00  0.00     0.031 C 
ATOM     40  C   UNL A   1      37.187  34.064  33.404  1.00  0.00     0.029 A 
ATOM     41  N   UNL A   1      38.829  32.548  33.480  1.00  0.00    -0.354 N 
ATOM     42  C   UNL A   1      39.470  29.800  30.208  1.00  0.00     0.074 A 
ATOM     43  C   UNL A   1      38.499  30.012  29.156  1.00  0.00     0.031 C 
ATOM     44  C   UNL A   1      37.817  34.210  34.581  1.00  0.00     0.029 A 
ATOM     45  C   UNL A   1      38.888  33.222  34.674  1.00  0.00     0.049 A 
ATOM     46  H   UNL A   1      39.439  31.812  33.246  1.00  0.00     0.167 HD
ATOM     47  C   UNL A   1      40.449  28.864  30.168  1.00  0.00     0.037 A 
ATOM     48  C   UNL A   1      39.714  33.062  35.725  1.00  0.00     0.037 A 
ATOM     49  C   UNL A   1      41.425  28.669  31.209  1.00  0.00     0.049 A 
ATOM     50  C   UNL A   1      40.775  31.996  35.669  1.00  0.00     0.074 A 
ATOM     51  C   UNL A   1      42.492  27.789  31.240  1.00  0.00     0.029 A 
ATOM     52  N   UNL A   1      41.447  29.366  32.409  1.00  0.00    -0.354 N 
ATOM     53  N   UNL A   1      41.059  31.160  34.700  1.00  0.00    -0.248 NA
ATOM     54  C   UNL A   1      41.631  31.856  36.855  1.00  0.00     0.031 C 
ATOM     55  C   UNL A   1      43.130  27.919  32.478  1.00  0.00     0.029 A 
ATOM     56  C   UNL A   1      42.493  28.917  33.199  1.00  0.00     0.049 A 
ATOM     57  H   UNL A   1      40.812  30.075  32.661  1.00  0.00     0.167 HD
ATOM     58  C   UNL A   1      42.145  30.418  35.144  1.00  0.00     0.074 A 
ATOM     59  C   UNL A   1      42.473  30.909  36.466  1.00  0.00     0.031 C 
ATOM     60  C   UNL A   1      42.811  29.421  34.511  1.00  0.00     0.037 A 
BRANCH  47  61
ATOM     61  C   UNL A   1      40.504  27.977  28.957  1.00  0.00     0.064 A 
ATOM     62  C   UNL A   1      41.284  28.308  27.836  1.00  0.00     0.173 A 
ATOM     63  C   UNL A   1      39.772  26.782  28.914  1.00  0.00     0.173 A 
ATOM     64  F   UNL A   1      41.993  29.446  27.820  1.00  0.00    -0.203 F 
ATOM     65  C   UNL A   1      41.294  27.496  26.705  1.00  0.00     0.198 A 
ATOM     66  C   UNL A   1      39.812  25.954  27.794  1.00  0.00     0.198 A 
ATOM     67  F   UNL A   1      39.015  26.413  29.959  1.00  0.00    -0.203 F 
ATOM     68  F   UNL A   1      41.995  27.867  25.624  1.00  0.00    -0.200 F 
ATOM     69  C   UNL A   1      40.562  26.319  26.686  1.00  0.00     0.200 A 
ATOM     70  F   UNL A   1      39.113  24.811  27.782  1.00  0.00    -0.200 F 
ATOM     71  F   UNL A   1      40.571  25.541  25.595  1.00  0.00    -0.200 F 
ENDBRANCH  47  61
BRANCH  48  72
ATOM     72  C   UNL A   1      39.601  33.962  36.900  1.00  0.00     0.064 A 
ATOM     73  C   UNL A   1      38.833  33.590  38.012  1.00  0.00     0.173 A 
ATOM     74  C   UNL A   1      40.256  35.201  36.944  1.00  0.00     0.173 A 
ATOM     75  F   UNL A   1      38.172  32.423  38.007  1.00  0.00    -0.203 F 
ATOM     76  C   UNL A   1      38.712  34.429  39.118  1.00  0.00     0.198 A 
ATOM     77  C   UNL A   1      40.156  36.027  38.061  1.00  0.00     0.198 A 
ATOM     78  F   UNL A   1      41.007  35.601  35.907  1.00  0.00    -0.203 F 
ATOM     79  F   UNL A   1      37.942  34.064  40.152  1.00  0.00    -0.200 F 
ATOM     80  C   UNL A   1      39.379  35.644  39.144  1.00  0.00     0.200 A 
ATOM     81  F   UNL A   1      40.813  37.195  38.089  1.00  0.00    -0.200 F 
ATOM     82  F   UNL A   1      39.268  36.448  40.211  1.00  0.00    -0.200 F 
ENDBRANCH  48  72
BRANCH  60  83
ATOM     83  C   UNL A   1      43.987  28.820  35.225  1.00  0.00     0.064 A 
ATOM     84  C   UNL A   1      45.283  29.334  35.075  1.00  0.00     0.173 A 
ATOM     85  C   UNL A   1      43.808  27.735  36.097  1.00  0.00     0.173 A 
ATOM     86  F   UNL A   1      45.510  30.359  34.239  1.00  0.00    -0.203 F 
ATOM     87  C   UNL A   1      46.360  28.768  35.751  1.00  0.00     0.198 A 
ATOM     88  C   UNL A   1      44.883  27.191  36.795  1.00  0.00     0.198 A 
ATOM     89  F   UNL A   1      42.588  27.209  36.282  1.00  0.00    -0.203 F 
ATOM     90  F   UNL A   1      47.597  29.245  35.554  1.00  0.00    -0.200 F 
ATOM     91  C   UNL A   1      46.159  27.703  36.616  1.00  0.00     0.200 A 
ATOM     92  F   UNL A   1      44.683  26.170  37.641  1.00  0.00    -0.200 F 
ATOM     93  F   UNL A   1      47.196  27.165  37.271  1.00  0.00    -0.200 F 
ENDBRANCH  60  83
ENDBRANCH  34  35
ENDBRANCH  26  29
ENDBRANCH  24  25
ENDBRANCH  23  24
ENDBRANCH  22  23
ENDBRANCH  21  22
ENDBRANCH   1  21
TORSDOF 18
ENDMDL
