MODEL 1
REMARK VINA RESULT:     -13.6      0.000      0.000
REMARK SMILES C[C@H]1CC[C@H]([NH2+]Cc2c(C(=O)NCCCCCCNC(=O)c3ccc(-c4c5nc(c(-c6c(F)c(F)c(F)c(F)c6F)c6ccc([nH]6)c(-c6c(F)c(F)c(F)c(F)c6F)c6nc(c(-c7c(F)c(F)c(F)c(F)c7F)c7ccc4[nH]7)C=C6)C=C5)cc3)n(Cc3ccccc3F)c3ccccc23)CC1
REMARK SMILES IDX 15 1 14 2 13 3 12 4 10 5 11 6 9 8 8 9 99 10 85 11 94 12
REMARK SMILES IDX 98 13 95 14 97 15 96 16 7 17 6 18 5 21 1 22 2 23 3 24 101 25
REMARK SMILES IDX 4 26 100 27 86 28 87 29 88 30 92 31 89 32 91 33 93 34 90 35
REMARK SMILES IDX 16 36 17 37 18 38 19 39 20 40 21 42 22 43 23 44 84 45 24 46
REMARK SMILES IDX 83 47 25 48 26 49 27 50 77 51 28 52 82 53 76 54 78 55 29 56
REMARK SMILES IDX 81 57 75 58 74 59 30 61 62 62 42 63 61 64 43 65 46 66 60 67
REMARK SMILES IDX 79 68 44 69 45 70 59 72 80 73 47 74 31 75 32 76 40 77 33 78
REMARK SMILES IDX 34 79 38 80 41 81 35 82 36 83 39 84 37 85 63 86 64 87 72 88
REMARK SMILES IDX 65 89 66 90 70 91 73 92 67 93 68 94 71 95 69 96 48 97 49 98
REMARK SMILES IDX 57 99 50 100 51 101 55 102 58 103 52 104 53 105 56 106
REMARK SMILES IDX 54 107
REMARK H PARENT 12 7 6 19 6 20 19 41 78 60 46 71
REMARK Flexibility Score: inf
ROOT
ATOM      1  C   UNL A   1      32.353  29.520  27.255  1.00  0.00     0.002 C 
ENDROOT
BRANCH   1   2
ATOM      2  C   UNL A   1      31.496  28.250  27.400  1.00  0.00     0.021 C 
BRANCH   2   3
ATOM      3  C   UNL A   1      32.143  26.955  26.913  1.00  0.00     0.116 C 
BRANCH   3   4
ATOM      4  N   UNL A   1      31.286  25.794  26.959  1.00  0.00    -0.351 N 
ATOM      5  C   UNL A   1      31.513  24.477  26.643  1.00  0.00     0.268 C 
ATOM      6  O   UNL A   1      30.516  23.754  26.815  1.00  0.00    -0.268 OA
ATOM      7  H   UNL A   1      30.372  25.980  27.275  1.00  0.00     0.163 HD
BRANCH   5   8
ATOM      8  C   UNL A   1      32.768  23.946  26.099  1.00  0.00     0.117 A 
ATOM      9  C   UNL A   1      33.649  22.938  26.538  1.00  0.00     0.045 A 
ATOM     10  C   UNL A   1      34.866  23.111  25.804  1.00  0.00     0.009 A 
ATOM     11  N   UNL A   1      33.245  24.252  24.798  1.00  0.00    -0.331 N 
ATOM     12  C   UNL A   1      34.524  23.738  24.618  1.00  0.00     0.049 A 
ATOM     13  C   UNL A   1      36.185  22.635  25.975  1.00  0.00     0.011 A 
ATOM     14  C   UNL A   1      35.405  23.729  23.519  1.00  0.00     0.027 A 
ATOM     15  C   UNL A   1      37.113  22.770  24.942  1.00  0.00     0.001 A 
ATOM     16  C   UNL A   1      36.712  23.272  23.713  1.00  0.00     0.002 A 
BRANCH   9  17
ATOM     17  C   UNL A   1      33.549  21.809  27.521  1.00  0.00     0.300 C 
BRANCH  17  18
ATOM     18  N   UNL A   1      33.243  20.501  26.978  1.00  0.00    -0.340 N 
ATOM     19  H   UNL A   1      33.826  19.840  27.492  1.00  0.00     0.346 HD
ATOM     20  H   UNL A   1      32.228  20.472  27.079  1.00  0.00     0.346 HD
BRANCH  18  21
ATOM     21  C   UNL A   1      33.405  20.165  25.563  1.00  0.00     0.182 C 
ATOM     22  C   UNL A   1      32.193  17.831  21.997  1.00  0.00     0.007 C 
ATOM     23  C   UNL A   1      32.261  18.518  23.354  1.00  0.00    -0.014 C 
ATOM     24  C   UNL A   1      32.405  20.035  23.215  1.00  0.00     0.009 C 
ATOM     25  C   UNL A   1      33.423  17.980  24.189  1.00  0.00     0.009 C 
ATOM     26  C   UNL A   1      32.343  20.692  24.592  1.00  0.00     0.065 C 
ATOM     27  C   UNL A   1      33.433  18.618  25.571  1.00  0.00     0.065 C 
ENDBRANCH  18  21
ENDBRANCH  17  18
ENDBRANCH   9  17
BRANCH  11  28
ATOM     28  C   UNL A   1      32.476  24.847  23.690  1.00  0.00     0.161 C 
BRANCH  28  29
ATOM     29  C   UNL A   1      32.506  26.357  23.605  1.00  0.00     0.008 A 
ATOM     30  C   UNL A   1      33.700  27.086  23.478  1.00  0.00     0.008 A 
ATOM     31  C   UNL A   1      31.312  27.080  23.524  1.00  0.00     0.128 A 
ATOM     32  C   UNL A   1      33.700  28.472  23.291  1.00  0.00     0.001 A 
ATOM     33  C   UNL A   1      31.300  28.466  23.355  1.00  0.00     0.039 A 
ATOM     34  F   UNL A   1      30.134  26.444  23.556  1.00  0.00    -0.207 F 
ATOM     35  C   UNL A   1      32.498  29.165  23.237  1.00  0.00     0.003 A 
ENDBRANCH  28  29
ENDBRANCH  11  28
ENDBRANCH   5   8
ENDBRANCH   3   4
ENDBRANCH   2   3
ENDBRANCH   1   2
BRANCH   1  36
ATOM     36  C   UNL A   1      33.811  29.367  26.793  1.00  0.00     0.002 C 
BRANCH  36  37
ATOM     37  C   UNL A   1      34.892  30.194  27.501  1.00  0.00     0.021 C 
BRANCH  37  38
ATOM     38  C   UNL A   1      34.560  31.662  27.773  1.00  0.00     0.116 C 
BRANCH  38  39
ATOM     39  N   UNL A   1      34.464  31.992  29.179  1.00  0.00    -0.352 N 
ATOM     40  C   UNL A   1      35.258  31.852  30.280  1.00  0.00     0.251 C 
ATOM     41  H   UNL A   1      33.609  32.428  29.396  1.00  0.00     0.163 HD
ATOM     42  O   UNL A   1      34.827  32.366  31.317  1.00  0.00    -0.269 OA
BRANCH  40  43
ATOM     43  C   UNL A   1      36.566  31.138  30.336  1.00  0.00     0.039 A 
ATOM     44  C   UNL A   1      37.799  31.655  29.940  1.00  0.00     0.014 A 
ATOM     45  C   UNL A   1      36.523  29.805  30.791  1.00  0.00     0.014 A 
ATOM     46  C   UNL A   1      38.947  30.856  29.973  1.00  0.00     0.010 A 
ATOM     47  C   UNL A   1      37.667  29.006  30.830  1.00  0.00     0.010 A 
ATOM     48  C   UNL A   1      38.884  29.523  30.395  1.00  0.00    -0.014 A 
BRANCH  48  49
ATOM     49  C   UNL A   1      40.121  28.734  30.382  1.00  0.00     0.031 A 
ATOM     50  C   UNL A   1      40.863  28.581  31.669  1.00  0.00     0.074 A 
ATOM     51  C   UNL A   1      40.572  28.038  29.317  1.00  0.00     0.049 A 
ATOM     52  N   UNL A   1      42.099  28.879  31.929  1.00  0.00    -0.248 NA
ATOM     53  C   UNL A   1      40.137  28.002  32.807  1.00  0.00     0.031 C 
ATOM     54  C   UNL A   1      39.878  27.750  28.061  1.00  0.00     0.029 A 
ATOM     55  N   UNL A   1      41.754  27.362  29.189  1.00  0.00    -0.354 N 
ATOM     56  C   UNL A   1      42.356  28.401  33.214  1.00  0.00     0.074 A 
ATOM     57  C   UNL A   1      41.097  27.925  33.730  1.00  0.00     0.031 C 
ATOM     58  C   UNL A   1      40.567  26.805  27.383  1.00  0.00     0.029 A 
ATOM     59  C   UNL A   1      41.810  26.529  28.086  1.00  0.00     0.049 A 
ATOM     60  H   UNL A   1      42.500  27.458  29.825  1.00  0.00     0.167 HD
ATOM     61  C   UNL A   1      43.616  28.298  33.722  1.00  0.00     0.037 A 
ATOM     62  C   UNL A   1      42.784  25.638  27.787  1.00  0.00     0.037 A 
ATOM     63  C   UNL A   1      44.559  29.124  33.021  1.00  0.00     0.049 A 
ATOM     64  C   UNL A   1      44.015  26.024  28.515  1.00  0.00     0.074 A 
ATOM     65  C   UNL A   1      44.690  30.478  32.786  1.00  0.00     0.029 A 
ATOM     66  N   UNL A   1      45.484  28.524  32.207  1.00  0.00    -0.354 N 
ATOM     67  N   UNL A   1      44.746  27.068  28.244  1.00  0.00    -0.248 NA
ATOM     68  C   UNL A   1      44.317  25.358  29.774  1.00  0.00     0.031 C 
ATOM     69  C   UNL A   1      45.345  30.583  31.523  1.00  0.00     0.029 A 
ATOM     70  C   UNL A   1      45.555  29.281  31.067  1.00  0.00     0.049 A 
ATOM     71  H   UNL A   1      45.998  27.707  32.404  1.00  0.00     0.167 HD
ATOM     72  C   UNL A   1      45.315  27.421  29.456  1.00  0.00     0.074 A 
ATOM     73  C   UNL A   1      45.145  26.256  30.311  1.00  0.00     0.031 C 
ATOM     74  C   UNL A   1      45.614  28.721  29.738  1.00  0.00     0.037 A 
BRANCH  61  75
ATOM     75  C   UNL A   1      44.063  27.251  34.716  1.00  0.00     0.064 A 
ATOM     76  C   UNL A   1      44.013  25.885  34.370  1.00  0.00     0.173 A 
ATOM     77  C   UNL A   1      44.266  27.525  36.084  1.00  0.00     0.173 A 
ATOM     78  F   UNL A   1      43.786  25.507  33.103  1.00  0.00    -0.203 F 
ATOM     79  C   UNL A   1      44.111  24.872  35.330  1.00  0.00     0.198 A 
ATOM     80  C   UNL A   1      44.416  26.511  37.033  1.00  0.00     0.198 A 
ATOM     81  F   UNL A   1      44.223  28.775  36.565  1.00  0.00    -0.203 F 
ATOM     82  F   UNL A   1      43.946  23.592  34.967  1.00  0.00    -0.200 F 
ATOM     83  C   UNL A   1      44.312  25.186  36.660  1.00  0.00     0.200 A 
ATOM     84  F   UNL A   1      44.589  26.833  38.322  1.00  0.00    -0.200 F 
ATOM     85  F   UNL A   1      44.357  24.221  37.588  1.00  0.00    -0.200 F 
ENDBRANCH  61  75
BRANCH  62  86
ATOM     86  C   UNL A   1      42.665  24.350  27.068  1.00  0.00     0.064 A 
ATOM     87  C   UNL A   1      43.114  24.211  25.746  1.00  0.00     0.173 A 
ATOM     88  C   UNL A   1      42.348  23.161  27.753  1.00  0.00     0.173 A 
ATOM     89  F   UNL A   1      43.484  25.290  25.039  1.00  0.00    -0.203 F 
ATOM     90  C   UNL A   1      43.258  22.954  25.150  1.00  0.00     0.198 A 
ATOM     91  C   UNL A   1      42.478  21.909  27.152  1.00  0.00     0.198 A 
ATOM     92  F   UNL A   1      41.996  23.184  29.046  1.00  0.00    -0.203 F 
ATOM     93  F   UNL A   1      43.751  22.856  23.908  1.00  0.00    -0.200 F 
ATOM     94  C   UNL A   1      42.946  21.804  25.856  1.00  0.00     0.200 A 
ATOM     95  F   UNL A   1      42.206  20.802  27.859  1.00  0.00    -0.200 F 
ATOM     96  F   UNL A   1      43.135  20.598  25.305  1.00  0.00    -0.200 F 
ENDBRANCH  62  86
BRANCH  74  97
ATOM     97  C   UNL A   1      45.675  29.689  28.596  1.00  0.00     0.064 A 
ATOM     98  C   UNL A   1      44.539  30.297  28.036  1.00  0.00     0.173 A 
ATOM     99  C   UNL A   1      46.931  30.119  28.145  1.00  0.00     0.173 A 
ATOM    100  F   UNL A   1      43.312  30.016  28.494  1.00  0.00    -0.203 F 
ATOM    101  C   UNL A   1      44.658  31.255  27.032  1.00  0.00     0.198 A 
ATOM    102  C   UNL A   1      47.046  31.103  27.167  1.00  0.00     0.198 A 
ATOM    103  F   UNL A   1      48.050  29.618  28.693  1.00  0.00    -0.203 F 
ATOM    104  F   UNL A   1      43.559  31.815  26.504  1.00  0.00    -0.200 F 
ATOM    105  C   UNL A   1      45.911  31.661  26.603  1.00  0.00     0.200 A 
ATOM    106  F   UNL A   1      48.260  31.531  26.792  1.00  0.00    -0.200 F 
ATOM    107  F   UNL A   1      46.025  32.615  25.667  1.00  0.00    -0.200 F 
ENDBRANCH  74  97
ENDBRANCH  48  49
ENDBRANCH  40  43
ENDBRANCH  38  39
ENDBRANCH  37  38
ENDBRANCH  36  37
ENDBRANCH   1  36
TORSDOF 18
ENDMDL
MODEL 2
REMARK VINA RESULT:     -13.5      3.226      8.588
REMARK SMILES C[C@H]1CC[C@H]([NH2+]Cc2c(C(=O)NCCCCCCNC(=O)c3ccc(-c4c5nc(c(-c6c(F)c(F)c(F)c(F)c6F)c6ccc([nH]6)c(-c6c(F)c(F)c(F)c(F)c6F)c6nc(c(-c7c(F)c(F)c(F)c(F)c7F)c7ccc4[nH]7)C=C6)C=C5)cc3)n(Cc3ccccc3F)c3ccccc23)CC1
REMARK SMILES IDX 15 1 14 2 13 3 12 4 10 5 11 6 9 8 8 9 99 10 85 11 94 12
REMARK SMILES IDX 98 13 95 14 97 15 96 16 7 17 6 18 5 21 1 22 2 23 3 24 101 25
REMARK SMILES IDX 4 26 100 27 86 28 87 29 88 30 92 31 89 32 91 33 93 34 90 35
REMARK SMILES IDX 16 36 17 37 18 38 19 39 20 40 21 42 22 43 23 44 84 45 24 46
REMARK SMILES IDX 83 47 25 48 26 49 27 50 77 51 28 52 82 53 76 54 78 55 29 56
REMARK SMILES IDX 81 57 75 58 74 59 30 61 62 62 42 63 61 64 43 65 46 66 60 67
REMARK SMILES IDX 79 68 44 69 45 70 59 72 80 73 47 74 31 75 32 76 40 77 33 78
REMARK SMILES IDX 34 79 38 80 41 81 35 82 36 83 39 84 37 85 63 86 64 87 72 88
REMARK SMILES IDX 65 89 66 90 70 91 73 92 67 93 68 94 71 95 69 96 48 97 49 98
REMARK SMILES IDX 57 99 50 100 51 101 55 102 58 103 52 104 53 105 56 106
REMARK SMILES IDX 54 107
REMARK H PARENT 12 7 6 19 6 20 19 41 78 60 46 71
REMARK Flexibility Score: inf
ROOT
ATOM      1  C   UNL A   1      35.214  22.623  23.625  1.00  0.00     0.002 C 
ENDROOT
BRANCH   1   2
ATOM      2  C   UNL A   1      34.525  23.368  22.468  1.00  0.00     0.021 C 
BRANCH   2   3
ATOM      3  C   UNL A   1      33.921  24.726  22.821  1.00  0.00     0.116 C 
BRANCH   3   4
ATOM      4  N   UNL A   1      34.203  25.186  24.161  1.00  0.00    -0.351 N 
ATOM      5  C   UNL A   1      33.463  25.931  25.047  1.00  0.00     0.268 C 
ATOM      6  O   UNL A   1      34.048  26.129  26.126  1.00  0.00    -0.268 OA
ATOM      7  H   UNL A   1      35.087  24.916  24.502  1.00  0.00     0.163 HD
BRANCH   5   8
ATOM      8  C   UNL A   1      32.141  26.502  24.767  1.00  0.00     0.117 A 
ATOM      9  C   UNL A   1      30.833  26.081  25.078  1.00  0.00     0.045 A 
ATOM     10  C   UNL A   1      29.950  26.845  24.247  1.00  0.00     0.009 A 
ATOM     11  N   UNL A   1      31.951  27.815  24.263  1.00  0.00    -0.331 N 
ATOM     12  C   UNL A   1      30.612  28.024  23.950  1.00  0.00     0.049 A 
ATOM     13  C   UNL A   1      28.595  26.703  23.876  1.00  0.00     0.011 A 
ATOM     14  C   UNL A   1      29.906  29.142  23.468  1.00  0.00     0.027 A 
ATOM     15  C   UNL A   1      27.932  27.758  23.247  1.00  0.00     0.001 A 
ATOM     16  C   UNL A   1      28.571  28.978  23.087  1.00  0.00     0.002 A 
BRANCH   9  17
ATOM     17  C   UNL A   1      30.247  25.094  26.044  1.00  0.00     0.300 C 
BRANCH  17  18
ATOM     18  N   UNL A   1      31.170  24.460  26.963  1.00  0.00    -0.340 N 
ATOM     19  H   UNL A   1      32.050  24.968  26.874  1.00  0.00     0.346 HD
ATOM     20  H   UNL A   1      30.644  24.499  27.837  1.00  0.00     0.346 HD
BRANCH  18  21
ATOM     21  C   UNL A   1      31.518  23.039  26.895  1.00  0.00     0.182 C 
ATOM     22  C   UNL A   1      33.718  19.702  24.985  1.00  0.00     0.007 C 
ATOM     23  C   UNL A   1      33.220  21.065  25.444  1.00  0.00    -0.014 C 
ATOM     24  C   UNL A   1      33.309  21.219  26.965  1.00  0.00     0.009 C 
ATOM     25  C   UNL A   1      31.776  21.305  25.002  1.00  0.00     0.009 C 
ATOM     26  C   UNL A   1      32.919  22.639  27.368  1.00  0.00     0.065 C 
ATOM     27  C   UNL A   1      31.317  22.700  25.399  1.00  0.00     0.065 C 
ENDBRANCH  18  21
ENDBRANCH  17  18
ENDBRANCH   9  17
BRANCH  11  28
ATOM     28  C   UNL A   1      32.941  28.906  24.236  1.00  0.00     0.161 C 
BRANCH  28  29
ATOM     29  C   UNL A   1      33.265  29.535  25.572  1.00  0.00     0.008 A 
ATOM     30  C   UNL A   1      34.458  29.268  26.266  1.00  0.00     0.008 A 
ATOM     31  C   UNL A   1      32.427  30.517  26.110  1.00  0.00     0.128 A 
ATOM     32  C   UNL A   1      34.789  29.943  27.446  1.00  0.00     0.001 A 
ATOM     33  C   UNL A   1      32.739  31.183  27.296  1.00  0.00     0.039 A 
ATOM     34  F   UNL A   1      31.313  30.882  25.461  1.00  0.00    -0.207 F 
ATOM     35  C   UNL A   1      33.925  30.897  27.967  1.00  0.00     0.003 A 
ENDBRANCH  28  29
ENDBRANCH  11  28
ENDBRANCH   5   8
ENDBRANCH   3   4
ENDBRANCH   2   3
ENDBRANCH   1   2
BRANCH   1  36
ATOM     36  C   UNL A   1      36.750  22.559  23.638  1.00  0.00     0.002 C 
BRANCH  36  37
ATOM     37  C   UNL A   1      37.428  21.484  24.498  1.00  0.00     0.021 C 
BRANCH  37  38
ATOM     38  C   UNL A   1      38.049  21.953  25.814  1.00  0.00     0.116 C 
BRANCH  38  39
ATOM     39  N   UNL A   1      39.486  21.792  25.877  1.00  0.00    -0.352 N 
ATOM     40  C   UNL A   1      40.541  22.525  26.338  1.00  0.00     0.251 C 
ATOM     41  H   UNL A   1      39.776  20.935  25.488  1.00  0.00     0.163 HD
ATOM     42  O   UNL A   1      41.642  21.969  26.281  1.00  0.00    -0.269 OA
BRANCH  40  43
ATOM     43  C   UNL A   1      40.476  23.912  26.882  1.00  0.00     0.039 A 
ATOM     44  C   UNL A   1      39.571  24.900  26.501  1.00  0.00     0.014 A 
ATOM     45  C   UNL A   1      41.458  24.247  27.837  1.00  0.00     0.014 A 
ATOM     46  C   UNL A   1      39.661  26.190  27.035  1.00  0.00     0.010 A 
ATOM     47  C   UNL A   1      41.549  25.530  28.377  1.00  0.00     0.010 A 
ATOM     48  C   UNL A   1      40.662  26.518  27.957  1.00  0.00    -0.014 A 
BRANCH  48  49
ATOM     49  C   UNL A   1      40.714  27.896  28.460  1.00  0.00     0.031 A 
ATOM     50  C   UNL A   1      41.838  28.764  27.997  1.00  0.00     0.074 A 
ATOM     51  C   UNL A   1      39.753  28.470  29.214  1.00  0.00     0.049 A 
ATOM     52  N   UNL A   1      42.709  29.408  28.713  1.00  0.00    -0.248 NA
ATOM     53  C   UNL A   1      41.998  28.955  26.550  1.00  0.00     0.031 C 
ATOM     54  C   UNL A   1      38.417  27.962  29.523  1.00  0.00     0.029 A 
ATOM     55  N   UNL A   1      39.767  29.706  29.801  1.00  0.00    -0.354 N 
ATOM     56  C   UNL A   1      43.441  30.196  27.825  1.00  0.00     0.074 A 
ATOM     57  C   UNL A   1      43.002  29.832  26.501  1.00  0.00     0.031 C 
ATOM     58  C   UNL A   1      37.683  28.955  30.074  1.00  0.00     0.029 A 
ATOM     59  C   UNL A   1      38.536  30.115  30.281  1.00  0.00     0.049 A 
ATOM     60  H   UNL A   1      40.580  30.256  29.876  1.00  0.00     0.167 HD
ATOM     61  C   UNL A   1      44.264  31.200  28.239  1.00  0.00     0.037 A 
ATOM     62  C   UNL A   1      38.218  31.335  30.774  1.00  0.00     0.037 A 
ATOM     63  C   UNL A   1      44.643  31.063  29.618  1.00  0.00     0.049 A 
ATOM     64  C   UNL A   1      39.465  32.010  31.200  1.00  0.00     0.074 A 
ATOM     65  C   UNL A   1      45.316  30.112  30.359  1.00  0.00     0.029 A 
ATOM     66  N   UNL A   1      44.112  31.930  30.537  1.00  0.00    -0.354 N 
ATOM     67  N   UNL A   1      40.184  31.668  32.231  1.00  0.00    -0.248 NA
ATOM     68  C   UNL A   1      40.090  32.959  30.290  1.00  0.00     0.031 C 
ATOM     69  C   UNL A   1      44.764  30.194  31.672  1.00  0.00     0.029 A 
ATOM     70  C   UNL A   1      43.780  31.182  31.637  1.00  0.00     0.049 A 
ATOM     71  H   UNL A   1      43.993  32.901  30.428  1.00  0.00     0.167 HD
ATOM     72  C   UNL A   1      41.475  32.039  31.897  1.00  0.00     0.074 A 
ATOM     73  C   UNL A   1      41.330  32.958  30.779  1.00  0.00     0.031 C 
ATOM     74  C   UNL A   1      42.550  31.346  32.372  1.00  0.00     0.037 A 
BRANCH  61  75
ATOM     75  C   UNL A   1      44.542  32.464  27.461  1.00  0.00     0.064 A 
ATOM     76  C   UNL A   1      45.760  32.609  26.765  1.00  0.00     0.173 A 
ATOM     77  C   UNL A   1      43.783  33.643  27.609  1.00  0.00     0.173 A 
ATOM     78  F   UNL A   1      46.582  31.562  26.597  1.00  0.00    -0.203 F 
ATOM     79  C   UNL A   1      46.205  33.850  26.296  1.00  0.00     0.198 A 
ATOM     80  C   UNL A   1      44.204  34.871  27.095  1.00  0.00     0.198 A 
ATOM     81  F   UNL A   1      42.663  33.670  28.343  1.00  0.00    -0.203 F 
ATOM     82  F   UNL A   1      47.420  33.956  25.740  1.00  0.00    -0.200 F 
ATOM     83  C   UNL A   1      45.427  34.979  26.462  1.00  0.00     0.200 A 
ATOM     84  F   UNL A   1      43.448  35.961  27.283  1.00  0.00    -0.200 F 
ATOM     85  F   UNL A   1      45.872  36.177  26.058  1.00  0.00    -0.200 F 
ENDBRANCH  61  75
BRANCH  62  86
ATOM     86  C   UNL A   1      36.920  32.043  30.714  1.00  0.00     0.064 A 
ATOM     87  C   UNL A   1      36.075  32.108  31.832  1.00  0.00     0.173 A 
ATOM     88  C   UNL A   1      36.603  32.893  29.636  1.00  0.00     0.173 A 
ATOM     89  F   UNL A   1      36.334  31.369  32.921  1.00  0.00    -0.203 F 
ATOM     90  C   UNL A   1      34.988  32.987  31.878  1.00  0.00     0.198 A 
ATOM     91  C   UNL A   1      35.511  33.758  29.678  1.00  0.00     0.198 A 
ATOM     92  F   UNL A   1      37.400  32.967  28.561  1.00  0.00    -0.203 F 
ATOM     93  F   UNL A   1      34.241  33.068  32.988  1.00  0.00    -0.200 F 
ATOM     94  C   UNL A   1      34.711  33.816  30.804  1.00  0.00     0.200 A 
ATOM     95  F   UNL A   1      35.274  34.579  28.644  1.00  0.00    -0.200 F 
ATOM     96  F   UNL A   1      33.703  34.696  30.869  1.00  0.00    -0.200 F 
ENDBRANCH  62  86
BRANCH  74  97
ATOM     97  C   UNL A   1      42.334  30.439  33.545  1.00  0.00     0.064 A 
ATOM     98  C   UNL A   1      42.448  30.860  34.880  1.00  0.00     0.173 A 
ATOM     99  C   UNL A   1      41.861  29.140  33.312  1.00  0.00     0.173 A 
ATOM    100  F   UNL A   1      42.789  32.121  35.177  1.00  0.00    -0.203 F 
ATOM    101  C   UNL A   1      42.153  29.998  35.934  1.00  0.00     0.198 A 
ATOM    102  C   UNL A   1      41.532  28.293  34.367  1.00  0.00     0.198 A 
ATOM    103  F   UNL A   1      41.670  28.709  32.055  1.00  0.00    -0.203 F 
ATOM    104  F   UNL A   1      42.281  30.418  37.201  1.00  0.00    -0.200 F 
ATOM    105  C   UNL A   1      41.690  28.718  35.676  1.00  0.00     0.200 A 
ATOM    106  F   UNL A   1      41.034  27.075  34.114  1.00  0.00    -0.200 F 
ATOM    107  F   UNL A   1      41.364  27.903  36.691  1.00  0.00    -0.200 F 
ENDBRANCH  74  97
ENDBRANCH  48  49
ENDBRANCH  40  43
ENDBRANCH  38  39
ENDBRANCH  37  38
ENDBRANCH  36  37
ENDBRANCH   1  36
TORSDOF 18
ENDMDL
MODEL 3
REMARK VINA RESULT:     -13.5      2.955      8.171
REMARK SMILES C[C@H]1CC[C@H]([NH2+]Cc2c(C(=O)NCCCCCCNC(=O)c3ccc(-c4c5nc(c(-c6c(F)c(F)c(F)c(F)c6F)c6ccc([nH]6)c(-c6c(F)c(F)c(F)c(F)c6F)c6nc(c(-c7c(F)c(F)c(F)c(F)c7F)c7ccc4[nH]7)C=C6)C=C5)cc3)n(Cc3ccccc3F)c3ccccc23)CC1
REMARK SMILES IDX 15 1 14 2 13 3 12 4 10 5 11 6 9 8 8 9 99 10 85 11 94 12
REMARK SMILES IDX 98 13 95 14 97 15 96 16 7 17 6 18 5 21 1 22 2 23 3 24 101 25
REMARK SMILES IDX 4 26 100 27 86 28 87 29 88 30 92 31 89 32 91 33 93 34 90 35
REMARK SMILES IDX 16 36 17 37 18 38 19 39 20 40 21 42 22 43 23 44 84 45 24 46
REMARK SMILES IDX 83 47 25 48 26 49 27 50 77 51 28 52 82 53 76 54 78 55 29 56
REMARK SMILES IDX 81 57 75 58 74 59 30 61 62 62 42 63 61 64 43 65 46 66 60 67
REMARK SMILES IDX 79 68 44 69 45 70 59 72 80 73 47 74 31 75 32 76 40 77 33 78
REMARK SMILES IDX 34 79 38 80 41 81 35 82 36 83 39 84 37 85 63 86 64 87 72 88
REMARK SMILES IDX 65 89 66 90 70 91 73 92 67 93 68 94 71 95 69 96 48 97 49 98
REMARK SMILES IDX 57 99 50 100 51 101 55 102 58 103 52 104 53 105 56 106
REMARK SMILES IDX 54 107
REMARK H PARENT 12 7 6 19 6 20 19 41 78 60 46 71
REMARK Flexibility Score: inf
ROOT
ATOM      1  C   UNL A   1      39.335  21.584  26.107  1.00  0.00     0.002 C 
ENDROOT
BRANCH   1   2
ATOM      2  C   UNL A   1      39.100  23.071  26.427  1.00  0.00     0.021 C 
BRANCH   2   3
ATOM      3  C   UNL A   1      37.711  23.609  26.091  1.00  0.00     0.116 C 
BRANCH   3   4
ATOM      4  N   UNL A   1      37.349  23.529  24.695  1.00  0.00    -0.351 N 
ATOM      5  C   UNL A   1      36.131  23.420  24.070  1.00  0.00     0.268 C 
ATOM      6  O   UNL A   1      36.220  23.380  22.831  1.00  0.00    -0.268 OA
ATOM      7  H   UNL A   1      38.117  23.560  24.078  1.00  0.00     0.163 HD
BRANCH   5   8
ATOM      8  C   UNL A   1      34.841  23.300  24.758  1.00  0.00     0.117 A 
ATOM      9  C   UNL A   1      34.149  22.201  25.305  1.00  0.00     0.045 A 
ATOM     10  C   UNL A   1      32.800  22.634  25.520  1.00  0.00     0.009 A 
ATOM     11  N   UNL A   1      34.094  24.416  25.214  1.00  0.00    -0.331 N 
ATOM     12  C   UNL A   1      32.850  24.008  25.683  1.00  0.00     0.049 A 
ATOM     13  C   UNL A   1      31.585  21.956  25.759  1.00  0.00     0.011 A 
ATOM     14  C   UNL A   1      31.774  24.702  26.268  1.00  0.00     0.027 A 
ATOM     15  C   UNL A   1      30.463  22.668  26.186  1.00  0.00     0.001 A 
ATOM     16  C   UNL A   1      30.572  24.019  26.478  1.00  0.00     0.002 A 
BRANCH   9  17
ATOM     17  C   UNL A   1      34.532  20.803  25.692  1.00  0.00     0.300 C 
BRANCH  17  18
ATOM     18  N   UNL A   1      34.833  19.889  24.608  1.00  0.00    -0.340 N 
ATOM     19  H   UNL A   1      34.769  20.439  23.752  1.00  0.00     0.346 HD
ATOM     20  H   UNL A   1      35.732  19.511  24.907  1.00  0.00     0.346 HD
BRANCH  18  21
ATOM     21  C   UNL A   1      34.070  18.666  24.359  1.00  0.00     0.182 C 
ATOM     22  C   UNL A   1      32.743  14.630  25.620  1.00  0.00     0.007 C 
ATOM     23  C   UNL A   1      33.288  16.051  25.564  1.00  0.00    -0.014 C 
ATOM     24  C   UNL A   1      32.230  17.046  25.083  1.00  0.00     0.009 C 
ATOM     25  C   UNL A   1      34.511  16.139  24.651  1.00  0.00     0.009 C 
ATOM     26  C   UNL A   1      32.780  18.469  25.162  1.00  0.00     0.065 C 
ATOM     27  C   UNL A   1      35.092  17.546  24.665  1.00  0.00     0.065 C 
ENDBRANCH  18  21
ENDBRANCH  17  18
ENDBRANCH   9  17
BRANCH  11  28
ATOM     28  C   UNL A   1      34.578  25.799  25.378  1.00  0.00     0.161 C 
BRANCH  28  29
ATOM     29  C   UNL A   1      33.957  26.827  24.459  1.00  0.00     0.008 A 
ATOM     30  C   UNL A   1      33.540  26.521  23.152  1.00  0.00     0.008 A 
ATOM     31  C   UNL A   1      33.659  28.107  24.935  1.00  0.00     0.128 A 
ATOM     32  C   UNL A   1      32.868  27.456  22.357  1.00  0.00     0.001 A 
ATOM     33  C   UNL A   1      33.005  29.054  24.143  1.00  0.00     0.039 A 
ATOM     34  F   UNL A   1      33.953  28.443  26.198  1.00  0.00    -0.207 F 
ATOM     35  C   UNL A   1      32.607  28.728  22.850  1.00  0.00     0.003 A 
ENDBRANCH  28  29
ENDBRANCH  11  28
ENDBRANCH   5   8
ENDBRANCH   3   4
ENDBRANCH   2   3
ENDBRANCH   1   2
BRANCH   1  36
ATOM     36  C   UNL A   1      40.595  20.907  26.670  1.00  0.00     0.002 C 
BRANCH  36  37
ATOM     37  C   UNL A   1      41.050  19.579  26.050  1.00  0.00     0.021 C 
BRANCH  37  38
ATOM     38  C   UNL A   1      42.502  19.171  26.300  1.00  0.00     0.116 C 
BRANCH  38  39
ATOM     39  N   UNL A   1      43.406  19.534  25.228  1.00  0.00    -0.352 N 
ATOM     40  C   UNL A   1      44.097  20.650  24.858  1.00  0.00     0.251 C 
ATOM     41  H   UNL A   1      43.562  18.783  24.611  1.00  0.00     0.163 HD
ATOM     42  O   UNL A   1      44.856  20.512  23.893  1.00  0.00    -0.269 OA
BRANCH  40  43
ATOM     43  C   UNL A   1      44.006  21.993  25.500  1.00  0.00     0.039 A 
ATOM     44  C   UNL A   1      44.744  22.428  26.599  1.00  0.00     0.014 A 
ATOM     45  C   UNL A   1      43.047  22.873  24.957  1.00  0.00     0.014 A 
ATOM     46  C   UNL A   1      44.513  23.690  27.155  1.00  0.00     0.010 A 
ATOM     47  C   UNL A   1      42.816  24.135  25.505  1.00  0.00     0.010 A 
ATOM     48  C   UNL A   1      43.534  24.541  26.627  1.00  0.00    -0.014 A 
BRANCH  48  49
ATOM     49  C   UNL A   1      43.327  25.842  27.274  1.00  0.00     0.031 A 
ATOM     50  C   UNL A   1      44.300  26.933  26.971  1.00  0.00     0.074 A 
ATOM     51  C   UNL A   1      42.253  26.157  28.028  1.00  0.00     0.049 A 
ATOM     52  N   UNL A   1      45.017  27.629  27.799  1.00  0.00    -0.248 NA
ATOM     53  C   UNL A   1      44.480  27.311  25.562  1.00  0.00     0.031 C 
ATOM     54  C   UNL A   1      41.013  25.400  28.205  1.00  0.00     0.029 A 
ATOM     55  N   UNL A   1      42.028  27.303  28.742  1.00  0.00    -0.354 N 
ATOM     56  C   UNL A   1      45.635  28.625  27.042  1.00  0.00     0.074 A 
ATOM     57  C   UNL A   1      45.317  28.345  25.664  1.00  0.00     0.031 C 
ATOM     58  C   UNL A   1      40.098  26.186  28.814  1.00  0.00     0.029 A 
ATOM     59  C   UNL A   1      40.727  27.442  29.190  1.00  0.00     0.049 A 
ATOM     60  H   UNL A   1      42.730  27.970  28.920  1.00  0.00     0.167 HD
ATOM     61  C   UNL A   1      46.255  29.699  27.605  1.00  0.00     0.037 A 
ATOM     62  C   UNL A   1      40.184  28.527  29.789  1.00  0.00     0.037 A 
ATOM     63  C   UNL A   1      46.598  29.473  28.981  1.00  0.00     0.049 A 
ATOM     64  C   UNL A   1      41.278  29.350  30.354  1.00  0.00     0.074 A 
ATOM     65  C   UNL A   1      47.397  28.571  29.656  1.00  0.00     0.029 A 
ATOM     66  N   UNL A   1      45.890  30.128  29.954  1.00  0.00    -0.354 N 
ATOM     67  N   UNL A   1      42.005  29.019  31.384  1.00  0.00    -0.248 NA
ATOM     68  C   UNL A   1      41.763  30.487  29.586  1.00  0.00     0.031 C 
ATOM     69  C   UNL A   1      46.789  28.410  30.937  1.00  0.00     0.029 A 
ATOM     70  C   UNL A   1      45.651  29.216  30.949  1.00  0.00     0.049 A 
ATOM     71  H   UNL A   1      45.608  31.072  29.942  1.00  0.00     0.167 HD
ATOM     72  C   UNL A   1      43.224  29.638  31.165  1.00  0.00     0.074 A 
ATOM     73  C   UNL A   1      42.965  30.640  30.143  1.00  0.00     0.031 C 
ATOM     74  C   UNL A   1      44.383  29.086  31.626  1.00  0.00     0.037 A 
BRANCH  61  75
ATOM     75  C   UNL A   1      46.339  31.072  26.981  1.00  0.00     0.064 A 
ATOM     76  C   UNL A   1      47.589  31.712  26.853  1.00  0.00     0.173 A 
ATOM     77  C   UNL A   1      45.212  31.892  26.768  1.00  0.00     0.173 A 
ATOM     78  F   UNL A   1      48.729  31.039  27.072  1.00  0.00    -0.203 F 
ATOM     79  C   UNL A   1      47.699  33.080  26.581  1.00  0.00     0.198 A 
ATOM     80  C   UNL A   1      45.325  33.246  26.444  1.00  0.00     0.198 A 
ATOM     81  F   UNL A   1      43.967  31.440  26.966  1.00  0.00    -0.203 F 
ATOM     82  F   UNL A   1      48.906  33.664  26.579  1.00  0.00    -0.200 F 
ATOM     83  C   UNL A   1      46.568  33.845  26.377  1.00  0.00     0.200 A 
ATOM     84  F   UNL A   1      44.217  33.979  26.270  1.00  0.00    -0.200 F 
ATOM     85  F   UNL A   1      46.667  35.164  26.164  1.00  0.00    -0.200 F 
ENDBRANCH  61  75
BRANCH  62  86
ATOM     86  C   UNL A   1      38.787  29.009  29.729  1.00  0.00     0.064 A 
ATOM     87  C   UNL A   1      38.049  29.250  30.899  1.00  0.00     0.173 A 
ATOM     88  C   UNL A   1      38.233  29.491  28.527  1.00  0.00     0.173 A 
ATOM     89  F   UNL A   1      38.529  28.868  32.092  1.00  0.00    -0.203 F 
ATOM     90  C   UNL A   1      36.840  29.952  30.871  1.00  0.00     0.198 A 
ATOM     91  C   UNL A   1      37.020  30.178  28.499  1.00  0.00     0.198 A 
ATOM     92  F   UNL A   1      38.902  29.387  27.371  1.00  0.00    -0.203 F 
ATOM     93  F   UNL A   1      36.197  30.220  32.016  1.00  0.00    -0.200 F 
ATOM     94  C   UNL A   1      36.330  30.421  29.672  1.00  0.00     0.200 A 
ATOM     95  F   UNL A   1      36.554  30.656  27.336  1.00  0.00    -0.200 F 
ATOM     96  F   UNL A   1      35.200  31.140  29.651  1.00  0.00    -0.200 F 
ENDBRANCH  62  86
BRANCH  74  97
ATOM     97  C   UNL A   1      44.283  28.028  32.682  1.00  0.00     0.064 A 
ATOM     98  C   UNL A   1      44.144  28.313  34.051  1.00  0.00     0.173 A 
ATOM     99  C   UNL A   1      44.185  26.688  32.284  1.00  0.00     0.173 A 
ATOM    100  F   UNL A   1      44.117  29.578  34.491  1.00  0.00    -0.203 F 
ATOM    101  C   UNL A   1      43.968  27.293  34.984  1.00  0.00     0.198 A 
ATOM    102  C   UNL A   1      43.974  25.675  33.216  1.00  0.00     0.198 A 
ATOM    103  F   UNL A   1      44.245  26.367  30.982  1.00  0.00    -0.203 F 
ATOM    104  F   UNL A   1      43.849  27.588  36.287  1.00  0.00    -0.200 F 
ATOM    105  C   UNL A   1      43.877  25.977  34.564  1.00  0.00     0.200 A 
ATOM    106  F   UNL A   1      43.833  24.407  32.801  1.00  0.00    -0.200 F 
ATOM    107  F   UNL A   1      43.665  24.999  35.458  1.00  0.00    -0.200 F 
ENDBRANCH  74  97
ENDBRANCH  48  49
ENDBRANCH  40  43
ENDBRANCH  38  39
ENDBRANCH  37  38
ENDBRANCH  36  37
ENDBRANCH   1  36
TORSDOF 18
ENDMDL
