MODEL 1
REMARK VINA RESULT:     -11.8      0.000      0.000
REMARK SMILES O=C(NCCCCCCNC(=O)[C@@H](F)[C@H](O)c1cccc(Cl)c1)c1ccc(-c2c3nc(c(-c4c(F)c(F)c(F)c(F)c4F)c4ccc([nH]4)c(-c4c(F)c(F)c(F)c(F)c4F)c4nc(c(-c5c(F)c(F)c(F)c(F)c5F)c5ccc2[nH]5)C=C4)C=C3)cc1
REMARK SMILES IDX 6 1 5 2 4 3 3 4 1 5 2 6 24 8 25 9 86 10 26 11 85 12 27 13
REMARK SMILES IDX 28 14 29 15 79 16 30 17 84 18 78 19 80 20 31 21 83 22 77 23
REMARK SMILES IDX 76 24 32 26 64 27 44 28 63 29 45 30 48 31 62 32 81 33 46 34
REMARK SMILES IDX 47 35 61 37 82 38 49 39 33 40 34 41 42 42 35 43 36 44 40 45
REMARK SMILES IDX 43 46 37 47 38 48 41 49 39 50 65 51 66 52 74 53 67 54 68 55
REMARK SMILES IDX 72 56 75 57 69 58 70 59 73 60 71 61 50 62 51 63 59 64 52 65
REMARK SMILES IDX 53 66 57 67 60 68 54 69 55 70 58 71 56 72 7 73 8 74 9 75
REMARK SMILES IDX 10 76 11 77 12 79 13 80 14 81 15 82 17 83 18 84 23 85 19 86
REMARK SMILES IDX 21 87 20 88 22 89 16 90
REMARK H PARENT 3 7 80 25 48 36 10 78 16 91
REMARK Flexibility Score: inf
ROOT
ATOM      1  C   UNL A   1      31.540  30.628  26.651  1.00  0.00     0.002 C 
ENDROOT
BRANCH   1   2
ATOM      2  C   UNL A   1      31.462  32.153  26.706  1.00  0.00     0.021 C 
BRANCH   2   3
ATOM      3  C   UNL A   1      32.705  32.842  27.251  1.00  0.00     0.116 C 
BRANCH   3   4
ATOM      4  N   UNL A   1      32.454  34.217  27.648  1.00  0.00    -0.352 N 
ATOM      5  O   UNL A   1      32.601  36.048  28.964  1.00  0.00    -0.269 OA
ATOM      6  C   UNL A   1      33.041  34.943  28.653  1.00  0.00     0.251 C 
ATOM      7  H   UNL A   1      31.768  34.693  27.126  1.00  0.00     0.163 HD
BRANCH   6   8
ATOM      8  C   UNL A   1      34.206  34.386  29.371  1.00  0.00     0.039 A 
ATOM      9  C   UNL A   1      34.028  33.653  30.548  1.00  0.00     0.014 A 
ATOM     10  C   UNL A   1      35.487  34.578  28.848  1.00  0.00     0.014 A 
ATOM     11  C   UNL A   1      35.135  33.201  31.256  1.00  0.00     0.010 A 
ATOM     12  C   UNL A   1      36.595  34.050  29.516  1.00  0.00     0.010 A 
ATOM     13  C   UNL A   1      36.425  33.360  30.728  1.00  0.00    -0.014 A 
BRANCH  13  14
ATOM     14  C   UNL A   1      37.567  32.676  31.380  1.00  0.00     0.031 A 
ATOM     15  C   UNL A   1      38.255  31.508  30.737  1.00  0.00     0.074 A 
ATOM     16  C   UNL A   1      37.957  33.119  32.593  1.00  0.00     0.049 A 
ATOM     17  N   UNL A   1      39.231  30.771  31.205  1.00  0.00    -0.248 NA
ATOM     18  C   UNL A   1      37.789  31.108  29.401  1.00  0.00     0.031 C 
ATOM     19  C   UNL A   1      37.343  34.236  33.316  1.00  0.00     0.029 A 
ATOM     20  N   UNL A   1      38.951  32.688  33.435  1.00  0.00    -0.354 N 
ATOM     21  C   UNL A   1      39.481  29.809  30.236  1.00  0.00     0.074 A 
ATOM     22  C   UNL A   1      38.548  30.046  29.155  1.00  0.00     0.031 C 
ATOM     23  C   UNL A   1      37.981  34.413  34.481  1.00  0.00     0.029 A 
ATOM     24  C   UNL A   1      38.997  33.379  34.621  1.00  0.00     0.049 A 
ATOM     25  H   UNL A   1      39.570  31.956  33.209  1.00  0.00     0.167 HD
ATOM     26  C   UNL A   1      40.407  28.822  30.259  1.00  0.00     0.037 A 
ATOM     27  C   UNL A   1      39.742  33.175  35.723  1.00  0.00     0.037 A 
ATOM     28  C   UNL A   1      41.343  28.614  31.336  1.00  0.00     0.049 A 
ATOM     29  C   UNL A   1      40.730  32.042  35.726  1.00  0.00     0.074 A 
ATOM     30  C   UNL A   1      42.377  27.696  31.411  1.00  0.00     0.029 A 
ATOM     31  N   UNL A   1      41.348  29.320  32.530  1.00  0.00    -0.354 N 
ATOM     32  N   UNL A   1      41.014  31.191  34.772  1.00  0.00    -0.248 NA
ATOM     33  C   UNL A   1      41.494  31.834  36.963  1.00  0.00     0.031 C 
ATOM     34  C   UNL A   1      42.959  27.796  32.678  1.00  0.00     0.029 A 
ATOM     35  C   UNL A   1      42.331  28.819  33.369  1.00  0.00     0.049 A 
ATOM     36  H   UNL A   1      40.743  30.064  32.750  1.00  0.00     0.167 HD
ATOM     37  C   UNL A   1      41.995  30.357  35.285  1.00  0.00     0.074 A 
ATOM     38  C   UNL A   1      42.280  30.823  36.627  1.00  0.00     0.031 C 
ATOM     39  C   UNL A   1      42.599  29.293  34.703  1.00  0.00     0.037 A 
BRANCH  26  40
ATOM     40  C   UNL A   1      40.459  27.861  29.107  1.00  0.00     0.064 A 
ATOM     41  C   UNL A   1      39.666  26.705  29.067  1.00  0.00     0.173 A 
ATOM     42  C   UNL A   1      41.234  28.164  27.976  1.00  0.00     0.173 A 
ATOM     43  F   UNL A   1      38.910  26.369  30.122  1.00  0.00    -0.203 F 
ATOM     44  C   UNL A   1      39.652  25.886  27.940  1.00  0.00     0.198 A 
ATOM     45  C   UNL A   1      41.198  27.356  26.842  1.00  0.00     0.198 A 
ATOM     46  F   UNL A   1      42.003  29.263  27.958  1.00  0.00    -0.203 F 
ATOM     47  F   UNL A   1      38.901  24.776  27.931  1.00  0.00    -0.200 F 
ATOM     48  C   UNL A   1      40.408  26.218  26.825  1.00  0.00     0.200 A 
ATOM     49  F   UNL A   1      41.916  27.690  25.760  1.00  0.00    -0.200 F 
ATOM     50  F   UNL A   1      40.373  25.441  25.734  1.00  0.00    -0.200 F 
ENDBRANCH  26  40
BRANCH  27  51
ATOM     51  C   UNL A   1      39.542  34.023  36.926  1.00  0.00     0.064 A 
ATOM     52  C   UNL A   1      40.165  35.272  37.046  1.00  0.00     0.173 A 
ATOM     53  C   UNL A   1      38.740  33.591  37.993  1.00  0.00     0.173 A 
ATOM     54  F   UNL A   1      40.957  35.723  36.061  1.00  0.00    -0.203 F 
ATOM     55  C   UNL A   1      40.020  36.041  38.199  1.00  0.00     0.198 A 
ATOM     56  C   UNL A   1      38.563  34.377  39.129  1.00  0.00     0.198 A 
ATOM     57  F   UNL A   1      38.115  32.405  37.929  1.00  0.00    -0.203 F 
ATOM     58  F   UNL A   1      40.677  37.203  38.313  1.00  0.00    -0.200 F 
ATOM     59  C   UNL A   1      39.215  35.595  39.237  1.00  0.00     0.200 A 
ATOM     60  F   UNL A   1      37.769  33.950  40.120  1.00  0.00    -0.200 F 
ATOM     61  F   UNL A   1      39.077  36.334  40.345  1.00  0.00    -0.200 F 
ENDBRANCH  27  51
BRANCH  39  62
ATOM     62  C   UNL A   1      43.634  28.566  35.510  1.00  0.00     0.064 A 
ATOM     63  C   UNL A   1      43.279  27.541  36.399  1.00  0.00     0.173 A 
ATOM     64  C   UNL A   1      44.996  28.866  35.359  1.00  0.00     0.173 A 
ATOM     65  F   UNL A   1      41.988  27.232  36.594  1.00  0.00    -0.203 F 
ATOM     66  C   UNL A   1      44.250  26.855  37.122  1.00  0.00     0.198 A 
ATOM     67  C   UNL A   1      45.966  28.154  36.059  1.00  0.00     0.198 A 
ATOM     68  F   UNL A   1      45.387  29.836  34.520  1.00  0.00    -0.203 F 
ATOM     69  F   UNL A   1      43.886  25.910  38.000  1.00  0.00    -0.200 F 
ATOM     70  C   UNL A   1      45.593  27.155  36.944  1.00  0.00     0.200 A 
ATOM     71  F   UNL A   1      47.263  28.436  35.875  1.00  0.00    -0.200 F 
ATOM     72  F   UNL A   1      46.527  26.482  37.630  1.00  0.00    -0.200 F 
ENDBRANCH  39  62
ENDBRANCH  13  14
ENDBRANCH   6   8
ENDBRANCH   3   4
ENDBRANCH   2   3
ENDBRANCH   1   2
BRANCH   1  73
ATOM     73  C   UNL A   1      32.878  30.015  27.072  1.00  0.00     0.002 C 
BRANCH  73  74
ATOM     74  C   UNL A   1      32.937  28.487  27.094  1.00  0.00     0.021 C 
BRANCH  74  75
ATOM     75  C   UNL A   1      33.857  27.843  26.064  1.00  0.00     0.116 C 
BRANCH  75  76
ATOM     76  N   UNL A   1      33.178  26.915  25.184  1.00  0.00    -0.353 N 
ATOM     77  C   UNL A   1      32.386  27.142  24.101  1.00  0.00     0.257 C 
ATOM     78  H   UNL A   1      33.311  25.964  25.407  1.00  0.00     0.163 HD
ATOM     79  O   UNL A   1      32.044  26.155  23.434  1.00  0.00    -0.272 OA
BRANCH  77  80
ATOM     80  C   UNL A   1      31.886  28.520  23.689  1.00  0.00     0.288 C 
ATOM     81  F   UNL A   1      32.790  29.316  23.054  1.00  0.00    -0.234 F 
BRANCH  80  82
ATOM     82  C   UNL A   1      30.540  28.489  22.924  1.00  0.00     0.188 C 
BRANCH  82  83
ATOM     83  C   UNL A   1      29.698  29.755  22.796  1.00  0.00    -0.015 A 
ATOM     84  C   UNL A   1      29.481  30.556  23.934  1.00  0.00     0.006 A 
ATOM     85  C   UNL A   1      29.209  30.240  21.577  1.00  0.00     0.027 A 
ATOM     86  C   UNL A   1      28.780  31.765  23.860  1.00  0.00     0.002 A 
ATOM     87  C   UNL A   1      28.479  31.432  21.506  1.00  0.00     0.041 A 
ATOM     88  C   UNL A   1      28.265  32.200  22.643  1.00  0.00     0.020 A 
ATOM     89  Cl  UNL A   1      27.853  31.951  19.987  1.00  0.00    -0.084 Cl
ENDBRANCH  82  83
BRANCH  82  90
ATOM     90  O   UNL A   1      30.653  27.880  21.626  1.00  0.00    -0.385 OA
ATOM     91  H   UNL A   1      31.192  28.445  21.049  1.00  0.00     0.211 HD
ENDBRANCH  82  90
ENDBRANCH  80  82
ENDBRANCH  77  80
ENDBRANCH  75  76
ENDBRANCH  74  75
ENDBRANCH  73  74
ENDBRANCH   1  73
TORSDOF 16
ENDMDL
MODEL 2
REMARK VINA RESULT:     -11.7      6.848     11.971
REMARK SMILES O=C(NCCCCCCNC(=O)[C@@H](F)[C@H](O)c1cccc(Cl)c1)c1ccc(-c2c3nc(c(-c4c(F)c(F)c(F)c(F)c4F)c4ccc([nH]4)c(-c4c(F)c(F)c(F)c(F)c4F)c4nc(c(-c5c(F)c(F)c(F)c(F)c5F)c5ccc2[nH]5)C=C4)C=C3)cc1
REMARK SMILES IDX 6 1 5 2 4 3 3 4 1 5 2 6 24 8 25 9 86 10 26 11 85 12 27 13
REMARK SMILES IDX 28 14 29 15 79 16 30 17 84 18 78 19 80 20 31 21 83 22 77 23
REMARK SMILES IDX 76 24 32 26 64 27 44 28 63 29 45 30 48 31 62 32 81 33 46 34
REMARK SMILES IDX 47 35 61 37 82 38 49 39 33 40 34 41 42 42 35 43 36 44 40 45
REMARK SMILES IDX 43 46 37 47 38 48 41 49 39 50 65 51 66 52 74 53 67 54 68 55
REMARK SMILES IDX 72 56 75 57 69 58 70 59 73 60 71 61 50 62 51 63 59 64 52 65
REMARK SMILES IDX 53 66 57 67 60 68 54 69 55 70 58 71 56 72 7 73 8 74 9 75
REMARK SMILES IDX 10 76 11 77 12 79 13 80 14 81 15 82 17 83 18 84 23 85 19 86
REMARK SMILES IDX 21 87 20 88 22 89 16 90
REMARK H PARENT 3 7 80 25 48 36 10 78 16 91
REMARK Flexibility Score: inf
ROOT
ATOM      1  C   UNL A   1      36.905  20.544  24.799  1.00  0.00     0.002 C 
ENDROOT
BRANCH   1   2
ATOM      2  C   UNL A   1      38.031  19.524  24.962  1.00  0.00     0.021 C 
BRANCH   2   3
ATOM      3  C   UNL A   1      39.235  20.014  25.753  1.00  0.00     0.116 C 
BRANCH   3   4
ATOM      4  N   UNL A   1      40.281  19.010  25.860  1.00  0.00    -0.352 N 
ATOM      5  O   UNL A   1      42.402  18.241  25.978  1.00  0.00    -0.269 OA
ATOM      6  C   UNL A   1      41.624  19.188  26.073  1.00  0.00     0.251 C 
ATOM      7  H   UNL A   1      39.985  18.076  25.766  1.00  0.00     0.163 HD
BRANCH   6   8
ATOM      8  C   UNL A   1      42.139  20.530  26.411  1.00  0.00     0.039 A 
ATOM      9  C   UNL A   1      42.492  21.429  25.399  1.00  0.00     0.014 A 
ATOM     10  C   UNL A   1      42.245  20.905  27.753  1.00  0.00     0.014 A 
ATOM     11  C   UNL A   1      43.048  22.659  25.729  1.00  0.00     0.010 A 
ATOM     12  C   UNL A   1      42.725  22.175  28.083  1.00  0.00     0.010 A 
ATOM     13  C   UNL A   1      43.133  23.060  27.072  1.00  0.00    -0.014 A 
BRANCH  13  14
ATOM     14  C   UNL A   1      43.514  24.456  27.390  1.00  0.00     0.031 A 
ATOM     15  C   UNL A   1      42.508  25.452  27.885  1.00  0.00     0.074 A 
ATOM     16  C   UNL A   1      44.798  24.819  27.195  1.00  0.00     0.049 A 
ATOM     17  N   UNL A   1      42.674  26.722  28.156  1.00  0.00    -0.248 NA
ATOM     18  C   UNL A   1      41.136  24.968  28.101  1.00  0.00     0.031 C 
ATOM     19  C   UNL A   1      45.855  23.932  26.698  1.00  0.00     0.029 A 
ATOM     20  N   UNL A   1      45.436  26.019  27.381  1.00  0.00    -0.354 N 
ATOM     21  C   UNL A   1      41.430  27.195  28.550  1.00  0.00     0.074 A 
ATOM     22  C   UNL A   1      40.512  26.079  28.476  1.00  0.00     0.031 C 
ATOM     23  C   UNL A   1      47.008  24.611  26.633  1.00  0.00     0.029 A 
ATOM     24  C   UNL A   1      46.759  25.995  27.012  1.00  0.00     0.049 A 
ATOM     25  H   UNL A   1      44.989  26.818  27.743  1.00  0.00     0.167 HD
ATOM     26  C   UNL A   1      41.098  28.449  28.936  1.00  0.00     0.037 A 
ATOM     27  C   UNL A   1      47.664  26.989  26.940  1.00  0.00     0.037 A 
ATOM     28  C   UNL A   1      42.031  29.544  29.025  1.00  0.00     0.049 A 
ATOM     29  C   UNL A   1      47.246  28.376  27.336  1.00  0.00     0.074 A 
ATOM     30  C   UNL A   1      41.808  30.829  29.490  1.00  0.00     0.029 A 
ATOM     31  N   UNL A   1      43.358  29.489  28.625  1.00  0.00    -0.354 N 
ATOM     32  N   UNL A   1      46.088  28.793  27.787  1.00  0.00    -0.248 NA
ATOM     33  C   UNL A   1      48.255  29.435  27.206  1.00  0.00     0.031 C 
ATOM     34  C   UNL A   1      42.978  31.571  29.303  1.00  0.00     0.029 A 
ATOM     35  C   UNL A   1      43.949  30.733  28.781  1.00  0.00     0.049 A 
ATOM     36  H   UNL A   1      43.813  28.687  28.281  1.00  0.00     0.167 HD
ATOM     37  C   UNL A   1      46.232  30.154  28.004  1.00  0.00     0.074 A 
ATOM     38  C   UNL A   1      47.600  30.490  27.666  1.00  0.00     0.031 C 
ATOM     39  C   UNL A   1      45.311  31.050  28.436  1.00  0.00     0.037 A 
BRANCH  26  40
ATOM     40  C   UNL A   1      39.664  28.738  29.274  1.00  0.00     0.064 A 
ATOM     41  C   UNL A   1      39.161  28.582  30.574  1.00  0.00     0.173 A 
ATOM     42  C   UNL A   1      38.810  29.285  28.303  1.00  0.00     0.173 A 
ATOM     43  F   UNL A   1      39.934  28.060  31.538  1.00  0.00    -0.203 F 
ATOM     44  C   UNL A   1      37.856  28.957  30.887  1.00  0.00     0.198 A 
ATOM     45  C   UNL A   1      37.515  29.683  28.625  1.00  0.00     0.198 A 
ATOM     46  F   UNL A   1      39.244  29.464  27.046  1.00  0.00    -0.203 F 
ATOM     47  F   UNL A   1      37.391  28.781  32.132  1.00  0.00    -0.200 F 
ATOM     48  C   UNL A   1      37.039  29.518  29.916  1.00  0.00     0.200 A 
ATOM     49  F   UNL A   1      36.734  30.240  27.689  1.00  0.00    -0.200 F 
ATOM     50  F   UNL A   1      35.793  29.901  30.226  1.00  0.00    -0.200 F 
ENDBRANCH  26  40
BRANCH  27  51
ATOM     51  C   UNL A   1      49.030  26.717  26.422  1.00  0.00     0.064 A 
ATOM     52  C   UNL A   1      49.359  26.955  25.081  1.00  0.00     0.173 A 
ATOM     53  C   UNL A   1      50.030  26.190  27.255  1.00  0.00     0.173 A 
ATOM     54  F   UNL A   1      48.434  27.441  24.241  1.00  0.00    -0.203 F 
ATOM     55  C   UNL A   1      50.625  26.647  24.586  1.00  0.00     0.198 A 
ATOM     56  C   UNL A   1      51.306  25.918  26.768  1.00  0.00     0.198 A 
ATOM     57  F   UNL A   1      49.771  25.948  28.549  1.00  0.00    -0.203 F 
ATOM     58  F   UNL A   1      50.893  26.825  23.286  1.00  0.00    -0.200 F 
ATOM     59  C   UNL A   1      51.598  26.133  25.431  1.00  0.00     0.200 A 
ATOM     60  F   UNL A   1      52.248  25.442  27.593  1.00  0.00    -0.200 F 
ATOM     61  F   UNL A   1      52.814  25.837  24.953  1.00  0.00    -0.200 F 
ENDBRANCH  27  51
BRANCH  39  62
ATOM     62  C   UNL A   1      45.756  32.476  28.575  1.00  0.00     0.064 A 
ATOM     63  C   UNL A   1      45.560  33.406  27.543  1.00  0.00     0.173 A 
ATOM     64  C   UNL A   1      46.341  32.928  29.767  1.00  0.00     0.173 A 
ATOM     65  F   UNL A   1      45.024  33.018  26.376  1.00  0.00    -0.203 F 
ATOM     66  C   UNL A   1      45.952  34.733  27.694  1.00  0.00     0.198 A 
ATOM     67  C   UNL A   1      46.700  34.263  29.926  1.00  0.00     0.198 A 
ATOM     68  F   UNL A   1      46.547  32.079  30.785  1.00  0.00    -0.203 F 
ATOM     69  F   UNL A   1      45.797  35.594  26.679  1.00  0.00    -0.200 F 
ATOM     70  C   UNL A   1      46.511  35.163  28.888  1.00  0.00     0.200 A 
ATOM     71  F   UNL A   1      47.227  34.679  31.086  1.00  0.00    -0.200 F 
ATOM     72  F   UNL A   1      46.874  36.445  29.036  1.00  0.00    -0.200 F 
ENDBRANCH  39  62
ENDBRANCH  13  14
ENDBRANCH   6   8
ENDBRANCH   3   4
ENDBRANCH   2   3
ENDBRANCH   1   2
BRANCH   1  73
ATOM     73  C   UNL A   1      37.330  22.014  24.841  1.00  0.00     0.002 C 
BRANCH  73  74
ATOM     74  C   UNL A   1      36.804  22.895  23.706  1.00  0.00     0.021 C 
BRANCH  74  75
ATOM     75  C   UNL A   1      35.292  22.904  23.519  1.00  0.00     0.116 C 
BRANCH  75  76
ATOM     76  N   UNL A   1      34.583  23.597  24.575  1.00  0.00    -0.353 N 
ATOM     77  C   UNL A   1      33.962  23.115  25.685  1.00  0.00     0.257 C 
ATOM     78  H   UNL A   1      34.545  24.575  24.472  1.00  0.00     0.163 HD
ATOM     79  O   UNL A   1      33.551  23.945  26.508  1.00  0.00    -0.272 OA
BRANCH  77  80
ATOM     80  C   UNL A   1      33.725  21.633  25.950  1.00  0.00     0.288 C 
ATOM     81  F   UNL A   1      33.547  21.283  27.254  1.00  0.00    -0.234 F 
BRANCH  80  82
ATOM     82  C   UNL A   1      32.629  21.009  25.052  1.00  0.00     0.188 C 
BRANCH  82  83
ATOM     83  C   UNL A   1      32.852  19.648  24.398  1.00  0.00    -0.015 A 
ATOM     84  C   UNL A   1      32.232  19.367  23.165  1.00  0.00     0.006 A 
ATOM     85  C   UNL A   1      33.734  18.684  24.899  1.00  0.00     0.027 A 
ATOM     86  C   UNL A   1      32.460  18.166  22.485  1.00  0.00     0.002 A 
ATOM     87  C   UNL A   1      33.938  17.467  24.237  1.00  0.00     0.041 A 
ATOM     88  C   UNL A   1      33.307  17.205  23.028  1.00  0.00     0.020 A 
ATOM     89  Cl  UNL A   1      34.993  16.294  24.930  1.00  0.00    -0.084 Cl
ENDBRANCH  82  83
BRANCH  82  90
ATOM     90  O   UNL A   1      31.333  21.011  25.676  1.00  0.00    -0.385 OA
ATOM     91  H   UNL A   1      31.026  20.097  25.786  1.00  0.00     0.211 HD
ENDBRANCH  82  90
ENDBRANCH  80  82
ENDBRANCH  77  80
ENDBRANCH  75  76
ENDBRANCH  74  75
ENDBRANCH  73  74
ENDBRANCH   1  73
TORSDOF 16
ENDMDL
MODEL 3
REMARK VINA RESULT:     -11.7      6.849     12.032
REMARK SMILES O=C(NCCCCCCNC(=O)[C@@H](F)[C@H](O)c1cccc(Cl)c1)c1ccc(-c2c3nc(c(-c4c(F)c(F)c(F)c(F)c4F)c4ccc([nH]4)c(-c4c(F)c(F)c(F)c(F)c4F)c4nc(c(-c5c(F)c(F)c(F)c(F)c5F)c5ccc2[nH]5)C=C4)C=C3)cc1
REMARK SMILES IDX 6 1 5 2 4 3 3 4 1 5 2 6 24 8 25 9 86 10 26 11 85 12 27 13
REMARK SMILES IDX 28 14 29 15 79 16 30 17 84 18 78 19 80 20 31 21 83 22 77 23
REMARK SMILES IDX 76 24 32 26 64 27 44 28 63 29 45 30 48 31 62 32 81 33 46 34
REMARK SMILES IDX 47 35 61 37 82 38 49 39 33 40 34 41 42 42 35 43 36 44 40 45
REMARK SMILES IDX 43 46 37 47 38 48 41 49 39 50 65 51 66 52 74 53 67 54 68 55
REMARK SMILES IDX 72 56 75 57 69 58 70 59 73 60 71 61 50 62 51 63 59 64 52 65
REMARK SMILES IDX 53 66 57 67 60 68 54 69 55 70 58 71 56 72 7 73 8 74 9 75
REMARK SMILES IDX 10 76 11 77 12 79 13 80 14 81 15 82 17 83 18 84 23 85 19 86
REMARK SMILES IDX 21 87 20 88 22 89 16 90
REMARK H PARENT 3 7 80 25 48 36 10 78 16 91
REMARK Flexibility Score: inf
ROOT
ATOM      1  C   UNL A   1      36.785  20.546  24.924  1.00  0.00     0.002 C 
ENDROOT
BRANCH   1   2
ATOM      2  C   UNL A   1      37.952  19.561  25.002  1.00  0.00     0.021 C 
BRANCH   2   3
ATOM      3  C   UNL A   1      39.175  20.069  25.751  1.00  0.00     0.116 C 
BRANCH   3   4
ATOM      4  N   UNL A   1      40.211  19.058  25.884  1.00  0.00    -0.352 N 
ATOM      5  O   UNL A   1      42.323  18.270  26.024  1.00  0.00    -0.269 OA
ATOM      6  C   UNL A   1      41.555  19.227  26.096  1.00  0.00     0.251 C 
ATOM      7  H   UNL A   1      39.906  18.125  25.810  1.00  0.00     0.163 HD
BRANCH   6   8
ATOM      8  C   UNL A   1      42.082  20.572  26.405  1.00  0.00     0.039 A 
ATOM      9  C   UNL A   1      42.424  21.453  25.374  1.00  0.00     0.014 A 
ATOM     10  C   UNL A   1      42.212  20.966  27.740  1.00  0.00     0.014 A 
ATOM     11  C   UNL A   1      42.992  22.685  25.676  1.00  0.00     0.010 A 
ATOM     12  C   UNL A   1      42.703  22.238  28.042  1.00  0.00     0.010 A 
ATOM     13  C   UNL A   1      43.100  23.105  27.011  1.00  0.00    -0.014 A 
BRANCH  13  14
ATOM     14  C   UNL A   1      43.494  24.504  27.302  1.00  0.00     0.031 A 
ATOM     15  C   UNL A   1      42.505  25.508  27.816  1.00  0.00     0.074 A 
ATOM     16  C   UNL A   1      44.772  24.861  27.064  1.00  0.00     0.049 A 
ATOM     17  N   UNL A   1      42.683  26.781  28.067  1.00  0.00    -0.248 NA
ATOM     18  C   UNL A   1      41.140  25.030  28.079  1.00  0.00     0.031 C 
ATOM     19  C   UNL A   1      45.812  23.966  26.545  1.00  0.00     0.029 A 
ATOM     20  N   UNL A   1      45.418  26.062  27.217  1.00  0.00    -0.354 N 
ATOM     21  C   UNL A   1      41.452  27.261  28.494  1.00  0.00     0.074 A 
ATOM     22  C   UNL A   1      40.529  26.146  28.460  1.00  0.00     0.031 C 
ATOM     23  C   UNL A   1      46.964  24.642  26.439  1.00  0.00     0.029 A 
ATOM     24  C   UNL A   1      46.729  26.030  26.809  1.00  0.00     0.049 A 
ATOM     25  H   UNL A   1      44.984  26.866  27.584  1.00  0.00     0.167 HD
ATOM     26  C   UNL A   1      41.134  28.520  28.876  1.00  0.00     0.037 A 
ATOM     27  C   UNL A   1      47.634  27.021  26.699  1.00  0.00     0.037 A 
ATOM     28  C   UNL A   1      42.072  29.614  28.924  1.00  0.00     0.049 A 
ATOM     29  C   UNL A   1      47.231  28.414  27.092  1.00  0.00     0.074 A 
ATOM     30  C   UNL A   1      41.866  30.904  29.381  1.00  0.00     0.029 A 
ATOM     31  N   UNL A   1      43.386  29.551  28.485  1.00  0.00    -0.354 N 
ATOM     32  N   UNL A   1      46.088  28.838  27.572  1.00  0.00    -0.248 NA
ATOM     33  C   UNL A   1      48.238  29.469  26.919  1.00  0.00     0.031 C 
ATOM     34  C   UNL A   1      43.031  31.641  29.150  1.00  0.00     0.029 A 
ATOM     35  C   UNL A   1      43.985  30.795  28.609  1.00  0.00     0.049 A 
ATOM     36  H   UNL A   1      43.829  28.744  28.136  1.00  0.00     0.167 HD
ATOM     37  C   UNL A   1      46.242  30.202  27.770  1.00  0.00     0.074 A 
ATOM     38  C   UNL A   1      47.599  30.530  27.387  1.00  0.00     0.031 C 
ATOM     39  C   UNL A   1      45.337  31.104  28.220  1.00  0.00     0.037 A 
BRANCH  26  40
ATOM     40  C   UNL A   1      39.712  28.816  29.254  1.00  0.00     0.064 A 
ATOM     41  C   UNL A   1      39.250  28.681  30.571  1.00  0.00     0.173 A 
ATOM     42  C   UNL A   1      38.829  29.350  28.301  1.00  0.00     0.173 A 
ATOM     43  F   UNL A   1      40.052  28.173  31.518  1.00  0.00    -0.203 F 
ATOM     44  C   UNL A   1      37.956  29.063  30.918  1.00  0.00     0.198 A 
ATOM     45  C   UNL A   1      37.545  29.755  28.657  1.00  0.00     0.198 A 
ATOM     46  F   UNL A   1      39.223  29.510  27.029  1.00  0.00    -0.203 F 
ATOM     47  F   UNL A   1      37.529  28.907  32.179  1.00  0.00    -0.200 F 
ATOM     48  C   UNL A   1      37.109  29.610  29.965  1.00  0.00     0.200 A 
ATOM     49  F   UNL A   1      36.736  30.299  27.738  1.00  0.00    -0.200 F 
ATOM     50  F   UNL A   1      35.873  30.000  30.307  1.00  0.00    -0.200 F 
ENDBRANCH  26  40
BRANCH  27  51
ATOM     51  C   UNL A   1      48.983  26.740  26.143  1.00  0.00     0.064 A 
ATOM     52  C   UNL A   1      50.022  26.275  26.959  1.00  0.00     0.173 A 
ATOM     53  C   UNL A   1      49.267  26.952  24.785  1.00  0.00     0.173 A 
ATOM     54  F   UNL A   1      49.807  26.072  28.268  1.00  0.00    -0.203 F 
ATOM     55  C   UNL A   1      51.301  26.065  26.446  1.00  0.00     0.198 A 
ATOM     56  C   UNL A   1      50.535  26.705  24.265  1.00  0.00     0.198 A 
ATOM     57  F   UNL A   1      48.307  27.391  23.957  1.00  0.00    -0.203 F 
ATOM     58  F   UNL A   1      52.292  25.680  27.262  1.00  0.00    -0.200 F 
ATOM     59  C   UNL A   1      51.554  26.275  25.098  1.00  0.00     0.200 A 
ATOM     60  F   UNL A   1      50.769  26.891  22.959  1.00  0.00    -0.200 F 
ATOM     61  F   UNL A   1      52.784  26.074  24.607  1.00  0.00    -0.200 F 
ENDBRANCH  27  51
BRANCH  39  62
ATOM     62  C   UNL A   1      45.788  32.531  28.329  1.00  0.00     0.064 A 
ATOM     63  C   UNL A   1      46.422  33.011  29.485  1.00  0.00     0.173 A 
ATOM     64  C   UNL A   1      45.628  33.414  27.251  1.00  0.00     0.173 A 
ATOM     65  F   UNL A   1      46.579  32.211  30.551  1.00  0.00    -0.203 F 
ATOM     66  C   UNL A   1      46.861  34.329  29.564  1.00  0.00     0.198 A 
ATOM     67  C   UNL A   1      46.100  34.721  27.321  1.00  0.00     0.198 A 
ATOM     68  F   UNL A   1      45.032  33.003  26.122  1.00  0.00    -0.203 F 
ATOM     69  F   UNL A   1      47.423  34.779  30.694  1.00  0.00    -0.200 F 
ATOM     70  C   UNL A   1      46.709  35.180  28.479  1.00  0.00     0.200 A 
ATOM     71  F   UNL A   1      45.965  35.538  26.266  1.00  0.00    -0.200 F 
ATOM     72  F   UNL A   1      47.147  36.444  28.552  1.00  0.00    -0.200 F 
ENDBRANCH  39  62
ENDBRANCH  13  14
ENDBRANCH   6   8
ENDBRANCH   3   4
ENDBRANCH   2   3
ENDBRANCH   1   2
BRANCH   1  73
ATOM     73  C   UNL A   1      37.091  21.884  24.246  1.00  0.00     0.002 C 
BRANCH  73  74
ATOM     74  C   UNL A   1      35.980  22.935  24.309  1.00  0.00     0.021 C 
BRANCH  74  75
ATOM     75  C   UNL A   1      35.900  23.738  25.601  1.00  0.00     0.116 C 
BRANCH  75  76
ATOM     76  N   UNL A   1      34.544  24.006  26.031  1.00  0.00    -0.353 N 
ATOM     77  C   UNL A   1      33.547  23.154  26.393  1.00  0.00     0.257 C 
ATOM     78  H   UNL A   1      34.304  24.961  26.067  1.00  0.00     0.163 HD
ATOM     79  O   UNL A   1      32.515  23.656  26.861  1.00  0.00    -0.272 OA
BRANCH  77  80
ATOM     80  C   UNL A   1      33.623  21.641  26.231  1.00  0.00     0.288 C 
ATOM     81  F   UNL A   1      33.636  20.918  27.385  1.00  0.00    -0.234 F 
BRANCH  80  82
ATOM     82  C   UNL A   1      32.588  21.072  25.230  1.00  0.00     0.188 C 
BRANCH  82  83
ATOM     83  C   UNL A   1      32.836  19.730  24.546  1.00  0.00    -0.015 A 
ATOM     84  C   UNL A   1      32.221  19.465  23.306  1.00  0.00     0.006 A 
ATOM     85  C   UNL A   1      33.737  18.771  25.024  1.00  0.00     0.027 A 
ATOM     86  C   UNL A   1      32.471  18.283  22.600  1.00  0.00     0.002 A 
ATOM     87  C   UNL A   1      33.963  17.574  24.335  1.00  0.00     0.041 A 
ATOM     88  C   UNL A   1      33.336  17.327  23.121  1.00  0.00     0.020 A 
ATOM     89  Cl  UNL A   1      35.040  16.406  25.001  1.00  0.00    -0.084 Cl
ENDBRANCH  82  83
BRANCH  82  90
ATOM     90  O   UNL A   1      31.248  21.078  25.753  1.00  0.00    -0.385 OA
ATOM     91  H   UNL A   1      31.012  20.185  26.050  1.00  0.00     0.211 HD
ENDBRANCH  82  90
ENDBRANCH  80  82
ENDBRANCH  77  80
ENDBRANCH  75  76
ENDBRANCH  74  75
ENDBRANCH  73  74
ENDBRANCH   1  73
TORSDOF 16
ENDMDL
