MODEL 1
REMARK VINA RESULT:     -10.9      0.000      0.000
REMARK SMILES O=C(CC1CC[NH+](CCC(=O)NC2CC2)CC1)NCCCCCCNC(=O)c1ccc(-c2c3nc(c(-c4c(F)c(F)c(F)c(F)c4F)c4ccc([nH]4)c(-c4c(F)c(F)c(F)c(F)c4F)c4nc(c(-c5c(F)c(F)c(F)c(F)c5F)c5ccc2[nH]5)C=C4)C=C3)cc1
REMARK SMILES IDX 20 1 19 2 18 3 1 4 2 5 3 7 4 8 5 9 17 10 6 11 16 12 7 13
REMARK SMILES IDX 8 15 9 16 10 17 11 18 12 19 13 21 14 22 15 23 21 24 22 25
REMARK SMILES IDX 23 26 24 27 25 28 26 29 27 31 28 32 29 33 90 34 30 35 89 36
REMARK SMILES IDX 31 37 32 38 33 39 83 40 34 41 88 42 82 43 84 44 35 45 87 46
REMARK SMILES IDX 81 47 80 48 36 50 68 51 48 52 67 53 49 54 52 55 66 56 85 57
REMARK SMILES IDX 50 58 51 59 65 61 86 62 53 63 37 64 38 65 46 66 39 67 40 68
REMARK SMILES IDX 44 69 47 70 41 71 42 72 45 73 43 74 69 75 70 76 78 77 71 78
REMARK SMILES IDX 72 79 76 80 79 81 73 82 74 83 77 84 75 85 54 86 55 87 63 88
REMARK SMILES IDX 56 89 57 90 61 91 64 92 58 93 59 94 62 95 60 96
REMARK H PARENT 18 6 7 14 12 20 25 30 84 49 52 60
REMARK Flexibility Score: inf
ROOT
ATOM      1  C   UNL A   1      41.233  21.975  26.310  1.00  0.00     0.021 C 
ENDROOT
BRANCH   1   2
ATOM      2  C   UNL A   1      40.030  22.387  27.166  1.00  0.00     0.116 C 
BRANCH   2   3
ATOM      3  N   UNL A   1      38.826  22.439  26.366  1.00  0.00    -0.356 N 
ATOM      4  O   UNL A   1      38.462  24.703  26.503  1.00  0.00    -0.275 OA
ATOM      5  C   UNL A   1      38.066  23.576  26.231  1.00  0.00     0.220 C 
ATOM      6  H   UNL A   1      38.537  21.623  25.897  1.00  0.00     0.163 HD
BRANCH   5   7
ATOM      7  C   UNL A   1      36.619  23.266  25.894  1.00  0.00     0.104 C 
BRANCH   7   8
ATOM      8  C   UNL A   1      35.965  24.080  24.767  1.00  0.00     0.009 C 
ATOM      9  C   UNL A   1      34.648  24.714  25.223  1.00  0.00     0.066 C 
ATOM     10  C   UNL A   1      35.709  23.243  23.495  1.00  0.00     0.066 C 
ATOM     11  C   UNL A   1      33.448  23.754  25.328  1.00  0.00     0.262 C 
ATOM     12  C   UNL A   1      34.323  22.573  23.386  1.00  0.00     0.262 C 
ATOM     13  N   UNL A   1      33.590  22.461  24.646  1.00  0.00    -0.334 N 
ATOM     14  H   UNL A   1      34.152  21.857  25.246  1.00  0.00     0.348 HD
BRANCH  13  15
ATOM     15  C   UNL A   1      32.263  21.819  24.463  1.00  0.00     0.272 C 
BRANCH  15  16
ATOM     16  C   UNL A   1      32.179  20.314  24.718  1.00  0.00     0.161 C 
BRANCH  16  17
ATOM     17  C   UNL A   1      32.908  19.787  25.929  1.00  0.00     0.225 C 
ATOM     18  O   UNL A   1      33.464  20.559  26.715  1.00  0.00    -0.275 OA
ATOM     19  N   UNL A   1      32.903  18.449  26.215  1.00  0.00    -0.353 N 
ATOM     20  H   UNL A   1      33.052  18.220  27.161  1.00  0.00     0.163 HD
BRANCH  19  21
ATOM     21  C   UNL A   1      32.709  17.341  25.340  1.00  0.00     0.082 C 
ATOM     22  C   UNL A   1      33.791  16.325  25.083  1.00  0.00     0.027 C 
ATOM     23  C   UNL A   1      32.528  15.908  25.751  1.00  0.00     0.027 C 
ENDBRANCH  19  21
ENDBRANCH  16  17
ENDBRANCH  15  16
ENDBRANCH  13  15
ENDBRANCH   7   8
ENDBRANCH   5   7
ENDBRANCH   2   3
ENDBRANCH   1   2
BRANCH   1  24
ATOM     24  C   UNL A   1      42.238  21.050  27.014  1.00  0.00     0.002 C 
BRANCH  24  25
ATOM     25  C   UNL A   1      41.758  19.611  27.216  1.00  0.00     0.002 C 
BRANCH  25  26
ATOM     26  C   UNL A   1      42.341  18.601  26.229  1.00  0.00     0.021 C 
BRANCH  26  27
ATOM     27  C   UNL A   1      43.861  18.602  26.160  1.00  0.00     0.116 C 
BRANCH  27  28
ATOM     28  N   UNL A   1      44.345  18.505  24.793  1.00  0.00    -0.352 N 
ATOM     29  C   UNL A   1      44.704  19.509  23.927  1.00  0.00     0.251 C 
ATOM     30  H   UNL A   1      44.427  17.591  24.438  1.00  0.00     0.163 HD
ATOM     31  O   UNL A   1      44.900  19.267  22.746  1.00  0.00    -0.269 OA
BRANCH  29  32
ATOM     32  C   UNL A   1      44.836  20.893  24.433  1.00  0.00     0.039 A 
ATOM     33  C   UNL A   1      45.557  21.115  25.608  1.00  0.00     0.014 A 
ATOM     34  C   UNL A   1      44.240  21.964  23.760  1.00  0.00     0.014 A 
ATOM     35  C   UNL A   1      45.714  22.417  26.086  1.00  0.00     0.010 A 
ATOM     36  C   UNL A   1      44.472  23.267  24.189  1.00  0.00     0.010 A 
ATOM     37  C   UNL A   1      45.192  23.506  25.368  1.00  0.00    -0.014 A 
BRANCH  37  38
ATOM     38  C   UNL A   1      45.352  24.897  25.863  1.00  0.00     0.031 A 
ATOM     39  C   UNL A   1      46.703  25.560  25.809  1.00  0.00     0.074 A 
ATOM     40  C   UNL A   1      44.299  25.549  26.391  1.00  0.00     0.049 A 
ATOM     41  N   UNL A   1      47.065  26.744  26.236  1.00  0.00    -0.248 NA
ATOM     42  C   UNL A   1      47.802  24.778  25.216  1.00  0.00     0.031 C 
ATOM     43  C   UNL A   1      42.951  24.997  26.542  1.00  0.00     0.029 A 
ATOM     44  N   UNL A   1      44.198  26.816  26.908  1.00  0.00    -0.354 N 
ATOM     45  C   UNL A   1      48.422  26.845  25.965  1.00  0.00     0.074 A 
ATOM     46  C   UNL A   1      48.840  25.578  25.406  1.00  0.00     0.031 C 
ATOM     47  C   UNL A   1      42.155  25.928  27.093  1.00  0.00     0.029 A 
ATOM     48  C   UNL A   1      42.942  27.126  27.368  1.00  0.00     0.049 A 
ATOM     49  H   UNL A   1      44.956  27.445  26.945  1.00  0.00     0.167 HD
ATOM     50  C   UNL A   1      49.243  27.910  26.130  1.00  0.00     0.037 A 
ATOM     51  C   UNL A   1      42.482  28.248  27.954  1.00  0.00     0.037 A 
ATOM     52  C   UNL A   1      48.824  29.174  26.675  1.00  0.00     0.049 A 
ATOM     53  C   UNL A   1      43.421  29.412  28.143  1.00  0.00     0.074 A 
ATOM     54  C   UNL A   1      49.574  30.320  26.877  1.00  0.00     0.029 A 
ATOM     55  N   UNL A   1      47.535  29.459  27.102  1.00  0.00    -0.354 N 
ATOM     56  N   UNL A   1      44.692  29.512  27.835  1.00  0.00    -0.248 NA
ATOM     57  C   UNL A   1      42.855  30.627  28.746  1.00  0.00     0.031 C 
ATOM     58  C   UNL A   1      48.748  31.286  27.461  1.00  0.00     0.029 A 
ATOM     59  C   UNL A   1      47.470  30.762  27.569  1.00  0.00     0.049 A 
ATOM     60  H   UNL A   1      46.779  28.829  27.077  1.00  0.00     0.167 HD
ATOM     61  C   UNL A   1      45.065  30.808  28.167  1.00  0.00     0.074 A 
ATOM     62  C   UNL A   1      43.881  31.461  28.684  1.00  0.00     0.031 C 
ATOM     63  C   UNL A   1      46.277  31.405  28.055  1.00  0.00     0.037 A 
BRANCH  50  64
ATOM     64  C   UNL A   1      50.672  27.759  25.695  1.00  0.00     0.064 A 
ATOM     65  C   UNL A   1      51.051  27.942  24.356  1.00  0.00     0.173 A 
ATOM     66  C   UNL A   1      51.681  27.472  26.626  1.00  0.00     0.173 A 
ATOM     67  F   UNL A   1      50.124  28.203  23.422  1.00  0.00    -0.203 F 
ATOM     68  C   UNL A   1      52.380  27.818  23.961  1.00  0.00     0.198 A 
ATOM     69  C   UNL A   1      53.014  27.382  26.235  1.00  0.00     0.198 A 
ATOM     70  F   UNL A   1      51.376  27.292  27.920  1.00  0.00    -0.203 F 
ATOM     71  F   UNL A   1      52.709  27.949  22.668  1.00  0.00    -0.200 F 
ATOM     72  C   UNL A   1      53.362  27.548  24.903  1.00  0.00     0.200 A 
ATOM     73  F   UNL A   1      53.964  27.135  27.148  1.00  0.00    -0.200 F 
ATOM     74  F   UNL A   1      54.643  27.442  24.524  1.00  0.00    -0.200 F 
ENDBRANCH  50  64
BRANCH  51  75
ATOM     75  C   UNL A   1      41.064  28.341  28.394  1.00  0.00     0.064 A 
ATOM     76  C   UNL A   1      40.080  28.893  27.560  1.00  0.00     0.173 A 
ATOM     77  C   UNL A   1      40.670  27.919  29.672  1.00  0.00     0.173 A 
ATOM     78  F   UNL A   1      40.408  29.327  26.334  1.00  0.00    -0.203 F 
ATOM     79  C   UNL A   1      38.770  29.060  28.003  1.00  0.00     0.198 A 
ATOM     80  C   UNL A   1      39.351  28.054  30.101  1.00  0.00     0.198 A 
ATOM     81  F   UNL A   1      41.568  27.376  30.507  1.00  0.00    -0.203 F 
ATOM     82  F   UNL A   1      37.868  29.657  27.211  1.00  0.00    -0.200 F 
ATOM     83  C   UNL A   1      38.405  28.638  29.273  1.00  0.00     0.200 A 
ATOM     84  F   UNL A   1      39.000  27.628  31.322  1.00  0.00    -0.200 F 
ATOM     85  F   UNL A   1      37.147  28.806  29.701  1.00  0.00    -0.200 F 
ENDBRANCH  51  75
BRANCH  63  86
ATOM     86  C   UNL A   1      46.367  32.856  28.432  1.00  0.00     0.064 A 
ATOM     87  C   UNL A   1      46.683  33.268  29.735  1.00  0.00     0.173 A 
ATOM     88  C   UNL A   1      46.156  33.850  27.463  1.00  0.00     0.173 A 
ATOM     89  F   UNL A   1      46.883  32.359  30.701  1.00  0.00    -0.203 F 
ATOM     90  C   UNL A   1      46.743  34.620  30.063  1.00  0.00     0.198 A 
ATOM     91  C   UNL A   1      46.253  35.200  27.786  1.00  0.00     0.198 A 
ATOM     92  F   UNL A   1      45.861  33.511  26.199  1.00  0.00    -0.203 F 
ATOM     93  F   UNL A   1      46.983  34.990  31.329  1.00  0.00    -0.200 F 
ATOM     94  C   UNL A   1      46.535  35.584  29.087  1.00  0.00     0.200 A 
ATOM     95  F   UNL A   1      46.069  36.129  26.838  1.00  0.00    -0.200 F 
ATOM     96  F   UNL A   1      46.596  36.885  29.405  1.00  0.00    -0.200 F 
ENDBRANCH  63  86
ENDBRANCH  37  38
ENDBRANCH  29  32
ENDBRANCH  27  28
ENDBRANCH  26  27
ENDBRANCH  25  26
ENDBRANCH  24  25
ENDBRANCH   1  24
TORSDOF 18
ENDMDL
MODEL 2
REMARK VINA RESULT:     -10.6      2.109      3.530
REMARK SMILES O=C(CC1CC[NH+](CCC(=O)NC2CC2)CC1)NCCCCCCNC(=O)c1ccc(-c2c3nc(c(-c4c(F)c(F)c(F)c(F)c4F)c4ccc([nH]4)c(-c4c(F)c(F)c(F)c(F)c4F)c4nc(c(-c5c(F)c(F)c(F)c(F)c5F)c5ccc2[nH]5)C=C4)C=C3)cc1
REMARK SMILES IDX 20 1 19 2 18 3 1 4 2 5 3 7 4 8 5 9 17 10 6 11 16 12 7 13
REMARK SMILES IDX 8 15 9 16 10 17 11 18 12 19 13 21 14 22 15 23 21 24 22 25
REMARK SMILES IDX 23 26 24 27 25 28 26 29 27 31 28 32 29 33 90 34 30 35 89 36
REMARK SMILES IDX 31 37 32 38 33 39 83 40 34 41 88 42 82 43 84 44 35 45 87 46
REMARK SMILES IDX 81 47 80 48 36 50 68 51 48 52 67 53 49 54 52 55 66 56 85 57
REMARK SMILES IDX 50 58 51 59 65 61 86 62 53 63 37 64 38 65 46 66 39 67 40 68
REMARK SMILES IDX 44 69 47 70 41 71 42 72 45 73 43 74 69 75 70 76 78 77 71 78
REMARK SMILES IDX 72 79 76 80 79 81 73 82 74 83 77 84 75 85 54 86 55 87 63 88
REMARK SMILES IDX 56 89 57 90 61 91 64 92 58 93 59 94 62 95 60 96
REMARK H PARENT 18 6 7 14 12 20 25 30 84 49 52 60
REMARK Flexibility Score: inf
ROOT
ATOM      1  C   UNL A   1      40.233  22.432  26.462  1.00  0.00     0.021 C 
ENDROOT
BRANCH   1   2
ATOM      2  C   UNL A   1      38.996  21.628  26.049  1.00  0.00     0.116 C 
BRANCH   2   3
ATOM      3  N   UNL A   1      37.814  22.464  26.057  1.00  0.00    -0.356 N 
ATOM      4  O   UNL A   1      36.309  20.878  25.353  1.00  0.00    -0.275 OA
ATOM      5  C   UNL A   1      36.601  22.049  25.563  1.00  0.00     0.220 C 
ATOM      6  H   UNL A   1      37.883  23.371  26.434  1.00  0.00     0.163 HD
BRANCH   5   7
ATOM      7  C   UNL A   1      35.730  23.211  25.123  1.00  0.00     0.104 C 
BRANCH   7   8
ATOM      8  C   UNL A   1      34.209  22.996  25.125  1.00  0.00     0.009 C 
ATOM      9  C   UNL A   1      33.680  22.708  23.717  1.00  0.00     0.066 C 
ATOM     10  C   UNL A   1      33.436  24.192  25.720  1.00  0.00     0.066 C 
ATOM     11  C   UNL A   1      33.582  23.926  22.781  1.00  0.00     0.262 C 
ATOM     12  C   UNL A   1      32.964  25.267  24.718  1.00  0.00     0.262 C 
ATOM     13  N   UNL A   1      33.643  25.245  23.424  1.00  0.00    -0.334 N 
ATOM     14  H   UNL A   1      34.624  25.448  23.617  1.00  0.00     0.348 HD
BRANCH  13  15
ATOM     15  C   UNL A   1      33.130  26.297  22.508  1.00  0.00     0.272 C 
BRANCH  15  16
ATOM     16  C   UNL A   1      32.186  27.338  23.108  1.00  0.00     0.161 C 
BRANCH  16  17
ATOM     17  C   UNL A   1      32.479  28.784  22.794  1.00  0.00     0.225 C 
ATOM     18  O   UNL A   1      33.581  29.275  23.054  1.00  0.00    -0.275 OA
ATOM     19  N   UNL A   1      31.553  29.557  22.148  1.00  0.00    -0.353 N 
ATOM     20  H   UNL A   1      31.916  30.327  21.653  1.00  0.00     0.163 HD
BRANCH  19  21
ATOM     21  C   UNL A   1      30.137  29.404  22.087  1.00  0.00     0.082 C 
ATOM     22  C   UNL A   1      29.220  30.019  23.112  1.00  0.00     0.027 C 
ATOM     23  C   UNL A   1      29.146  30.462  21.693  1.00  0.00     0.027 C 
ENDBRANCH  19  21
ENDBRANCH  16  17
ENDBRANCH  15  16
ENDBRANCH  13  15
ENDBRANCH   7   8
ENDBRANCH   5   7
ENDBRANCH   2   3
ENDBRANCH   1   2
BRANCH   1  24
ATOM     24  C   UNL A   1      41.570  21.699  26.277  1.00  0.00     0.002 C 
BRANCH  24  25
ATOM     25  C   UNL A   1      41.645  20.319  26.933  1.00  0.00     0.002 C 
BRANCH  25  26
ATOM     26  C   UNL A   1      42.054  19.187  25.992  1.00  0.00     0.021 C 
BRANCH  26  27
ATOM     27  C   UNL A   1      43.494  18.725  26.163  1.00  0.00     0.116 C 
BRANCH  27  28
ATOM     28  N   UNL A   1      44.158  18.527  24.885  1.00  0.00    -0.352 N 
ATOM     29  C   UNL A   1      44.728  19.458  24.051  1.00  0.00     0.251 C 
ATOM     30  H   UNL A   1      44.206  17.594  24.574  1.00  0.00     0.163 HD
ATOM     31  O   UNL A   1      45.069  19.148  22.920  1.00  0.00    -0.269 OA
BRANCH  29  32
ATOM     32  C   UNL A   1      44.913  20.846  24.528  1.00  0.00     0.039 A 
ATOM     33  C   UNL A   1      44.541  21.901  23.693  1.00  0.00     0.014 A 
ATOM     34  C   UNL A   1      45.464  21.105  25.787  1.00  0.00     0.014 A 
ATOM     35  C   UNL A   1      44.684  23.216  24.138  1.00  0.00     0.010 A 
ATOM     36  C   UNL A   1      45.524  22.412  26.261  1.00  0.00     0.010 A 
ATOM     37  C   UNL A   1      45.155  23.482  25.434  1.00  0.00    -0.014 A 
BRANCH  37  38
ATOM     38  C   UNL A   1      45.312  24.876  25.921  1.00  0.00     0.031 A 
ATOM     39  C   UNL A   1      46.662  25.540  25.869  1.00  0.00     0.074 A 
ATOM     40  C   UNL A   1      44.256  25.531  26.439  1.00  0.00     0.049 A 
ATOM     41  N   UNL A   1      47.021  26.727  26.290  1.00  0.00    -0.248 NA
ATOM     42  C   UNL A   1      47.765  24.755  25.287  1.00  0.00     0.031 C 
ATOM     43  C   UNL A   1      42.907  24.979  26.587  1.00  0.00     0.029 A 
ATOM     44  N   UNL A   1      44.152  26.801  26.947  1.00  0.00    -0.354 N 
ATOM     45  C   UNL A   1      48.380  26.826  26.025  1.00  0.00     0.074 A 
ATOM     46  C   UNL A   1      48.802  25.556  25.477  1.00  0.00     0.031 C 
ATOM     47  C   UNL A   1      42.108  25.914  27.127  1.00  0.00     0.029 A 
ATOM     48  C   UNL A   1      42.893  27.113  27.399  1.00  0.00     0.049 A 
ATOM     49  H   UNL A   1      44.909  27.431  26.983  1.00  0.00     0.167 HD
ATOM     50  C   UNL A   1      49.199  27.893  26.187  1.00  0.00     0.037 A 
ATOM     51  C   UNL A   1      42.429  28.239  27.975  1.00  0.00     0.037 A 
ATOM     52  C   UNL A   1      48.777  29.161  26.721  1.00  0.00     0.049 A 
ATOM     53  C   UNL A   1      43.367  29.405  28.160  1.00  0.00     0.074 A 
ATOM     54  C   UNL A   1      49.525  30.308  26.919  1.00  0.00     0.029 A 
ATOM     55  N   UNL A   1      47.486  29.448  27.140  1.00  0.00    -0.354 N 
ATOM     56  N   UNL A   1      44.639  29.504  27.859  1.00  0.00    -0.248 NA
ATOM     57  C   UNL A   1      42.797  30.624  28.753  1.00  0.00     0.031 C 
ATOM     58  C   UNL A   1      48.696  31.278  27.493  1.00  0.00     0.029 A 
ATOM     59  C   UNL A   1      47.417  30.754  27.598  1.00  0.00     0.049 A 
ATOM     60  H   UNL A   1      46.730  28.817  27.115  1.00  0.00     0.167 HD
ATOM     61  C   UNL A   1      45.009  30.802  28.183  1.00  0.00     0.074 A 
ATOM     62  C   UNL A   1      43.823  31.458  28.690  1.00  0.00     0.031 C 
ATOM     63  C   UNL A   1      46.221  31.399  28.073  1.00  0.00     0.037 A 
BRANCH  50  64
ATOM     64  C   UNL A   1      50.631  27.740  25.761  1.00  0.00     0.064 A 
ATOM     65  C   UNL A   1      51.009  27.865  24.414  1.00  0.00     0.173 A 
ATOM     66  C   UNL A   1      51.643  27.511  26.704  1.00  0.00     0.173 A 
ATOM     67  F   UNL A   1      50.080  28.070  23.468  1.00  0.00    -0.203 F 
ATOM     68  C   UNL A   1      52.340  27.740  24.026  1.00  0.00     0.198 A 
ATOM     69  C   UNL A   1      52.977  27.419  26.318  1.00  0.00     0.198 A 
ATOM     70  F   UNL A   1      51.338  27.387  28.005  1.00  0.00    -0.203 F 
ATOM     71  F   UNL A   1      52.668  27.814  22.729  1.00  0.00    -0.200 F 
ATOM     72  C   UNL A   1      53.325  27.527  24.980  1.00  0.00     0.200 A 
ATOM     73  F   UNL A   1      53.929  27.227  27.242  1.00  0.00    -0.200 F 
ATOM     74  F   UNL A   1      54.607  27.419  24.607  1.00  0.00    -0.200 F 
ENDBRANCH  50  64
BRANCH  51  75
ATOM     75  C   UNL A   1      41.009  28.334  28.406  1.00  0.00     0.064 A 
ATOM     76  C   UNL A   1      40.031  28.890  27.568  1.00  0.00     0.173 A 
ATOM     77  C   UNL A   1      40.607  27.911  29.682  1.00  0.00     0.173 A 
ATOM     78  F   UNL A   1      40.367  29.326  26.345  1.00  0.00    -0.203 F 
ATOM     79  C   UNL A   1      38.718  29.059  28.004  1.00  0.00     0.198 A 
ATOM     80  C   UNL A   1      39.286  28.048  30.103  1.00  0.00     0.198 A 
ATOM     81  F   UNL A   1      41.499  27.364  30.521  1.00  0.00    -0.203 F 
ATOM     82  F   UNL A   1      37.823  29.658  27.208  1.00  0.00    -0.200 F 
ATOM     83  C   UNL A   1      38.346  28.635  29.271  1.00  0.00     0.200 A 
ATOM     84  F   UNL A   1      38.927  27.621  31.322  1.00  0.00    -0.200 F 
ATOM     85  F   UNL A   1      37.086  28.805  29.693  1.00  0.00    -0.200 F 
ENDBRANCH  51  75
BRANCH  63  86
ATOM     86  C   UNL A   1      46.310  32.853  28.441  1.00  0.00     0.064 A 
ATOM     87  C   UNL A   1      46.628  33.274  29.740  1.00  0.00     0.173 A 
ATOM     88  C   UNL A   1      46.092  33.840  27.467  1.00  0.00     0.173 A 
ATOM     89  F   UNL A   1      46.833  32.372  30.712  1.00  0.00    -0.203 F 
ATOM     90  C   UNL A   1      46.686  34.628  30.060  1.00  0.00     0.198 A 
ATOM     91  C   UNL A   1      46.187  35.193  27.781  1.00  0.00     0.198 A 
ATOM     92  F   UNL A   1      45.795  33.493  26.206  1.00  0.00    -0.203 F 
ATOM     93  F   UNL A   1      46.928  35.007  31.322  1.00  0.00    -0.200 F 
ATOM     94  C   UNL A   1      46.472  35.586  29.079  1.00  0.00     0.200 A 
ATOM     95  F   UNL A   1      45.997  36.115  26.828  1.00  0.00    -0.200 F 
ATOM     96  F   UNL A   1      46.530  36.888  29.388  1.00  0.00    -0.200 F 
ENDBRANCH  63  86
ENDBRANCH  37  38
ENDBRANCH  29  32
ENDBRANCH  27  28
ENDBRANCH  26  27
ENDBRANCH  25  26
ENDBRANCH  24  25
ENDBRANCH   1  24
TORSDOF 18
ENDMDL
MODEL 3
REMARK VINA RESULT:     -10.6      5.938     11.637
REMARK SMILES O=C(CC1CC[NH+](CCC(=O)NC2CC2)CC1)NCCCCCCNC(=O)c1ccc(-c2c3nc(c(-c4c(F)c(F)c(F)c(F)c4F)c4ccc([nH]4)c(-c4c(F)c(F)c(F)c(F)c4F)c4nc(c(-c5c(F)c(F)c(F)c(F)c5F)c5ccc2[nH]5)C=C4)C=C3)cc1
REMARK SMILES IDX 20 1 19 2 18 3 1 4 2 5 3 7 4 8 5 9 17 10 6 11 16 12 7 13
REMARK SMILES IDX 8 15 9 16 10 17 11 18 12 19 13 21 14 22 15 23 21 24 22 25
REMARK SMILES IDX 23 26 24 27 25 28 26 29 27 31 28 32 29 33 90 34 30 35 89 36
REMARK SMILES IDX 31 37 32 38 33 39 83 40 34 41 88 42 82 43 84 44 35 45 87 46
REMARK SMILES IDX 81 47 80 48 36 50 68 51 48 52 67 53 49 54 52 55 66 56 85 57
REMARK SMILES IDX 50 58 51 59 65 61 86 62 53 63 37 64 38 65 46 66 39 67 40 68
REMARK SMILES IDX 44 69 47 70 41 71 42 72 45 73 43 74 69 75 70 76 78 77 71 78
REMARK SMILES IDX 72 79 76 80 79 81 73 82 74 83 77 84 75 85 54 86 55 87 63 88
REMARK SMILES IDX 56 89 57 90 61 91 64 92 58 93 59 94 62 95 60 96
REMARK H PARENT 18 6 7 14 12 20 25 30 84 49 52 60
REMARK Flexibility Score: inf
ROOT
ATOM      1  C   UNL A   1      32.926  28.895  26.098  1.00  0.00     0.021 C 
ENDROOT
BRANCH   1   2
ATOM      2  C   UNL A   1      33.151  29.227  24.618  1.00  0.00     0.116 C 
BRANCH   2   3
ATOM      3  N   UNL A   1      33.757  28.108  23.929  1.00  0.00    -0.356 N 
ATOM      4  O   UNL A   1      31.830  27.182  23.089  1.00  0.00    -0.275 OA
ATOM      5  C   UNL A   1      33.024  27.101  23.349  1.00  0.00     0.220 C 
ATOM      6  H   UNL A   1      34.740  28.066  23.873  1.00  0.00     0.163 HD
BRANCH   5   7
ATOM      7  C   UNL A   1      33.807  25.805  23.245  1.00  0.00     0.104 C 
BRANCH   7   8
ATOM      8  C   UNL A   1      34.264  25.146  24.555  1.00  0.00     0.009 C 
ATOM      9  C   UNL A   1      35.056  23.862  24.293  1.00  0.00     0.066 C 
ATOM     10  C   UNL A   1      33.091  24.830  25.508  1.00  0.00     0.066 C 
ATOM     11  C   UNL A   1      34.220  22.637  23.881  1.00  0.00     0.262 C 
ATOM     12  C   UNL A   1      32.472  23.422  25.385  1.00  0.00     0.262 C 
ATOM     13  N   UNL A   1      32.776  22.719  24.140  1.00  0.00    -0.334 N 
ATOM     14  H   UNL A   1      32.362  23.278  23.394  1.00  0.00     0.348 HD
BRANCH  13  15
ATOM     15  C   UNL A   1      32.160  21.368  24.097  1.00  0.00     0.272 C 
BRANCH  15  16
ATOM     16  C   UNL A   1      33.085  20.176  24.342  1.00  0.00     0.161 C 
BRANCH  16  17
ATOM     17  C   UNL A   1      33.222  19.702  25.767  1.00  0.00     0.225 C 
ATOM     18  O   UNL A   1      33.565  20.482  26.661  1.00  0.00    -0.275 OA
ATOM     19  N   UNL A   1      32.899  18.417  26.107  1.00  0.00    -0.353 N 
ATOM     20  H   UNL A   1      32.651  18.279  27.050  1.00  0.00     0.163 HD
BRANCH  19  21
ATOM     21  C   UNL A   1      32.867  17.250  25.289  1.00  0.00     0.082 C 
ATOM     22  C   UNL A   1      33.962  16.217  25.326  1.00  0.00     0.027 C 
ATOM     23  C   UNL A   1      32.584  15.849  25.753  1.00  0.00     0.027 C 
ENDBRANCH  19  21
ENDBRANCH  16  17
ENDBRANCH  15  16
ENDBRANCH  13  15
ENDBRANCH   7   8
ENDBRANCH   5   7
ENDBRANCH   2   3
ENDBRANCH   1   2
BRANCH   1  24
ATOM     24  C   UNL A   1      31.995  29.866  26.841  1.00  0.00     0.002 C 
BRANCH  24  25
ATOM     25  C   UNL A   1      31.291  30.892  25.952  1.00  0.00     0.002 C 
BRANCH  25  26
ATOM     26  C   UNL A   1      31.286  32.316  26.504  1.00  0.00     0.021 C 
BRANCH  26  27
ATOM     27  C   UNL A   1      32.618  32.763  27.088  1.00  0.00     0.116 C 
BRANCH  27  28
ATOM     28  N   UNL A   1      32.554  34.113  27.624  1.00  0.00    -0.352 N 
ATOM     29  C   UNL A   1      33.256  34.666  28.667  1.00  0.00     0.251 C 
ATOM     30  H   UNL A   1      31.917  34.715  27.176  1.00  0.00     0.163 HD
ATOM     31  O   UNL A   1      32.939  35.756  29.117  1.00  0.00    -0.269 OA
BRANCH  29  32
ATOM     32  C   UNL A   1      34.393  33.923  29.253  1.00  0.00     0.039 A 
ATOM     33  C   UNL A   1      35.692  34.278  28.884  1.00  0.00     0.014 A 
ATOM     34  C   UNL A   1      34.179  32.873  30.151  1.00  0.00     0.014 A 
ATOM     35  C   UNL A   1      36.778  33.605  29.446  1.00  0.00     0.010 A 
ATOM     36  C   UNL A   1      35.263  32.263  30.776  1.00  0.00     0.010 A 
ATOM     37  C   UNL A   1      36.573  32.608  30.414  1.00  0.00    -0.014 A 
BRANCH  37  38
ATOM     38  C   UNL A   1      37.718  31.884  31.023  1.00  0.00     0.031 A 
ATOM     39  C   UNL A   1      38.156  32.218  32.424  1.00  0.00     0.074 A 
ATOM     40  C   UNL A   1      38.383  30.956  30.309  1.00  0.00     0.049 A 
ATOM     41  N   UNL A   1      39.160  31.742  33.116  1.00  0.00    -0.248 NA
ATOM     42  C   UNL A   1      37.374  33.245  33.135  1.00  0.00     0.031 C 
ATOM     43  C   UNL A   1      38.085  30.576  28.927  1.00  0.00     0.029 A 
ATOM     44  N   UNL A   1      39.455  30.168  30.645  1.00  0.00    -0.354 N 
ATOM     45  C   UNL A   1      39.129  32.408  34.334  1.00  0.00     0.074 A 
ATOM     46  C   UNL A   1      38.056  33.375  34.263  1.00  0.00     0.031 C 
ATOM     47  C   UNL A   1      38.939  29.615  28.541  1.00  0.00     0.029 A 
ATOM     48  C   UNL A   1      39.868  29.337  29.632  1.00  0.00     0.049 A 
ATOM     49  H   UNL A   1      39.889  30.196  31.529  1.00  0.00     0.167 HD
ATOM     50  C   UNL A   1      39.900  32.207  35.429  1.00  0.00     0.037 A 
ATOM     51  C   UNL A   1      40.886  28.456  29.589  1.00  0.00     0.037 A 
ATOM     52  C   UNL A   1      40.959  31.236  35.503  1.00  0.00     0.049 A 
ATOM     53  C   UNL A   1      41.740  28.266  30.817  1.00  0.00     0.074 A 
ATOM     54  C   UNL A   1      41.795  30.947  36.569  1.00  0.00     0.029 A 
ATOM     55  N   UNL A   1      41.327  30.391  34.466  1.00  0.00    -0.354 N 
ATOM     56  N   UNL A   1      41.668  28.866  31.980  1.00  0.00    -0.248 NA
ATOM     57  C   UNL A   1      42.809  27.261  30.729  1.00  0.00     0.031 C 
ATOM     58  C   UNL A   1      42.692  29.954  36.164  1.00  0.00     0.029 A 
ATOM     59  C   UNL A   1      42.379  29.583  34.867  1.00  0.00     0.049 A 
ATOM     60  H   UNL A   1      40.904  30.369  33.578  1.00  0.00     0.167 HD
ATOM     61  C   UNL A   1      42.648  28.284  32.773  1.00  0.00     0.074 A 
ATOM     62  C   UNL A   1      43.291  27.272  31.962  1.00  0.00     0.031 C 
ATOM     63  C   UNL A   1      42.988  28.561  34.055  1.00  0.00     0.037 A 
BRANCH  50  64
ATOM     64  C   UNL A   1      39.609  33.039  36.645  1.00  0.00     0.064 A 
ATOM     65  C   UNL A   1      40.295  34.240  36.890  1.00  0.00     0.173 A 
ATOM     66  C   UNL A   1      38.608  32.663  37.552  1.00  0.00     0.173 A 
ATOM     67  F   UNL A   1      41.272  34.639  36.062  1.00  0.00    -0.203 F 
ATOM     68  C   UNL A   1      40.009  35.017  38.009  1.00  0.00     0.198 A 
ATOM     69  C   UNL A   1      38.301  33.459  38.653  1.00  0.00     0.198 A 
ATOM     70  F   UNL A   1      37.917  31.528  37.364  1.00  0.00    -0.203 F 
ATOM     71  F   UNL A   1      40.713  36.132  38.246  1.00  0.00    -0.200 F 
ATOM     72  C   UNL A   1      39.005  34.630  38.884  1.00  0.00     0.200 A 
ATOM     73  F   UNL A   1      37.320  33.092  39.490  1.00  0.00    -0.200 F 
ATOM     74  F   UNL A   1      38.722  35.385  39.954  1.00  0.00    -0.200 F 
ENDBRANCH  50  64
BRANCH  51  75
ATOM     75  C   UNL A   1      41.153  27.674  28.353  1.00  0.00     0.064 A 
ATOM     76  C   UNL A   1      40.526  26.440  28.125  1.00  0.00     0.173 A 
ATOM     77  C   UNL A   1      42.072  28.121  27.393  1.00  0.00     0.173 A 
ATOM     78  F   UNL A   1      39.651  25.958  29.021  1.00  0.00    -0.203 F 
ATOM     79  C   UNL A   1      40.840  25.665  27.010  1.00  0.00     0.198 A 
ATOM     80  C   UNL A   1      42.359  27.362  26.260  1.00  0.00     0.198 A 
ATOM     81  F   UNL A   1      42.694  29.298  27.555  1.00  0.00    -0.203 F 
ATOM     82  F   UNL A   1      40.278  24.458  26.856  1.00  0.00    -0.200 F 
ATOM     83  C   UNL A   1      41.755  26.128  26.077  1.00  0.00     0.200 A 
ATOM     84  F   UNL A   1      43.231  27.822  25.352  1.00  0.00    -0.200 F 
ATOM     85  F   UNL A   1      42.063  25.380  25.009  1.00  0.00    -0.200 F 
ENDBRANCH  51  75
BRANCH  63  86
ATOM     86  C   UNL A   1      44.055  27.711  34.685  1.00  0.00     0.064 A 
ATOM     87  C   UNL A   1      43.766  26.475  35.281  1.00  0.00     0.173 A 
ATOM     88  C   UNL A   1      45.393  28.135  34.669  1.00  0.00     0.173 A 
ATOM     89  F   UNL A   1      42.501  26.030  35.334  1.00  0.00    -0.203 F 
ATOM     90  C   UNL A   1      44.770  25.714  35.874  1.00  0.00     0.198 A 
ATOM     91  C   UNL A   1      46.400  27.354  35.230  1.00  0.00     0.198 A 
ATOM     92  F   UNL A   1      45.726  29.304  34.102  1.00  0.00    -0.203 F 
ATOM     93  F   UNL A   1      44.461  24.567  36.495  1.00  0.00    -0.200 F 
ATOM     94  C   UNL A   1      46.086  26.151  35.842  1.00  0.00     0.200 A 
ATOM     95  F   UNL A   1      47.673  27.770  35.182  1.00  0.00    -0.200 F 
ATOM     96  F   UNL A   1      47.052  25.416  36.411  1.00  0.00    -0.200 F 
ENDBRANCH  63  86
ENDBRANCH  37  38
ENDBRANCH  29  32
ENDBRANCH  27  28
ENDBRANCH  26  27
ENDBRANCH  25  26
ENDBRANCH  24  25
ENDBRANCH   1  24
TORSDOF 18
ENDMDL
