MODEL 1
REMARK VINA RESULT:     -13.3      0.000      0.000
REMARK SMILES Cc1nc(-c2ccccc2Cl)nc2sc(C(=O)NCCCCCCNC(=O)c3ccc(-c4c5nc(c(-c6c(F)c(F)c(F)c(F)c6F)c6ccc([nH]6)c(-c6c(F)c(F)c(F)c(F)c6F)c6nc(c(-c7c(F)c(F)c(F)c(F)c7F)c7ccc4[nH]7)C=C6)C=C5)cc3)c(N)c12
REMARK SMILES IDX 22 1 21 2 20 3 19 4 18 5 16 6 17 7 15 9 1 10 2 11 3 12 93 13
REMARK SMILES IDX 4 14 13 15 91 16 12 17 14 18 5 19 6 20 10 21 7 22 9 23 11 24
REMARK SMILES IDX 8 25 92 26 23 29 24 30 25 31 26 32 27 34 28 35 29 36 90 37
REMARK SMILES IDX 30 38 89 39 31 40 32 41 33 42 83 43 34 44 88 45 82 46 84 47
REMARK SMILES IDX 35 48 87 49 81 50 80 51 36 53 68 54 48 55 67 56 49 57 52 58
REMARK SMILES IDX 66 59 85 60 50 61 51 62 65 64 86 65 53 66 37 67 38 68 46 69
REMARK SMILES IDX 39 70 40 71 44 72 47 73 41 74 42 75 45 76 43 77 69 78 70 79
REMARK SMILES IDX 78 80 71 81 72 82 76 83 79 84 73 85 74 86 77 87 75 88 54 89
REMARK SMILES IDX 55 90 63 91 56 92 57 93 61 94 64 95 58 96 59 97 62 98 60 99
REMARK H PARENT 18 8 92 27 92 28 25 33 84 52 52 63
REMARK Flexibility Score: inf
ROOT
ATOM      1  C   UNL A   1      40.950  21.159  27.008  1.00  0.00     0.002 C 
ENDROOT
BRANCH   1   2
ATOM      2  C   UNL A   1      39.748  21.941  26.450  1.00  0.00     0.002 C 
BRANCH   2   3
ATOM      3  C   UNL A   1      38.814  21.155  25.522  1.00  0.00     0.021 C 
BRANCH   3   4
ATOM      4  C   UNL A   1      37.433  21.796  25.353  1.00  0.00     0.116 C 
BRANCH   4   5
ATOM      5  N   UNL A   1      36.411  20.803  25.054  1.00  0.00    -0.351 N 
ATOM      6  C   UNL A   1      35.031  20.844  25.092  1.00  0.00     0.263 C 
ATOM      7  O   UNL A   1      34.462  19.852  24.620  1.00  0.00    -0.268 OA
ATOM      8  H   UNL A   1      36.775  19.933  24.771  1.00  0.00     0.163 HD
BRANCH   6   9
ATOM      9  C   UNL A   1      34.288  21.995  25.587  1.00  0.00     0.118 A 
ATOM     10  C   UNL A   1      30.001  23.312  26.870  1.00  0.00     0.067 C 
ATOM     11  C   UNL A   1      31.261  24.036  26.503  1.00  0.00     0.052 A 
ATOM     12  N   UNL A   1      31.191  25.403  26.453  1.00  0.00    -0.233 NA
ATOM     13  C   UNL A   1      32.491  23.411  26.196  1.00  0.00     0.056 A 
ATOM     14  C   UNL A   1      32.309  26.108  26.201  1.00  0.00     0.162 A 
ATOM     15  C   UNL A   1      33.557  24.276  26.038  1.00  0.00     0.130 A 
ATOM     16  C   UNL A   1      32.949  22.058  25.976  1.00  0.00     0.067 A 
ATOM     17  N   UNL A   1      33.530  25.607  26.021  1.00  0.00    -0.217 NA
ATOM     18  S   UNL A   1      35.041  23.488  25.922  1.00  0.00    -0.108 S 
BRANCH  14  19
ATOM     19  C   UNL A   1      32.259  27.562  26.089  1.00  0.00     0.038 A 
ATOM     20  C   UNL A   1      32.655  28.344  27.197  1.00  0.00     0.013 A 
ATOM     21  C   UNL A   1      31.645  28.212  25.010  1.00  0.00     0.052 A 
ATOM     22  C   UNL A   1      32.408  29.717  27.243  1.00  0.00     0.001 A 
ATOM     23  C   UNL A   1      31.397  29.589  25.057  1.00  0.00     0.021 A 
ATOM     24  Cl  UNL A   1      31.084  27.349  23.617  1.00  0.00    -0.084 Cl
ATOM     25  C   UNL A   1      31.765  30.337  26.178  1.00  0.00     0.002 A 
ENDBRANCH  14  19
BRANCH  16  26
ATOM     26  N   UNL A   1      32.164  20.959  26.044  1.00  0.00    -0.397 N 
ATOM     27  H   UNL A   1      31.868  20.514  25.219  1.00  0.00     0.156 HD
ATOM     28  H   UNL A   1      31.889  20.605  26.921  1.00  0.00     0.156 HD
ENDBRANCH  16  26
ENDBRANCH   6   9
ENDBRANCH   4   5
ENDBRANCH   3   4
ENDBRANCH   2   3
ENDBRANCH   1   2
BRANCH   1  29
ATOM     29  C   UNL A   1      41.378  19.908  26.225  1.00  0.00     0.021 C 
BRANCH  29  30
ATOM     30  C   UNL A   1      42.697  19.315  26.696  1.00  0.00     0.116 C 
BRANCH  30  31
ATOM     31  N   UNL A   1      43.683  19.234  25.621  1.00  0.00    -0.352 N 
ATOM     32  C   UNL A   1      44.209  20.245  24.841  1.00  0.00     0.251 C 
ATOM     33  H   UNL A   1      44.021  18.330  25.426  1.00  0.00     0.163 HD
ATOM     34  O   UNL A   1      44.730  19.992  23.767  1.00  0.00    -0.269 OA
BRANCH  32  35
ATOM     35  C   UNL A   1      44.124  21.641  25.313  1.00  0.00     0.039 A 
ATOM     36  C   UNL A   1      43.335  22.570  24.632  1.00  0.00     0.014 A 
ATOM     37  C   UNL A   1      44.843  22.024  26.442  1.00  0.00     0.014 A 
ATOM     38  C   UNL A   1      43.223  23.856  25.149  1.00  0.00     0.010 A 
ATOM     39  C   UNL A   1      44.603  23.235  27.043  1.00  0.00     0.010 A 
ATOM     40  C   UNL A   1      43.834  24.175  26.376  1.00  0.00    -0.014 A 
BRANCH  40  41
ATOM     41  C   UNL A   1      43.548  25.450  27.025  1.00  0.00     0.031 A 
ATOM     42  C   UNL A   1      44.501  26.515  26.634  1.00  0.00     0.074 A 
ATOM     43  C   UNL A   1      42.464  25.709  27.791  1.00  0.00     0.049 A 
ATOM     44  N   UNL A   1      45.485  26.951  27.344  1.00  0.00    -0.248 NA
ATOM     45  C   UNL A   1      44.492  27.025  25.254  1.00  0.00     0.031 C 
ATOM     46  C   UNL A   1      41.290  24.856  28.009  1.00  0.00     0.029 A 
ATOM     47  N   UNL A   1      42.142  26.840  28.489  1.00  0.00    -0.354 N 
ATOM     48  C   UNL A   1      46.053  27.981  26.606  1.00  0.00     0.074 A 
ATOM     49  C   UNL A   1      45.556  27.836  25.264  1.00  0.00     0.031 C 
ATOM     50  C   UNL A   1      40.299  25.580  28.575  1.00  0.00     0.029 A 
ATOM     51  C   UNL A   1      40.823  26.883  28.934  1.00  0.00     0.049 A 
ATOM     52  H   UNL A   1      42.788  27.564  28.661  1.00  0.00     0.167 HD
ATOM     53  C   UNL A   1      46.589  29.047  27.262  1.00  0.00     0.037 A 
ATOM     54  C   UNL A   1      40.211  27.913  29.566  1.00  0.00     0.037 A 
ATOM     55  C   UNL A   1      46.732  28.748  28.666  1.00  0.00     0.049 A 
ATOM     56  C   UNL A   1      41.270  28.712  30.219  1.00  0.00     0.074 A 
ATOM     57  C   UNL A   1      47.571  28.003  29.465  1.00  0.00     0.029 A 
ATOM     58  N   UNL A   1      45.584  28.967  29.377  1.00  0.00    -0.354 N 
ATOM     59  N   UNL A   1      41.979  28.279  31.223  1.00  0.00    -0.248 NA
ATOM     60  C   UNL A   1      41.784  29.903  29.548  1.00  0.00     0.031 C 
ATOM     61  C   UNL A   1      46.834  27.701  30.652  1.00  0.00     0.029 A 
ATOM     62  C   UNL A   1      45.584  28.305  30.571  1.00  0.00     0.049 A 
ATOM     63  H   UNL A   1      44.844  29.539  29.065  1.00  0.00     0.167 HD
ATOM     64  C   UNL A   1      43.216  28.851  31.024  1.00  0.00     0.074 A 
ATOM     65  C   UNL A   1      42.990  29.970  30.118  1.00  0.00     0.031 C 
ATOM     66  C   UNL A   1      44.353  28.157  31.311  1.00  0.00     0.037 A 
BRANCH  53  67
ATOM     67  C   UNL A   1      46.459  30.489  26.818  1.00  0.00     0.064 A 
ATOM     68  C   UNL A   1      47.611  31.307  26.840  1.00  0.00     0.173 A 
ATOM     69  C   UNL A   1      45.231  31.178  26.712  1.00  0.00     0.173 A 
ATOM     70  F   UNL A   1      48.829  30.764  26.971  1.00  0.00    -0.203 F 
ATOM     71  C   UNL A   1      47.529  32.702  26.826  1.00  0.00     0.198 A 
ATOM     72  C   UNL A   1      45.157  32.568  26.647  1.00  0.00     0.198 A 
ATOM     73  F   UNL A   1      44.052  30.553  26.791  1.00  0.00    -0.203 F 
ATOM     74  F   UNL A   1      48.639  33.438  26.974  1.00  0.00    -0.200 F 
ATOM     75  C   UNL A   1      46.301  33.332  26.732  1.00  0.00     0.200 A 
ATOM     76  F   UNL A   1      43.955  33.160  26.589  1.00  0.00    -0.200 F 
ATOM     77  F   UNL A   1      46.213  34.668  26.776  1.00  0.00    -0.200 F 
ENDBRANCH  53  67
BRANCH  54  78
ATOM     78  C   UNL A   1      38.813  28.405  29.482  1.00  0.00     0.064 A 
ATOM     79  C   UNL A   1      38.052  28.587  30.653  1.00  0.00     0.173 A 
ATOM     80  C   UNL A   1      38.325  29.024  28.318  1.00  0.00     0.173 A 
ATOM     81  F   UNL A   1      38.451  28.041  31.811  1.00  0.00    -0.203 F 
ATOM     82  C   UNL A   1      36.922  29.410  30.677  1.00  0.00     0.198 A 
ATOM     83  C   UNL A   1      37.190  29.841  28.342  1.00  0.00     0.198 A 
ATOM     84  F   UNL A   1      38.995  28.938  27.161  1.00  0.00    -0.203 F 
ATOM     85  F   UNL A   1      36.286  29.636  31.835  1.00  0.00    -0.200 F 
ATOM     86  C   UNL A   1      36.507  30.055  29.527  1.00  0.00     0.200 A 
ATOM     87  F   UNL A   1      36.810  30.483  27.228  1.00  0.00    -0.200 F 
ATOM     88  F   UNL A   1      35.480  30.915  29.567  1.00  0.00    -0.200 F 
ENDBRANCH  54  78
BRANCH  66  89
ATOM     89  C   UNL A   1      44.275  27.088  32.350  1.00  0.00     0.064 A 
ATOM     90  C   UNL A   1      44.160  25.716  32.084  1.00  0.00     0.173 A 
ATOM     91  C   UNL A   1      44.414  27.486  33.686  1.00  0.00     0.173 A 
ATOM     92  F   UNL A   1      44.081  25.259  30.826  1.00  0.00    -0.203 F 
ATOM     93  C   UNL A   1      44.171  24.784  33.122  1.00  0.00     0.198 A 
ATOM     94  C   UNL A   1      44.461  26.554  34.715  1.00  0.00     0.198 A 
ATOM     95  F   UNL A   1      44.552  28.787  33.989  1.00  0.00    -0.203 F 
ATOM     96  F   UNL A   1      44.053  23.476  32.853  1.00  0.00    -0.200 F 
ATOM     97  C   UNL A   1      44.333  25.204  34.434  1.00  0.00     0.200 A 
ATOM     98  F   UNL A   1      44.654  26.965  35.975  1.00  0.00    -0.200 F 
ATOM     99  F   UNL A   1      44.387  24.306  35.427  1.00  0.00    -0.200 F 
ENDBRANCH  66  89
ENDBRANCH  40  41
ENDBRANCH  32  35
ENDBRANCH  30  31
ENDBRANCH  29  30
ENDBRANCH   1  29
TORSDOF 15
ENDMDL
MODEL 2
REMARK VINA RESULT:     -13.0      2.637      3.656
REMARK SMILES Cc1nc(-c2ccccc2Cl)nc2sc(C(=O)NCCCCCCNC(=O)c3ccc(-c4c5nc(c(-c6c(F)c(F)c(F)c(F)c6F)c6ccc([nH]6)c(-c6c(F)c(F)c(F)c(F)c6F)c6nc(c(-c7c(F)c(F)c(F)c(F)c7F)c7ccc4[nH]7)C=C6)C=C5)cc3)c(N)c12
REMARK SMILES IDX 22 1 21 2 20 3 19 4 18 5 16 6 17 7 15 9 1 10 2 11 3 12 93 13
REMARK SMILES IDX 4 14 13 15 91 16 12 17 14 18 5 19 6 20 10 21 7 22 9 23 11 24
REMARK SMILES IDX 8 25 92 26 23 29 24 30 25 31 26 32 27 34 28 35 29 36 90 37
REMARK SMILES IDX 30 38 89 39 31 40 32 41 33 42 83 43 34 44 88 45 82 46 84 47
REMARK SMILES IDX 35 48 87 49 81 50 80 51 36 53 68 54 48 55 67 56 49 57 52 58
REMARK SMILES IDX 66 59 85 60 50 61 51 62 65 64 86 65 53 66 37 67 38 68 46 69
REMARK SMILES IDX 39 70 40 71 44 72 47 73 41 74 42 75 45 76 43 77 69 78 70 79
REMARK SMILES IDX 78 80 71 81 72 82 76 83 79 84 73 85 74 86 77 87 75 88 54 89
REMARK SMILES IDX 55 90 63 91 56 92 57 93 61 94 64 95 58 96 59 97 62 98 60 99
REMARK H PARENT 18 8 92 27 92 28 25 33 84 52 52 63
REMARK Flexibility Score: inf
ROOT
ATOM      1  C   UNL A   1      37.978  23.326  25.995  1.00  0.00     0.002 C 
ENDROOT
BRANCH   1   2
ATOM      2  C   UNL A   1      36.459  23.191  25.790  1.00  0.00     0.002 C 
BRANCH   2   3
ATOM      3  C   UNL A   1      35.865  21.810  26.093  1.00  0.00     0.021 C 
BRANCH   3   4
ATOM      4  C   UNL A   1      35.332  21.085  24.854  1.00  0.00     0.116 C 
BRANCH   4   5
ATOM      5  N   UNL A   1      33.953  20.654  25.034  1.00  0.00    -0.351 N 
ATOM      6  C   UNL A   1      32.751  21.334  25.004  1.00  0.00     0.263 C 
ATOM      7  O   UNL A   1      31.742  20.621  25.047  1.00  0.00    -0.268 OA
ATOM      8  H   UNL A   1      33.860  19.690  25.213  1.00  0.00     0.163 HD
BRANCH   6   9
ATOM      9  C   UNL A   1      32.666  22.782  24.863  1.00  0.00     0.118 A 
ATOM     10  C   UNL A   1      32.914  26.171  21.667  1.00  0.00     0.067 C 
ATOM     11  C   UNL A   1      32.987  26.125  23.164  1.00  0.00     0.052 A 
ATOM     12  N   UNL A   1      33.247  27.309  23.802  1.00  0.00    -0.233 NA
ATOM     13  C   UNL A   1      32.824  24.958  23.945  1.00  0.00     0.056 A 
ATOM     14  C   UNL A   1      33.252  27.341  25.148  1.00  0.00     0.162 A 
ATOM     15  C   UNL A   1      32.777  25.176  25.309  1.00  0.00     0.130 A 
ATOM     16  C   UNL A   1      32.705  23.540  23.692  1.00  0.00     0.067 A 
ATOM     17  N   UNL A   1      32.989  26.318  25.959  1.00  0.00    -0.217 NA
ATOM     18  S   UNL A   1      32.335  23.807  26.185  1.00  0.00    -0.108 S 
BRANCH  14  19
ATOM     19  C   UNL A   1      33.576  28.573  25.858  1.00  0.00     0.038 A 
ATOM     20  C   UNL A   1      34.729  28.605  26.675  1.00  0.00     0.013 A 
ATOM     21  C   UNL A   1      32.689  29.655  25.929  1.00  0.00     0.052 A 
ATOM     22  C   UNL A   1      34.964  29.659  27.559  1.00  0.00     0.001 A 
ATOM     23  C   UNL A   1      32.926  30.712  26.817  1.00  0.00     0.021 A 
ATOM     24  Cl  UNL A   1      31.226  29.705  25.003  1.00  0.00    -0.084 Cl
ATOM     25  C   UNL A   1      34.053  30.706  27.640  1.00  0.00     0.002 A 
ENDBRANCH  14  19
BRANCH  16  26
ATOM     26  N   UNL A   1      32.720  22.974  22.464  1.00  0.00    -0.397 N 
ATOM     27  H   UNL A   1      33.311  23.332  21.764  1.00  0.00     0.156 HD
ATOM     28  H   UNL A   1      32.139  22.202  22.271  1.00  0.00     0.156 HD
ENDBRANCH  16  26
ENDBRANCH   6   9
ENDBRANCH   4   5
ENDBRANCH   3   4
ENDBRANCH   2   3
ENDBRANCH   1   2
BRANCH   1  29
ATOM     29  C   UNL A   1      38.820  22.067  25.737  1.00  0.00     0.021 C 
BRANCH  29  30
ATOM     30  C   UNL A   1      39.918  21.844  26.765  1.00  0.00     0.116 C 
BRANCH  30  31
ATOM     31  N   UNL A   1      41.253  21.973  26.188  1.00  0.00    -0.352 N 
ATOM     32  C   UNL A   1      41.990  23.115  25.939  1.00  0.00     0.251 C 
ATOM     33  H   UNL A   1      41.690  21.126  25.942  1.00  0.00     0.163 HD
ATOM     34  O   UNL A   1      42.909  23.097  25.137  1.00  0.00    -0.269 OA
BRANCH  32  35
ATOM     35  C   UNL A   1      41.646  24.365  26.646  1.00  0.00     0.039 A 
ATOM     36  C   UNL A   1      42.112  24.595  27.941  1.00  0.00     0.014 A 
ATOM     37  C   UNL A   1      40.849  25.311  26.007  1.00  0.00     0.014 A 
ATOM     38  C   UNL A   1      41.827  25.815  28.546  1.00  0.00     0.010 A 
ATOM     39  C   UNL A   1      40.710  26.573  26.532  1.00  0.00     0.010 A 
ATOM     40  C   UNL A   1      41.153  26.816  27.822  1.00  0.00    -0.014 A 
BRANCH  40  41
ATOM     41  C   UNL A   1      41.039  28.163  28.371  1.00  0.00     0.031 A 
ATOM     42  C   UNL A   1      42.131  29.057  27.920  1.00  0.00     0.074 A 
ATOM     43  C   UNL A   1      39.996  28.622  29.099  1.00  0.00     0.049 A 
ATOM     44  N   UNL A   1      43.161  29.407  28.613  1.00  0.00    -0.248 NA
ATOM     45  C   UNL A   1      42.201  29.460  26.506  1.00  0.00     0.031 C 
ATOM     46  C   UNL A   1      38.716  27.955  29.359  1.00  0.00     0.029 A 
ATOM     47  N   UNL A   1      39.827  29.835  29.708  1.00  0.00    -0.354 N 
ATOM     48  C   UNL A   1      43.869  30.293  27.811  1.00  0.00     0.074 A 
ATOM     49  C   UNL A   1      43.365  30.118  26.475  1.00  0.00     0.031 C 
ATOM     50  C   UNL A   1      37.829  28.846  29.855  1.00  0.00     0.029 A 
ATOM     51  C   UNL A   1      38.524  30.089  30.127  1.00  0.00     0.049 A 
ATOM     52  H   UNL A   1      40.564  30.476  29.838  1.00  0.00     0.167 HD
ATOM     53  C   UNL A   1      44.541  31.322  28.397  1.00  0.00     0.037 A 
ATOM     54  C   UNL A   1      38.053  31.237  30.673  1.00  0.00     0.037 A 
ATOM     55  C   UNL A   1      44.633  31.111  29.821  1.00  0.00     0.049 A 
ATOM     56  C   UNL A   1      39.207  31.931  31.283  1.00  0.00     0.074 A 
ATOM     57  C   UNL A   1      45.357  30.321  30.686  1.00  0.00     0.029 A 
ATOM     58  N   UNL A   1      43.521  31.536  30.496  1.00  0.00    -0.354 N 
ATOM     59  N   UNL A   1      39.844  31.481  32.327  1.00  0.00    -0.248 NA
ATOM     60  C   UNL A   1      39.883  32.988  30.537  1.00  0.00     0.031 C 
ATOM     61  C   UNL A   1      44.579  30.210  31.879  1.00  0.00     0.029 A 
ATOM     62  C   UNL A   1      43.423  30.970  31.734  1.00  0.00     0.049 A 
ATOM     63  H   UNL A   1      42.868  32.178  30.131  1.00  0.00     0.167 HD
ATOM     64  C   UNL A   1      41.149  31.864  32.107  1.00  0.00     0.074 A 
ATOM     65  C   UNL A   1      41.083  32.933  31.119  1.00  0.00     0.031 C 
ATOM     66  C   UNL A   1      42.179  31.046  32.463  1.00  0.00     0.037 A 
BRANCH  53  67
ATOM     67  C   UNL A   1      44.611  32.732  27.848  1.00  0.00     0.064 A 
ATOM     68  C   UNL A   1      45.803  33.148  27.213  1.00  0.00     0.173 A 
ATOM     69  C   UNL A   1      43.727  33.770  28.213  1.00  0.00     0.173 A 
ATOM     70  F   UNL A   1      46.732  32.252  26.852  1.00  0.00    -0.203 F 
ATOM     71  C   UNL A   1      46.109  34.500  27.025  1.00  0.00     0.198 A 
ATOM     72  C   UNL A   1      44.014  35.114  27.978  1.00  0.00     0.198 A 
ATOM     73  F   UNL A   1      42.615  33.546  28.919  1.00  0.00    -0.203 F 
ATOM     74  F   UNL A   1      47.304  34.851  26.533  1.00  0.00    -0.200 F 
ATOM     75  C   UNL A   1      45.214  35.482  27.411  1.00  0.00     0.200 A 
ATOM     76  F   UNL A   1      43.148  36.052  28.388  1.00  0.00    -0.200 F 
ATOM     77  F   UNL A   1      45.527  36.778  27.285  1.00  0.00    -0.200 F 
ENDBRANCH  53  67
BRANCH  54  78
ATOM     78  C   UNL A   1      36.736  31.906  30.531  1.00  0.00     0.064 A 
ATOM     79  C   UNL A   1      35.840  31.949  31.616  1.00  0.00     0.173 A 
ATOM     80  C   UNL A   1      36.479  32.795  29.473  1.00  0.00     0.173 A 
ATOM     81  F   UNL A   1      36.018  31.143  32.673  1.00  0.00    -0.203 F 
ATOM     82  C   UNL A   1      34.805  32.886  31.679  1.00  0.00     0.198 A 
ATOM     83  C   UNL A   1      35.438  33.726  29.534  1.00  0.00     0.198 A 
ATOM     84  F   UNL A   1      37.293  32.853  28.410  1.00  0.00    -0.203 F 
ATOM     85  F   UNL A   1      34.038  32.961  32.776  1.00  0.00    -0.200 F 
ATOM     86  C   UNL A   1      34.620  33.790  30.649  1.00  0.00     0.200 A 
ATOM     87  F   UNL A   1      35.282  34.615  28.543  1.00  0.00    -0.200 F 
ATOM     88  F   UNL A   1      33.687  34.747  30.748  1.00  0.00    -0.200 F 
ENDBRANCH  54  78
BRANCH  66  89
ATOM     89  C   UNL A   1      41.949  30.077  33.575  1.00  0.00     0.064 A 
ATOM     90  C   UNL A   1      41.538  28.746  33.409  1.00  0.00     0.173 A 
ATOM     91  C   UNL A   1      42.252  30.511  34.872  1.00  0.00     0.173 A 
ATOM     92  F   UNL A   1      41.288  28.246  32.191  1.00  0.00    -0.203 F 
ATOM     93  C   UNL A   1      41.424  27.893  34.507  1.00  0.00     0.198 A 
ATOM     94  C   UNL A   1      42.171  29.650  35.959  1.00  0.00     0.198 A 
ATOM     95  F   UNL A   1      42.672  31.770  35.078  1.00  0.00    -0.203 F 
ATOM     96  F   UNL A   1      41.024  26.624  34.334  1.00  0.00    -0.200 F 
ATOM     97  C   UNL A   1      41.752  28.343  35.777  1.00  0.00     0.200 A 
ATOM     98  F   UNL A   1      42.524  30.082  37.177  1.00  0.00    -0.200 F 
ATOM     99  F   UNL A   1      41.683  27.510  36.825  1.00  0.00    -0.200 F 
ENDBRANCH  66  89
ENDBRANCH  40  41
ENDBRANCH  32  35
ENDBRANCH  30  31
ENDBRANCH  29  30
ENDBRANCH   1  29
TORSDOF 15
ENDMDL
MODEL 3
REMARK VINA RESULT:     -12.8      2.528      3.734
REMARK SMILES Cc1nc(-c2ccccc2Cl)nc2sc(C(=O)NCCCCCCNC(=O)c3ccc(-c4c5nc(c(-c6c(F)c(F)c(F)c(F)c6F)c6ccc([nH]6)c(-c6c(F)c(F)c(F)c(F)c6F)c6nc(c(-c7c(F)c(F)c(F)c(F)c7F)c7ccc4[nH]7)C=C6)C=C5)cc3)c(N)c12
REMARK SMILES IDX 22 1 21 2 20 3 19 4 18 5 16 6 17 7 15 9 1 10 2 11 3 12 93 13
REMARK SMILES IDX 4 14 13 15 91 16 12 17 14 18 5 19 6 20 10 21 7 22 9 23 11 24
REMARK SMILES IDX 8 25 92 26 23 29 24 30 25 31 26 32 27 34 28 35 29 36 90 37
REMARK SMILES IDX 30 38 89 39 31 40 32 41 33 42 83 43 34 44 88 45 82 46 84 47
REMARK SMILES IDX 35 48 87 49 81 50 80 51 36 53 68 54 48 55 67 56 49 57 52 58
REMARK SMILES IDX 66 59 85 60 50 61 51 62 65 64 86 65 53 66 37 67 38 68 46 69
REMARK SMILES IDX 39 70 40 71 44 72 47 73 41 74 42 75 45 76 43 77 69 78 70 79
REMARK SMILES IDX 78 80 71 81 72 82 76 83 79 84 73 85 74 86 77 87 75 88 54 89
REMARK SMILES IDX 55 90 63 91 56 92 57 93 61 94 64 95 58 96 59 97 62 98 60 99
REMARK H PARENT 18 8 92 27 92 28 25 33 84 52 52 63
REMARK Flexibility Score: inf
ROOT
ATOM      1  C   UNL A   1      37.673  23.549  25.945  1.00  0.00     0.002 C 
ENDROOT
BRANCH   1   2
ATOM      2  C   UNL A   1      36.150  23.333  25.906  1.00  0.00     0.002 C 
BRANCH   2   3
ATOM      3  C   UNL A   1      35.673  21.900  26.170  1.00  0.00     0.021 C 
BRANCH   3   4
ATOM      4  C   UNL A   1      34.961  21.259  24.974  1.00  0.00     0.116 C 
BRANCH   4   5
ATOM      5  N   UNL A   1      33.558  20.999  25.258  1.00  0.00    -0.351 N 
ATOM      6  C   UNL A   1      32.449  21.822  25.313  1.00  0.00     0.263 C 
ATOM      7  O   UNL A   1      31.366  21.238  25.434  1.00  0.00    -0.268 OA
ATOM      8  H   UNL A   1      33.360  20.054  25.450  1.00  0.00     0.163 HD
BRANCH   6   9
ATOM      9  C   UNL A   1      32.532  23.270  25.170  1.00  0.00     0.118 A 
ATOM     10  C   UNL A   1      33.451  26.592  22.027  1.00  0.00     0.067 C 
ATOM     11  C   UNL A   1      33.371  26.549  23.524  1.00  0.00     0.052 A 
ATOM     12  N   UNL A   1      33.691  27.703  24.189  1.00  0.00    -0.233 NA
ATOM     13  C   UNL A   1      33.009  25.411  24.280  1.00  0.00     0.056 A 
ATOM     14  C   UNL A   1      33.567  27.743  25.528  1.00  0.00     0.162 A 
ATOM     15  C   UNL A   1      32.852  25.642  25.633  1.00  0.00     0.130 A 
ATOM     16  C   UNL A   1      32.766  24.012  24.011  1.00  0.00     0.067 A 
ATOM     17  N   UNL A   1      33.118  26.760  26.306  1.00  0.00    -0.217 NA
ATOM     18  S   UNL A   1      32.182  24.333  26.457  1.00  0.00    -0.108 S 
BRANCH  14  19
ATOM     19  C   UNL A   1      33.948  28.939  26.272  1.00  0.00     0.038 A 
ATOM     20  C   UNL A   1      35.129  28.911  27.048  1.00  0.00     0.013 A 
ATOM     21  C   UNL A   1      33.093  30.040  26.414  1.00  0.00     0.052 A 
ATOM     22  C   UNL A   1      35.422  29.924  27.961  1.00  0.00     0.001 A 
ATOM     23  C   UNL A   1      33.388  31.055  27.332  1.00  0.00     0.021 A 
ATOM     24  Cl  UNL A   1      31.601  30.162  25.544  1.00  0.00    -0.084 Cl
ATOM     25  C   UNL A   1      34.543  30.990  28.114  1.00  0.00     0.002 A 
ENDBRANCH  14  19
BRANCH  16  26
ATOM     26  N   UNL A   1      32.842  23.439  22.789  1.00  0.00    -0.397 N 
ATOM     27  H   UNL A   1      32.068  23.468  22.183  1.00  0.00     0.156 HD
ATOM     28  H   UNL A   1      33.673  22.992  22.506  1.00  0.00     0.156 HD
ENDBRANCH  16  26
ENDBRANCH   6   9
ENDBRANCH   4   5
ENDBRANCH   3   4
ENDBRANCH   2   3
ENDBRANCH   1   2
BRANCH   1  29
ATOM     29  C   UNL A   1      38.546  22.346  25.558  1.00  0.00     0.021 C 
BRANCH  29  30
ATOM     30  C   UNL A   1      39.589  21.986  26.605  1.00  0.00     0.116 C 
BRANCH  30  31
ATOM     31  N   UNL A   1      40.948  22.028  26.073  1.00  0.00    -0.352 N 
ATOM     32  C   UNL A   1      41.807  23.103  25.955  1.00  0.00     0.251 C 
ATOM     33  H   UNL A   1      41.302  21.167  25.752  1.00  0.00     0.163 HD
ATOM     34  O   UNL A   1      42.744  23.065  25.175  1.00  0.00    -0.269 OA
BRANCH  32  35
ATOM     35  C   UNL A   1      41.573  24.308  26.776  1.00  0.00     0.039 A 
ATOM     36  C   UNL A   1      42.145  24.421  28.044  1.00  0.00     0.014 A 
ATOM     37  C   UNL A   1      40.771  25.330  26.273  1.00  0.00     0.014 A 
ATOM     38  C   UNL A   1      41.960  25.601  28.757  1.00  0.00     0.010 A 
ATOM     39  C   UNL A   1      40.728  26.552  26.898  1.00  0.00     0.010 A 
ATOM     40  C   UNL A   1      41.278  26.680  28.163  1.00  0.00    -0.014 A 
BRANCH  40  41
ATOM     41  C   UNL A   1      41.265  27.984  28.817  1.00  0.00     0.031 A 
ATOM     42  C   UNL A   1      42.380  28.854  28.375  1.00  0.00     0.074 A 
ATOM     43  C   UNL A   1      40.286  28.438  29.631  1.00  0.00     0.049 A 
ATOM     44  N   UNL A   1      43.461  29.097  29.036  1.00  0.00    -0.248 NA
ATOM     45  C   UNL A   1      42.401  29.361  26.993  1.00  0.00     0.031 C 
ATOM     46  C   UNL A   1      38.985  27.818  29.909  1.00  0.00     0.029 A 
ATOM     47  N   UNL A   1      40.213  29.607  30.337  1.00  0.00    -0.354 N 
ATOM     48  C   UNL A   1      44.175  30.006  28.265  1.00  0.00     0.074 A 
ATOM     49  C   UNL A   1      43.596  29.959  26.949  1.00  0.00     0.031 C 
ATOM     50  C   UNL A   1      38.174  28.711  30.517  1.00  0.00     0.029 A 
ATOM     51  C   UNL A   1      38.948  29.893  30.843  1.00  0.00     0.049 A 
ATOM     52  H   UNL A   1      40.990  30.198  30.474  1.00  0.00     0.167 HD
ATOM     53  C   UNL A   1      44.930  30.951  28.890  1.00  0.00     0.037 A 
ATOM     54  C   UNL A   1      38.568  31.018  31.498  1.00  0.00     0.037 A 
ATOM     55  C   UNL A   1      45.081  30.626  30.287  1.00  0.00     0.049 A 
ATOM     56  C   UNL A   1      39.788  31.604  32.095  1.00  0.00     0.074 A 
ATOM     57  C   UNL A   1      45.803  29.736  31.050  1.00  0.00     0.029 A 
ATOM     58  N   UNL A   1      44.029  31.054  31.050  1.00  0.00    -0.354 N 
ATOM     59  N   UNL A   1      40.450  31.043  33.067  1.00  0.00    -0.248 NA
ATOM     60  C   UNL A   1      40.482  32.679  31.394  1.00  0.00     0.031 C 
ATOM     61  C   UNL A   1      45.080  29.573  32.272  1.00  0.00     0.029 A 
ATOM     62  C   UNL A   1      43.962  30.399  32.246  1.00  0.00     0.049 A 
ATOM     63  H   UNL A   1      43.395  31.753  30.769  1.00  0.00     0.167 HD
ATOM     64  C   UNL A   1      41.762  31.375  32.806  1.00  0.00     0.074 A 
ATOM     65  C   UNL A   1      41.704  32.519  31.906  1.00  0.00     0.031 C 
ATOM     66  C   UNL A   1      42.761  30.481  33.044  1.00  0.00     0.037 A 
BRANCH  53  67
ATOM     67  C   UNL A   1      45.050  32.394  28.443  1.00  0.00     0.064 A 
ATOM     68  C   UNL A   1      43.873  33.171  28.355  1.00  0.00     0.173 A 
ATOM     69  C   UNL A   1      46.177  32.927  27.784  1.00  0.00     0.173 A 
ATOM     70  F   UNL A   1      42.732  32.746  28.915  1.00  0.00    -0.203 F 
ATOM     71  C   UNL A   1      43.820  34.351  27.607  1.00  0.00     0.198 A 
ATOM     72  C   UNL A   1      46.133  34.131  27.081  1.00  0.00     0.198 A 
ATOM     73  F   UNL A   1      47.330  32.258  27.682  1.00  0.00    -0.203 F 
ATOM     74  F   UNL A   1      42.653  34.989  27.449  1.00  0.00    -0.200 F 
ATOM     75  C   UNL A   1      44.951  34.828  26.968  1.00  0.00     0.200 A 
ATOM     76  F   UNL A   1      47.231  34.559  26.442  1.00  0.00    -0.200 F 
ATOM     77  F   UNL A   1      44.891  35.927  26.205  1.00  0.00    -0.200 F 
ENDBRANCH  53  67
BRANCH  54  78
ATOM     78  C   UNL A   1      37.284  31.762  31.476  1.00  0.00     0.064 A 
ATOM     79  C   UNL A   1      36.569  31.978  32.669  1.00  0.00     0.173 A 
ATOM     80  C   UNL A   1      36.918  32.556  30.376  1.00  0.00     0.173 A 
ATOM     81  F   UNL A   1      36.861  31.271  33.771  1.00  0.00    -0.203 F 
ATOM     82  C   UNL A   1      35.609  32.988  32.780  1.00  0.00     0.198 A 
ATOM     83  C   UNL A   1      35.952  33.561  30.486  1.00  0.00     0.198 A 
ATOM     84  F   UNL A   1      37.562  32.448  29.206  1.00  0.00    -0.203 F 
ATOM     85  F   UNL A   1      35.024  33.227  33.962  1.00  0.00    -0.200 F 
ATOM     86  C   UNL A   1      35.319  33.794  31.695  1.00  0.00     0.200 A 
ATOM     87  F   UNL A   1      35.696  34.354  29.436  1.00  0.00    -0.200 F 
ATOM     88  F   UNL A   1      34.467  34.820  31.823  1.00  0.00    -0.200 F 
ENDBRANCH  54  78
BRANCH  66  89
ATOM     89  C   UNL A   1      42.535  29.442  34.092  1.00  0.00     0.064 A 
ATOM     90  C   UNL A   1      41.847  28.236  33.892  1.00  0.00     0.173 A 
ATOM     91  C   UNL A   1      43.132  29.655  35.342  1.00  0.00     0.173 A 
ATOM     92  F   UNL A   1      41.301  27.940  32.704  1.00  0.00    -0.203 F 
ATOM     93  C   UNL A   1      41.752  27.291  34.914  1.00  0.00     0.198 A 
ATOM     94  C   UNL A   1      43.066  28.698  36.345  1.00  0.00     0.198 A 
ATOM     95  F   UNL A   1      43.822  30.784  35.572  1.00  0.00    -0.203 F 
ATOM     96  F   UNL A   1      41.085  26.146  34.711  1.00  0.00    -0.200 F 
ATOM     97  C   UNL A   1      42.371  27.519  36.134  1.00  0.00     0.200 A 
ATOM     98  F   UNL A   1      43.697  28.909  37.507  1.00  0.00    -0.200 F 
ATOM     99  F   UNL A   1      42.317  26.592  37.100  1.00  0.00    -0.200 F 
ENDBRANCH  66  89
ENDBRANCH  40  41
ENDBRANCH  32  35
ENDBRANCH  30  31
ENDBRANCH  29  30
ENDBRANCH   1  29
TORSDOF 15
ENDMDL
