MODEL 1
REMARK VINA RESULT:     -11.6      0.000      0.000
REMARK SMILES CC[C@](C)(NC(=O)NC[C@H]1COCCO1)C(=O)NCCCCCCNC(=O)c1ccc(-c2c3nc(c(-c4c(F)c(F)c(F)c(F)c4F)c4ccc([nH]4)c(-c4c(F)c(F)c(F)c(F)c4F)c4nc(c(-c5c(F)c(F)c(F)c(F)c5F)c5ccc2[nH]5)C=C4)C=C3)cc1
REMARK SMILES IDX 21 1 20 2 19 3 18 4 16 5 17 6 3 8 4 9 2 10 1 11 5 12 6 13
REMARK SMILES IDX 7 15 8 16 9 18 10 19 11 20 15 21 12 22 14 23 13 24 22 25
REMARK SMILES IDX 23 26 24 27 25 28 26 29 27 31 28 32 29 33 90 34 30 35 89 36
REMARK SMILES IDX 31 37 32 38 33 39 83 40 34 41 88 42 82 43 84 44 35 45 87 46
REMARK SMILES IDX 81 47 80 48 36 50 68 51 48 52 67 53 49 54 52 55 66 56 85 57
REMARK SMILES IDX 50 58 51 59 65 61 86 62 53 63 37 64 38 65 46 66 39 67 40 68
REMARK SMILES IDX 44 69 47 70 41 71 42 72 45 73 43 74 69 75 70 76 78 77 71 78
REMARK SMILES IDX 72 79 76 80 79 81 73 82 74 83 77 84 75 85 54 86 55 87 63 88
REMARK SMILES IDX 56 89 57 90 61 91 64 92 58 93 59 94 62 95 60 96
REMARK H PARENT 18 7 5 14 8 17 25 30 84 49 52 60
REMARK Flexibility Score: inf
ROOT
ATOM      1  C   UNL A   1      32.949  30.113  27.252  1.00  0.00     0.002 C 
ENDROOT
BRANCH   1   2
ATOM      2  C   UNL A   1      33.642  28.750  26.911  1.00  0.00     0.021 C 
BRANCH   2   3
ATOM      3  C   UNL A   1      33.129  27.293  26.534  1.00  0.00     0.116 C 
BRANCH   3   4
ATOM      4  N   UNL A   1      33.753  26.369  25.566  1.00  0.00    -0.354 N 
ATOM      5  C   UNL A   1      33.591  25.931  24.273  1.00  0.00     0.245 C 
ATOM      6  O   UNL A   1      34.400  25.156  23.761  1.00  0.00    -0.272 OA
ATOM      7  H   UNL A   1      34.532  25.928  25.976  1.00  0.00     0.163 HD
BRANCH   5   8
ATOM      8  C   UNL A   1      32.465  26.488  23.456  1.00  0.00     0.117 C 
ATOM      9  C   UNL A   1      32.348  26.009  22.001  1.00  0.00     0.045 C 
BRANCH   8  10
ATOM     10  C   UNL A   1      32.780  28.028  23.518  1.00  0.00     0.035 C 
ATOM     11  C   UNL A   1      33.937  28.502  22.624  1.00  0.00     0.007 C 
ENDBRANCH   8  10
BRANCH   8  12
ATOM     12  N   UNL A   1      31.270  26.046  24.187  1.00  0.00    -0.324 N 
ATOM     13  C   UNL A   1      30.030  26.547  24.340  1.00  0.00     0.315 C 
ATOM     14  H   UNL A   1      31.405  25.198  24.671  1.00  0.00     0.166 HD
ATOM     15  O   UNL A   1      29.370  26.036  25.256  1.00  0.00    -0.249 OA
ATOM     16  N   UNL A   1      29.369  27.436  23.569  1.00  0.00    -0.335 N 
ATOM     17  H   UNL A   1      28.408  27.321  23.749  1.00  0.00     0.165 HD
BRANCH  16  18
ATOM     18  C   UNL A   1      29.510  28.538  22.537  1.00  0.00     0.152 C 
BRANCH  18  19
ATOM     19  C   UNL A   1      28.387  29.660  22.115  1.00  0.00     0.163 C 
ATOM     20  C   UNL A   1      27.986  30.615  23.269  1.00  0.00     0.194 C 
ATOM     21  O   UNL A   1      28.633  30.437  20.936  1.00  0.00    -0.372 OA
ATOM     22  O   UNL A   1      28.591  31.913  23.202  1.00  0.00    -0.376 OA
ATOM     23  C   UNL A   1      27.971  31.707  20.835  1.00  0.00     0.189 C 
ATOM     24  C   UNL A   1      28.375  32.619  21.983  1.00  0.00     0.188 C 
ENDBRANCH  18  19
ENDBRANCH  16  18
ENDBRANCH   8  12
ENDBRANCH   5   8
ENDBRANCH   3   4
ENDBRANCH   2   3
ENDBRANCH   1   2
BRANCH   1  25
ATOM     25  C   UNL A   1      31.717  30.748  26.568  1.00  0.00     0.002 C 
BRANCH  25  26
ATOM     26  C   UNL A   1      31.525  32.245  26.711  1.00  0.00     0.021 C 
BRANCH  26  27
ATOM     27  C   UNL A   1      32.780  32.932  27.217  1.00  0.00     0.116 C 
BRANCH  27  28
ATOM     28  N   UNL A   1      32.520  34.307  27.647  1.00  0.00    -0.352 N 
ATOM     29  C   UNL A   1      33.038  34.983  28.718  1.00  0.00     0.251 C 
ATOM     30  H   UNL A   1      31.886  34.814  27.090  1.00  0.00     0.163 HD
ATOM     31  O   UNL A   1      32.567  36.078  29.062  1.00  0.00    -0.269 OA
BRANCH  29  32
ATOM     32  C   UNL A   1      34.153  34.395  29.478  1.00  0.00     0.039 A 
ATOM     33  C   UNL A   1      33.894  33.644  30.627  1.00  0.00     0.014 A 
ATOM     34  C   UNL A   1      35.464  34.570  29.029  1.00  0.00     0.014 A 
ATOM     35  C   UNL A   1      34.953  33.028  31.295  1.00  0.00     0.010 A 
ATOM     36  C   UNL A   1      36.496  33.859  29.620  1.00  0.00     0.010 A 
ATOM     37  C   UNL A   1      36.257  33.111  30.780  1.00  0.00    -0.014 A 
BRANCH  37  38
ATOM     38  C   UNL A   1      37.407  32.483  31.470  1.00  0.00     0.031 A 
ATOM     39  C   UNL A   1      38.145  31.356  30.799  1.00  0.00     0.074 A 
ATOM     40  C   UNL A   1      37.737  32.876  32.714  1.00  0.00     0.049 A 
ATOM     41  N   UNL A   1      39.140  30.633  31.246  1.00  0.00    -0.248 NA
ATOM     42  C   UNL A   1      37.673  30.960  29.461  1.00  0.00     0.031 C 
ATOM     43  C   UNL A   1      37.053  33.915  33.484  1.00  0.00     0.029 A 
ATOM     44  N   UNL A   1      38.734  32.445  33.550  1.00  0.00    -0.354 N 
ATOM     45  C   UNL A   1      39.387  29.686  30.258  1.00  0.00     0.074 A 
ATOM     46  C   UNL A   1      38.394  29.877  29.227  1.00  0.00     0.031 C 
ATOM     47  C   UNL A   1      37.680  34.075  34.661  1.00  0.00     0.029 A 
ATOM     48  C   UNL A   1      38.785  33.125  34.742  1.00  0.00     0.049 A 
ATOM     49  H   UNL A   1      39.355  31.717  33.318  1.00  0.00     0.167 HD
ATOM     50  C   UNL A   1      40.376  28.764  30.202  1.00  0.00     0.037 A 
ATOM     51  C   UNL A   1      39.637  32.996  35.775  1.00  0.00     0.037 A 
ATOM     52  C   UNL A   1      41.383  28.615  31.218  1.00  0.00     0.049 A 
ATOM     53  C   UNL A   1      40.734  31.969  35.686  1.00  0.00     0.074 A 
ATOM     54  C   UNL A   1      42.481  27.774  31.229  1.00  0.00     0.029 A 
ATOM     55  N   UNL A   1      41.409  29.329  32.407  1.00  0.00    -0.354 N 
ATOM     56  N   UNL A   1      41.017  31.140  34.710  1.00  0.00    -0.248 NA
ATOM     57  C   UNL A   1      41.636  31.869  36.840  1.00  0.00     0.031 C 
ATOM     58  C   UNL A   1      43.140  27.940  32.452  1.00  0.00     0.029 A 
ATOM     59  C   UNL A   1      42.489  28.926  33.176  1.00  0.00     0.049 A 
ATOM     60  H   UNL A   1      40.758  30.020  32.666  1.00  0.00     0.167 HD
ATOM     61  C   UNL A   1      42.145  30.441  35.117  1.00  0.00     0.074 A 
ATOM     62  C   UNL A   1      42.504  30.958  36.423  1.00  0.00     0.031 C 
ATOM     63  C   UNL A   1      42.826  29.461  34.472  1.00  0.00     0.037 A 
BRANCH  50  64
ATOM     64  C   UNL A   1      40.405  27.852  29.008  1.00  0.00     0.064 A 
ATOM     65  C   UNL A   1      41.171  28.145  27.867  1.00  0.00     0.173 A 
ATOM     66  C   UNL A   1      39.653  26.667  29.002  1.00  0.00     0.173 A 
ATOM     67  F   UNL A   1      41.898  29.271  27.813  1.00  0.00    -0.203 F 
ATOM     68  C   UNL A   1      41.145  27.312  26.752  1.00  0.00     0.198 A 
ATOM     69  C   UNL A   1      39.660  25.817  27.898  1.00  0.00     0.198 A 
ATOM     70  F   UNL A   1      38.906  26.333  30.065  1.00  0.00    -0.203 F 
ATOM     71  F   UNL A   1      41.828  27.651  25.648  1.00  0.00    -0.200 F 
ATOM     72  C   UNL A   1      40.395  26.146  26.770  1.00  0.00     0.200 A 
ATOM     73  F   UNL A   1      38.945  24.683  27.923  1.00  0.00    -0.200 F 
ATOM     74  F   UNL A   1      40.372  25.346  25.695  1.00  0.00    -0.200 F 
ENDBRANCH  50  64
BRANCH  51  75
ATOM     75  C   UNL A   1      39.523  33.899  36.951  1.00  0.00     0.064 A 
ATOM     76  C   UNL A   1      38.799  33.504  38.084  1.00  0.00     0.173 A 
ATOM     77  C   UNL A   1      40.135  35.160  36.974  1.00  0.00     0.173 A 
ATOM     78  F   UNL A   1      38.182  32.314  38.103  1.00  0.00    -0.203 F 
ATOM     79  C   UNL A   1      38.674  34.344  39.189  1.00  0.00     0.198 A 
ATOM     80  C   UNL A   1      40.033  35.988  38.091  1.00  0.00     0.198 A 
ATOM     81  F   UNL A   1      40.846  35.583  35.919  1.00  0.00    -0.203 F 
ATOM     82  F   UNL A   1      37.940  33.958  40.242  1.00  0.00    -0.200 F 
ATOM     83  C   UNL A   1      39.296  35.583  39.194  1.00  0.00     0.200 A 
ATOM     84  F   UNL A   1      40.650  37.177  38.100  1.00  0.00    -0.200 F 
ATOM     85  F   UNL A   1      39.181  36.388  40.259  1.00  0.00    -0.200 F 
ENDBRANCH  51  75
BRANCH  63  86
ATOM     86  C   UNL A   1      44.045  28.913  35.154  1.00  0.00     0.064 A 
ATOM     87  C   UNL A   1      45.315  29.473  34.956  1.00  0.00     0.173 A 
ATOM     88  C   UNL A   1      43.933  27.833  36.044  1.00  0.00     0.173 A 
ATOM     89  F   UNL A   1      45.478  30.497  34.105  1.00  0.00    -0.203 F 
ATOM     90  C   UNL A   1      46.435  28.949  35.597  1.00  0.00     0.198 A 
ATOM     91  C   UNL A   1      45.049  27.336  36.710  1.00  0.00     0.198 A 
ATOM     92  F   UNL A   1      42.739  27.268  36.276  1.00  0.00    -0.203 F 
ATOM     93  F   UNL A   1      47.647  29.461  35.347  1.00  0.00    -0.200 F 
ATOM     94  C   UNL A   1      46.299  27.886  36.478  1.00  0.00     0.200 A 
ATOM     95  F   UNL A   1      44.913  26.320  37.574  1.00  0.00    -0.200 F 
ATOM     96  F   UNL A   1      47.377  27.387  37.099  1.00  0.00    -0.200 F 
ENDBRANCH  63  86
ENDBRANCH  37  38
ENDBRANCH  29  32
ENDBRANCH  27  28
ENDBRANCH  26  27
ENDBRANCH  25  26
ENDBRANCH   1  25
TORSDOF 17
ENDMDL
MODEL 2
REMARK VINA RESULT:     -11.5      6.351     11.794
REMARK SMILES CC[C@](C)(NC(=O)NC[C@H]1COCCO1)C(=O)NCCCCCCNC(=O)c1ccc(-c2c3nc(c(-c4c(F)c(F)c(F)c(F)c4F)c4ccc([nH]4)c(-c4c(F)c(F)c(F)c(F)c4F)c4nc(c(-c5c(F)c(F)c(F)c(F)c5F)c5ccc2[nH]5)C=C4)C=C3)cc1
REMARK SMILES IDX 21 1 20 2 19 3 18 4 16 5 17 6 3 8 4 9 2 10 1 11 5 12 6 13
REMARK SMILES IDX 7 15 8 16 9 18 10 19 11 20 15 21 12 22 14 23 13 24 22 25
REMARK SMILES IDX 23 26 24 27 25 28 26 29 27 31 28 32 29 33 90 34 30 35 89 36
REMARK SMILES IDX 31 37 32 38 33 39 83 40 34 41 88 42 82 43 84 44 35 45 87 46
REMARK SMILES IDX 81 47 80 48 36 50 68 51 48 52 67 53 49 54 52 55 66 56 85 57
REMARK SMILES IDX 50 58 51 59 65 61 86 62 53 63 37 64 38 65 46 66 39 67 40 68
REMARK SMILES IDX 44 69 47 70 41 71 42 72 45 73 43 74 69 75 70 76 78 77 71 78
REMARK SMILES IDX 72 79 76 80 79 81 73 82 74 83 77 84 75 85 54 86 55 87 63 88
REMARK SMILES IDX 56 89 57 90 61 91 64 92 58 93 59 94 62 95 60 96
REMARK H PARENT 18 7 5 14 8 17 25 30 84 49 52 60
REMARK Flexibility Score: inf
ROOT
ATOM      1  C   UNL A   1      37.209  21.915  25.391  1.00  0.00     0.002 C 
ENDROOT
BRANCH   1   2
ATOM      2  C   UNL A   1      36.790  23.210  24.616  1.00  0.00     0.021 C 
BRANCH   2   3
ATOM      3  C   UNL A   1      35.406  23.854  24.173  1.00  0.00     0.116 C 
BRANCH   3   4
ATOM      4  N   UNL A   1      34.269  23.144  23.551  1.00  0.00    -0.354 N 
ATOM      5  C   UNL A   1      32.972  22.785  23.830  1.00  0.00     0.245 C 
ATOM      6  O   UNL A   1      32.276  22.222  22.984  1.00  0.00    -0.272 OA
ATOM      7  H   UNL A   1      34.520  22.830  22.652  1.00  0.00     0.163 HD
BRANCH   5   8
ATOM      8  C   UNL A   1      32.380  23.179  25.149  1.00  0.00     0.117 C 
ATOM      9  C   UNL A   1      31.015  22.576  25.516  1.00  0.00     0.045 C 
BRANCH   8  10
ATOM     10  C   UNL A   1      32.278  24.740  24.981  1.00  0.00     0.035 C 
ATOM     11  C   UNL A   1      32.914  25.569  26.109  1.00  0.00     0.007 C 
ENDBRANCH   8  10
BRANCH   8  12
ATOM     12  N   UNL A   1      33.374  22.700  26.118  1.00  0.00    -0.324 N 
ATOM     13  C   UNL A   1      33.681  21.490  26.620  1.00  0.00     0.315 C 
ATOM     14  H   UNL A   1      33.939  23.422  26.481  1.00  0.00     0.166 HD
ATOM     15  O   UNL A   1      34.403  21.509  27.628  1.00  0.00    -0.249 OA
ATOM     16  N   UNL A   1      33.414  20.266  26.118  1.00  0.00    -0.335 N 
ATOM     17  H   UNL A   1      34.053  19.637  26.524  1.00  0.00     0.165 HD
BRANCH  16  18
ATOM     18  C   UNL A   1      32.528  19.471  25.180  1.00  0.00     0.152 C 
BRANCH  18  19
ATOM     19  C   UNL A   1      32.740  17.919  24.680  1.00  0.00     0.163 C 
ATOM     20  C   UNL A   1      34.050  17.688  23.883  1.00  0.00     0.194 C 
ATOM     21  O   UNL A   1      32.603  16.881  25.659  1.00  0.00    -0.372 OA
ATOM     22  O   UNL A   1      35.101  17.070  24.637  1.00  0.00    -0.376 OA
ATOM     23  C   UNL A   1      33.257  15.632  25.388  1.00  0.00     0.189 C 
ATOM     24  C   UNL A   1      34.759  15.827  25.246  1.00  0.00     0.188 C 
ENDBRANCH  18  19
ENDBRANCH  16  18
ENDBRANCH   8  12
ENDBRANCH   5   8
ENDBRANCH   3   4
ENDBRANCH   2   3
ENDBRANCH   1   2
BRANCH   1  25
ATOM     25  C   UNL A   1      36.944  20.445  24.996  1.00  0.00     0.002 C 
BRANCH  25  26
ATOM     26  C   UNL A   1      38.130  19.501  24.956  1.00  0.00     0.021 C 
BRANCH  26  27
ATOM     27  C   UNL A   1      39.307  20.034  25.751  1.00  0.00     0.116 C 
BRANCH  27  28
ATOM     28  N   UNL A   1      40.337  19.016  25.962  1.00  0.00    -0.352 N 
ATOM     29  C   UNL A   1      41.685  19.181  26.129  1.00  0.00     0.251 C 
ATOM     30  H   UNL A   1      40.016  18.086  25.987  1.00  0.00     0.163 HD
ATOM     31  O   UNL A   1      42.449  18.205  26.099  1.00  0.00    -0.269 OA
BRANCH  29  32
ATOM     32  C   UNL A   1      42.232  20.533  26.328  1.00  0.00     0.039 A 
ATOM     33  C   UNL A   1      42.595  21.308  25.225  1.00  0.00     0.014 A 
ATOM     34  C   UNL A   1      42.359  21.043  27.623  1.00  0.00     0.014 A 
ATOM     35  C   UNL A   1      43.040  22.616  25.424  1.00  0.00     0.010 A 
ATOM     36  C   UNL A   1      42.682  22.377  27.809  1.00  0.00     0.010 A 
ATOM     37  C   UNL A   1      43.062  23.166  26.716  1.00  0.00    -0.014 A 
BRANCH  37  38
ATOM     38  C   UNL A   1      43.542  24.545  26.966  1.00  0.00     0.031 A 
ATOM     39  C   UNL A   1      42.584  25.573  27.504  1.00  0.00     0.074 A 
ATOM     40  C   UNL A   1      44.804  24.882  26.647  1.00  0.00     0.049 A 
ATOM     41  N   UNL A   1      42.779  26.845  27.742  1.00  0.00    -0.248 NA
ATOM     42  C   UNL A   1      41.207  25.122  27.769  1.00  0.00     0.031 C 
ATOM     43  C   UNL A   1      45.800  23.982  26.063  1.00  0.00     0.029 A 
ATOM     44  N   UNL A   1      45.466  26.076  26.769  1.00  0.00    -0.354 N 
ATOM     45  C   UNL A   1      41.549  27.342  28.155  1.00  0.00     0.074 A 
ATOM     46  C   UNL A   1      40.598  26.258  28.063  1.00  0.00     0.031 C 
ATOM     47  C   UNL A   1      46.960  24.643  25.922  1.00  0.00     0.029 A 
ATOM     48  C   UNL A   1      46.779  26.020  26.371  1.00  0.00     0.049 A 
ATOM     49  H   UNL A   1      45.041  26.895  27.110  1.00  0.00     0.167 HD
ATOM     50  C   UNL A   1      41.247  28.583  28.604  1.00  0.00     0.037 A 
ATOM     51  C   UNL A   1      47.727  26.976  26.379  1.00  0.00     0.037 A 
ATOM     52  C   UNL A   1      42.214  29.639  28.731  1.00  0.00     0.049 A 
ATOM     53  C   UNL A   1      47.370  28.345  26.891  1.00  0.00     0.074 A 
ATOM     54  C   UNL A   1      42.043  30.909  29.252  1.00  0.00     0.029 A 
ATOM     55  N   UNL A   1      43.539  29.544  28.327  1.00  0.00    -0.354 N 
ATOM     56  N   UNL A   1      46.227  28.783  27.364  1.00  0.00    -0.248 NA
ATOM     57  C   UNL A   1      48.439  29.351  26.878  1.00  0.00     0.031 C 
ATOM     58  C   UNL A   1      43.252  31.600  29.111  1.00  0.00     0.029 A 
ATOM     59  C   UNL A   1      44.191  30.743  28.559  1.00  0.00     0.049 A 
ATOM     60  H   UNL A   1      43.953  28.742  27.935  1.00  0.00     0.167 HD
ATOM     61  C   UNL A   1      46.447  30.103  27.733  1.00  0.00     0.074 A 
ATOM     62  C   UNL A   1      47.838  30.387  27.444  1.00  0.00     0.031 C 
ATOM     63  C   UNL A   1      45.579  31.000  28.265  1.00  0.00     0.037 A 
BRANCH  50  64
ATOM     64  C   UNL A   1      39.818  28.854  28.983  1.00  0.00     0.064 A 
ATOM     65  C   UNL A   1      39.343  28.647  30.288  1.00  0.00     0.173 A 
ATOM     66  C   UNL A   1      38.908  29.325  28.025  1.00  0.00     0.173 A 
ATOM     67  F   UNL A   1      40.166  28.185  31.241  1.00  0.00    -0.203 F 
ATOM     68  C   UNL A   1      38.004  28.857  30.607  1.00  0.00     0.198 A 
ATOM     69  C   UNL A   1      37.577  29.570  28.356  1.00  0.00     0.198 A 
ATOM     70  F   UNL A   1      39.305  29.545  26.762  1.00  0.00    -0.203 F 
ATOM     71  F   UNL A   1      37.559  28.583  31.842  1.00  0.00    -0.200 F 
ATOM     72  C   UNL A   1      37.123  29.323  29.643  1.00  0.00     0.200 A 
ATOM     73  F   UNL A   1      36.730  30.034  27.426  1.00  0.00    -0.200 F 
ATOM     74  F   UNL A   1      35.835  29.524  29.951  1.00  0.00    -0.200 F 
ENDBRANCH  50  64
BRANCH  51  75
ATOM     75  C   UNL A   1      49.111  26.654  25.944  1.00  0.00     0.064 A 
ATOM     76  C   UNL A   1      49.536  26.953  24.641  1.00  0.00     0.173 A 
ATOM     77  C   UNL A   1      50.036  26.056  26.811  1.00  0.00     0.173 A 
ATOM     78  F   UNL A   1      48.683  27.510  23.770  1.00  0.00    -0.203 F 
ATOM     79  C   UNL A   1      50.827  26.647  24.217  1.00  0.00     0.198 A 
ATOM     80  C   UNL A   1      51.337  25.777  26.393  1.00  0.00     0.198 A 
ATOM     81  F   UNL A   1      49.684  25.757  28.069  1.00  0.00    -0.203 F 
ATOM     82  F   UNL A   1      51.194  26.905  22.954  1.00  0.00    -0.200 F 
ATOM     83  C   UNL A   1      51.728  26.065  25.095  1.00  0.00     0.200 A 
ATOM     84  F   UNL A   1      52.210  25.230  27.250  1.00  0.00    -0.200 F 
ATOM     85  F   UNL A   1      52.973  25.777  24.688  1.00  0.00    -0.200 F 
ENDBRANCH  51  75
BRANCH  63  86
ATOM     86  C   UNL A   1      46.121  32.359  28.600  1.00  0.00     0.064 A 
ATOM     87  C   UNL A   1      46.077  33.417  27.682  1.00  0.00     0.173 A 
ATOM     88  C   UNL A   1      46.662  32.611  29.870  1.00  0.00     0.173 A 
ATOM     89  F   UNL A   1      45.582  33.224  26.450  1.00  0.00    -0.203 F 
ATOM     90  C   UNL A   1      46.587  34.671  28.011  1.00  0.00     0.198 A 
ATOM     91  C   UNL A   1      47.138  33.874  30.207  1.00  0.00     0.198 A 
ATOM     92  F   UNL A   1      46.719  31.634  30.788  1.00  0.00    -0.203 F 
ATOM     93  F   UNL A   1      46.589  35.651  27.098  1.00  0.00    -0.200 F 
ATOM     94  C   UNL A   1      47.110  34.899  29.275  1.00  0.00     0.200 A 
ATOM     95  F   UNL A   1      47.628  34.098  31.435  1.00  0.00    -0.200 F 
ATOM     96  F   UNL A   1      47.595  36.107  29.592  1.00  0.00    -0.200 F 
ENDBRANCH  63  86
ENDBRANCH  37  38
ENDBRANCH  29  32
ENDBRANCH  27  28
ENDBRANCH  26  27
ENDBRANCH  25  26
ENDBRANCH   1  25
TORSDOF 17
ENDMDL
MODEL 3
REMARK VINA RESULT:     -11.4      6.984     11.628
REMARK SMILES CC[C@](C)(NC(=O)NC[C@H]1COCCO1)C(=O)NCCCCCCNC(=O)c1ccc(-c2c3nc(c(-c4c(F)c(F)c(F)c(F)c4F)c4ccc([nH]4)c(-c4c(F)c(F)c(F)c(F)c4F)c4nc(c(-c5c(F)c(F)c(F)c(F)c5F)c5ccc2[nH]5)C=C4)C=C3)cc1
REMARK SMILES IDX 21 1 20 2 19 3 18 4 16 5 17 6 3 8 4 9 2 10 1 11 5 12 6 13
REMARK SMILES IDX 7 15 8 16 9 18 10 19 11 20 15 21 12 22 14 23 13 24 22 25
REMARK SMILES IDX 23 26 24 27 25 28 26 29 27 31 28 32 29 33 90 34 30 35 89 36
REMARK SMILES IDX 31 37 32 38 33 39 83 40 34 41 88 42 82 43 84 44 35 45 87 46
REMARK SMILES IDX 81 47 80 48 36 50 68 51 48 52 67 53 49 54 52 55 66 56 85 57
REMARK SMILES IDX 50 58 51 59 65 61 86 62 53 63 37 64 38 65 46 66 39 67 40 68
REMARK SMILES IDX 44 69 47 70 41 71 42 72 45 73 43 74 69 75 70 76 78 77 71 78
REMARK SMILES IDX 72 79 76 80 79 81 73 82 74 83 77 84 75 85 54 86 55 87 63 88
REMARK SMILES IDX 56 89 57 90 61 91 64 92 58 93 59 94 62 95 60 96
REMARK H PARENT 18 7 5 14 8 17 25 30 84 49 52 60
REMARK Flexibility Score: inf
ROOT
ATOM      1  C   UNL A   1      41.584  21.674  26.876  1.00  0.00     0.002 C 
ENDROOT
BRANCH   1   2
ATOM      2  C   UNL A   1      40.146  22.273  27.040  1.00  0.00     0.021 C 
BRANCH   2   3
ATOM      3  C   UNL A   1      38.816  22.254  26.169  1.00  0.00     0.116 C 
BRANCH   3   4
ATOM      4  N   UNL A   1      37.807  23.330  26.087  1.00  0.00    -0.354 N 
ATOM      5  C   UNL A   1      36.462  23.497  25.862  1.00  0.00     0.245 C 
ATOM      6  O   UNL A   1      35.940  24.610  25.944  1.00  0.00    -0.272 OA
ATOM      7  H   UNL A   1      38.234  24.204  26.244  1.00  0.00     0.163 HD
BRANCH   5   8
ATOM      8  C   UNL A   1      35.614  22.287  25.613  1.00  0.00     0.117 C 
ATOM      9  C   UNL A   1      36.340  20.947  25.421  1.00  0.00     0.045 C 
BRANCH   8  10
ATOM     10  C   UNL A   1      34.859  22.711  24.300  1.00  0.00     0.035 C 
ATOM     11  C   UNL A   1      35.754  22.955  23.073  1.00  0.00     0.007 C 
ENDBRANCH   8  10
BRANCH   8  12
ATOM     12  N   UNL A   1      34.792  22.198  26.827  1.00  0.00    -0.324 N 
ATOM     13  C   UNL A   1      33.582  21.675  27.100  1.00  0.00     0.315 C 
ATOM     14  H   UNL A   1      35.218  22.612  27.613  1.00  0.00     0.166 HD
ATOM     15  O   UNL A   1      33.090  22.032  28.180  1.00  0.00    -0.249 OA
ATOM     16  N   UNL A   1      32.888  20.735  26.424  1.00  0.00    -0.335 N 
ATOM     17  H   UNL A   1      32.238  20.343  27.052  1.00  0.00     0.165 HD
BRANCH  16  18
ATOM     18  C   UNL A   1      32.707  20.039  25.090  1.00  0.00     0.152 C 
BRANCH  18  19
ATOM     19  C   UNL A   1      32.423  18.442  24.826  1.00  0.00     0.163 C 
ATOM     20  C   UNL A   1      32.923  17.933  23.450  1.00  0.00     0.194 C 
ATOM     21  O   UNL A   1      32.837  17.518  25.841  1.00  0.00    -0.372 OA
ATOM     22  O   UNL A   1      34.155  17.201  23.499  1.00  0.00    -0.376 OA
ATOM     23  C   UNL A   1      33.065  16.158  25.437  1.00  0.00     0.189 C 
ATOM     24  C   UNL A   1      34.161  16.084  24.384  1.00  0.00     0.188 C 
ENDBRANCH  18  19
ENDBRANCH  16  18
ENDBRANCH   8  12
ENDBRANCH   5   8
ENDBRANCH   3   4
ENDBRANCH   2   3
ENDBRANCH   1   2
BRANCH   1  25
ATOM     25  C   UNL A   1      42.234  20.531  27.688  1.00  0.00     0.002 C 
BRANCH  25  26
ATOM     26  C   UNL A   1      42.580  19.252  26.950  1.00  0.00     0.021 C 
BRANCH  26  27
ATOM     27  C   UNL A   1      42.493  19.424  25.446  1.00  0.00     0.116 C 
BRANCH  27  28
ATOM     28  N   UNL A   1      43.678  18.905  24.762  1.00  0.00    -0.352 N 
ATOM     29  C   UNL A   1      44.787  19.584  24.333  1.00  0.00     0.251 C 
ATOM     30  H   UNL A   1      43.678  17.937  24.586  1.00  0.00     0.163 HD
ATOM     31  O   UNL A   1      45.617  19.034  23.593  1.00  0.00    -0.269 OA
BRANCH  29  32
ATOM     32  C   UNL A   1      44.984  20.984  24.741  1.00  0.00     0.039 A 
ATOM     33  C   UNL A   1      44.586  22.020  23.894  1.00  0.00     0.014 A 
ATOM     34  C   UNL A   1      45.546  21.268  25.988  1.00  0.00     0.014 A 
ATOM     35  C   UNL A   1      44.708  23.342  24.324  1.00  0.00     0.010 A 
ATOM     36  C   UNL A   1      45.552  22.570  26.461  1.00  0.00     0.010 A 
ATOM     37  C   UNL A   1      45.168  23.623  25.621  1.00  0.00    -0.014 A 
BRANCH  37  38
ATOM     38  C   UNL A   1      45.324  25.014  26.106  1.00  0.00     0.031 A 
ATOM     39  C   UNL A   1      46.673  25.675  26.030  1.00  0.00     0.074 A 
ATOM     40  C   UNL A   1      44.279  25.646  26.670  1.00  0.00     0.049 A 
ATOM     41  N   UNL A   1      47.043  26.859  26.446  1.00  0.00    -0.248 NA
ATOM     42  C   UNL A   1      47.768  24.880  25.446  1.00  0.00     0.031 C 
ATOM     43  C   UNL A   1      42.942  25.080  26.852  1.00  0.00     0.029 A 
ATOM     44  N   UNL A   1      44.180  26.908  27.198  1.00  0.00    -0.354 N 
ATOM     45  C   UNL A   1      48.408  26.934  26.199  1.00  0.00     0.074 A 
ATOM     46  C   UNL A   1      48.817  25.654  25.670  1.00  0.00     0.031 C 
ATOM     47  C   UNL A   1      42.144  26.008  27.404  1.00  0.00     0.029 A 
ATOM     48  C   UNL A   1      42.922  27.218  27.650  1.00  0.00     0.049 A 
ATOM     49  H   UNL A   1      44.940  27.533  27.247  1.00  0.00     0.167 HD
ATOM     50  C   UNL A   1      49.240  27.989  26.367  1.00  0.00     0.037 A 
ATOM     51  C   UNL A   1      42.453  28.357  28.191  1.00  0.00     0.037 A 
ATOM     52  C   UNL A   1      48.809  29.271  26.855  1.00  0.00     0.049 A 
ATOM     53  C   UNL A   1      43.395  29.519  28.360  1.00  0.00     0.074 A 
ATOM     54  C   UNL A   1      49.542  30.436  26.987  1.00  0.00     0.029 A 
ATOM     55  N   UNL A   1      47.523  29.552  27.294  1.00  0.00    -0.354 N 
ATOM     56  N   UNL A   1      44.664  29.613  28.041  1.00  0.00    -0.248 NA
ATOM     57  C   UNL A   1      42.834  30.738  28.956  1.00  0.00     0.031 C 
ATOM     58  C   UNL A   1      48.713  31.407  27.558  1.00  0.00     0.029 A 
ATOM     59  C   UNL A   1      47.448  30.865  27.727  1.00  0.00     0.049 A 
ATOM     60  H   UNL A   1      46.774  28.912  27.296  1.00  0.00     0.167 HD
ATOM     61  C   UNL A   1      45.046  30.906  28.368  1.00  0.00     0.074 A 
ATOM     62  C   UNL A   1      43.868  31.566  28.894  1.00  0.00     0.031 C 
ATOM     63  C   UNL A   1      46.260  31.499  28.244  1.00  0.00     0.037 A 
BRANCH  50  64
ATOM     64  C   UNL A   1      50.690  27.789  26.023  1.00  0.00     0.064 A 
ATOM     65  C   UNL A   1      51.164  27.907  24.706  1.00  0.00     0.173 A 
ATOM     66  C   UNL A   1      51.619  27.473  27.025  1.00  0.00     0.173 A 
ATOM     67  F   UNL A   1      50.317  28.195  23.706  1.00  0.00    -0.203 F 
ATOM     68  C   UNL A   1      52.501  27.670  24.400  1.00  0.00     0.198 A 
ATOM     69  C   UNL A   1      52.964  27.274  26.721  1.00  0.00     0.198 A 
ATOM     70  F   UNL A   1      51.225  27.351  28.301  1.00  0.00    -0.203 F 
ATOM     71  F   UNL A   1      52.915  27.717  23.126  1.00  0.00    -0.200 F 
ATOM     72  C   UNL A   1      53.401  27.359  25.408  1.00  0.00     0.200 A 
ATOM     73  F   UNL A   1      53.835  26.986  27.698  1.00  0.00    -0.200 F 
ATOM     74  F   UNL A   1      54.688  27.131  25.112  1.00  0.00    -0.200 F 
ENDBRANCH  50  64
BRANCH  51  75
ATOM     75  C   UNL A   1      41.017  28.473  28.556  1.00  0.00     0.064 A 
ATOM     76  C   UNL A   1      40.571  28.083  29.827  1.00  0.00     0.173 A 
ATOM     77  C   UNL A   1      40.066  28.977  27.658  1.00  0.00     0.173 A 
ATOM     78  F   UNL A   1      41.440  27.578  30.715  1.00  0.00    -0.203 F 
ATOM     79  C   UNL A   1      39.227  28.174  30.179  1.00  0.00     0.198 A 
ATOM     80  C   UNL A   1      38.726  29.095  28.021  1.00  0.00     0.198 A 
ATOM     81  F   UNL A   1      40.441  29.371  26.432  1.00  0.00    -0.203 F 
ATOM     82  F   UNL A   1      38.822  27.755  31.386  1.00  0.00    -0.200 F 
ATOM     83  C   UNL A   1      38.306  28.686  29.278  1.00  0.00     0.200 A 
ATOM     84  F   UNL A   1      37.841  29.606  27.154  1.00  0.00    -0.200 F 
ATOM     85  F   UNL A   1      37.013  28.780  29.619  1.00  0.00    -0.200 F 
ENDBRANCH  51  75
BRANCH  63  86
ATOM     86  C   UNL A   1      46.362  32.940  28.652  1.00  0.00     0.064 A 
ATOM     87  C   UNL A   1      46.109  33.981  27.748  1.00  0.00     0.173 A 
ATOM     88  C   UNL A   1      46.687  33.279  29.974  1.00  0.00     0.173 A 
ATOM     89  F   UNL A   1      45.809  33.710  26.469  1.00  0.00    -0.203 F 
ATOM     90  C   UNL A   1      46.211  35.312  28.146  1.00  0.00     0.198 A 
ATOM     91  C   UNL A   1      46.752  34.609  30.377  1.00  0.00     0.198 A 
ATOM     92  F   UNL A   1      46.929  32.319  30.880  1.00  0.00    -0.203 F 
ATOM     93  F   UNL A   1      46.023  36.292  27.252  1.00  0.00    -0.200 F 
ATOM     94  C   UNL A   1      46.525  35.624  29.461  1.00  0.00     0.200 A 
ATOM     95  F   UNL A   1      47.039  34.909  31.651  1.00  0.00    -0.200 F 
ATOM     96  F   UNL A   1      46.616  36.905  29.842  1.00  0.00    -0.200 F 
ENDBRANCH  63  86
ENDBRANCH  37  38
ENDBRANCH  29  32
ENDBRANCH  27  28
ENDBRANCH  26  27
ENDBRANCH  25  26
ENDBRANCH   1  25
TORSDOF 17
ENDMDL
