MODEL 1
REMARK VINA RESULT:     -11.5      0.000      0.000
REMARK SMILES Cc1cc(C)c(C(=O)NCCCCCCNC(=O)c2ccc(-c3c4nc(c(-c5c(F)c(F)c(F)c(F)c5F)c5ccc([nH]5)c(-c5c(F)c(F)c(F)c(F)c5F)c5nc(c(-c6c(F)c(F)c(F)c(F)c6F)c6ccc3[nH]6)C=C5)C=C4)cc2)c(N[C@@H](CO)C(C)C)n1
REMARK SMILES IDX 11 1 10 2 9 3 7 4 8 5 6 7 1 8 2 9 3 10 90 11 4 12 82 13 5 14
REMARK SMILES IDX 83 15 84 17 85 18 86 19 87 21 88 22 89 23 12 24 13 25 14 26
REMARK SMILES IDX 15 27 16 28 17 29 18 31 19 32 20 33 81 34 21 35 80 36 22 37
REMARK SMILES IDX 23 38 24 39 74 40 25 41 79 42 73 43 75 44 26 45 78 46 72 47
REMARK SMILES IDX 71 48 27 50 59 51 39 52 58 53 40 54 43 55 57 56 76 57 41 58
REMARK SMILES IDX 42 59 56 61 77 62 44 63 28 64 29 65 37 66 30 67 31 68 35 69
REMARK SMILES IDX 38 70 32 71 33 72 36 73 34 74 60 75 61 76 69 77 62 78 63 79
REMARK SMILES IDX 67 80 70 81 64 82 65 83 68 84 66 85 45 86 46 87 54 88 47 89
REMARK SMILES IDX 48 90 52 91 55 92 49 93 50 94 53 95 51 96
REMARK H PARENT 9 6 83 16 86 20 16 30 75 49 43 60
REMARK Flexibility Score: inf
ROOT
ATOM      1  C   UNL A   1      33.697  29.151  26.757  1.00  0.00     0.021 C 
ENDROOT
BRANCH   1   2
ATOM      2  C   UNL A   1      33.923  27.823  26.037  1.00  0.00     0.116 C 
BRANCH   2   3
ATOM      3  N   UNL A   1      33.007  26.759  26.390  1.00  0.00    -0.352 N 
ATOM      4  C   UNL A   1      32.338  25.842  25.605  1.00  0.00     0.255 C 
ATOM      5  O   UNL A   1      31.643  25.006  26.191  1.00  0.00    -0.269 OA
ATOM      6  H   UNL A   1      32.832  26.676  27.355  1.00  0.00     0.163 HD
BRANCH   4   7
ATOM      7  C   UNL A   1      32.349  25.860  24.107  1.00  0.00     0.085 A 
ATOM      8  C   UNL A   1      32.560  25.485  19.860  1.00  0.00     0.067 C 
ATOM      9  C   UNL A   1      32.485  25.660  21.346  1.00  0.00     0.040 A 
ATOM     10  C   UNL A   1      31.575  26.533  21.911  1.00  0.00     0.028 A 
ATOM     11  N   UNL A   1      33.354  24.960  22.095  1.00  0.00    -0.236 NA
ATOM     12  C   UNL A   1      31.541  26.694  23.305  1.00  0.00    -0.033 A 
ATOM     13  C   UNL A   1      33.314  25.058  23.448  1.00  0.00     0.139 A 
ATOM     14  C   UNL A   1      30.686  27.818  23.810  1.00  0.00     0.045 C 
BRANCH  13  15
ATOM     15  N   UNL A   1      34.276  24.333  24.135  1.00  0.00    -0.364 N 
ATOM     16  H   UNL A   1      34.616  24.677  24.992  1.00  0.00     0.162 HD
BRANCH  15  17
ATOM     17  C   UNL A   1      34.801  23.065  23.613  1.00  0.00     0.108 C 
BRANCH  17  18
ATOM     18  C   UNL A   1      36.346  23.153  23.551  1.00  0.00     0.181 C 
BRANCH  18  19
ATOM     19  O   UNL A   1      36.853  22.846  22.253  1.00  0.00    -0.394 OA
ATOM     20  H   UNL A   1      36.254  23.202  21.578  1.00  0.00     0.210 HD
ENDBRANCH  18  19
ENDBRANCH  17  18
BRANCH  17  21
ATOM     21  C   UNL A   1      34.283  21.896  24.491  1.00  0.00     0.007 C 
ATOM     22  C   UNL A   1      34.065  22.355  25.940  1.00  0.00     0.009 C 
ATOM     23  C   UNL A   1      32.963  21.327  23.956  1.00  0.00     0.009 C 
ENDBRANCH  17  21
ENDBRANCH  15  17
ENDBRANCH  13  15
ENDBRANCH   4   7
ENDBRANCH   2   3
ENDBRANCH   1   2
BRANCH   1  24
ATOM     24  C   UNL A   1      32.243  29.602  26.950  1.00  0.00     0.002 C 
BRANCH  24  25
ATOM     25  C   UNL A   1      31.690  30.672  26.003  1.00  0.00     0.002 C 
BRANCH  25  26
ATOM     26  C   UNL A   1      31.417  32.058  26.586  1.00  0.00     0.021 C 
BRANCH  26  27
ATOM     27  C   UNL A   1      32.593  32.765  27.250  1.00  0.00     0.116 C 
BRANCH  27  28
ATOM     28  N   UNL A   1      32.311  34.138  27.629  1.00  0.00    -0.352 N 
ATOM     29  C   UNL A   1      32.942  34.939  28.552  1.00  0.00     0.251 C 
ATOM     30  H   UNL A   1      31.556  34.557  27.156  1.00  0.00     0.163 HD
ATOM     31  O   UNL A   1      32.499  36.058  28.798  1.00  0.00    -0.269 OA
BRANCH  29  32
ATOM     32  C   UNL A   1      34.133  34.448  29.282  1.00  0.00     0.039 A 
ATOM     33  C   UNL A   1      33.950  33.829  30.522  1.00  0.00     0.014 A 
ATOM     34  C   UNL A   1      35.420  34.592  28.758  1.00  0.00     0.014 A 
ATOM     35  C   UNL A   1      35.045  33.287  31.200  1.00  0.00     0.010 A 
ATOM     36  C   UNL A   1      36.502  33.989  29.400  1.00  0.00     0.010 A 
ATOM     37  C   UNL A   1      36.326  33.326  30.624  1.00  0.00    -0.014 A 
BRANCH  37  38
ATOM     38  C   UNL A   1      37.487  32.671  31.281  1.00  0.00     0.031 A 
ATOM     39  C   UNL A   1      38.197  31.530  30.606  1.00  0.00     0.074 A 
ATOM     40  C   UNL A   1      37.860  33.059  32.517  1.00  0.00     0.049 A 
ATOM     41  N   UNL A   1      39.176  30.783  31.051  1.00  0.00    -0.248 NA
ATOM     42  C   UNL A   1      37.725  31.163  29.263  1.00  0.00     0.031 C 
ATOM     43  C   UNL A   1      37.225  34.122  33.296  1.00  0.00     0.029 A 
ATOM     44  N   UNL A   1      38.855  32.592  33.341  1.00  0.00    -0.354 N 
ATOM     45  C   UNL A   1      39.426  29.852  30.053  1.00  0.00     0.074 A 
ATOM     46  C   UNL A   1      38.461  30.092  29.001  1.00  0.00     0.031 C 
ATOM     47  C   UNL A   1      37.857  34.242  34.475  1.00  0.00     0.029 A 
ATOM     48  C   UNL A   1      38.915  33.238  34.552  1.00  0.00     0.049 A 
ATOM     49  H   UNL A   1      39.468  31.864  33.088  1.00  0.00     0.167 HD
ATOM     50  C   UNL A   1      40.387  28.898  30.007  1.00  0.00     0.037 A 
ATOM     51  C   UNL A   1      39.724  33.038  35.611  1.00  0.00     0.037 A 
ATOM     52  C   UNL A   1      41.360  28.677  31.045  1.00  0.00     0.049 A 
ATOM     53  C   UNL A   1      40.778  31.965  35.538  1.00  0.00     0.074 A 
ATOM     54  C   UNL A   1      42.408  27.774  31.066  1.00  0.00     0.029 A 
ATOM     55  N   UNL A   1      41.400  29.365  32.248  1.00  0.00    -0.354 N 
ATOM     56  N   UNL A   1      41.047  31.135  34.560  1.00  0.00    -0.248 NA
ATOM     57  C   UNL A   1      41.644  31.806  36.714  1.00  0.00     0.031 C 
ATOM     58  C   UNL A   1      43.054  27.881  32.302  1.00  0.00     0.029 A 
ATOM     59  C   UNL A   1      42.443  28.891  33.029  1.00  0.00     0.049 A 
ATOM     60  H   UNL A   1      40.780  30.084  32.510  1.00  0.00     0.167 HD
ATOM     61  C   UNL A   1      42.132  30.381  34.987  1.00  0.00     0.074 A 
ATOM     62  C   UNL A   1      42.478  30.858  36.309  1.00  0.00     0.031 C 
ATOM     63  C   UNL A   1      42.785  29.385  34.339  1.00  0.00     0.037 A 
BRANCH  50  64
ATOM     64  C   UNL A   1      40.435  28.017  28.790  1.00  0.00     0.064 A 
ATOM     65  C   UNL A   1      41.184  28.368  27.656  1.00  0.00     0.173 A 
ATOM     66  C   UNL A   1      39.754  26.790  28.772  1.00  0.00     0.173 A 
ATOM     67  F   UNL A   1      41.846  29.534  27.618  1.00  0.00    -0.203 F 
ATOM     68  C   UNL A   1      41.223  27.538  26.539  1.00  0.00     0.198 A 
ATOM     69  C   UNL A   1      39.822  25.948  27.664  1.00  0.00     0.198 A 
ATOM     70  F   UNL A   1      39.029  26.402  29.832  1.00  0.00    -0.203 F 
ATOM     71  F   UNL A   1      41.902  27.918  25.447  1.00  0.00    -0.200 F 
ATOM     72  C   UNL A   1      40.549  26.326  26.546  1.00  0.00     0.200 A 
ATOM     73  F   UNL A   1      39.182  24.770  27.680  1.00  0.00    -0.200 F 
ATOM     74  F   UNL A   1      40.594  25.526  25.472  1.00  0.00    -0.200 F 
ENDBRANCH  50  64
BRANCH  51  75
ATOM     75  C   UNL A   1      39.588  33.889  36.821  1.00  0.00     0.064 A 
ATOM     76  C   UNL A   1      38.794  33.482  37.903  1.00  0.00     0.173 A 
ATOM     77  C   UNL A   1      40.244  35.125  36.923  1.00  0.00     0.173 A 
ATOM     78  F   UNL A   1      38.131  32.317  37.844  1.00  0.00    -0.203 F 
ATOM     79  C   UNL A   1      38.644  34.287  39.030  1.00  0.00     0.198 A 
ATOM     80  C   UNL A   1      40.115  35.916  38.064  1.00  0.00     0.198 A 
ATOM     81  F   UNL A   1      41.020  35.559  35.920  1.00  0.00    -0.203 F 
ATOM     82  F   UNL A   1      37.841  33.894  40.028  1.00  0.00    -0.200 F 
ATOM     83  C   UNL A   1      39.309  35.500  39.113  1.00  0.00     0.200 A 
ATOM     84  F   UNL A   1      40.773  37.081  38.145  1.00  0.00    -0.200 F 
ATOM     85  F   UNL A   1      39.167  36.272  40.198  1.00  0.00    -0.200 F 
ENDBRANCH  51  75
BRANCH  63  86
ATOM     86  C   UNL A   1      43.971  28.772  35.026  1.00  0.00     0.064 A 
ATOM     87  C   UNL A   1      43.846  27.646  35.852  1.00  0.00     0.173 A 
ATOM     88  C   UNL A   1      45.258  29.290  34.810  1.00  0.00     0.173 A 
ATOM     89  F   UNL A   1      42.636  27.122  36.101  1.00  0.00    -0.203 F 
ATOM     90  C   UNL A   1      44.963  27.074  36.454  1.00  0.00     0.198 A 
ATOM     91  C   UNL A   1      46.375  28.697  35.390  1.00  0.00     0.198 A 
ATOM     92  F   UNL A   1      45.432  30.362  34.023  1.00  0.00    -0.203 F 
ATOM     93  F   UNL A   1      44.815  26.024  37.276  1.00  0.00    -0.200 F 
ATOM     94  C   UNL A   1      46.226  27.593  36.216  1.00  0.00     0.200 A 
ATOM     95  F   UNL A   1      47.597  29.191  35.146  1.00  0.00    -0.200 F 
ATOM     96  F   UNL A   1      47.302  27.033  36.787  1.00  0.00    -0.200 F 
ENDBRANCH  63  86
ENDBRANCH  37  38
ENDBRANCH  29  32
ENDBRANCH  27  28
ENDBRANCH  26  27
ENDBRANCH  25  26
ENDBRANCH  24  25
ENDBRANCH   1  24
TORSDOF 18
ENDMDL
MODEL 2
REMARK VINA RESULT:     -11.5      0.947      7.574
REMARK SMILES Cc1cc(C)c(C(=O)NCCCCCCNC(=O)c2ccc(-c3c4nc(c(-c5c(F)c(F)c(F)c(F)c5F)c5ccc([nH]5)c(-c5c(F)c(F)c(F)c(F)c5F)c5nc(c(-c6c(F)c(F)c(F)c(F)c6F)c6ccc3[nH]6)C=C5)C=C4)cc2)c(N[C@@H](CO)C(C)C)n1
REMARK SMILES IDX 11 1 10 2 9 3 7 4 8 5 6 7 1 8 2 9 3 10 90 11 4 12 82 13 5 14
REMARK SMILES IDX 83 15 84 17 85 18 86 19 87 21 88 22 89 23 12 24 13 25 14 26
REMARK SMILES IDX 15 27 16 28 17 29 18 31 19 32 20 33 81 34 21 35 80 36 22 37
REMARK SMILES IDX 23 38 24 39 74 40 25 41 79 42 73 43 75 44 26 45 78 46 72 47
REMARK SMILES IDX 71 48 27 50 59 51 39 52 58 53 40 54 43 55 57 56 76 57 41 58
REMARK SMILES IDX 42 59 56 61 77 62 44 63 28 64 29 65 37 66 30 67 31 68 35 69
REMARK SMILES IDX 38 70 32 71 33 72 36 73 34 74 60 75 61 76 69 77 62 78 63 79
REMARK SMILES IDX 67 80 70 81 64 82 65 83 68 84 66 85 45 86 46 87 54 88 47 89
REMARK SMILES IDX 48 90 52 91 55 92 49 93 50 94 53 95 51 96
REMARK H PARENT 9 6 83 16 86 20 16 30 75 49 43 60
REMARK Flexibility Score: inf
ROOT
ATOM      1  C   UNL A   1      33.288  28.813  27.155  1.00  0.00     0.021 C 
ENDROOT
BRANCH   1   2
ATOM      2  C   UNL A   1      33.582  27.463  26.504  1.00  0.00     0.116 C 
BRANCH   2   3
ATOM      3  N   UNL A   1      32.473  26.532  26.472  1.00  0.00    -0.352 N 
ATOM      4  C   UNL A   1      32.399  25.226  26.034  1.00  0.00     0.255 C 
ATOM      5  O   UNL A   1      31.315  24.651  26.170  1.00  0.00    -0.269 OA
ATOM      6  H   UNL A   1      31.628  26.894  26.824  1.00  0.00     0.163 HD
BRANCH   4   7
ATOM      7  C   UNL A   1      33.523  24.512  25.344  1.00  0.00     0.085 A 
ATOM      8  C   UNL A   1      36.720  22.827  23.075  1.00  0.00     0.067 C 
ATOM      9  C   UNL A   1      35.590  23.378  23.888  1.00  0.00     0.040 A 
ATOM     10  C   UNL A   1      35.451  23.049  25.222  1.00  0.00     0.028 A 
ATOM     11  N   UNL A   1      34.709  24.176  23.259  1.00  0.00    -0.236 NA
ATOM     12  C   UNL A   1      34.370  23.563  25.955  1.00  0.00    -0.033 A 
ATOM     13  C   UNL A   1      33.680  24.726  23.952  1.00  0.00     0.139 A 
ATOM     14  C   UNL A   1      34.173  22.979  27.322  1.00  0.00     0.045 C 
BRANCH  13  15
ATOM     15  N   UNL A   1      32.799  25.500  23.212  1.00  0.00    -0.364 N 
ATOM     16  H   UNL A   1      31.844  25.501  23.451  1.00  0.00     0.162 HD
BRANCH  15  17
ATOM     17  C   UNL A   1      33.255  26.315  22.079  1.00  0.00     0.108 C 
BRANCH  17  18
ATOM     18  C   UNL A   1      32.592  25.784  20.784  1.00  0.00     0.181 C 
BRANCH  18  19
ATOM     19  O   UNL A   1      32.984  24.443  20.486  1.00  0.00    -0.394 OA
ATOM     20  H   UNL A   1      33.346  24.027  21.284  1.00  0.00     0.210 HD
ENDBRANCH  18  19
ENDBRANCH  17  18
BRANCH  17  21
ATOM     21  C   UNL A   1      32.947  27.807  22.364  1.00  0.00     0.007 C 
ATOM     22  C   UNL A   1      31.617  27.957  23.118  1.00  0.00     0.009 C 
ATOM     23  C   UNL A   1      34.055  28.466  23.195  1.00  0.00     0.009 C 
ENDBRANCH  17  21
ENDBRANCH  15  17
ENDBRANCH  13  15
ENDBRANCH   4   7
ENDBRANCH   2   3
ENDBRANCH   1   2
BRANCH   1  24
ATOM     24  C   UNL A   1      31.854  29.348  27.038  1.00  0.00     0.002 C 
BRANCH  24  25
ATOM     25  C   UNL A   1      31.577  30.439  25.998  1.00  0.00     0.002 C 
BRANCH  25  26
ATOM     26  C   UNL A   1      31.392  31.869  26.507  1.00  0.00     0.021 C 
BRANCH  26  27
ATOM     27  C   UNL A   1      32.636  32.569  27.044  1.00  0.00     0.116 C 
BRANCH  27  28
ATOM     28  N   UNL A   1      32.392  33.928  27.493  1.00  0.00    -0.352 N 
ATOM     29  C   UNL A   1      33.034  34.657  28.466  1.00  0.00     0.251 C 
ATOM     30  H   UNL A   1      31.659  34.397  27.032  1.00  0.00     0.163 HD
ATOM     31  O   UNL A   1      32.624  35.775  28.767  1.00  0.00    -0.269 OA
BRANCH  29  32
ATOM     32  C   UNL A   1      34.196  34.089  29.186  1.00  0.00     0.039 A 
ATOM     33  C   UNL A   1      33.962  33.245  30.276  1.00  0.00     0.014 A 
ATOM     34  C   UNL A   1      35.507  34.378  28.798  1.00  0.00     0.014 A 
ATOM     35  C   UNL A   1      35.036  32.632  30.927  1.00  0.00     0.010 A 
ATOM     36  C   UNL A   1      36.573  33.711  29.401  1.00  0.00     0.010 A 
ATOM     37  C   UNL A   1      36.349  32.828  30.468  1.00  0.00    -0.014 A 
BRANCH  37  38
ATOM     38  C   UNL A   1      37.496  32.110  31.084  1.00  0.00     0.031 A 
ATOM     39  C   UNL A   1      37.970  32.478  32.463  1.00  0.00     0.074 A 
ATOM     40  C   UNL A   1      38.155  31.172  30.374  1.00  0.00     0.049 A 
ATOM     41  N   UNL A   1      38.997  32.024  33.135  1.00  0.00    -0.248 NA
ATOM     42  C   UNL A   1      37.202  33.516  33.168  1.00  0.00     0.031 C 
ATOM     43  C   UNL A   1      37.823  30.756  29.012  1.00  0.00     0.029 A 
ATOM     44  N   UNL A   1      39.251  30.410  30.696  1.00  0.00    -0.354 N 
ATOM     45  C   UNL A   1      39.008  32.727  34.332  1.00  0.00     0.074 A 
ATOM     46  C   UNL A   1      37.918  33.678  34.272  1.00  0.00     0.031 C 
ATOM     47  C   UNL A   1      38.681  29.801  28.621  1.00  0.00     0.029 A 
ATOM     48  C   UNL A   1      39.650  29.565  29.689  1.00  0.00     0.049 A 
ATOM     49  H   UNL A   1      39.709  30.464  31.566  1.00  0.00     0.167 HD
ATOM     50  C   UNL A   1      39.837  32.579  35.393  1.00  0.00     0.037 A 
ATOM     51  C   UNL A   1      40.685  28.705  29.627  1.00  0.00     0.037 A 
ATOM     52  C   UNL A   1      40.906  31.617  35.458  1.00  0.00     0.049 A 
ATOM     53  C   UNL A   1      41.596  28.566  30.816  1.00  0.00     0.074 A 
ATOM     54  C   UNL A   1      41.764  31.351  36.511  1.00  0.00     0.029 A 
ATOM     55  N   UNL A   1      41.265  30.765  34.425  1.00  0.00    -0.354 N 
ATOM     56  N   UNL A   1      41.555  29.190  31.968  1.00  0.00    -0.248 NA
ATOM     57  C   UNL A   1      42.696  27.597  30.699  1.00  0.00     0.031 C 
ATOM     58  C   UNL A   1      42.674  30.373  36.098  1.00  0.00     0.029 A 
ATOM     59  C   UNL A   1      42.347  29.988  34.808  1.00  0.00     0.049 A 
ATOM     60  H   UNL A   1      40.818  30.718  33.548  1.00  0.00     0.167 HD
ATOM     61  C   UNL A   1      42.597  28.668  32.724  1.00  0.00     0.074 A 
ATOM     62  C   UNL A   1      43.247  27.668  31.903  1.00  0.00     0.031 C 
ATOM     63  C   UNL A   1      42.976  28.986  33.985  1.00  0.00     0.037 A 
BRANCH  50  64
ATOM     64  C   UNL A   1      39.621  33.481  36.576  1.00  0.00     0.064 A 
ATOM     65  C   UNL A   1      38.793  33.107  37.646  1.00  0.00     0.173 A 
ATOM     66  C   UNL A   1      40.278  34.718  36.657  1.00  0.00     0.173 A 
ATOM     67  F   UNL A   1      38.134  31.938  37.614  1.00  0.00    -0.203 F 
ATOM     68  C   UNL A   1      38.608  33.951  38.738  1.00  0.00     0.198 A 
ATOM     69  C   UNL A   1      40.115  35.545  37.767  1.00  0.00     0.198 A 
ATOM     70  F   UNL A   1      41.087  35.123  35.666  1.00  0.00    -0.203 F 
ATOM     71  F   UNL A   1      37.771  33.595  39.723  1.00  0.00    -0.200 F 
ATOM     72  C   UNL A   1      39.274  35.165  38.801  1.00  0.00     0.200 A 
ATOM     73  F   UNL A   1      40.772  36.712  37.832  1.00  0.00    -0.200 F 
ATOM     74  F   UNL A   1      39.099  35.973  39.856  1.00  0.00    -0.200 F 
ENDBRANCH  50  64
BRANCH  51  75
ATOM     75  C   UNL A   1      40.899  27.888  28.404  1.00  0.00     0.064 A 
ATOM     76  C   UNL A   1      40.264  26.648  28.246  1.00  0.00     0.173 A 
ATOM     77  C   UNL A   1      41.742  28.325  27.372  1.00  0.00     0.173 A 
ATOM     78  F   UNL A   1      39.464  26.178  29.214  1.00  0.00    -0.203 F 
ATOM     79  C   UNL A   1      40.481  25.866  27.112  1.00  0.00     0.198 A 
ATOM     80  C   UNL A   1      41.935  27.555  26.226  1.00  0.00     0.198 A 
ATOM     81  F   UNL A   1      42.370  29.506  27.470  1.00  0.00    -0.203 F 
ATOM     82  F   UNL A   1      39.898  24.665  27.009  1.00  0.00    -0.200 F 
ATOM     83  C   UNL A   1      41.311  26.323  26.100  1.00  0.00     0.200 A 
ATOM     84  F   UNL A   1      42.726  28.008  25.243  1.00  0.00    -0.200 F 
ATOM     85  F   UNL A   1      41.515  25.574  25.009  1.00  0.00    -0.200 F 
ENDBRANCH  51  75
BRANCH  63  86
ATOM     86  C   UNL A   1      44.120  28.215  34.579  1.00  0.00     0.064 A 
ATOM     87  C   UNL A   1      43.921  27.002  35.254  1.00  0.00     0.173 A 
ATOM     88  C   UNL A   1      45.438  28.673  34.423  1.00  0.00     0.173 A 
ATOM     89  F   UNL A   1      42.680  26.528  35.442  1.00  0.00    -0.203 F 
ATOM     90  C   UNL A   1      44.998  26.286  35.770  1.00  0.00     0.198 A 
ATOM     91  C   UNL A   1      46.514  27.940  34.914  1.00  0.00     0.198 A 
ATOM     92  F   UNL A   1      45.682  29.824  33.780  1.00  0.00    -0.203 F 
ATOM     93  F   UNL A   1      44.783  25.151  36.450  1.00  0.00    -0.200 F 
ATOM     94  C   UNL A   1      46.293  26.750  35.592  1.00  0.00     0.200 A 
ATOM     95  F   UNL A   1      47.765  28.382  34.728  1.00  0.00    -0.200 F 
ATOM     96  F   UNL A   1      47.329  26.054  36.079  1.00  0.00    -0.200 F 
ENDBRANCH  63  86
ENDBRANCH  37  38
ENDBRANCH  29  32
ENDBRANCH  27  28
ENDBRANCH  26  27
ENDBRANCH  25  26
ENDBRANCH  24  25
ENDBRANCH   1  24
TORSDOF 18
ENDMDL
MODEL 3
REMARK VINA RESULT:     -11.2      5.737     10.913
REMARK SMILES Cc1cc(C)c(C(=O)NCCCCCCNC(=O)c2ccc(-c3c4nc(c(-c5c(F)c(F)c(F)c(F)c5F)c5ccc([nH]5)c(-c5c(F)c(F)c(F)c(F)c5F)c5nc(c(-c6c(F)c(F)c(F)c(F)c6F)c6ccc3[nH]6)C=C5)C=C4)cc2)c(N[C@@H](CO)C(C)C)n1
REMARK SMILES IDX 11 1 10 2 9 3 7 4 8 5 6 7 1 8 2 9 3 10 90 11 4 12 82 13 5 14
REMARK SMILES IDX 83 15 84 17 85 18 86 19 87 21 88 22 89 23 12 24 13 25 14 26
REMARK SMILES IDX 15 27 16 28 17 29 18 31 19 32 20 33 81 34 21 35 80 36 22 37
REMARK SMILES IDX 23 38 24 39 74 40 25 41 79 42 73 43 75 44 26 45 78 46 72 47
REMARK SMILES IDX 71 48 27 50 59 51 39 52 58 53 40 54 43 55 57 56 76 57 41 58
REMARK SMILES IDX 42 59 56 61 77 62 44 63 28 64 29 65 37 66 30 67 31 68 35 69
REMARK SMILES IDX 38 70 32 71 33 72 36 73 34 74 60 75 61 76 69 77 62 78 63 79
REMARK SMILES IDX 67 80 70 81 64 82 65 83 68 84 66 85 45 86 46 87 54 88 47 89
REMARK SMILES IDX 48 90 52 91 55 92 49 93 50 94 53 95 51 96
REMARK H PARENT 9 6 83 16 86 20 16 30 75 49 43 60
REMARK Flexibility Score: inf
ROOT
ATOM      1  C   UNL A   1      36.901  23.257  24.517  1.00  0.00     0.021 C 
ENDROOT
BRANCH   1   2
ATOM      2  C   UNL A   1      35.538  23.909  24.296  1.00  0.00     0.116 C 
BRANCH   2   3
ATOM      3  N   UNL A   1      34.861  23.538  23.071  1.00  0.00    -0.352 N 
ATOM      4  C   UNL A   1      33.532  23.268  22.817  1.00  0.00     0.255 C 
ATOM      5  O   UNL A   1      33.227  23.017  21.647  1.00  0.00    -0.269 OA
ATOM      6  H   UNL A   1      35.451  23.465  22.286  1.00  0.00     0.163 HD
BRANCH   4   7
ATOM      7  C   UNL A   1      32.477  23.191  23.879  1.00  0.00     0.085 A 
ATOM      8  C   UNL A   1      29.737  22.652  27.106  1.00  0.00     0.067 C 
ATOM      9  C   UNL A   1      30.666  22.858  25.949  1.00  0.00     0.040 A 
ATOM     10  C   UNL A   1      30.676  24.051  25.253  1.00  0.00     0.028 A 
ATOM     11  N   UNL A   1      31.460  21.830  25.604  1.00  0.00    -0.236 NA
ATOM     12  C   UNL A   1      31.542  24.210  24.160  1.00  0.00    -0.033 A 
ATOM     13  C   UNL A   1      32.341  21.969  24.581  1.00  0.00     0.139 A 
ATOM     14  C   UNL A   1      31.326  25.442  23.332  1.00  0.00     0.045 C 
BRANCH  13  15
ATOM     15  N   UNL A   1      33.087  20.842  24.270  1.00  0.00    -0.364 N 
ATOM     16  H   UNL A   1      34.043  20.943  24.058  1.00  0.00     0.162 HD
BRANCH  15  17
ATOM     17  C   UNL A   1      32.486  19.503  24.246  1.00  0.00     0.108 C 
BRANCH  17  18
ATOM     18  C   UNL A   1      32.240  19.093  22.774  1.00  0.00     0.181 C 
BRANCH  18  19
ATOM     19  O   UNL A   1      31.852  20.201  21.961  1.00  0.00    -0.394 OA
ATOM     20  H   UNL A   1      31.258  19.894  21.258  1.00  0.00     0.210 HD
ENDBRANCH  18  19
ENDBRANCH  17  18
BRANCH  17  21
ATOM     21  C   UNL A   1      33.399  18.517  25.019  1.00  0.00     0.007 C 
ATOM     22  C   UNL A   1      32.563  17.465  25.763  1.00  0.00     0.009 C 
ATOM     23  C   UNL A   1      34.373  17.792  24.081  1.00  0.00     0.009 C 
ENDBRANCH  17  21
ENDBRANCH  15  17
ENDBRANCH  13  15
ENDBRANCH   4   7
ENDBRANCH   2   3
ENDBRANCH   1   2
BRANCH   1  24
ATOM     24  C   UNL A   1      36.971  22.112  25.537  1.00  0.00     0.002 C 
BRANCH  24  25
ATOM     25  C   UNL A   1      36.722  20.686  25.036  1.00  0.00     0.002 C 
BRANCH  25  26
ATOM     26  C   UNL A   1      37.929  19.753  24.931  1.00  0.00     0.021 C 
BRANCH  26  27
ATOM     27  C   UNL A   1      39.166  20.145  25.731  1.00  0.00     0.116 C 
BRANCH  27  28
ATOM     28  N   UNL A   1      40.168  19.097  25.805  1.00  0.00    -0.352 N 
ATOM     29  C   UNL A   1      41.514  19.190  26.073  1.00  0.00     0.251 C 
ATOM     30  H   UNL A   1      39.836  18.185  25.638  1.00  0.00     0.163 HD
ATOM     31  O   UNL A   1      42.224  18.190  26.006  1.00  0.00    -0.269 OA
BRANCH  29  32
ATOM     32  C   UNL A   1      42.124  20.497  26.407  1.00  0.00     0.039 A 
ATOM     33  C   UNL A   1      42.578  21.310  25.363  1.00  0.00     0.014 A 
ATOM     34  C   UNL A   1      42.252  20.925  27.730  1.00  0.00     0.014 A 
ATOM     35  C   UNL A   1      43.088  22.581  25.641  1.00  0.00     0.010 A 
ATOM     36  C   UNL A   1      42.694  22.220  28.001  1.00  0.00     0.010 A 
ATOM     37  C   UNL A   1      43.112  23.063  26.960  1.00  0.00    -0.014 A 
BRANCH  37  38
ATOM     38  C   UNL A   1      43.560  24.447  27.267  1.00  0.00     0.031 A 
ATOM     39  C   UNL A   1      42.583  25.461  27.796  1.00  0.00     0.074 A 
ATOM     40  C   UNL A   1      44.831  24.811  27.004  1.00  0.00     0.049 A 
ATOM     41  N   UNL A   1      42.763  26.733  28.048  1.00  0.00    -0.248 NA
ATOM     42  C   UNL A   1      41.214  24.987  28.048  1.00  0.00     0.031 C 
ATOM     43  C   UNL A   1      45.862  23.935  26.449  1.00  0.00     0.029 A 
ATOM     44  N   UNL A   1      45.467  26.018  27.156  1.00  0.00    -0.354 N 
ATOM     45  C   UNL A   1      41.532  27.213  28.474  1.00  0.00     0.074 A 
ATOM     46  C   UNL A   1      40.599  26.109  28.394  1.00  0.00     0.031 C 
ATOM     47  C   UNL A   1      47.007  24.625  26.326  1.00  0.00     0.029 A 
ATOM     48  C   UNL A   1      46.781  26.003  26.754  1.00  0.00     0.049 A 
ATOM     49  H   UNL A   1      45.024  26.820  27.518  1.00  0.00     0.167 HD
ATOM     50  C   UNL A   1      41.214  28.455  28.912  1.00  0.00     0.037 A 
ATOM     51  C   UNL A   1      47.698  26.989  26.724  1.00  0.00     0.037 A 
ATOM     52  C   UNL A   1      42.150  29.543  29.012  1.00  0.00     0.049 A 
ATOM     53  C   UNL A   1      47.316  28.362  27.209  1.00  0.00     0.074 A 
ATOM     54  C   UNL A   1      41.938  30.822  29.498  1.00  0.00     0.029 A 
ATOM     55  N   UNL A   1      43.477  29.483  28.614  1.00  0.00    -0.354 N 
ATOM     56  N   UNL A   1      46.166  28.786  27.672  1.00  0.00    -0.248 NA
ATOM     57  C   UNL A   1      48.364  29.393  27.172  1.00  0.00     0.031 C 
ATOM     58  C   UNL A   1      43.123  31.550  29.349  1.00  0.00     0.029 A 
ATOM     59  C   UNL A   1      44.090  30.708  28.823  1.00  0.00     0.049 A 
ATOM     60  H   UNL A   1      43.920  28.686  28.239  1.00  0.00     0.167 HD
ATOM     61  C   UNL A   1      46.359  30.118  28.013  1.00  0.00     0.074 A 
ATOM     62  C   UNL A   1      47.740  30.431  27.712  1.00  0.00     0.031 C 
ATOM     63  C   UNL A   1      45.471  31.001  28.532  1.00  0.00     0.037 A 
BRANCH  50  64
ATOM     64  C   UNL A   1      39.789  28.704  29.320  1.00  0.00     0.064 A 
ATOM     65  C   UNL A   1      39.350  28.482  30.634  1.00  0.00     0.173 A 
ATOM     66  C   UNL A   1      38.862  29.207  28.395  1.00  0.00     0.173 A 
ATOM     67  F   UNL A   1      40.194  27.993  31.555  1.00  0.00    -0.203 F 
ATOM     68  C   UNL A   1      38.028  28.724  30.998  1.00  0.00     0.198 A 
ATOM     69  C   UNL A   1      37.548  29.478  28.772  1.00  0.00     0.198 A 
ATOM     70  F   UNL A   1      39.230  29.445  27.127  1.00  0.00    -0.203 F 
ATOM     71  F   UNL A   1      37.618  28.454  32.246  1.00  0.00    -0.200 F 
ATOM     72  C   UNL A   1      37.130  29.229  30.069  1.00  0.00     0.200 A 
ATOM     73  F   UNL A   1      36.686  29.980  27.876  1.00  0.00    -0.200 F 
ATOM     74  F   UNL A   1      35.859  29.467  30.423  1.00  0.00    -0.200 F 
ENDBRANCH  50  64
BRANCH  51  75
ATOM     75  C   UNL A   1      49.076  26.708  26.242  1.00  0.00     0.064 A 
ATOM     76  C   UNL A   1      50.048  26.182  27.105  1.00  0.00     0.173 A 
ATOM     77  C   UNL A   1      49.451  26.961  24.914  1.00  0.00     0.173 A 
ATOM     78  F   UNL A   1      49.743  25.943  28.389  1.00  0.00    -0.203 F 
ATOM     79  C   UNL A   1      51.347  25.940  26.664  1.00  0.00     0.198 A 
ATOM     80  C   UNL A   1      50.743  26.691  24.468  1.00  0.00     0.198 A 
ATOM     81  F   UNL A   1      48.558  27.459  24.046  1.00  0.00    -0.203 F 
ATOM     82  F   UNL A   1      52.268  25.482  27.523  1.00  0.00    -0.200 F 
ATOM     83  C   UNL A   1      51.693  26.188  25.345  1.00  0.00     0.200 A 
ATOM     84  F   UNL A   1      51.068  26.917  23.188  1.00  0.00    -0.200 F 
ATOM     85  F   UNL A   1      52.941  25.951  24.921  1.00  0.00    -0.200 F 
ENDBRANCH  51  75
BRANCH  63  86
ATOM     86  C   UNL A   1      45.973  32.379  28.856  1.00  0.00     0.064 A 
ATOM     87  C   UNL A   1      45.878  33.434  27.937  1.00  0.00     0.173 A 
ATOM     88  C   UNL A   1      46.508  32.657  30.124  1.00  0.00     0.173 A 
ATOM     89  F   UNL A   1      45.387  33.218  26.708  1.00  0.00    -0.203 F 
ATOM     90  C   UNL A   1      46.320  34.712  28.269  1.00  0.00     0.198 A 
ATOM     91  C   UNL A   1      46.921  33.942  30.461  1.00  0.00     0.198 A 
ATOM     92  F   UNL A   1      46.616  31.683  31.040  1.00  0.00    -0.203 F 
ATOM     93  F   UNL A   1      46.260  35.697  27.360  1.00  0.00    -0.200 F 
ATOM     94  C   UNL A   1      46.832  34.967  29.532  1.00  0.00     0.200 A 
ATOM     95  F   UNL A   1      47.402  34.189  31.687  1.00  0.00    -0.200 F 
ATOM     96  F   UNL A   1      47.247  36.200  29.853  1.00  0.00    -0.200 F 
ENDBRANCH  63  86
ENDBRANCH  37  38
ENDBRANCH  29  32
ENDBRANCH  27  28
ENDBRANCH  26  27
ENDBRANCH  25  26
ENDBRANCH  24  25
ENDBRANCH   1  24
TORSDOF 18
ENDMDL
