MODEL 1
REMARK VINA RESULT:     -13.2      0.000      0.000
REMARK SMILES O=C(NCCCCCCNC(=O)c1cc(/C=C/c2cc(O)cc(O)c2)ccc1O)c1ccc(-c2c3nc(c(-c4c(F)c(F)c(F)c(F)c4F)c4ccc([nH]4)c(-c4c(F)c(F)c(F)c(F)c4F)c4nc(c(-c5c(F)c(F)c(F)c(F)c5F)c5ccc2[nH]5)C=C4)C=C3)cc1
REMARK SMILES IDX 7 1 6 2 5 3 4 4 3 5 1 6 2 7 30 9 31 10 92 11 32 12 91 13
REMARK SMILES IDX 33 14 34 15 35 16 85 17 36 18 90 19 84 20 86 21 37 22 89 23
REMARK SMILES IDX 83 24 82 25 38 27 70 28 50 29 69 30 51 31 54 32 68 33 87 34
REMARK SMILES IDX 52 35 53 36 67 38 88 39 55 40 39 41 40 42 48 43 41 44 42 45
REMARK SMILES IDX 46 46 49 47 43 48 44 49 47 50 45 51 71 52 72 53 80 54 73 55
REMARK SMILES IDX 74 56 78 57 81 58 75 59 76 60 79 61 77 62 56 63 57 64 65 65
REMARK SMILES IDX 58 66 59 67 63 68 66 69 60 70 61 71 64 72 62 73 8 74 9 75
REMARK SMILES IDX 10 76 11 77 12 79 13 80 14 81 28 82 15 83 27 84 26 85 29 86
REMARK SMILES IDX 16 88 17 89 18 90 19 91 25 92 20 93 23 94 22 95 21 96 24 98
REMARK H PARENT 3 8 86 26 54 37 10 78 29 87 21 97 24 99
REMARK Flexibility Score: inf
ROOT
ATOM      1  C   UNL A   1      32.399  29.875  27.013  1.00  0.00     0.002 C 
ENDROOT
BRANCH   1   2
ATOM      2  C   UNL A   1      31.560  30.739  26.067  1.00  0.00     0.002 C 
BRANCH   2   3
ATOM      3  C   UNL A   1      31.338  32.186  26.505  1.00  0.00     0.021 C 
BRANCH   3   4
ATOM      4  C   UNL A   1      32.493  32.827  27.262  1.00  0.00     0.116 C 
BRANCH   4   5
ATOM      5  N   UNL A   1      32.242  34.210  27.633  1.00  0.00    -0.352 N 
ATOM      6  O   UNL A   1      32.471  36.121  28.814  1.00  0.00    -0.269 OA
ATOM      7  C   UNL A   1      32.895  35.001  28.547  1.00  0.00     0.251 C 
ATOM      8  H   UNL A   1      31.494  34.642  27.160  1.00  0.00     0.163 HD
BRANCH   7   9
ATOM      9  C   UNL A   1      34.096  34.486  29.245  1.00  0.00     0.039 A 
ATOM     10  C   UNL A   1      35.360  34.576  28.661  1.00  0.00     0.014 A 
ATOM     11  C   UNL A   1      33.946  33.888  30.500  1.00  0.00     0.014 A 
ATOM     12  C   UNL A   1      36.439  33.925  29.248  1.00  0.00     0.010 A 
ATOM     13  C   UNL A   1      35.052  33.310  31.133  1.00  0.00     0.010 A 
ATOM     14  C   UNL A   1      36.299  33.281  30.489  1.00  0.00    -0.014 A 
BRANCH  14  15
ATOM     15  C   UNL A   1      37.475  32.604  31.093  1.00  0.00     0.031 A 
ATOM     16  C   UNL A   1      37.941  32.947  32.483  1.00  0.00     0.074 A 
ATOM     17  C   UNL A   1      38.099  31.635  30.396  1.00  0.00     0.049 A 
ATOM     18  N   UNL A   1      38.911  32.411  33.185  1.00  0.00    -0.248 NA
ATOM     19  C   UNL A   1      37.236  34.036  33.176  1.00  0.00     0.031 C 
ATOM     20  C   UNL A   1      37.752  31.225  29.034  1.00  0.00     0.029 A 
ATOM     21  N   UNL A   1      39.133  30.803  30.740  1.00  0.00    -0.354 N 
ATOM     22  C   UNL A   1      38.948  33.112  34.383  1.00  0.00     0.074 A 
ATOM     23  C   UNL A   1      37.920  34.128  34.308  1.00  0.00     0.031 C 
ATOM     24  C   UNL A   1      38.519  30.184  28.680  1.00  0.00     0.029 A 
ATOM     25  C   UNL A   1      39.446  29.887  29.766  1.00  0.00     0.049 A 
ATOM     26  H   UNL A   1      39.606  30.857  31.602  1.00  0.00     0.167 HD
ATOM     27  C   UNL A   1      39.760  32.920  35.451  1.00  0.00     0.037 A 
ATOM     28  C   UNL A   1      40.377  28.916  29.748  1.00  0.00     0.037 A 
ATOM     29  C   UNL A   1      40.763  31.889  35.536  1.00  0.00     0.049 A 
ATOM     30  C   UNL A   1      41.257  28.721  30.950  1.00  0.00     0.074 A 
ATOM     31  C   UNL A   1      41.604  31.587  36.594  1.00  0.00     0.029 A 
ATOM     32  N   UNL A   1      41.064  30.993  34.521  1.00  0.00    -0.354 N 
ATOM     33  N   UNL A   1      41.251  29.363  32.092  1.00  0.00    -0.248 NA
ATOM     34  C   UNL A   1      42.273  27.664  30.858  1.00  0.00     0.031 C 
ATOM     35  C   UNL A   1      42.439  30.534  36.205  1.00  0.00     0.029 A 
ATOM     36  C   UNL A   1      42.088  30.149  34.921  1.00  0.00     0.049 A 
ATOM     37  H   UNL A   1      40.615  30.960  33.645  1.00  0.00     0.167 HD
ATOM     38  C   UNL A   1      42.244  28.775  32.862  1.00  0.00     0.074 A 
ATOM     39  C   UNL A   1      42.819  27.713  32.064  1.00  0.00     0.031 C 
ATOM     40  C   UNL A   1      42.645  29.090  34.119  1.00  0.00     0.037 A 
BRANCH  27  41
ATOM     41  C   UNL A   1      39.613  33.854  36.618  1.00  0.00     0.064 A 
ATOM     42  C   UNL A   1      38.825  33.526  37.731  1.00  0.00     0.173 A 
ATOM     43  C   UNL A   1      40.307  35.073  36.642  1.00  0.00     0.173 A 
ATOM     44  F   UNL A   1      38.132  32.378  37.754  1.00  0.00    -0.203 F 
ATOM     45  C   UNL A   1      38.722  34.394  38.816  1.00  0.00     0.198 A 
ATOM     46  C   UNL A   1      40.222  35.927  37.740  1.00  0.00     0.198 A 
ATOM     47  F   UNL A   1      41.080  35.432  35.606  1.00  0.00    -0.203 F 
ATOM     48  F   UNL A   1      37.932  34.078  39.852  1.00  0.00    -0.200 F 
ATOM     49  C   UNL A   1      39.425  35.589  38.822  1.00  0.00     0.200 A 
ATOM     50  F   UNL A   1      40.912  37.076  37.749  1.00  0.00    -0.200 F 
ATOM     51  F   UNL A   1      39.330  36.419  39.871  1.00  0.00    -0.200 F 
ENDBRANCH  27  41
BRANCH  28  52
ATOM     52  C   UNL A   1      40.505  28.040  28.556  1.00  0.00     0.064 A 
ATOM     53  C   UNL A   1      41.285  28.429  27.458  1.00  0.00     0.173 A 
ATOM     54  C   UNL A   1      39.864  26.794  28.495  1.00  0.00     0.173 A 
ATOM     55  F   UNL A   1      41.901  29.620  27.463  1.00  0.00    -0.203 F 
ATOM     56  C   UNL A   1      41.406  27.611  26.338  1.00  0.00     0.198 A 
ATOM     57  C   UNL A   1      40.010  25.965  27.387  1.00  0.00     0.198 A 
ATOM     58  F   UNL A   1      39.112  26.375  29.523  1.00  0.00    -0.203 F 
ATOM     59  F   UNL A   1      42.126  28.022  25.285  1.00  0.00    -0.200 F 
ATOM     60  C   UNL A   1      40.775  26.376  26.305  1.00  0.00     0.200 A 
ATOM     61  F   UNL A   1      39.411  24.766  27.366  1.00  0.00    -0.200 F 
ATOM     62  F   UNL A   1      40.900  25.586  25.231  1.00  0.00    -0.200 F 
ENDBRANCH  28  52
BRANCH  40  63
ATOM     63  C   UNL A   1      43.733  28.250  34.718  1.00  0.00     0.064 A 
ATOM     64  C   UNL A   1      43.450  27.064  35.411  1.00  0.00     0.173 A 
ATOM     65  C   UNL A   1      45.077  28.627  34.580  1.00  0.00     0.173 A 
ATOM     66  F   UNL A   1      42.180  26.669  35.584  1.00  0.00    -0.203 F 
ATOM     67  C   UNL A   1      44.472  26.303  35.972  1.00  0.00     0.198 A 
ATOM     68  C   UNL A   1      46.097  27.850  35.118  1.00  0.00     0.198 A 
ATOM     69  F   UNL A   1      45.399  29.751  33.921  1.00  0.00    -0.203 F 
ATOM     70  F   UNL A   1      44.177  25.201  36.677  1.00  0.00    -0.200 F 
ATOM     71  C   UNL A   1      45.795  26.693  35.821  1.00  0.00     0.200 A 
ATOM     72  F   UNL A   1      47.376  28.224  34.963  1.00  0.00    -0.200 F 
ATOM     73  F   UNL A   1      46.777  25.960  36.362  1.00  0.00    -0.200 F 
ENDBRANCH  40  63
ENDBRANCH  14  15
ENDBRANCH   7   9
ENDBRANCH   4   5
ENDBRANCH   3   4
ENDBRANCH   2   3
ENDBRANCH   1   2
BRANCH   1  74
ATOM     74  C   UNL A   1      31.774  28.544  27.444  1.00  0.00     0.021 C 
BRANCH  74  75
ATOM     75  C   UNL A   1      32.452  27.289  26.902  1.00  0.00     0.116 C 
BRANCH  75  76
ATOM     76  N   UNL A   1      31.636  26.104  27.075  1.00  0.00    -0.352 N 
ATOM     77  C   UNL A   1      31.039  25.329  26.114  1.00  0.00     0.255 C 
ATOM     78  H   UNL A   1      31.491  25.818  28.007  1.00  0.00     0.163 HD
ATOM     79  O   UNL A   1      30.324  24.384  26.439  1.00  0.00    -0.269 OA
BRANCH  77  80
ATOM     80  C   UNL A   1      31.178  25.676  24.686  1.00  0.00     0.082 A 
ATOM     81  C   UNL A   1      30.687  26.929  24.290  1.00  0.00     0.025 A 
ATOM     82  C   UNL A   1      31.722  24.804  23.741  1.00  0.00     0.128 A 
ATOM     83  C   UNL A   1      30.771  27.343  22.956  1.00  0.00    -0.025 A 
ATOM     84  C   UNL A   1      31.822  25.204  22.411  1.00  0.00     0.047 A 
ATOM     85  C   UNL A   1      31.356  26.467  22.027  1.00  0.00     0.012 A 
BRANCH  82  86
ATOM     86  O   UNL A   1      32.160  23.564  24.108  1.00  0.00    -0.507 OA
ATOM     87  H   UNL A   1      31.565  22.840  24.116  1.00  0.00     0.293 HD
ENDBRANCH  82  86
BRANCH  83  88
ATOM     88  C   UNL A   1      30.274  28.646  22.475  1.00  0.00     0.009 C 
ATOM     89  C   UNL A   1      29.239  29.334  22.987  1.00  0.00     0.009 C 
BRANCH  89  90
ATOM     90  C   UNL A   1      28.777  30.617  22.439  1.00  0.00    -0.018 A 
ATOM     91  C   UNL A   1      28.931  31.816  23.150  1.00  0.00     0.054 A 
ATOM     92  C   UNL A   1      28.233  30.649  21.147  1.00  0.00     0.054 A 
ATOM     93  C   UNL A   1      28.521  33.019  22.577  1.00  0.00     0.119 A 
ATOM     94  C   UNL A   1      27.828  31.863  20.595  1.00  0.00     0.119 A 
ATOM     95  C   UNL A   1      27.966  33.050  21.304  1.00  0.00     0.092 A 
BRANCH  93  96
ATOM     96  O   UNL A   1      28.661  34.203  23.241  1.00  0.00    -0.508 OA
ATOM     97  H   UNL A   1      29.452  34.388  23.706  1.00  0.00     0.293 HD
ENDBRANCH  93  96
BRANCH  94  98
ATOM     98  O   UNL A   1      27.291  31.929  19.343  1.00  0.00    -0.508 OA
ATOM     99  H   UNL A   1      27.652  32.516  18.708  1.00  0.00     0.293 HD
ENDBRANCH  94  98
ENDBRANCH  89  90
ENDBRANCH  83  88
ENDBRANCH  77  80
ENDBRANCH  75  76
ENDBRANCH  74  75
ENDBRANCH   1  74
TORSDOF 18
ENDMDL
MODEL 2
REMARK VINA RESULT:     -13.0      1.736      2.738
REMARK SMILES O=C(NCCCCCCNC(=O)c1cc(/C=C/c2cc(O)cc(O)c2)ccc1O)c1ccc(-c2c3nc(c(-c4c(F)c(F)c(F)c(F)c4F)c4ccc([nH]4)c(-c4c(F)c(F)c(F)c(F)c4F)c4nc(c(-c5c(F)c(F)c(F)c(F)c5F)c5ccc2[nH]5)C=C4)C=C3)cc1
REMARK SMILES IDX 7 1 6 2 5 3 4 4 3 5 1 6 2 7 30 9 31 10 92 11 32 12 91 13
REMARK SMILES IDX 33 14 34 15 35 16 85 17 36 18 90 19 84 20 86 21 37 22 89 23
REMARK SMILES IDX 83 24 82 25 38 27 70 28 50 29 69 30 51 31 54 32 68 33 87 34
REMARK SMILES IDX 52 35 53 36 67 38 88 39 55 40 39 41 40 42 48 43 41 44 42 45
REMARK SMILES IDX 46 46 49 47 43 48 44 49 47 50 45 51 71 52 72 53 80 54 73 55
REMARK SMILES IDX 74 56 78 57 81 58 75 59 76 60 79 61 77 62 56 63 57 64 65 65
REMARK SMILES IDX 58 66 59 67 63 68 66 69 60 70 61 71 64 72 62 73 8 74 9 75
REMARK SMILES IDX 10 76 11 77 12 79 13 80 14 81 28 82 15 83 27 84 26 85 29 86
REMARK SMILES IDX 16 88 17 89 18 90 19 91 25 92 20 93 23 94 22 95 21 96 24 98
REMARK H PARENT 3 8 86 26 54 37 10 78 29 87 21 97 24 99
REMARK Flexibility Score: inf
ROOT
ATOM      1  C   UNL A   1      33.780  27.009  26.143  1.00  0.00     0.002 C 
ENDROOT
BRANCH   1   2
ATOM      2  C   UNL A   1      32.310  27.285  26.471  1.00  0.00     0.002 C 
BRANCH   2   3
ATOM      3  C   UNL A   1      31.806  28.690  26.142  1.00  0.00     0.021 C 
BRANCH   3   4
ATOM      4  C   UNL A   1      32.886  29.720  25.838  1.00  0.00     0.116 C 
BRANCH   4   5
ATOM      5  N   UNL A   1      32.553  31.057  26.303  1.00  0.00    -0.352 N 
ATOM      6  O   UNL A   1      32.725  32.924  27.562  1.00  0.00    -0.269 OA
ATOM      7  C   UNL A   1      33.215  31.859  27.201  1.00  0.00     0.251 C 
ATOM      8  H   UNL A   1      31.734  31.444  25.918  1.00  0.00     0.163 HD
BRANCH   7   9
ATOM      9  C   UNL A   1      34.511  31.420  27.768  1.00  0.00     0.039 A 
ATOM     10  C   UNL A   1      34.708  30.099  28.172  1.00  0.00     0.014 A 
ATOM     11  C   UNL A   1      35.541  32.355  27.910  1.00  0.00     0.014 A 
ATOM     12  C   UNL A   1      35.861  29.754  28.868  1.00  0.00     0.010 A 
ATOM     13  C   UNL A   1      36.739  31.983  28.532  1.00  0.00     0.010 A 
ATOM     14  C   UNL A   1      36.890  30.692  29.059  1.00  0.00    -0.014 A 
BRANCH  14  15
ATOM     15  C   UNL A   1      38.114  30.287  29.797  1.00  0.00     0.031 A 
ATOM     16  C   UNL A   1      38.342  30.716  31.221  1.00  0.00     0.074 A 
ATOM     17  C   UNL A   1      39.006  29.482  29.187  1.00  0.00     0.049 A 
ATOM     18  N   UNL A   1      39.324  30.404  32.031  1.00  0.00    -0.248 NA
ATOM     19  C   UNL A   1      37.345  31.620  31.815  1.00  0.00     0.031 C 
ATOM     20  C   UNL A   1      38.905  29.013  27.804  1.00  0.00     0.029 A 
ATOM     21  N   UNL A   1      40.155  28.896  29.654  1.00  0.00    -0.354 N 
ATOM     22  C   UNL A   1      39.079  31.089  33.214  1.00  0.00     0.074 A 
ATOM     23  C   UNL A   1      37.867  31.854  33.011  1.00  0.00     0.031 C 
ATOM     24  C   UNL A   1      39.916  28.168  27.552  1.00  0.00     0.029 A 
ATOM     25  C   UNL A   1      40.763  28.077  28.736  1.00  0.00     0.049 A 
ATOM     26  H   UNL A   1      40.509  29.048  30.560  1.00  0.00     0.167 HD
ATOM     27  C   UNL A   1      39.793  31.075  34.365  1.00  0.00     0.037 A 
ATOM     28  C   UNL A   1      41.881  27.334  28.834  1.00  0.00     0.037 A 
ATOM     29  C   UNL A   1      40.983  30.289  34.575  1.00  0.00     0.049 A 
ATOM     30  C   UNL A   1      42.648  27.331  30.126  1.00  0.00     0.074 A 
ATOM     31  C   UNL A   1      41.751  30.173  35.721  1.00  0.00     0.029 A 
ATOM     32  N   UNL A   1      41.580  29.486  33.614  1.00  0.00    -0.354 N 
ATOM     33  N   UNL A   1      42.379  27.950  31.249  1.00  0.00    -0.248 NA
ATOM     34  C   UNL A   1      43.875  26.524  30.161  1.00  0.00     0.031 C 
ATOM     35  C   UNL A   1      42.834  29.332  35.442  1.00  0.00     0.029 A 
ATOM     36  C   UNL A   1      42.715  28.885  34.136  1.00  0.00     0.049 A 
ATOM     37  H   UNL A   1      41.246  29.360  32.696  1.00  0.00     0.167 HD
ATOM     38  C   UNL A   1      43.388  27.591  32.131  1.00  0.00     0.074 A 
ATOM     39  C   UNL A   1      44.265  26.685  31.417  1.00  0.00     0.031 C 
ATOM     40  C   UNL A   1      43.573  27.980  33.417  1.00  0.00     0.037 A 
BRANCH  27  41
ATOM     41  C   UNL A   1      39.321  31.947  35.492  1.00  0.00     0.064 A 
ATOM     42  C   UNL A   1      38.452  31.467  36.484  1.00  0.00     0.173 A 
ATOM     43  C   UNL A   1      39.781  33.268  35.607  1.00  0.00     0.173 A 
ATOM     44  F   UNL A   1      37.975  30.216  36.415  1.00  0.00    -0.203 F 
ATOM     45  C   UNL A   1      38.045  32.284  37.536  1.00  0.00     0.198 A 
ATOM     46  C   UNL A   1      39.392  34.073  36.675  1.00  0.00     0.198 A 
ATOM     47  F   UNL A   1      40.618  33.774  34.690  1.00  0.00    -0.203 F 
ATOM     48  F   UNL A   1      37.184  31.816  38.451  1.00  0.00    -0.200 F 
ATOM     49  C   UNL A   1      38.521  33.583  37.635  1.00  0.00     0.200 A 
ATOM     50  F   UNL A   1      39.863  35.324  36.775  1.00  0.00    -0.200 F 
ATOM     51  F   UNL A   1      38.134  34.364  38.654  1.00  0.00    -0.200 F 
ENDBRANCH  27  41
BRANCH  28  52
ATOM     52  C   UNL A   1      42.325  26.514  27.679  1.00  0.00     0.064 A 
ATOM     53  C   UNL A   1      43.287  26.997  26.781  1.00  0.00     0.173 A 
ATOM     54  C   UNL A   1      41.808  25.229  27.456  1.00  0.00     0.173 A 
ATOM     55  F   UNL A   1      43.795  28.228  26.943  1.00  0.00    -0.203 F 
ATOM     56  C   UNL A   1      43.705  26.232  25.696  1.00  0.00     0.198 A 
ATOM     57  C   UNL A   1      42.249  24.454  26.387  1.00  0.00     0.198 A 
ATOM     58  F   UNL A   1      40.891  24.721  28.291  1.00  0.00    -0.203 F 
ATOM     59  F   UNL A   1      44.597  26.731  24.830  1.00  0.00    -0.200 F 
ATOM     60  C   UNL A   1      43.191  24.957  25.503  1.00  0.00     0.200 A 
ATOM     61  F   UNL A   1      41.761  23.217  26.214  1.00  0.00    -0.200 F 
ATOM     62  F   UNL A   1      43.601  24.219  24.464  1.00  0.00    -0.200 F 
ENDBRANCH  28  52
BRANCH  40  63
ATOM     63  C   UNL A   1      44.748  27.396  34.143  1.00  0.00     0.064 A 
ATOM     64  C   UNL A   1      45.999  28.029  34.148  1.00  0.00     0.173 A 
ATOM     65  C   UNL A   1      44.615  26.195  34.856  1.00  0.00     0.173 A 
ATOM     66  F   UNL A   1      46.181  29.170  33.467  1.00  0.00    -0.203 F 
ATOM     67  C   UNL A   1      47.083  27.465  34.815  1.00  0.00     0.198 A 
ATOM     68  C   UNL A   1      45.693  25.649  35.545  1.00  0.00     0.198 A 
ATOM     69  F   UNL A   1      43.437  25.553  34.886  1.00  0.00    -0.203 F 
ATOM     70  F   UNL A   1      48.283  28.060  34.763  1.00  0.00    -0.200 F 
ATOM     71  C   UNL A   1      46.928  26.279  35.517  1.00  0.00     0.200 A 
ATOM     72  F   UNL A   1      45.539  24.507  36.231  1.00  0.00    -0.200 F 
ATOM     73  F   UNL A   1      47.973  25.737  36.158  1.00  0.00    -0.200 F 
ENDBRANCH  40  63
ENDBRANCH  14  15
ENDBRANCH   7   9
ENDBRANCH   4   5
ENDBRANCH   3   4
ENDBRANCH   2   3
ENDBRANCH   1   2
BRANCH   1  74
ATOM     74  C   UNL A   1      34.071  25.698  25.404  1.00  0.00     0.021 C 
BRANCH  74  75
ATOM     75  C   UNL A   1      34.304  25.823  23.901  1.00  0.00     0.116 C 
BRANCH  75  76
ATOM     76  N   UNL A   1      33.872  24.645  23.176  1.00  0.00    -0.352 N 
ATOM     77  C   UNL A   1      32.593  24.206  22.944  1.00  0.00     0.255 C 
ATOM     78  H   UNL A   1      34.591  24.085  22.803  1.00  0.00     0.163 HD
ATOM     79  O   UNL A   1      32.403  23.143  22.357  1.00  0.00    -0.269 OA
BRANCH  77  80
ATOM     80  C   UNL A   1      31.439  24.960  23.472  1.00  0.00     0.082 A 
ATOM     81  C   UNL A   1      31.176  26.205  22.882  1.00  0.00     0.025 A 
ATOM     82  C   UNL A   1      30.658  24.507  24.537  1.00  0.00     0.128 A 
ATOM     83  C   UNL A   1      30.104  26.993  23.320  1.00  0.00    -0.025 A 
ATOM     84  C   UNL A   1      29.583  25.274  24.978  1.00  0.00     0.047 A 
ATOM     85  C   UNL A   1      29.307  26.503  24.368  1.00  0.00     0.012 A 
BRANCH  82  86
ATOM     86  O   UNL A   1      30.935  23.318  25.148  1.00  0.00    -0.507 OA
ATOM     87  H   UNL A   1      30.265  22.669  25.238  1.00  0.00     0.293 HD
ENDBRANCH  82  86
BRANCH  83  88
ATOM     88  C   UNL A   1      29.774  28.310  22.744  1.00  0.00     0.009 C 
ATOM     89  C   UNL A   1      28.875  29.182  23.231  1.00  0.00     0.009 C 
BRANCH  89  90
ATOM     90  C   UNL A   1      28.574  30.469  22.589  1.00  0.00    -0.018 A 
ATOM     91  C   UNL A   1      28.822  31.688  23.237  1.00  0.00     0.054 A 
ATOM     92  C   UNL A   1      28.093  30.477  21.272  1.00  0.00     0.054 A 
ATOM     93  C   UNL A   1      28.565  32.889  22.578  1.00  0.00     0.119 A 
ATOM     94  C   UNL A   1      27.841  31.690  20.633  1.00  0.00     0.119 A 
ATOM     95  C   UNL A   1      28.072  32.898  21.279  1.00  0.00     0.092 A 
BRANCH  93  96
ATOM     96  O   UNL A   1      28.799  34.091  23.179  1.00  0.00    -0.508 OA
ATOM     97  H   UNL A   1      29.528  34.191  23.758  1.00  0.00     0.293 HD
ENDBRANCH  93  96
BRANCH  94  98
ATOM     98  O   UNL A   1      27.368  31.732  19.354  1.00  0.00    -0.508 OA
ATOM     99  H   UNL A   1      27.965  31.814  18.636  1.00  0.00     0.293 HD
ENDBRANCH  94  98
ENDBRANCH  89  90
ENDBRANCH  83  88
ENDBRANCH  77  80
ENDBRANCH  75  76
ENDBRANCH  74  75
ENDBRANCH   1  74
TORSDOF 18
ENDMDL
MODEL 3
REMARK VINA RESULT:     -13.0      0.434      7.284
REMARK SMILES O=C(NCCCCCCNC(=O)c1cc(/C=C/c2cc(O)cc(O)c2)ccc1O)c1ccc(-c2c3nc(c(-c4c(F)c(F)c(F)c(F)c4F)c4ccc([nH]4)c(-c4c(F)c(F)c(F)c(F)c4F)c4nc(c(-c5c(F)c(F)c(F)c(F)c5F)c5ccc2[nH]5)C=C4)C=C3)cc1
REMARK SMILES IDX 7 1 6 2 5 3 4 4 3 5 1 6 2 7 30 9 31 10 92 11 32 12 91 13
REMARK SMILES IDX 33 14 34 15 35 16 85 17 36 18 90 19 84 20 86 21 37 22 89 23
REMARK SMILES IDX 83 24 82 25 38 27 70 28 50 29 69 30 51 31 54 32 68 33 87 34
REMARK SMILES IDX 52 35 53 36 67 38 88 39 55 40 39 41 40 42 48 43 41 44 42 45
REMARK SMILES IDX 46 46 49 47 43 48 44 49 47 50 45 51 71 52 72 53 80 54 73 55
REMARK SMILES IDX 74 56 78 57 81 58 75 59 76 60 79 61 77 62 56 63 57 64 65 65
REMARK SMILES IDX 58 66 59 67 63 68 66 69 60 70 61 71 64 72 62 73 8 74 9 75
REMARK SMILES IDX 10 76 11 77 12 79 13 80 14 81 28 82 15 83 27 84 26 85 29 86
REMARK SMILES IDX 16 88 17 89 18 90 19 91 25 92 20 93 23 94 22 95 21 96 24 98
REMARK H PARENT 3 8 86 26 54 37 10 78 29 87 21 97 24 99
REMARK Flexibility Score: inf
ROOT
ATOM      1  C   UNL A   1      32.366  29.953  27.012  1.00  0.00     0.002 C 
ENDROOT
BRANCH   1   2
ATOM      2  C   UNL A   1      31.518  30.819  26.077  1.00  0.00     0.002 C 
BRANCH   2   3
ATOM      3  C   UNL A   1      31.349  32.280  26.492  1.00  0.00     0.021 C 
BRANCH   3   4
ATOM      4  C   UNL A   1      32.491  32.866  27.311  1.00  0.00     0.116 C 
BRANCH   4   5
ATOM      5  N   UNL A   1      32.298  34.267  27.648  1.00  0.00    -0.352 N 
ATOM      6  O   UNL A   1      32.574  36.184  28.809  1.00  0.00    -0.269 OA
ATOM      7  C   UNL A   1      32.949  35.039  28.580  1.00  0.00     0.251 C 
ATOM      8  H   UNL A   1      31.598  34.731  27.132  1.00  0.00     0.163 HD
BRANCH   7   9
ATOM      9  C   UNL A   1      34.085  34.472  29.344  1.00  0.00     0.039 A 
ATOM     10  C   UNL A   1      35.386  34.535  28.847  1.00  0.00     0.014 A 
ATOM     11  C   UNL A   1      33.834  33.855  30.573  1.00  0.00     0.014 A 
ATOM     12  C   UNL A   1      36.405  33.838  29.489  1.00  0.00     0.010 A 
ATOM     13  C   UNL A   1      34.878  33.229  31.264  1.00  0.00     0.010 A 
ATOM     14  C   UNL A   1      36.163  33.174  30.704  1.00  0.00    -0.014 A 
BRANCH  14  15
ATOM     15  C   UNL A   1      37.276  32.449  31.369  1.00  0.00     0.031 A 
ATOM     16  C   UNL A   1      38.033  31.362  30.655  1.00  0.00     0.074 A 
ATOM     17  C   UNL A   1      37.636  32.811  32.615  1.00  0.00     0.049 A 
ATOM     18  N   UNL A   1      39.068  30.670  31.065  1.00  0.00    -0.248 NA
ATOM     19  C   UNL A   1      37.567  30.995  29.309  1.00  0.00     0.031 C 
ATOM     20  C   UNL A   1      36.969  33.837  33.418  1.00  0.00     0.029 A 
ATOM     21  N   UNL A   1      38.663  32.379  33.416  1.00  0.00    -0.354 N 
ATOM     22  C   UNL A   1      39.359  29.773  30.045  1.00  0.00     0.074 A 
ATOM     23  C   UNL A   1      38.377  29.991  29.003  1.00  0.00     0.031 C 
ATOM     24  C   UNL A   1      37.636  33.996  34.570  1.00  0.00     0.029 A 
ATOM     25  C   UNL A   1      38.744  33.049  34.611  1.00  0.00     0.049 A 
ATOM     26  H   UNL A   1      39.283  31.659  33.158  1.00  0.00     0.167 HD
ATOM     27  C   UNL A   1      40.356  28.859  29.979  1.00  0.00     0.037 A 
ATOM     28  C   UNL A   1      39.613  32.915  35.630  1.00  0.00     0.037 A 
ATOM     29  C   UNL A   1      41.351  28.664  31.004  1.00  0.00     0.049 A 
ATOM     30  C   UNL A   1      40.714  31.900  35.525  1.00  0.00     0.074 A 
ATOM     31  C   UNL A   1      42.428  27.795  31.008  1.00  0.00     0.029 A 
ATOM     32  N   UNL A   1      41.388  29.349  32.210  1.00  0.00    -0.354 N 
ATOM     33  N   UNL A   1      41.002  31.090  34.536  1.00  0.00    -0.248 NA
ATOM     34  C   UNL A   1      41.613  31.781  36.681  1.00  0.00     0.031 C 
ATOM     35  C   UNL A   1      43.093  27.925  32.232  1.00  0.00     0.029 A 
ATOM     36  C   UNL A   1      42.459  28.909  32.972  1.00  0.00     0.049 A 
ATOM     37  H   UNL A   1      40.748  30.046  32.484  1.00  0.00     0.167 HD
ATOM     38  C   UNL A   1      42.125  30.383  34.939  1.00  0.00     0.074 A 
ATOM     39  C   UNL A   1      42.477  30.872  36.256  1.00  0.00     0.031 C 
ATOM     40  C   UNL A   1      42.802  29.412  34.277  1.00  0.00     0.037 A 
BRANCH  27  41
ATOM     41  C   UNL A   1      40.421  27.981  28.762  1.00  0.00     0.064 A 
ATOM     42  C   UNL A   1      41.175  28.338  27.634  1.00  0.00     0.173 A 
ATOM     43  C   UNL A   1      39.759  26.744  28.744  1.00  0.00     0.173 A 
ATOM     44  F   UNL A   1      41.818  29.514  27.595  1.00  0.00    -0.203 F 
ATOM     45  C   UNL A   1      41.244  27.498  26.525  1.00  0.00     0.198 A 
ATOM     46  C   UNL A   1      39.852  25.895  27.644  1.00  0.00     0.198 A 
ATOM     47  F   UNL A   1      39.031  26.352  29.800  1.00  0.00    -0.203 F 
ATOM     48  F   UNL A   1      41.938  27.876  25.442  1.00  0.00    -0.200 F 
ATOM     49  C   UNL A   1      40.589  26.276  26.533  1.00  0.00     0.200 A 
ATOM     50  F   UNL A   1      39.228  24.709  27.660  1.00  0.00    -0.200 F 
ATOM     51  F   UNL A   1      40.664  25.465  25.468  1.00  0.00    -0.200 F 
ENDBRANCH  27  41
BRANCH  28  52
ATOM     52  C   UNL A   1      39.485  33.785  36.826  1.00  0.00     0.064 A 
ATOM     53  C   UNL A   1      40.070  35.058  36.857  1.00  0.00     0.173 A 
ATOM     54  C   UNL A   1      38.765  33.368  37.956  1.00  0.00     0.173 A 
ATOM     55  F   UNL A   1      40.783  35.492  35.807  1.00  0.00    -0.203 F 
ATOM     56  C   UNL A   1      39.953  35.876  37.978  1.00  0.00     0.198 A 
ATOM     57  C   UNL A   1      38.624  34.198  39.064  1.00  0.00     0.198 A 
ATOM     58  F   UNL A   1      38.182  32.161  37.973  1.00  0.00    -0.203 F 
ATOM     59  F   UNL A   1      40.554  37.073  37.997  1.00  0.00    -0.200 F 
ATOM     60  C   UNL A   1      39.223  35.449  39.078  1.00  0.00     0.200 A 
ATOM     61  F   UNL A   1      37.906  33.788  40.119  1.00  0.00    -0.200 F 
ATOM     62  F   UNL A   1      39.104  36.240  40.152  1.00  0.00    -0.200 F 
ENDBRANCH  28  52
BRANCH  40  63
ATOM     63  C   UNL A   1      44.014  28.844  34.955  1.00  0.00     0.064 A 
ATOM     64  C   UNL A   1      45.274  29.449  34.840  1.00  0.00     0.173 A 
ATOM     65  C   UNL A   1      43.908  27.688  35.744  1.00  0.00     0.173 A 
ATOM     66  F   UNL A   1      45.429  30.546  34.083  1.00  0.00    -0.203 F 
ATOM     67  C   UNL A   1      46.389  28.900  35.465  1.00  0.00     0.198 A 
ATOM     68  C   UNL A   1      45.021  27.158  36.390  1.00  0.00     0.198 A 
ATOM     69  F   UNL A   1      42.723  27.075  35.889  1.00  0.00    -0.203 F 
ATOM     70  F   UNL A   1      47.594  29.464  35.298  1.00  0.00    -0.200 F 
ATOM     71  C   UNL A   1      46.262  27.759  36.243  1.00  0.00     0.200 A 
ATOM     72  F   UNL A   1      44.893  26.061  37.149  1.00  0.00    -0.200 F 
ATOM     73  F   UNL A   1      47.338  27.232  36.843  1.00  0.00    -0.200 F 
ENDBRANCH  40  63
ENDBRANCH  14  15
ENDBRANCH   7   9
ENDBRANCH   4   5
ENDBRANCH   3   4
ENDBRANCH   2   3
ENDBRANCH   1   2
BRANCH   1  74
ATOM     74  C   UNL A   1      31.740  28.625  27.454  1.00  0.00     0.021 C 
BRANCH  74  75
ATOM     75  C   UNL A   1      32.428  27.365  26.936  1.00  0.00     0.116 C 
BRANCH  75  76
ATOM     76  N   UNL A   1      31.625  26.176  27.139  1.00  0.00    -0.352 N 
ATOM     77  C   UNL A   1      31.025  25.379  26.197  1.00  0.00     0.255 C 
ATOM     78  H   UNL A   1      31.492  25.905  28.076  1.00  0.00     0.163 HD
ATOM     79  O   UNL A   1      30.321  24.434  26.547  1.00  0.00    -0.269 OA
BRANCH  77  80
ATOM     80  C   UNL A   1      31.146  25.702  24.762  1.00  0.00     0.082 A 
ATOM     81  C   UNL A   1      30.668  26.957  24.355  1.00  0.00     0.025 A 
ATOM     82  C   UNL A   1      31.661  24.807  23.822  1.00  0.00     0.128 A 
ATOM     83  C   UNL A   1      30.737  27.349  23.013  1.00  0.00    -0.025 A 
ATOM     84  C   UNL A   1      31.746  25.186  22.484  1.00  0.00     0.047 A 
ATOM     85  C   UNL A   1      31.293  26.450  22.088  1.00  0.00     0.012 A 
BRANCH  82  86
ATOM     86  O   UNL A   1      32.086  23.566  24.201  1.00  0.00    -0.507 OA
ATOM     87  H   UNL A   1      32.875  23.211  23.842  1.00  0.00     0.293 HD
ENDBRANCH  82  86
BRANCH  83  88
ATOM     88  C   UNL A   1      30.252  28.652  22.520  1.00  0.00     0.009 C 
ATOM     89  C   UNL A   1      29.181  29.321  22.980  1.00  0.00     0.009 C 
BRANCH  89  90
ATOM     90  C   UNL A   1      28.736  30.606  22.422  1.00  0.00    -0.018 A 
ATOM     91  C   UNL A   1      28.903  31.809  23.124  1.00  0.00     0.054 A 
ATOM     92  C   UNL A   1      28.194  30.635  21.129  1.00  0.00     0.054 A 
ATOM     93  C   UNL A   1      28.509  33.012  22.543  1.00  0.00     0.119 A 
ATOM     94  C   UNL A   1      27.805  31.851  20.568  1.00  0.00     0.119 A 
ATOM     95  C   UNL A   1      27.956  33.041  21.268  1.00  0.00     0.092 A 
BRANCH  93  96
ATOM     96  O   UNL A   1      28.662  34.199  23.198  1.00  0.00    -0.508 OA
ATOM     97  H   UNL A   1      29.038  34.215  24.055  1.00  0.00     0.293 HD
ENDBRANCH  93  96
BRANCH  94  98
ATOM     98  O   UNL A   1      27.270  31.913  19.314  1.00  0.00    -0.508 OA
ATOM     99  H   UNL A   1      27.812  31.758  18.566  1.00  0.00     0.293 HD
ENDBRANCH  94  98
ENDBRANCH  89  90
ENDBRANCH  83  88
ENDBRANCH  77  80
ENDBRANCH  75  76
ENDBRANCH  74  75
ENDBRANCH   1  74
TORSDOF 18
ENDMDL
