MODEL 1
REMARK VINA RESULT:     -12.5      0.000      0.000
REMARK SMILES CC1(C)[C@H](C(=O)NCCCCCCNC(=O)c2ccc(-c3c4nc(c(-c5c(F)c(F)c(F)c(F)c5F)c5ccc([nH]5)c(-c5c(F)c(F)c(F)c(F)c5F)c5nc(c(-c6c(F)c(F)c(F)c(F)c6F)c6ccc3[nH]6)C=C5)C=C4)cc2)[C@@H]1c1nc2ccc(F)cc2s1
REMARK SMILES IDX 11 1 10 2 9 3 8 4 7 5 5 6 6 7 4 9 1 10 2 11 3 12 80 13 81 14
REMARK SMILES IDX 82 15 90 16 83 17 89 18 84 19 88 20 85 21 86 22 87 23 12 24
REMARK SMILES IDX 13 25 14 26 15 27 16 29 17 30 18 31 79 32 19 33 78 34 20 35
REMARK SMILES IDX 21 36 22 37 72 38 23 39 77 40 71 41 73 42 24 43 76 44 70 45
REMARK SMILES IDX 69 46 25 48 57 49 37 50 56 51 38 52 41 53 55 54 74 55 39 56
REMARK SMILES IDX 40 57 54 59 75 60 42 61 26 62 27 63 35 64 28 65 29 66 33 67
REMARK SMILES IDX 36 68 30 69 31 70 34 71 32 72 58 73 59 74 67 75 60 76 61 77
REMARK SMILES IDX 65 78 68 79 62 80 63 81 66 82 64 83 43 84 44 85 52 86 45 87
REMARK SMILES IDX 46 88 50 89 53 90 47 91 48 92 51 93 49 94
REMARK H PARENT 7 8 14 28 73 47 41 58
REMARK Flexibility Score: inf
ROOT
ATOM      1  C   UNL A   1      31.656  30.696  26.477  1.00  0.00     0.002 C 
ENDROOT
BRANCH   1   2
ATOM      2  C   UNL A   1      32.803  29.983  27.202  1.00  0.00     0.002 C 
BRANCH   2   3
ATOM      3  C   UNL A   1      32.690  28.460  27.268  1.00  0.00     0.021 C 
BRANCH   3   4
ATOM      4  C   UNL A   1      31.404  27.896  26.674  1.00  0.00     0.116 C 
BRANCH   4   5
ATOM      5  N   UNL A   1      31.217  26.504  26.963  1.00  0.00    -0.356 N 
ATOM      6  C   UNL A   1      31.650  25.356  26.365  1.00  0.00     0.224 C 
ATOM      7  O   UNL A   1      31.277  24.315  26.912  1.00  0.00    -0.275 OA
ATOM      8  H   UNL A   1      30.662  26.343  27.760  1.00  0.00     0.163 HD
BRANCH   6   9
ATOM      9  C   UNL A   1      32.492  25.195  25.148  1.00  0.00     0.095 C 
ATOM     10  C   UNL A   1      33.417  23.455  23.503  1.00  0.00     0.013 C 
ATOM     11  C   UNL A   1      32.245  24.334  23.900  1.00  0.00    -0.013 C 
ATOM     12  C   UNL A   1      30.933  23.625  23.692  1.00  0.00     0.013 C 
ATOM     13  C   UNL A   1      32.445  25.842  23.800  1.00  0.00     0.068 C 
BRANCH  13  14
ATOM     14  C   UNL A   1      31.500  26.982  23.457  1.00  0.00     0.098 A 
ATOM     15  N   UNL A   1      30.228  26.847  23.754  1.00  0.00    -0.241 NA
ATOM     16  S   UNL A   1      31.949  28.528  22.871  1.00  0.00    -0.118 S 
ATOM     17  C   UNL A   1      29.512  27.918  23.254  1.00  0.00     0.082 A 
ATOM     18  C   UNL A   1      30.282  28.914  22.647  1.00  0.00     0.057 A 
ATOM     19  C   UNL A   1      28.109  28.057  23.277  1.00  0.00     0.033 A 
ATOM     20  C   UNL A   1      29.695  30.010  21.997  1.00  0.00     0.060 A 
ATOM     21  C   UNL A   1      27.512  29.145  22.634  1.00  0.00     0.041 A 
ATOM     22  C   UNL A   1      28.303  30.088  21.993  1.00  0.00     0.124 A 
ATOM     23  F   UNL A   1      27.713  31.104  21.348  1.00  0.00    -0.207 F 
ENDBRANCH  13  14
ENDBRANCH   6   9
ENDBRANCH   4   5
ENDBRANCH   3   4
ENDBRANCH   2   3
ENDBRANCH   1   2
BRANCH   1  24
ATOM     24  C   UNL A   1      31.465  32.176  26.826  1.00  0.00     0.021 C 
BRANCH  24  25
ATOM     25  C   UNL A   1      32.755  32.974  26.993  1.00  0.00     0.116 C 
BRANCH  25  26
ATOM     26  N   UNL A   1      32.531  34.258  27.634  1.00  0.00    -0.352 N 
ATOM     27  C   UNL A   1      33.115  34.796  28.751  1.00  0.00     0.251 C 
ATOM     28  H   UNL A   1      31.856  34.828  27.200  1.00  0.00     0.163 HD
ATOM     29  O   UNL A   1      32.663  35.823  29.245  1.00  0.00    -0.269 OA
BRANCH  27  30
ATOM     30  C   UNL A   1      34.283  34.137  29.374  1.00  0.00     0.039 A 
ATOM     31  C   UNL A   1      34.060  33.162  30.351  1.00  0.00     0.014 A 
ATOM     32  C   UNL A   1      35.589  34.500  29.032  1.00  0.00     0.014 A 
ATOM     33  C   UNL A   1      35.145  32.519  30.950  1.00  0.00     0.010 A 
ATOM     34  C   UNL A   1      36.668  33.810  29.580  1.00  0.00     0.010 A 
ATOM     35  C   UNL A   1      36.457  32.820  30.551  1.00  0.00    -0.014 A 
BRANCH  35  36
ATOM     36  C   UNL A   1      37.618  32.116  31.151  1.00  0.00     0.031 A 
ATOM     37  C   UNL A   1      38.097  32.484  32.528  1.00  0.00     0.074 A 
ATOM     38  C   UNL A   1      38.271  31.181  30.435  1.00  0.00     0.049 A 
ATOM     39  N   UNL A   1      39.122  32.022  33.201  1.00  0.00    -0.248 NA
ATOM     40  C   UNL A   1      37.340  33.530  33.234  1.00  0.00     0.031 C 
ATOM     41  C   UNL A   1      37.931  30.770  29.073  1.00  0.00     0.029 A 
ATOM     42  N   UNL A   1      39.365  30.413  30.751  1.00  0.00    -0.354 N 
ATOM     43  C   UNL A   1      39.140  32.728  34.396  1.00  0.00     0.074 A 
ATOM     44  C   UNL A   1      38.057  33.687  34.338  1.00  0.00     0.031 C 
ATOM     45  C   UNL A   1      38.784  29.812  28.677  1.00  0.00     0.029 A 
ATOM     46  C   UNL A   1      39.751  29.564  29.742  1.00  0.00     0.049 A 
ATOM     47  H   UNL A   1      39.828  30.466  31.618  1.00  0.00     0.167 HD
ATOM     48  C   UNL A   1      39.969  32.575  35.455  1.00  0.00     0.037 A 
ATOM     49  C   UNL A   1      40.772  28.690  29.684  1.00  0.00     0.037 A 
ATOM     50  C   UNL A   1      41.029  31.602  35.520  1.00  0.00     0.049 A 
ATOM     51  C   UNL A   1      41.674  28.534  30.878  1.00  0.00     0.074 A 
ATOM     52  C   UNL A   1      41.887  31.328  36.571  1.00  0.00     0.029 A 
ATOM     53  N   UNL A   1      41.374  30.741  34.489  1.00  0.00    -0.354 N 
ATOM     54  N   UNL A   1      41.640  29.160  32.030  1.00  0.00    -0.248 NA
ATOM     55  C   UNL A   1      42.753  27.541  30.768  1.00  0.00     0.031 C 
ATOM     56  C   UNL A   1      42.780  30.333  36.159  1.00  0.00     0.029 A 
ATOM     57  C   UNL A   1      42.444  29.949  34.871  1.00  0.00     0.049 A 
ATOM     58  H   UNL A   1      40.924  30.699  33.614  1.00  0.00     0.167 HD
ATOM     59  C   UNL A   1      42.667  28.618  32.790  1.00  0.00     0.074 A 
ATOM     60  C   UNL A   1      43.297  27.601  31.975  1.00  0.00     0.031 C 
ATOM     61  C   UNL A   1      43.053  28.933  34.051  1.00  0.00     0.037 A 
BRANCH  48  62
ATOM     62  C   UNL A   1      39.765  33.479  36.637  1.00  0.00     0.064 A 
ATOM     63  C   UNL A   1      40.409  34.722  36.734  1.00  0.00     0.173 A 
ATOM     64  C   UNL A   1      38.883  33.117  37.667  1.00  0.00     0.173 A 
ATOM     65  F   UNL A   1      41.272  35.111  35.782  1.00  0.00    -0.203 F 
ATOM     66  C   UNL A   1      40.200  35.555  37.829  1.00  0.00     0.198 A 
ATOM     67  C   UNL A   1      38.652  33.967  38.745  1.00  0.00     0.198 A 
ATOM     68  F   UNL A   1      38.236  31.943  37.623  1.00  0.00    -0.203 F 
ATOM     69  F   UNL A   1      40.864  36.716  37.922  1.00  0.00    -0.200 F 
ATOM     70  C   UNL A   1      39.317  35.182  38.830  1.00  0.00     0.200 A 
ATOM     71  F   UNL A   1      37.788  33.611  39.706  1.00  0.00    -0.200 F 
ATOM     72  F   UNL A   1      39.109  35.989  39.879  1.00  0.00    -0.200 F 
ENDBRANCH  48  62
BRANCH  49  73
ATOM     73  C   UNL A   1      40.980  27.871  28.461  1.00  0.00     0.064 A 
ATOM     74  C   UNL A   1      41.811  28.321  27.426  1.00  0.00     0.173 A 
ATOM     75  C   UNL A   1      40.346  26.631  28.296  1.00  0.00     0.173 A 
ATOM     76  F   UNL A   1      42.424  29.510  27.528  1.00  0.00    -0.203 F 
ATOM     77  C   UNL A   1      41.982  27.574  26.263  1.00  0.00     0.198 A 
ATOM     78  C   UNL A   1      40.541  25.870  27.145  1.00  0.00     0.198 A 
ATOM     79  F   UNL A   1      39.544  26.152  29.260  1.00  0.00    -0.203 F 
ATOM     80  F   UNL A   1      42.743  28.051  25.268  1.00  0.00    -0.200 F 
ATOM     81  C   UNL A   1      41.351  26.346  26.126  1.00  0.00     0.200 A 
ATOM     82  F   UNL A   1      39.941  24.679  27.023  1.00  0.00    -0.200 F 
ATOM     83  F   UNL A   1      41.516  25.627  25.007  1.00  0.00    -0.200 F 
ENDBRANCH  49  73
BRANCH  61  84
ATOM     84  C   UNL A   1      44.185  28.143  34.641  1.00  0.00     0.064 A 
ATOM     85  C   UNL A   1      45.516  28.576  34.546  1.00  0.00     0.173 A 
ATOM     86  C   UNL A   1      43.930  26.951  35.336  1.00  0.00     0.173 A 
ATOM     87  F   UNL A   1      45.815  29.700  33.880  1.00  0.00    -0.203 F 
ATOM     88  C   UNL A   1      46.552  27.829  35.101  1.00  0.00     0.198 A 
ATOM     89  C   UNL A   1      44.964  26.223  35.916  1.00  0.00     0.198 A 
ATOM     90  F   UNL A   1      42.673  26.497  35.460  1.00  0.00    -0.203 F 
ATOM     91  F   UNL A   1      47.821  28.233  34.953  1.00  0.00    -0.200 F 
ATOM     92  C   UNL A   1      46.275  26.657  35.790  1.00  0.00     0.200 A 
ATOM     93  F   UNL A   1      44.693  25.099  36.594  1.00  0.00    -0.200 F 
ATOM     94  F   UNL A   1      47.273  25.942  36.327  1.00  0.00    -0.200 F 
ENDBRANCH  61  84
ENDBRANCH  35  36
ENDBRANCH  27  30
ENDBRANCH  25  26
ENDBRANCH  24  25
ENDBRANCH   1  24
TORSDOF 14
ENDMDL
MODEL 2
REMARK VINA RESULT:     -12.5      0.737      7.388
REMARK SMILES CC1(C)[C@H](C(=O)NCCCCCCNC(=O)c2ccc(-c3c4nc(c(-c5c(F)c(F)c(F)c(F)c5F)c5ccc([nH]5)c(-c5c(F)c(F)c(F)c(F)c5F)c5nc(c(-c6c(F)c(F)c(F)c(F)c6F)c6ccc3[nH]6)C=C5)C=C4)cc2)[C@@H]1c1nc2ccc(F)cc2s1
REMARK SMILES IDX 11 1 10 2 9 3 8 4 7 5 5 6 6 7 4 9 1 10 2 11 3 12 80 13 81 14
REMARK SMILES IDX 82 15 90 16 83 17 89 18 84 19 88 20 85 21 86 22 87 23 12 24
REMARK SMILES IDX 13 25 14 26 15 27 16 29 17 30 18 31 79 32 19 33 78 34 20 35
REMARK SMILES IDX 21 36 22 37 72 38 23 39 77 40 71 41 73 42 24 43 76 44 70 45
REMARK SMILES IDX 69 46 25 48 57 49 37 50 56 51 38 52 41 53 55 54 74 55 39 56
REMARK SMILES IDX 40 57 54 59 75 60 42 61 26 62 27 63 35 64 28 65 29 66 33 67
REMARK SMILES IDX 36 68 30 69 31 70 34 71 32 72 58 73 59 74 67 75 60 76 61 77
REMARK SMILES IDX 65 78 68 79 62 80 63 81 66 82 64 83 43 84 44 85 52 86 45 87
REMARK SMILES IDX 46 88 50 89 53 90 47 91 48 92 51 93 49 94
REMARK H PARENT 7 8 14 28 73 47 41 58
REMARK Flexibility Score: inf
ROOT
ATOM      1  C   UNL A   1      31.517  30.823  26.398  1.00  0.00     0.002 C 
ENDROOT
BRANCH   1   2
ATOM      2  C   UNL A   1      32.557  30.075  27.240  1.00  0.00     0.002 C 
BRANCH   2   3
ATOM      3  C   UNL A   1      32.626  28.566  27.008  1.00  0.00     0.021 C 
BRANCH   3   4
ATOM      4  C   UNL A   1      31.352  27.958  26.431  1.00  0.00     0.116 C 
BRANCH   4   5
ATOM      5  N   UNL A   1      31.188  26.574  26.773  1.00  0.00    -0.356 N 
ATOM      6  C   UNL A   1      31.586  25.410  26.185  1.00  0.00     0.224 C 
ATOM      7  O   UNL A   1      31.251  24.385  26.785  1.00  0.00    -0.275 OA
ATOM      8  H   UNL A   1      30.682  26.437  27.606  1.00  0.00     0.163 HD
BRANCH   6   9
ATOM      9  C   UNL A   1      32.353  25.213  24.924  1.00  0.00     0.095 C 
ATOM     10  C   UNL A   1      33.116  23.434  23.238  1.00  0.00     0.013 C 
ATOM     11  C   UNL A   1      32.003  24.360  23.694  1.00  0.00    -0.013 C 
ATOM     12  C   UNL A   1      30.655  23.703  23.562  1.00  0.00     0.013 C 
ATOM     13  C   UNL A   1      32.258  25.859  23.578  1.00  0.00     0.068 C 
BRANCH  13  14
ATOM     14  C   UNL A   1      31.342  27.034  23.283  1.00  0.00     0.098 A 
ATOM     15  N   UNL A   1      30.068  26.923  23.584  1.00  0.00    -0.241 NA
ATOM     16  S   UNL A   1      31.828  28.589  22.750  1.00  0.00    -0.118 S 
ATOM     17  C   UNL A   1      29.378  28.029  23.128  1.00  0.00     0.082 A 
ATOM     18  C   UNL A   1      30.170  29.026  22.551  1.00  0.00     0.057 A 
ATOM     19  C   UNL A   1      27.979  28.204  23.165  1.00  0.00     0.033 A 
ATOM     20  C   UNL A   1      29.608  30.160  21.945  1.00  0.00     0.060 A 
ATOM     21  C   UNL A   1      27.407  29.331  22.566  1.00  0.00     0.041 A 
ATOM     22  C   UNL A   1      28.220  30.275  21.953  1.00  0.00     0.124 A 
ATOM     23  F   UNL A   1      27.652  31.328  21.350  1.00  0.00    -0.207 F 
ENDBRANCH  13  14
ENDBRANCH   6   9
ENDBRANCH   4   5
ENDBRANCH   3   4
ENDBRANCH   2   3
ENDBRANCH   1   2
BRANCH   1  24
ATOM     24  C   UNL A   1      31.403  32.328  26.663  1.00  0.00     0.021 C 
BRANCH  24  25
ATOM     25  C   UNL A   1      32.683  32.998  27.154  1.00  0.00     0.116 C 
BRANCH  25  26
ATOM     26  N   UNL A   1      32.443  34.335  27.669  1.00  0.00    -0.352 N 
ATOM     27  C   UNL A   1      32.999  34.973  28.746  1.00  0.00     0.251 C 
ATOM     28  H   UNL A   1      31.781  34.862  27.167  1.00  0.00     0.163 HD
ATOM     29  O   UNL A   1      32.535  36.041  29.133  1.00  0.00    -0.269 OA
BRANCH  27  30
ATOM     30  C   UNL A   1      34.149  34.376  29.458  1.00  0.00     0.039 A 
ATOM     31  C   UNL A   1      33.909  33.637  30.619  1.00  0.00     0.014 A 
ATOM     32  C   UNL A   1      35.459  34.571  29.010  1.00  0.00     0.014 A 
ATOM     33  C   UNL A   1      34.976  33.055  31.306  1.00  0.00     0.010 A 
ATOM     34  C   UNL A   1      36.517  33.934  29.657  1.00  0.00     0.010 A 
ATOM     35  C   UNL A   1      36.287  33.178  30.816  1.00  0.00    -0.014 A 
BRANCH  35  36
ATOM     36  C   UNL A   1      37.426  32.532  31.513  1.00  0.00     0.031 A 
ATOM     37  C   UNL A   1      38.155  31.385  30.868  1.00  0.00     0.074 A 
ATOM     38  C   UNL A   1      37.772  32.944  32.748  1.00  0.00     0.049 A 
ATOM     39  N   UNL A   1      39.138  30.658  31.339  1.00  0.00    -0.248 NA
ATOM     40  C   UNL A   1      37.702  30.983  29.528  1.00  0.00     0.031 C 
ATOM     41  C   UNL A   1      37.112  34.015  33.496  1.00  0.00     0.029 A 
ATOM     42  N   UNL A   1      38.759  32.505  33.595  1.00  0.00    -0.354 N 
ATOM     43  C   UNL A   1      39.409  29.709  30.362  1.00  0.00     0.074 A 
ATOM     44  C   UNL A   1      38.454  29.917  29.294  1.00  0.00     0.031 C 
ATOM     45  C   UNL A   1      37.723  34.163  34.682  1.00  0.00     0.029 A 
ATOM     46  C   UNL A   1      38.796  33.178  34.792  1.00  0.00     0.049 A 
ATOM     47  H   UNL A   1      39.380  31.777  33.367  1.00  0.00     0.167 HD
ATOM     48  C   UNL A   1      40.380  28.766  30.346  1.00  0.00     0.037 A 
ATOM     49  C   UNL A   1      39.601  33.015  35.858  1.00  0.00     0.037 A 
ATOM     50  C   UNL A   1      41.346  28.580  31.398  1.00  0.00     0.049 A 
ATOM     51  C   UNL A   1      40.677  31.965  35.811  1.00  0.00     0.074 A 
ATOM     52  C   UNL A   1      42.405  27.691  31.451  1.00  0.00     0.029 A 
ATOM     53  N   UNL A   1      41.368  29.299  32.585  1.00  0.00    -0.354 N 
ATOM     54  N   UNL A   1      40.967  31.118  34.853  1.00  0.00    -0.248 NA
ATOM     55  C   UNL A   1      41.546  31.854  36.992  1.00  0.00     0.031 C 
ATOM     56  C   UNL A   1      43.041  27.842  32.688  1.00  0.00     0.029 A 
ATOM     57  C   UNL A   1      42.412  28.860  33.384  1.00  0.00     0.049 A 
ATOM     58  H   UNL A   1      40.737  30.015  32.823  1.00  0.00     0.167 HD
ATOM     59  C   UNL A   1      42.066  30.397  35.299  1.00  0.00     0.074 A 
ATOM     60  C   UNL A   1      42.401  30.917  36.608  1.00  0.00     0.031 C 
ATOM     61  C   UNL A   1      42.738  29.396  34.680  1.00  0.00     0.037 A 
BRANCH  48  62
ATOM     62  C   UNL A   1      40.453  27.860  29.150  1.00  0.00     0.064 A 
ATOM     63  C   UNL A   1      39.688  26.687  29.068  1.00  0.00     0.173 A 
ATOM     64  C   UNL A   1      41.266  28.190  28.055  1.00  0.00     0.173 A 
ATOM     65  F   UNL A   1      38.903  26.319  30.092  1.00  0.00    -0.203 F 
ATOM     66  C   UNL A   1      39.756  25.863  27.948  1.00  0.00     0.198 A 
ATOM     67  C   UNL A   1      41.307  27.380  26.923  1.00  0.00     0.198 A 
ATOM     68  F   UNL A   1      42.014  29.302  28.077  1.00  0.00    -0.203 F 
ATOM     69  F   UNL A   1      39.052  24.722  27.913  1.00  0.00    -0.200 F 
ATOM     70  C   UNL A   1      40.558  26.213  26.873  1.00  0.00     0.200 A 
ATOM     71  F   UNL A   1      42.073  27.726  25.879  1.00  0.00    -0.200 F 
ATOM     72  F   UNL A   1      40.615  25.424  25.791  1.00  0.00    -0.200 F 
ENDBRANCH  48  62
BRANCH  49  73
ATOM     73  C   UNL A   1      39.440  33.887  37.051  1.00  0.00     0.064 A 
ATOM     74  C   UNL A   1      38.712  33.454  38.168  1.00  0.00     0.173 A 
ATOM     75  C   UNL A   1      39.998  35.173  37.096  1.00  0.00     0.173 A 
ATOM     76  F   UNL A   1      38.141  32.239  38.164  1.00  0.00    -0.203 F 
ATOM     77  C   UNL A   1      38.529  34.279  39.274  1.00  0.00     0.198 A 
ATOM     78  C   UNL A   1      39.840  35.988  38.216  1.00  0.00     0.198 A 
ATOM     79  F   UNL A   1      40.708  35.635  36.056  1.00  0.00    -0.203 F 
ATOM     80  F   UNL A   1      37.787  33.858  40.307  1.00  0.00    -0.200 F 
ATOM     81  C   UNL A   1      39.098  35.544  39.299  1.00  0.00     0.200 A 
ATOM     82  F   UNL A   1      40.402  37.203  38.241  1.00  0.00    -0.200 F 
ATOM     83  F   UNL A   1      38.922  36.339  40.364  1.00  0.00    -0.200 F 
ENDBRANCH  49  73
BRANCH  61  84
ATOM     84  C   UNL A   1      43.928  28.823  35.395  1.00  0.00     0.064 A 
ATOM     85  C   UNL A   1      45.224  29.315  35.183  1.00  0.00     0.173 A 
ATOM     86  C   UNL A   1      43.762  27.787  36.327  1.00  0.00     0.173 A 
ATOM     87  F   UNL A   1      45.438  30.293  34.292  1.00  0.00    -0.203 F 
ATOM     88  C   UNL A   1      46.315  28.770  35.857  1.00  0.00     0.198 A 
ATOM     89  C   UNL A   1      44.850  27.267  37.022  1.00  0.00     0.198 A 
ATOM     90  F   UNL A   1      42.541  27.286  36.572  1.00  0.00    -0.203 F 
ATOM     91  F   UNL A   1      47.551  29.219  35.600  1.00  0.00    -0.200 F 
ATOM     92  C   UNL A   1      46.126  27.752  36.780  1.00  0.00     0.200 A 
ATOM     93  F   UNL A   1      44.664  26.293  37.924  1.00  0.00    -0.200 F 
ATOM     94  F   UNL A   1      47.176  27.232  37.430  1.00  0.00    -0.200 F 
ENDBRANCH  61  84
ENDBRANCH  35  36
ENDBRANCH  27  30
ENDBRANCH  25  26
ENDBRANCH  24  25
ENDBRANCH   1  24
TORSDOF 14
ENDMDL
MODEL 3
REMARK VINA RESULT:     -12.4      5.233      9.250
REMARK SMILES CC1(C)[C@H](C(=O)NCCCCCCNC(=O)c2ccc(-c3c4nc(c(-c5c(F)c(F)c(F)c(F)c5F)c5ccc([nH]5)c(-c5c(F)c(F)c(F)c(F)c5F)c5nc(c(-c6c(F)c(F)c(F)c(F)c6F)c6ccc3[nH]6)C=C5)C=C4)cc2)[C@@H]1c1nc2ccc(F)cc2s1
REMARK SMILES IDX 11 1 10 2 9 3 8 4 7 5 5 6 6 7 4 9 1 10 2 11 3 12 80 13 81 14
REMARK SMILES IDX 82 15 90 16 83 17 89 18 84 19 88 20 85 21 86 22 87 23 12 24
REMARK SMILES IDX 13 25 14 26 15 27 16 29 17 30 18 31 79 32 19 33 78 34 20 35
REMARK SMILES IDX 21 36 22 37 72 38 23 39 77 40 71 41 73 42 24 43 76 44 70 45
REMARK SMILES IDX 69 46 25 48 57 49 37 50 56 51 38 52 41 53 55 54 74 55 39 56
REMARK SMILES IDX 40 57 54 59 75 60 42 61 26 62 27 63 35 64 28 65 29 66 33 67
REMARK SMILES IDX 36 68 30 69 31 70 34 71 32 72 58 73 59 74 67 75 60 76 61 77
REMARK SMILES IDX 65 78 68 79 62 80 63 81 66 82 64 83 43 84 44 85 52 86 45 87
REMARK SMILES IDX 46 88 50 89 53 90 47 91 48 92 51 93 49 94
REMARK H PARENT 7 8 14 28 73 47 41 58
REMARK Flexibility Score: inf
ROOT
ATOM      1  C   UNL A   1      36.476  20.349  25.059  1.00  0.00     0.002 C 
ENDROOT
BRANCH   1   2
ATOM      2  C   UNL A   1      35.196  19.565  24.744  1.00  0.00     0.002 C 
BRANCH   2   3
ATOM      3  C   UNL A   1      33.888  20.292  25.057  1.00  0.00     0.021 C 
BRANCH   3   4
ATOM      4  C   UNL A   1      33.776  20.801  26.490  1.00  0.00     0.116 C 
BRANCH   4   5
ATOM      5  N   UNL A   1      32.901  21.931  26.616  1.00  0.00    -0.356 N 
ATOM      6  C   UNL A   1      33.076  23.274  26.454  1.00  0.00     0.224 C 
ATOM      7  O   UNL A   1      32.067  23.955  26.654  1.00  0.00    -0.275 OA
ATOM      8  H   UNL A   1      31.983  21.685  26.871  1.00  0.00     0.163 HD
BRANCH   6   9
ATOM      9  C   UNL A   1      34.310  24.019  26.084  1.00  0.00     0.095 C 
ATOM     10  C   UNL A   1      36.533  23.815  24.816  1.00  0.00     0.013 C 
ATOM     11  C   UNL A   1      35.041  24.084  24.734  1.00  0.00    -0.013 C 
ATOM     12  C   UNL A   1      34.442  23.471  23.496  1.00  0.00     0.013 C 
ATOM     13  C   UNL A   1      34.525  25.343  25.420  1.00  0.00     0.068 C 
BRANCH  13  14
ATOM     14  C   UNL A   1      33.392  26.300  25.090  1.00  0.00     0.098 A 
ATOM     15  N   UNL A   1      32.697  26.089  23.995  1.00  0.00    -0.241 NA
ATOM     16  S   UNL A   1      32.796  27.550  26.098  1.00  0.00    -0.118 S 
ATOM     17  C   UNL A   1      31.806  27.125  23.797  1.00  0.00     0.082 A 
ATOM     18  C   UNL A   1      31.777  28.085  24.812  1.00  0.00     0.057 A 
ATOM     19  C   UNL A   1      30.980  27.300  22.667  1.00  0.00     0.033 A 
ATOM     20  C   UNL A   1      31.004  29.252  24.706  1.00  0.00     0.060 A 
ATOM     21  C   UNL A   1      30.205  28.458  22.551  1.00  0.00     0.041 A 
ATOM     22  C   UNL A   1      30.241  29.418  23.552  1.00  0.00     0.124 A 
ATOM     23  F   UNL A   1      29.522  30.539  23.406  1.00  0.00    -0.207 F 
ENDBRANCH  13  14
ENDBRANCH   6   9
ENDBRANCH   4   5
ENDBRANCH   3   4
ENDBRANCH   2   3
ENDBRANCH   1   2
BRANCH   1  24
ATOM     24  C   UNL A   1      37.788  19.577  24.894  1.00  0.00     0.021 C 
BRANCH  24  25
ATOM     25  C   UNL A   1      38.958  20.104  25.721  1.00  0.00     0.116 C 
BRANCH  25  26
ATOM     26  N   UNL A   1      40.027  19.129  25.849  1.00  0.00    -0.352 N 
ATOM     27  C   UNL A   1      41.368  19.320  26.058  1.00  0.00     0.251 C 
ATOM     28  H   UNL A   1      39.745  18.189  25.774  1.00  0.00     0.163 HD
ATOM     29  O   UNL A   1      42.144  18.376  25.957  1.00  0.00    -0.269 OA
BRANCH  27  30
ATOM     30  C   UNL A   1      41.889  20.662  26.393  1.00  0.00     0.039 A 
ATOM     31  C   UNL A   1      42.111  21.573  25.357  1.00  0.00     0.014 A 
ATOM     32  C   UNL A   1      42.195  21.013  27.712  1.00  0.00     0.014 A 
ATOM     33  C   UNL A   1      42.595  22.850  25.646  1.00  0.00     0.010 A 
ATOM     34  C   UNL A   1      42.613  22.309  28.007  1.00  0.00     0.010 A 
ATOM     35  C   UNL A   1      42.827  23.237  26.977  1.00  0.00    -0.014 A 
BRANCH  35  36
ATOM     36  C   UNL A   1      43.303  24.604  27.302  1.00  0.00     0.031 A 
ATOM     37  C   UNL A   1      42.356  25.616  27.887  1.00  0.00     0.074 A 
ATOM     38  C   UNL A   1      44.575  24.950  27.025  1.00  0.00     0.049 A 
ATOM     39  N   UNL A   1      42.568  26.873  28.189  1.00  0.00    -0.248 NA
ATOM     40  C   UNL A   1      40.979  25.164  28.140  1.00  0.00     0.031 C 
ATOM     41  C   UNL A   1      45.575  24.072  26.416  1.00  0.00     0.029 A 
ATOM     42  N   UNL A   1      45.242  26.136  27.210  1.00  0.00    -0.354 N 
ATOM     43  C   UNL A   1      41.355  27.361  28.652  1.00  0.00     0.074 A 
ATOM     44  C   UNL A   1      40.395  26.283  28.543  1.00  0.00     0.031 C 
ATOM     45  C   UNL A   1      46.732  24.741  26.296  1.00  0.00     0.029 A 
ATOM     46  C   UNL A   1      46.549  26.103  26.787  1.00  0.00     0.049 A 
ATOM     47  H   UNL A   1      44.823  26.933  27.607  1.00  0.00     0.167 HD
ATOM     48  C   UNL A   1      41.071  28.590  29.145  1.00  0.00     0.037 A 
ATOM     49  C   UNL A   1      47.489  27.066  26.793  1.00  0.00     0.037 A 
ATOM     50  C   UNL A   1      42.035  29.652  29.278  1.00  0.00     0.049 A 
ATOM     51  C   UNL A   1      47.150  28.420  27.354  1.00  0.00     0.074 A 
ATOM     52  C   UNL A   1      41.862  30.914  29.819  1.00  0.00     0.029 A 
ATOM     53  N   UNL A   1      43.356  29.574  28.863  1.00  0.00    -0.354 N 
ATOM     54  N   UNL A   1      46.016  28.850  27.852  1.00  0.00    -0.248 NA
ATOM     55  C   UNL A   1      48.225  29.422  27.362  1.00  0.00     0.031 C 
ATOM     56  C   UNL A   1      43.065  31.614  29.691  1.00  0.00     0.029 A 
ATOM     57  C   UNL A   1      44.004  30.772  29.119  1.00  0.00     0.049 A 
ATOM     58  H   UNL A   1      43.773  28.784  28.449  1.00  0.00     0.167 HD
ATOM     59  C   UNL A   1      46.248  30.157  28.260  1.00  0.00     0.074 A 
ATOM     60  C   UNL A   1      47.636  30.444  27.966  1.00  0.00     0.031 C 
ATOM     61  C   UNL A   1      45.390  31.038  28.829  1.00  0.00     0.037 A 
BRANCH  48  62
ATOM     62  C   UNL A   1      39.660  28.856  29.585  1.00  0.00     0.064 A 
ATOM     63  C   UNL A   1      39.233  28.588  30.894  1.00  0.00     0.173 A 
ATOM     64  C   UNL A   1      38.732  29.423  28.697  1.00  0.00     0.173 A 
ATOM     65  F   UNL A   1      40.076  28.034  31.779  1.00  0.00    -0.203 F 
ATOM     66  C   UNL A   1      37.925  28.851  31.291  1.00  0.00     0.198 A 
ATOM     67  C   UNL A   1      37.433  29.715  29.107  1.00  0.00     0.198 A 
ATOM     68  F   UNL A   1      39.087  29.705  27.435  1.00  0.00    -0.203 F 
ATOM     69  F   UNL A   1      37.528  28.542  32.534  1.00  0.00    -0.200 F 
ATOM     70  C   UNL A   1      37.028  29.421  30.401  1.00  0.00     0.200 A 
ATOM     71  F   UNL A   1      36.571  30.278  28.249  1.00  0.00    -0.200 F 
ATOM     72  F   UNL A   1      35.772  29.683  30.787  1.00  0.00    -0.200 F 
ENDBRANCH  48  62
BRANCH  49  73
ATOM     73  C   UNL A   1      48.852  26.776  26.276  1.00  0.00     0.064 A 
ATOM     74  C   UNL A   1      49.203  27.088  24.955  1.00  0.00     0.173 A 
ATOM     75  C   UNL A   1      49.826  26.173  27.084  1.00  0.00     0.173 A 
ATOM     76  F   UNL A   1      48.299  27.647  24.136  1.00  0.00    -0.203 F 
ATOM     77  C   UNL A   1      50.467  26.787  24.454  1.00  0.00     0.198 A 
ATOM     78  C   UNL A   1      51.101  25.899  26.592  1.00  0.00     0.198 A 
ATOM     79  F   UNL A   1      49.543  25.859  28.357  1.00  0.00    -0.203 F 
ATOM     80  F   UNL A   1      50.759  27.051  23.173  1.00  0.00    -0.200 F 
ATOM     81  C   UNL A   1      51.418  26.197  25.275  1.00  0.00     0.200 A 
ATOM     82  F   UNL A   1      52.020  25.343  27.392  1.00  0.00    -0.200 F 
ATOM     83  F   UNL A   1      52.635  25.908  24.794  1.00  0.00    -0.200 F 
ENDBRANCH  49  73
BRANCH  61  84
ATOM     84  C   UNL A   1      45.938  32.384  29.207  1.00  0.00     0.064 A 
ATOM     85  C   UNL A   1      45.888  33.475  28.327  1.00  0.00     0.173 A 
ATOM     86  C   UNL A   1      46.494  32.590  30.479  1.00  0.00     0.173 A 
ATOM     87  F   UNL A   1      45.380  33.327  27.095  1.00  0.00    -0.203 F 
ATOM     88  C   UNL A   1      46.400  34.716  28.697  1.00  0.00     0.198 A 
ATOM     89  C   UNL A   1      46.977  33.839  30.856  1.00  0.00     0.198 A 
ATOM     90  F   UNL A   1      46.559  31.580  31.360  1.00  0.00    -0.203 F 
ATOM     91  F   UNL A   1      46.390  35.731  27.823  1.00  0.00    -0.200 F 
ATOM     92  C   UNL A   1      46.938  34.898  29.963  1.00  0.00     0.200 A 
ATOM     93  F   UNL A   1      47.483  34.018  32.085  1.00  0.00    -0.200 F 
ATOM     94  F   UNL A   1      47.428  36.094  30.319  1.00  0.00    -0.200 F 
ENDBRANCH  61  84
ENDBRANCH  35  36
ENDBRANCH  27  30
ENDBRANCH  25  26
ENDBRANCH  24  25
ENDBRANCH   1  24
TORSDOF 14
ENDMDL
