MODEL 1
REMARK VINA RESULT:     -13.8      0.000      0.000
REMARK SMILES Cc1cc(F)cc(N[C@H](C(=O)NCCCCCCNC(=O)c2ccc(-c3c4nc(c(-c5c(F)c(F)c(F)c(F)c5F)c5ccc([nH]5)c(-c5c(F)c(F)c(F)c(F)c5F)c5nc(c(-c6c(F)c(F)c(F)c(F)c6F)c6ccc3[nH]6)C=C5)C=C4)cc2)c2cc(C)cc(C)c2)c1
REMARK SMILES IDX 15 1 14 2 13 3 12 4 10 5 11 6 9 8 8 9 7 11 1 12 2 13 3 14
REMARK SMILES IDX 93 15 4 16 5 17 6 18 85 19 86 20 92 21 87 22 90 23 88 24
REMARK SMILES IDX 89 25 91 26 16 27 17 28 18 29 19 30 20 31 21 33 22 34 23 35
REMARK SMILES IDX 84 36 24 37 83 38 25 39 26 40 27 41 77 42 28 43 82 44 76 45
REMARK SMILES IDX 78 46 29 47 81 48 75 49 74 50 30 52 62 53 42 54 61 55 43 56
REMARK SMILES IDX 46 57 60 58 79 59 44 60 45 61 59 63 80 64 47 65 31 66 32 67
REMARK SMILES IDX 40 68 33 69 34 70 38 71 41 72 35 73 36 74 39 75 37 76 63 77
REMARK SMILES IDX 64 78 72 79 65 80 66 81 70 82 73 83 67 84 68 85 71 86 69 87
REMARK SMILES IDX 48 88 49 89 57 90 50 91 51 92 55 93 58 94 52 95 53 96 56 97
REMARK SMILES IDX 54 98
REMARK H PARENT 12 7 8 10 19 32 78 51 46 62
REMARK Flexibility Score: inf
ROOT
ATOM      1  C   UNL A   1      34.028  25.976  25.960  1.00  0.00     0.002 C 
ENDROOT
BRANCH   1   2
ATOM      2  C   UNL A   1      34.910  25.035  25.129  1.00  0.00     0.021 C 
BRANCH   2   3
ATOM      3  C   UNL A   1      35.424  23.805  25.872  1.00  0.00     0.116 C 
BRANCH   3   4
ATOM      4  N   UNL A   1      34.519  23.334  26.893  1.00  0.00    -0.354 N 
ATOM      5  C   UNL A   1      33.462  22.475  26.780  1.00  0.00     0.247 C 
ATOM      6  O   UNL A   1      32.904  22.189  27.847  1.00  0.00    -0.272 OA
ATOM      7  H   UNL A   1      34.688  23.680  27.799  1.00  0.00     0.163 HD
BRANCH   5   8
ATOM      8  C   UNL A   1      32.903  22.015  25.398  1.00  0.00     0.200 C 
BRANCH   8   9
ATOM      9  N   UNL A   1      32.248  20.678  25.371  1.00  0.00    -0.370 N 
ATOM     10  H   UNL A   1      31.498  20.590  26.002  1.00  0.00     0.161 HD
BRANCH   9  11
ATOM     11  C   UNL A   1      32.493  19.540  24.628  1.00  0.00     0.038 A 
ATOM     12  C   UNL A   1      33.502  15.904  25.375  1.00  0.00     0.044 C 
ATOM     13  C   UNL A   1      33.105  17.143  24.633  1.00  0.00    -0.046 A 
ATOM     14  C   UNL A   1      32.947  17.086  23.251  1.00  0.00     0.042 A 
ATOM     15  C   UNL A   1      32.908  18.372  25.300  1.00  0.00     0.029 A 
ATOM     16  C   UNL A   1      32.529  18.217  22.580  1.00  0.00     0.125 A 
ATOM     17  F   UNL A   1      32.357  18.175  21.252  1.00  0.00    -0.207 F 
ATOM     18  C   UNL A   1      32.269  19.403  23.262  1.00  0.00     0.065 A 
ENDBRANCH   9  11
ENDBRANCH   8   9
BRANCH   8  19
ATOM     19  C   UNL A   1      32.068  23.059  24.658  1.00  0.00    -0.016 A 
ATOM     20  C   UNL A   1      32.322  23.355  23.312  1.00  0.00     0.009 A 
ATOM     21  C   UNL A   1      31.126  23.844  25.339  1.00  0.00     0.009 A 
ATOM     22  C   UNL A   1      31.879  24.548  22.740  1.00  0.00    -0.051 A 
ATOM     23  C   UNL A   1      30.525  24.946  24.712  1.00  0.00    -0.051 A 
ATOM     24  C   UNL A   1      32.552  25.054  21.496  1.00  0.00     0.044 C 
ATOM     25  C   UNL A   1      30.965  25.333  23.440  1.00  0.00     0.006 A 
ATOM     26  C   UNL A   1      29.496  25.773  25.424  1.00  0.00     0.044 C 
ENDBRANCH   8  19
ENDBRANCH   5   8
ENDBRANCH   3   4
ENDBRANCH   2   3
ENDBRANCH   1   2
BRANCH   1  27
ATOM     27  C   UNL A   1      33.415  27.174  25.221  1.00  0.00     0.002 C 
BRANCH  27  28
ATOM     28  C   UNL A   1      34.087  28.535  25.440  1.00  0.00     0.021 C 
BRANCH  28  29
ATOM     29  C   UNL A   1      34.437  28.819  26.889  1.00  0.00     0.116 C 
BRANCH  29  30
ATOM     30  N   UNL A   1      34.615  30.243  27.155  1.00  0.00    -0.352 N 
ATOM     31  C   UNL A   1      35.575  30.845  27.938  1.00  0.00     0.251 C 
ATOM     32  H   UNL A   1      33.968  30.848  26.723  1.00  0.00     0.163 HD
ATOM     33  O   UNL A   1      35.468  32.006  28.304  1.00  0.00    -0.269 OA
BRANCH  31  34
ATOM     34  C   UNL A   1      36.761  30.057  28.314  1.00  0.00     0.039 A 
ATOM     35  C   UNL A   1      36.807  29.328  29.510  1.00  0.00     0.014 A 
ATOM     36  C   UNL A   1      37.847  30.080  27.446  1.00  0.00     0.014 A 
ATOM     37  C   UNL A   1      37.942  28.572  29.810  1.00  0.00     0.010 A 
ATOM     38  C   UNL A   1      38.908  29.249  27.677  1.00  0.00     0.010 A 
ATOM     39  C   UNL A   1      38.983  28.537  28.882  1.00  0.00    -0.014 A 
BRANCH  39  40
ATOM     40  C   UNL A   1      40.270  27.893  29.081  1.00  0.00     0.031 A 
ATOM     41  C   UNL A   1      40.570  26.553  28.559  1.00  0.00     0.074 A 
ATOM     42  C   UNL A   1      41.239  28.719  29.532  1.00  0.00     0.049 A 
ATOM     43  N   UNL A   1      41.596  25.858  28.912  1.00  0.00    -0.248 NA
ATOM     44  C   UNL A   1      39.729  25.872  27.582  1.00  0.00     0.031 C 
ATOM     45  C   UNL A   1      42.684  28.587  29.440  1.00  0.00     0.029 A 
ATOM     46  N   UNL A   1      41.047  29.886  30.288  1.00  0.00    -0.354 N 
ATOM     47  C   UNL A   1      41.730  24.819  28.017  1.00  0.00     0.074 A 
ATOM     48  C   UNL A   1      40.489  24.812  27.275  1.00  0.00     0.031 C 
ATOM     49  C   UNL A   1      43.248  29.427  30.325  1.00  0.00     0.029 A 
ATOM     50  C   UNL A   1      42.168  29.983  31.129  1.00  0.00     0.049 A 
ATOM     51  H   UNL A   1      40.285  30.507  30.239  1.00  0.00     0.167 HD
ATOM     52  C   UNL A   1      42.946  24.202  27.909  1.00  0.00     0.037 A 
ATOM     53  C   UNL A   1      42.009  29.784  32.471  1.00  0.00     0.037 A 
ATOM     54  C   UNL A   1      43.892  24.783  28.863  1.00  0.00     0.049 A 
ATOM     55  C   UNL A   1      42.797  28.598  32.962  1.00  0.00     0.074 A 
ATOM     56  C   UNL A   1      44.865  25.758  28.717  1.00  0.00     0.029 A 
ATOM     57  N   UNL A   1      43.681  24.633  30.230  1.00  0.00    -0.354 N 
ATOM     58  N   UNL A   1      43.068  27.549  32.233  1.00  0.00    -0.248 NA
ATOM     59  C   UNL A   1      43.389  28.535  34.291  1.00  0.00     0.031 C 
ATOM     60  C   UNL A   1      45.197  26.242  30.006  1.00  0.00     0.029 A 
ATOM     61  C   UNL A   1      44.442  25.545  30.936  1.00  0.00     0.049 A 
ATOM     62  H   UNL A   1      43.077  23.971  30.638  1.00  0.00     0.167 HD
ATOM     63  C   UNL A   1      43.901  26.720  32.935  1.00  0.00     0.074 A 
ATOM     64  C   UNL A   1      44.059  27.371  34.223  1.00  0.00     0.031 C 
ATOM     65  C   UNL A   1      44.429  25.583  32.389  1.00  0.00     0.037 A 
BRANCH  52  66
ATOM     66  C   UNL A   1      43.385  23.318  26.756  1.00  0.00     0.064 A 
ATOM     67  C   UNL A   1      43.011  21.953  26.707  1.00  0.00     0.173 A 
ATOM     68  C   UNL A   1      44.205  23.732  25.691  1.00  0.00     0.173 A 
ATOM     69  F   UNL A   1      42.147  21.428  27.586  1.00  0.00    -0.203 F 
ATOM     70  C   UNL A   1      43.508  21.063  25.751  1.00  0.00     0.198 A 
ATOM     71  C   UNL A   1      44.735  22.833  24.753  1.00  0.00     0.198 A 
ATOM     72  F   UNL A   1      44.477  25.024  25.483  1.00  0.00    -0.203 F 
ATOM     73  F   UNL A   1      43.126  19.777  25.775  1.00  0.00    -0.200 F 
ATOM     74  C   UNL A   1      44.396  21.496  24.792  1.00  0.00     0.200 A 
ATOM     75  F   UNL A   1      45.576  23.278  23.809  1.00  0.00    -0.200 F 
ATOM     76  F   UNL A   1      44.902  20.638  23.896  1.00  0.00    -0.200 F 
ENDBRANCH  52  66
BRANCH  53  77
ATOM     77  C   UNL A   1      40.650  30.184  32.948  1.00  0.00     0.064 A 
ATOM     78  C   UNL A   1      40.297  31.547  32.847  1.00  0.00     0.173 A 
ATOM     79  C   UNL A   1      39.604  29.256  33.049  1.00  0.00     0.173 A 
ATOM     80  F   UNL A   1      41.258  32.479  32.741  1.00  0.00    -0.203 F 
ATOM     81  C   UNL A   1      38.968  31.946  32.709  1.00  0.00     0.198 A 
ATOM     82  C   UNL A   1      38.271  29.663  32.925  1.00  0.00     0.198 A 
ATOM     83  F   UNL A   1      39.866  27.945  33.149  1.00  0.00    -0.203 F 
ATOM     84  F   UNL A   1      38.679  33.236  32.485  1.00  0.00    -0.200 F 
ATOM     85  C   UNL A   1      37.958  30.999  32.718  1.00  0.00     0.200 A 
ATOM     86  F   UNL A   1      37.291  28.747  32.926  1.00  0.00    -0.200 F 
ATOM     87  F   UNL A   1      36.689  31.369  32.497  1.00  0.00    -0.200 F 
ENDBRANCH  53  77
BRANCH  65  88
ATOM     88  C   UNL A   1      45.114  24.469  33.144  1.00  0.00     0.064 A 
ATOM     89  C   UNL A   1      46.431  24.546  33.626  1.00  0.00     0.173 A 
ATOM     90  C   UNL A   1      44.390  23.316  33.544  1.00  0.00     0.173 A 
ATOM     91  F   UNL A   1      47.180  25.640  33.443  1.00  0.00    -0.203 F 
ATOM     92  C   UNL A   1      47.006  23.518  34.377  1.00  0.00     0.198 A 
ATOM     93  C   UNL A   1      44.946  22.324  34.349  1.00  0.00     0.198 A 
ATOM     94  F   UNL A   1      43.108  23.128  33.198  1.00  0.00    -0.203 F 
ATOM     95  F   UNL A   1      48.284  23.620  34.766  1.00  0.00    -0.200 F 
ATOM     96  C   UNL A   1      46.261  22.414  34.748  1.00  0.00     0.200 A 
ATOM     97  F   UNL A   1      44.189  21.295  34.753  1.00  0.00    -0.200 F 
ATOM     98  F   UNL A   1      46.803  21.455  35.509  1.00  0.00    -0.200 F 
ENDBRANCH  65  88
ENDBRANCH  39  40
ENDBRANCH  31  34
ENDBRANCH  29  30
ENDBRANCH  28  29
ENDBRANCH  27  28
ENDBRANCH   1  27
TORSDOF 16
ENDMDL
MODEL 2
REMARK VINA RESULT:     -13.6      3.984     10.027
REMARK SMILES Cc1cc(F)cc(N[C@H](C(=O)NCCCCCCNC(=O)c2ccc(-c3c4nc(c(-c5c(F)c(F)c(F)c(F)c5F)c5ccc([nH]5)c(-c5c(F)c(F)c(F)c(F)c5F)c5nc(c(-c6c(F)c(F)c(F)c(F)c6F)c6ccc3[nH]6)C=C5)C=C4)cc2)c2cc(C)cc(C)c2)c1
REMARK SMILES IDX 15 1 14 2 13 3 12 4 10 5 11 6 9 8 8 9 7 11 1 12 2 13 3 14
REMARK SMILES IDX 93 15 4 16 5 17 6 18 85 19 86 20 92 21 87 22 90 23 88 24
REMARK SMILES IDX 89 25 91 26 16 27 17 28 18 29 19 30 20 31 21 33 22 34 23 35
REMARK SMILES IDX 84 36 24 37 83 38 25 39 26 40 27 41 77 42 28 43 82 44 76 45
REMARK SMILES IDX 78 46 29 47 81 48 75 49 74 50 30 52 62 53 42 54 61 55 43 56
REMARK SMILES IDX 46 57 60 58 79 59 44 60 45 61 59 63 80 64 47 65 31 66 32 67
REMARK SMILES IDX 40 68 33 69 34 70 38 71 41 72 35 73 36 74 39 75 37 76 63 77
REMARK SMILES IDX 64 78 72 79 65 80 66 81 70 82 73 83 67 84 68 85 71 86 69 87
REMARK SMILES IDX 48 88 49 89 57 90 50 91 51 92 55 93 58 94 52 95 53 96 56 97
REMARK SMILES IDX 54 98
REMARK H PARENT 12 7 8 10 19 32 78 51 46 62
REMARK Flexibility Score: inf
ROOT
ATOM      1  C   UNL A   1      34.722  24.520  23.865  1.00  0.00     0.002 C 
ENDROOT
BRANCH   1   2
ATOM      2  C   UNL A   1      34.328  25.403  25.056  1.00  0.00     0.021 C 
BRANCH   2   3
ATOM      3  C   UNL A   1      33.397  26.565  24.721  1.00  0.00     0.116 C 
BRANCH   3   4
ATOM      4  N   UNL A   1      32.615  27.013  25.848  1.00  0.00    -0.354 N 
ATOM      5  C   UNL A   1      31.430  26.524  26.326  1.00  0.00     0.247 C 
ATOM      6  O   UNL A   1      31.023  27.062  27.363  1.00  0.00    -0.272 OA
ATOM      7  H   UNL A   1      32.987  27.777  26.344  1.00  0.00     0.163 HD
BRANCH   5   8
ATOM      8  C   UNL A   1      30.580  25.478  25.540  1.00  0.00     0.200 C 
BRANCH   8   9
ATOM      9  N   UNL A   1      30.125  25.893  24.185  1.00  0.00    -0.370 N 
ATOM     10  H   UNL A   1      30.445  25.308  23.461  1.00  0.00     0.161 HD
BRANCH   9  11
ATOM     11  C   UNL A   1      29.337  26.941  23.750  1.00  0.00     0.038 A 
ATOM     12  C   UNL A   1      29.877  30.157  21.710  1.00  0.00     0.044 C 
ATOM     13  C   UNL A   1      29.212  29.069  22.495  1.00  0.00    -0.046 A 
ATOM     14  C   UNL A   1      27.837  29.129  22.708  1.00  0.00     0.042 A 
ATOM     15  C   UNL A   1      29.948  27.997  23.044  1.00  0.00     0.029 A 
ATOM     16  C   UNL A   1      27.221  28.098  23.387  1.00  0.00     0.125 A 
ATOM     17  F   UNL A   1      25.897  28.131  23.586  1.00  0.00    -0.207 F 
ATOM     18  C   UNL A   1      27.952  27.010  23.858  1.00  0.00     0.065 A 
ENDBRANCH   9  11
ENDBRANCH   8   9
BRANCH   8  19
ATOM     19  C   UNL A   1      31.149  24.060  25.526  1.00  0.00    -0.016 A 
ATOM     20  C   UNL A   1      31.666  23.484  26.694  1.00  0.00     0.009 A 
ATOM     21  C   UNL A   1      31.300  23.355  24.322  1.00  0.00     0.009 A 
ATOM     22  C   UNL A   1      32.539  22.398  26.638  1.00  0.00    -0.051 A 
ATOM     23  C   UNL A   1      32.022  22.154  24.281  1.00  0.00    -0.051 A 
ATOM     24  C   UNL A   1      33.432  22.119  27.813  1.00  0.00     0.044 C 
ATOM     25  C   UNL A   1      32.701  21.725  25.429  1.00  0.00     0.006 A 
ATOM     26  C   UNL A   1      32.163  21.380  23.004  1.00  0.00     0.044 C 
ENDBRANCH   8  19
ENDBRANCH   5   8
ENDBRANCH   3   4
ENDBRANCH   2   3
ENDBRANCH   1   2
BRANCH   1  27
ATOM     27  C   UNL A   1      35.753  23.415  24.139  1.00  0.00     0.002 C 
BRANCH  27  28
ATOM     28  C   UNL A   1      36.156  23.199  25.603  1.00  0.00     0.021 C 
BRANCH  28  29
ATOM     29  C   UNL A   1      37.379  23.992  26.025  1.00  0.00     0.116 C 
BRANCH  29  30
ATOM     30  N   UNL A   1      38.461  23.141  26.508  1.00  0.00    -0.352 N 
ATOM     31  C   UNL A   1      39.687  23.528  27.003  1.00  0.00     0.251 C 
ATOM     32  H   UNL A   1      38.296  22.170  26.476  1.00  0.00     0.163 HD
ATOM     33  O   UNL A   1      40.609  22.735  27.125  1.00  0.00    -0.269 OA
BRANCH  31  34
ATOM     34  C   UNL A   1      39.861  24.933  27.409  1.00  0.00     0.039 A 
ATOM     35  C   UNL A   1      40.305  25.906  26.503  1.00  0.00     0.014 A 
ATOM     36  C   UNL A   1      39.590  25.256  28.734  1.00  0.00     0.014 A 
ATOM     37  C   UNL A   1      40.428  27.232  26.926  1.00  0.00     0.010 A 
ATOM     38  C   UNL A   1      39.593  26.568  29.118  1.00  0.00     0.010 A 
ATOM     39  C   UNL A   1      40.063  27.550  28.234  1.00  0.00    -0.014 A 
BRANCH  39  40
ATOM     40  C   UNL A   1      40.228  28.848  28.865  1.00  0.00     0.031 A 
ATOM     41  C   UNL A   1      39.143  29.837  28.929  1.00  0.00     0.074 A 
ATOM     42  C   UNL A   1      41.345  28.961  29.616  1.00  0.00     0.049 A 
ATOM     43  N   UNL A   1      39.315  31.071  29.259  1.00  0.00    -0.248 NA
ATOM     44  C   UNL A   1      37.755  29.517  28.623  1.00  0.00     0.031 C 
ATOM     45  C   UNL A   1      41.639  29.879  30.704  1.00  0.00     0.029 A 
ATOM     46  N   UNL A   1      42.538  28.241  29.440  1.00  0.00    -0.354 N 
ATOM     47  C   UNL A   1      38.075  31.616  29.513  1.00  0.00     0.074 A 
ATOM     48  C   UNL A   1      37.136  30.642  29.005  1.00  0.00     0.031 C 
ATOM     49  C   UNL A   1      42.968  29.888  30.910  1.00  0.00     0.029 A 
ATOM     50  C   UNL A   1      43.568  29.111  29.834  1.00  0.00     0.049 A 
ATOM     51  H   UNL A   1      42.632  27.319  29.109  1.00  0.00     0.167 HD
ATOM     52  C   UNL A   1      38.005  32.750  30.274  1.00  0.00     0.037 A 
ATOM     53  C   UNL A   1      44.413  29.612  28.884  1.00  0.00     0.037 A 
ATOM     54  C   UNL A   1      39.350  33.198  30.639  1.00  0.00     0.049 A 
ATOM     55  C   UNL A   1      44.328  31.112  28.790  1.00  0.00     0.074 A 
ATOM     56  C   UNL A   1      40.107  33.005  31.783  1.00  0.00     0.029 A 
ATOM     57  N   UNL A   1      40.225  33.641  29.652  1.00  0.00    -0.354 N 
ATOM     58  N   UNL A   1      43.250  31.801  29.050  1.00  0.00    -0.248 NA
ATOM     59  C   UNL A   1      45.471  31.951  28.456  1.00  0.00     0.031 C 
ATOM     60  C   UNL A   1      41.460  33.273  31.463  1.00  0.00     0.029 A 
ATOM     61  C   UNL A   1      41.521  33.653  30.132  1.00  0.00     0.049 A 
ATOM     62  H   UNL A   1      39.961  33.908  28.743  1.00  0.00     0.167 HD
ATOM     63  C   UNL A   1      43.546  33.136  28.991  1.00  0.00     0.074 A 
ATOM     64  C   UNL A   1      44.943  33.179  28.599  1.00  0.00     0.031 C 
ATOM     65  C   UNL A   1      42.632  34.102  29.309  1.00  0.00     0.037 A 
BRANCH  52  66
ATOM     66  C   UNL A   1      36.755  33.275  30.958  1.00  0.00     0.064 A 
ATOM     67  C   UNL A   1      36.528  33.037  32.335  1.00  0.00     0.173 A 
ATOM     68  C   UNL A   1      35.722  33.982  30.315  1.00  0.00     0.173 A 
ATOM     69  F   UNL A   1      37.461  32.473  33.114  1.00  0.00    -0.203 F 
ATOM     70  C   UNL A   1      35.332  33.369  32.977  1.00  0.00     0.198 A 
ATOM     71  C   UNL A   1      34.506  34.281  30.947  1.00  0.00     0.198 A 
ATOM     72  F   UNL A   1      35.871  34.458  29.075  1.00  0.00    -0.203 F 
ATOM     73  F   UNL A   1      35.177  33.096  34.281  1.00  0.00    -0.200 F 
ATOM     74  C   UNL A   1      34.307  33.962  32.275  1.00  0.00     0.200 A 
ATOM     75  F   UNL A   1      33.530  34.886  30.255  1.00  0.00    -0.200 F 
ATOM     76  F   UNL A   1      33.145  34.249  32.878  1.00  0.00    -0.200 F 
ENDBRANCH  52  66
BRANCH  53  77
ATOM     77  C   UNL A   1      44.591  28.676  27.732  1.00  0.00     0.064 A 
ATOM     78  C   UNL A   1      45.222  27.439  27.986  1.00  0.00     0.173 A 
ATOM     79  C   UNL A   1      43.792  28.765  26.583  1.00  0.00     0.173 A 
ATOM     80  F   UNL A   1      45.994  27.296  29.076  1.00  0.00    -0.203 F 
ATOM     81  C   UNL A   1      44.953  26.312  27.211  1.00  0.00     0.198 A 
ATOM     82  C   UNL A   1      43.537  27.634  25.799  1.00  0.00     0.198 A 
ATOM     83  F   UNL A   1      43.164  29.909  26.279  1.00  0.00    -0.203 F 
ATOM     84  F   UNL A   1      45.469  25.125  27.559  1.00  0.00    -0.200 F 
ATOM     85  C   UNL A   1      44.086  26.404  26.135  1.00  0.00     0.200 A 
ATOM     86  F   UNL A   1      42.692  27.719  24.761  1.00  0.00    -0.200 F 
ATOM     87  F   UNL A   1      43.756  25.306  25.443  1.00  0.00    -0.200 F 
ENDBRANCH  53  77
BRANCH  65  88
ATOM     88  C   UNL A   1      42.757  35.577  29.012  1.00  0.00     0.064 A 
ATOM     89  C   UNL A   1      42.097  36.220  27.953  1.00  0.00     0.173 A 
ATOM     90  C   UNL A   1      43.448  36.437  29.905  1.00  0.00     0.173 A 
ATOM     91  F   UNL A   1      41.295  35.548  27.118  1.00  0.00    -0.203 F 
ATOM     92  C   UNL A   1      42.188  37.599  27.751  1.00  0.00     0.198 A 
ATOM     93  C   UNL A   1      43.480  37.820  29.738  1.00  0.00     0.198 A 
ATOM     94  F   UNL A   1      44.085  35.970  30.988  1.00  0.00    -0.203 F 
ATOM     95  F   UNL A   1      41.582  38.153  26.692  1.00  0.00    -0.200 F 
ATOM     96  C   UNL A   1      42.868  38.399  28.649  1.00  0.00     0.200 A 
ATOM     97  F   UNL A   1      44.088  38.586  30.655  1.00  0.00    -0.200 F 
ATOM     98  F   UNL A   1      42.910  39.727  28.478  1.00  0.00    -0.200 F 
ENDBRANCH  65  88
ENDBRANCH  39  40
ENDBRANCH  31  34
ENDBRANCH  29  30
ENDBRANCH  28  29
ENDBRANCH  27  28
ENDBRANCH   1  27
TORSDOF 16
ENDMDL
MODEL 3
REMARK VINA RESULT:     -13.5      4.255     10.257
REMARK SMILES Cc1cc(F)cc(N[C@H](C(=O)NCCCCCCNC(=O)c2ccc(-c3c4nc(c(-c5c(F)c(F)c(F)c(F)c5F)c5ccc([nH]5)c(-c5c(F)c(F)c(F)c(F)c5F)c5nc(c(-c6c(F)c(F)c(F)c(F)c6F)c6ccc3[nH]6)C=C5)C=C4)cc2)c2cc(C)cc(C)c2)c1
REMARK SMILES IDX 15 1 14 2 13 3 12 4 10 5 11 6 9 8 8 9 7 11 1 12 2 13 3 14
REMARK SMILES IDX 93 15 4 16 5 17 6 18 85 19 86 20 92 21 87 22 90 23 88 24
REMARK SMILES IDX 89 25 91 26 16 27 17 28 18 29 19 30 20 31 21 33 22 34 23 35
REMARK SMILES IDX 84 36 24 37 83 38 25 39 26 40 27 41 77 42 28 43 82 44 76 45
REMARK SMILES IDX 78 46 29 47 81 48 75 49 74 50 30 52 62 53 42 54 61 55 43 56
REMARK SMILES IDX 46 57 60 58 79 59 44 60 45 61 59 63 80 64 47 65 31 66 32 67
REMARK SMILES IDX 40 68 33 69 34 70 38 71 41 72 35 73 36 74 39 75 37 76 63 77
REMARK SMILES IDX 64 78 72 79 65 80 66 81 70 82 73 83 67 84 68 85 71 86 69 87
REMARK SMILES IDX 48 88 49 89 57 90 50 91 51 92 55 93 58 94 52 95 53 96 56 97
REMARK SMILES IDX 54 98
REMARK H PARENT 12 7 8 10 19 32 78 51 46 62
REMARK Flexibility Score: inf
ROOT
ATOM      1  C   UNL A   1      34.365  24.491  23.870  1.00  0.00     0.002 C 
ENDROOT
BRANCH   1   2
ATOM      2  C   UNL A   1      33.211  24.087  22.943  1.00  0.00     0.021 C 
BRANCH   2   3
ATOM      3  C   UNL A   1      32.536  25.241  22.208  1.00  0.00     0.116 C 
BRANCH   3   4
ATOM      4  N   UNL A   1      33.461  26.262  21.775  1.00  0.00    -0.354 N 
ATOM      5  C   UNL A   1      33.481  27.594  22.081  1.00  0.00     0.247 C 
ATOM      6  O   UNL A   1      34.444  28.221  21.622  1.00  0.00    -0.272 OA
ATOM      7  H   UNL A   1      34.180  25.954  21.177  1.00  0.00     0.163 HD
BRANCH   5   8
ATOM      8  C   UNL A   1      32.301  28.301  22.815  1.00  0.00     0.200 C 
BRANCH   8   9
ATOM      9  N   UNL A   1      30.981  28.252  22.128  1.00  0.00    -0.370 N 
ATOM     10  H   UNL A   1      30.959  27.649  21.350  1.00  0.00     0.161 HD
BRANCH   9  11
ATOM     11  C   UNL A   1      29.781  28.891  22.375  1.00  0.00     0.038 A 
ATOM     12  C   UNL A   1      28.281  32.356  21.639  1.00  0.00     0.044 C 
ATOM     13  C   UNL A   1      28.424  30.943  22.114  1.00  0.00    -0.046 A 
ATOM     14  C   UNL A   1      27.341  30.320  22.728  1.00  0.00     0.042 A 
ATOM     15  C   UNL A   1      29.638  30.235  21.974  1.00  0.00     0.029 A 
ATOM     16  C   UNL A   1      27.461  29.002  23.116  1.00  0.00     0.125 A 
ATOM     17  F   UNL A   1      26.423  28.382  23.694  1.00  0.00    -0.207 F 
ATOM     18  C   UNL A   1      28.642  28.294  22.904  1.00  0.00     0.065 A 
ENDBRANCH   9  11
ENDBRANCH   8   9
BRANCH   8  19
ATOM     19  C   UNL A   1      32.168  27.963  24.300  1.00  0.00    -0.016 A 
ATOM     20  C   UNL A   1      32.797  28.751  25.272  1.00  0.00     0.009 A 
ATOM     21  C   UNL A   1      31.534  26.783  24.718  1.00  0.00     0.009 A 
ATOM     22  C   UNL A   1      33.038  28.259  26.555  1.00  0.00    -0.051 A 
ATOM     23  C   UNL A   1      31.608  26.365  26.054  1.00  0.00    -0.051 A 
ATOM     24  C   UNL A   1      34.105  28.902  27.394  1.00  0.00     0.044 C 
ATOM     25  C   UNL A   1      32.426  27.071  26.947  1.00  0.00     0.006 A 
ATOM     26  C   UNL A   1      30.911  25.120  26.514  1.00  0.00     0.044 C 
ENDBRANCH   8  19
ENDBRANCH   5   8
ENDBRANCH   3   4
ENDBRANCH   2   3
ENDBRANCH   1   2
BRANCH   1  27
ATOM     27  C   UNL A   1      35.456  23.437  24.110  1.00  0.00     0.002 C 
BRANCH  27  28
ATOM     28  C   UNL A   1      35.953  23.277  25.552  1.00  0.00     0.021 C 
BRANCH  28  29
ATOM     29  C   UNL A   1      37.241  24.024  25.843  1.00  0.00     0.116 C 
BRANCH  29  30
ATOM     30  N   UNL A   1      38.308  23.145  26.309  1.00  0.00    -0.352 N 
ATOM     31  C   UNL A   1      39.529  23.502  26.836  1.00  0.00     0.251 C 
ATOM     32  H   UNL A   1      38.134  22.178  26.239  1.00  0.00     0.163 HD
ATOM     33  O   UNL A   1      40.441  22.696  26.941  1.00  0.00    -0.269 OA
BRANCH  31  34
ATOM     34  C   UNL A   1      39.711  24.889  27.295  1.00  0.00     0.039 A 
ATOM     35  C   UNL A   1      40.260  25.871  26.460  1.00  0.00     0.014 A 
ATOM     36  C   UNL A   1      39.337  25.186  28.601  1.00  0.00     0.014 A 
ATOM     37  C   UNL A   1      40.386  27.180  26.930  1.00  0.00     0.010 A 
ATOM     38  C   UNL A   1      39.347  26.487  29.023  1.00  0.00     0.010 A 
ATOM     39  C   UNL A   1      39.920  27.475  28.211  1.00  0.00    -0.014 A 
BRANCH  39  40
ATOM     40  C   UNL A   1      40.070  28.751  28.891  1.00  0.00     0.031 A 
ATOM     41  C   UNL A   1      38.984  29.737  28.964  1.00  0.00     0.074 A 
ATOM     42  C   UNL A   1      41.169  28.836  29.672  1.00  0.00     0.049 A 
ATOM     43  N   UNL A   1      39.147  30.958  29.342  1.00  0.00    -0.248 NA
ATOM     44  C   UNL A   1      37.603  29.428  28.615  1.00  0.00     0.031 C 
ATOM     45  C   UNL A   1      41.437  29.714  30.799  1.00  0.00     0.029 A 
ATOM     46  N   UNL A   1      42.366  28.122  29.499  1.00  0.00    -0.354 N 
ATOM     47  C   UNL A   1      37.902  31.494  29.587  1.00  0.00     0.074 A 
ATOM     48  C   UNL A   1      36.975  30.540  29.022  1.00  0.00     0.031 C 
ATOM     49  C   UNL A   1      42.761  29.715  31.036  1.00  0.00     0.029 A 
ATOM     50  C   UNL A   1      43.386  28.977  29.947  1.00  0.00     0.049 A 
ATOM     51  H   UNL A   1      42.468  27.212  29.138  1.00  0.00     0.167 HD
ATOM     52  C   UNL A   1      37.813  32.601  30.386  1.00  0.00     0.037 A 
ATOM     53  C   UNL A   1      44.253  29.511  29.036  1.00  0.00     0.037 A 
ATOM     54  C   UNL A   1      39.149  33.035  30.797  1.00  0.00     0.049 A 
ATOM     55  C   UNL A   1      44.170  31.014  28.993  1.00  0.00     0.074 A 
ATOM     56  C   UNL A   1      39.879  32.801  31.951  1.00  0.00     0.029 A 
ATOM     57  N   UNL A   1      40.047  33.512  29.848  1.00  0.00    -0.354 N 
ATOM     58  N   UNL A   1      43.086  31.693  29.252  1.00  0.00    -0.248 NA
ATOM     59  C   UNL A   1      45.321  31.863  28.716  1.00  0.00     0.031 C 
ATOM     60  C   UNL A   1      41.239  33.080  31.674  1.00  0.00     0.029 A 
ATOM     61  C   UNL A   1      41.331  33.507  30.358  1.00  0.00     0.049 A 
ATOM     62  H   UNL A   1      39.804  33.811  28.943  1.00  0.00     0.167 HD
ATOM     63  C   UNL A   1      43.383  33.030  29.248  1.00  0.00     0.074 A 
ATOM     64  C   UNL A   1      44.789  33.086  28.890  1.00  0.00     0.031 C 
ATOM     65  C   UNL A   1      42.461  33.984  29.578  1.00  0.00     0.037 A 
BRANCH  52  66
ATOM     66  C   UNL A   1      36.547  33.102  31.057  1.00  0.00     0.064 A 
ATOM     67  C   UNL A   1      35.601  33.872  30.337  1.00  0.00     0.173 A 
ATOM     68  C   UNL A   1      36.218  32.899  32.410  1.00  0.00     0.173 A 
ATOM     69  F   UNL A   1      35.711  34.065  29.016  1.00  0.00    -0.203 F 
ATOM     70  C   UNL A   1      34.497  34.479  30.942  1.00  0.00     0.198 A 
ATOM     71  C   UNL A   1      35.133  33.539  33.026  1.00  0.00     0.198 A 
ATOM     72  F   UNL A   1      36.897  32.033  33.169  1.00  0.00    -0.203 F 
ATOM     73  F   UNL A   1      33.652  35.212  30.203  1.00  0.00    -0.200 F 
ATOM     74  C   UNL A   1      34.280  34.340  32.294  1.00  0.00     0.200 A 
ATOM     75  F   UNL A   1      34.920  33.367  34.339  1.00  0.00    -0.200 F 
ATOM     76  F   UNL A   1      33.244  34.950  32.884  1.00  0.00    -0.200 F 
ENDBRANCH  52  66
BRANCH  53  77
ATOM     77  C   UNL A   1      44.458  28.616  27.856  1.00  0.00     0.064 A 
ATOM     78  C   UNL A   1      45.058  27.360  28.085  1.00  0.00     0.173 A 
ATOM     79  C   UNL A   1      43.705  28.763  26.682  1.00  0.00     0.173 A 
ATOM     80  F   UNL A   1      45.786  27.161  29.196  1.00  0.00    -0.203 F 
ATOM     81  C   UNL A   1      44.800  26.268  27.258  1.00  0.00     0.198 A 
ATOM     82  C   UNL A   1      43.461  27.668  25.847  1.00  0.00     0.198 A 
ATOM     83  F   UNL A   1      43.108  29.930  26.400  1.00  0.00    -0.203 F 
ATOM     84  F   UNL A   1      45.282  25.059  27.579  1.00  0.00    -0.200 F 
ATOM     85  C   UNL A   1      43.976  26.417  26.155  1.00  0.00     0.200 A 
ATOM     86  F   UNL A   1      42.657  27.808  24.782  1.00  0.00    -0.200 F 
ATOM     87  F   UNL A   1      43.654  25.351  25.409  1.00  0.00    -0.200 F 
ENDBRANCH  53  77
BRANCH  65  88
ATOM     88  C   UNL A   1      42.593  35.469  29.337  1.00  0.00     0.064 A 
ATOM     89  C   UNL A   1      43.417  36.314  30.097  1.00  0.00     0.173 A 
ATOM     90  C   UNL A   1      41.989  36.073  28.204  1.00  0.00     0.173 A 
ATOM     91  F   UNL A   1      44.157  35.844  31.109  1.00  0.00    -0.203 F 
ATOM     92  C   UNL A   1      43.560  37.671  29.801  1.00  0.00     0.198 A 
ATOM     93  C   UNL A   1      42.188  37.411  27.873  1.00  0.00     0.198 A 
ATOM     94  F   UNL A   1      41.213  35.378  27.359  1.00  0.00    -0.203 F 
ATOM     95  F   UNL A   1      44.317  38.444  30.592  1.00  0.00    -0.200 F 
ATOM     96  C   UNL A   1      42.956  38.216  28.684  1.00  0.00     0.200 A 
ATOM     97  F   UNL A   1      41.649  37.905  26.750  1.00  0.00    -0.200 F 
ATOM     98  F   UNL A   1      43.137  39.508  28.377  1.00  0.00    -0.200 F 
ENDBRANCH  65  88
ENDBRANCH  39  40
ENDBRANCH  31  34
ENDBRANCH  29  30
ENDBRANCH  28  29
ENDBRANCH  27  28
ENDBRANCH   1  27
TORSDOF 16
ENDMDL
