MODEL 1
REMARK VINA RESULT:     -13.1      0.000      0.000
REMARK SMILES CC(=O)Nc1cccc(C(=O)N2CCCC[C@@H]2C(=O)NCCCCCCNC(=O)c2ccc(-c3c4nc(c(-c5c(F)c(F)c(F)c(F)c5F)c5ccc([nH]5)c(-c5c(F)c(F)c(F)c(F)c5F)c5nc(c(-c6c(F)c(F)c(F)c(F)c6F)c6ccc3[nH]6)C=C5)C=C4)cc2)c1
REMARK SMILES IDX 23 1 22 2 21 3 20 4 18 5 19 6 17 8 12 9 13 10 14 11 16 12
REMARK SMILES IDX 15 13 10 14 11 15 9 16 5 17 6 18 93 19 7 20 8 21 4 22 1 23
REMARK SMILES IDX 2 24 3 25 24 27 25 28 26 29 27 30 28 31 29 33 30 34 31 35
REMARK SMILES IDX 92 36 32 37 91 38 33 39 34 40 35 41 85 42 36 43 90 44 84 45
REMARK SMILES IDX 86 46 37 47 89 48 83 49 82 50 38 52 70 53 50 54 69 55 51 56
REMARK SMILES IDX 54 57 68 58 87 59 52 60 53 61 67 63 88 64 55 65 39 66 40 67
REMARK SMILES IDX 48 68 41 69 42 70 46 71 49 72 43 73 44 74 47 75 45 76 71 77
REMARK SMILES IDX 72 78 80 79 73 80 74 81 78 82 81 83 75 84 76 85 79 86 77 87
REMARK SMILES IDX 56 88 57 89 65 90 58 91 59 92 63 93 66 94 60 95 61 96 64 97
REMARK SMILES IDX 62 98
REMARK H PARENT 20 7 4 26 27 32 86 51 54 62
REMARK Flexibility Score: inf
ROOT
ATOM      1  C   UNL A   1      32.539  29.982  27.040  1.00  0.00     0.002 C 
ENDROOT
BRANCH   1   2
ATOM      2  C   UNL A   1      33.702  29.303  26.308  1.00  0.00     0.021 C 
BRANCH   2   3
ATOM      3  C   UNL A   1      33.687  27.780  26.415  1.00  0.00     0.116 C 
BRANCH   3   4
ATOM      4  N   UNL A   1      32.410  27.333  26.935  1.00  0.00    -0.354 N 
ATOM      5  C   UNL A   1      31.507  26.473  26.391  1.00  0.00     0.242 C 
ATOM      6  O   UNL A   1      30.371  26.451  26.874  1.00  0.00    -0.273 OA
ATOM      7  H   UNL A   1      32.159  27.709  27.809  1.00  0.00     0.163 HD
BRANCH   5   8
ATOM      8  C   UNL A   1      31.842  25.637  25.137  1.00  0.00     0.174 C 
ATOM      9  N   UNL A   1      31.368  26.192  23.839  1.00  0.00    -0.327 N 
ATOM     10  C   UNL A   1      31.423  25.276  22.701  1.00  0.00     0.120 C 
ATOM     11  C   UNL A   1      30.739  23.952  22.979  1.00  0.00     0.022 C 
ATOM     12  C   UNL A   1      31.283  24.217  25.408  1.00  0.00     0.035 C 
ATOM     13  C   UNL A   1      31.351  23.289  24.202  1.00  0.00     0.004 C 
BRANCH   9  14
ATOM     14  C   UNL A   1      31.249  27.547  23.486  1.00  0.00     0.254 C 
ATOM     15  O   UNL A   1      32.236  28.226  23.196  1.00  0.00    -0.269 OA
BRANCH  14  16
ATOM     16  C   UNL A   1      29.941  28.247  23.465  1.00  0.00     0.042 A 
ATOM     17  C   UNL A   1      28.653  30.303  23.347  1.00  0.00     0.041 A 
ATOM     18  C   UNL A   1      27.479  29.542  23.301  1.00  0.00     0.026 A 
ATOM     19  C   UNL A   1      29.878  29.642  23.416  1.00  0.00     0.040 A 
ATOM     20  C   UNL A   1      27.533  28.145  23.284  1.00  0.00     0.003 A 
ATOM     21  C   UNL A   1      28.764  27.497  23.362  1.00  0.00     0.014 A 
BRANCH  17  22
ATOM     22  N   UNL A   1      28.518  31.701  23.376  1.00  0.00    -0.326 N 
ATOM     23  C   UNL A   1      28.136  32.242  20.966  1.00  0.00     0.114 C 
ATOM     24  C   UNL A   1      28.428  32.638  22.387  1.00  0.00     0.221 C 
ATOM     25  O   UNL A   1      28.533  33.829  22.689  1.00  0.00    -0.275 OA
ATOM     26  H   UNL A   1      28.481  32.078  24.285  1.00  0.00     0.169 HD
ENDBRANCH  17  22
ENDBRANCH  14  16
ENDBRANCH   9  14
ENDBRANCH   5   8
ENDBRANCH   3   4
ENDBRANCH   2   3
ENDBRANCH   1   2
BRANCH   1  27
ATOM     27  C   UNL A   1      31.660  30.871  26.155  1.00  0.00     0.002 C 
BRANCH  27  28
ATOM     28  C   UNL A   1      31.418  32.278  26.703  1.00  0.00     0.021 C 
BRANCH  28  29
ATOM     29  C   UNL A   1      32.648  32.929  27.326  1.00  0.00     0.116 C 
BRANCH  29  30
ATOM     30  N   UNL A   1      32.413  34.323  27.664  1.00  0.00    -0.352 N 
ATOM     31  C   UNL A   1      32.990  35.083  28.647  1.00  0.00     0.251 C 
ATOM     32  H   UNL A   1      31.746  34.788  27.107  1.00  0.00     0.163 HD
ATOM     33  O   UNL A   1      32.531  36.188  28.929  1.00  0.00    -0.269 OA
BRANCH  31  34
ATOM     34  C   UNL A   1      34.155  34.559  29.386  1.00  0.00     0.039 A 
ATOM     35  C   UNL A   1      33.953  33.965  30.633  1.00  0.00     0.014 A 
ATOM     36  C   UNL A   1      35.442  34.650  28.846  1.00  0.00     0.014 A 
ATOM     37  C   UNL A   1      35.035  33.406  31.313  1.00  0.00     0.010 A 
ATOM     38  C   UNL A   1      36.507  34.029  29.491  1.00  0.00     0.010 A 
ATOM     39  C   UNL A   1      36.313  33.402  30.732  1.00  0.00    -0.014 A 
BRANCH  39  40
ATOM     40  C   UNL A   1      37.456  32.731  31.401  1.00  0.00     0.031 A 
ATOM     41  C   UNL A   1      38.152  31.578  30.738  1.00  0.00     0.074 A 
ATOM     42  C   UNL A   1      37.824  33.128  32.634  1.00  0.00     0.049 A 
ATOM     43  N   UNL A   1      39.129  30.831  31.187  1.00  0.00    -0.248 NA
ATOM     44  C   UNL A   1      37.670  31.193  29.402  1.00  0.00     0.031 C 
ATOM     45  C   UNL A   1      37.193  34.204  33.399  1.00  0.00     0.029 A 
ATOM     46  N   UNL A   1      38.813  32.665  33.466  1.00  0.00    -0.354 N 
ATOM     47  C   UNL A   1      39.371  29.888  30.198  1.00  0.00     0.074 A 
ATOM     48  C   UNL A   1      38.403  30.119  29.148  1.00  0.00     0.031 C 
ATOM     49  C   UNL A   1      37.823  34.334  34.577  1.00  0.00     0.029 A 
ATOM     50  C   UNL A   1      38.874  33.326  34.668  1.00  0.00     0.049 A 
ATOM     51  H   UNL A   1      39.420  31.929  33.224  1.00  0.00     0.167 HD
ATOM     52  C   UNL A   1      40.329  28.932  30.161  1.00  0.00     0.037 A 
ATOM     53  C   UNL A   1      39.683  33.135  35.727  1.00  0.00     0.037 A 
ATOM     54  C   UNL A   1      41.302  28.719  31.201  1.00  0.00     0.049 A 
ATOM     55  C   UNL A   1      40.727  32.054  35.665  1.00  0.00     0.074 A 
ATOM     56  C   UNL A   1      42.351  27.817  31.230  1.00  0.00     0.029 A 
ATOM     57  N   UNL A   1      41.338  29.413  32.402  1.00  0.00    -0.354 N 
ATOM     58  N   UNL A   1      40.996  31.216  34.693  1.00  0.00    -0.248 NA
ATOM     59  C   UNL A   1      41.585  31.896  36.848  1.00  0.00     0.031 C 
ATOM     60  C   UNL A   1      42.990  27.929  32.469  1.00  0.00     0.029 A 
ATOM     61  C   UNL A   1      42.375  28.940  33.191  1.00  0.00     0.049 A 
ATOM     62  H   UNL A   1      40.719  30.136  32.656  1.00  0.00     0.167 HD
ATOM     63  C   UNL A   1      42.066  30.450  35.134  1.00  0.00     0.074 A 
ATOM     64  C   UNL A   1      42.411  30.936  36.454  1.00  0.00     0.031 C 
ATOM     65  C   UNL A   1      42.705  29.435  34.503  1.00  0.00     0.037 A 
BRANCH  52  66
ATOM     66  C   UNL A   1      40.375  28.042  28.951  1.00  0.00     0.064 A 
ATOM     67  C   UNL A   1      41.138  28.372  27.820  1.00  0.00     0.173 A 
ATOM     68  C   UNL A   1      39.681  26.822  28.938  1.00  0.00     0.173 A 
ATOM     69  F   UNL A   1      41.813  29.531  27.777  1.00  0.00    -0.203 F 
ATOM     70  C   UNL A   1      41.180  27.531  26.712  1.00  0.00     0.198 A 
ATOM     71  C   UNL A   1      39.750  25.968  27.841  1.00  0.00     0.198 A 
ATOM     72  F   UNL A   1      38.940  26.453  29.994  1.00  0.00    -0.203 F 
ATOM     73  F   UNL A   1      41.875  27.893  25.624  1.00  0.00    -0.200 F 
ATOM     74  C   UNL A   1      40.492  26.327  26.725  1.00  0.00     0.200 A 
ATOM     75  F   UNL A   1      39.097  24.798  27.860  1.00  0.00    -0.200 F 
ATOM     76  F   UNL A   1      40.540  25.514  25.661  1.00  0.00    -0.200 F 
ENDBRANCH  52  66
BRANCH  53  77
ATOM     77  C   UNL A   1      39.547  33.997  36.930  1.00  0.00     0.064 A 
ATOM     78  C   UNL A   1      40.195  35.239  37.003  1.00  0.00     0.173 A 
ATOM     79  C   UNL A   1      38.774  33.600  38.031  1.00  0.00     0.173 A 
ATOM     80  F   UNL A   1      40.962  35.654  35.984  1.00  0.00    -0.203 F 
ATOM     81  C   UNL A   1      40.093  36.039  38.138  1.00  0.00     0.198 A 
ATOM     82  C   UNL A   1      38.648  34.415  39.154  1.00  0.00     0.198 A 
ATOM     83  F   UNL A   1      38.130  32.425  38.011  1.00  0.00    -0.203 F 
ATOM     84  F   UNL A   1      40.762  37.199  38.200  1.00  0.00    -0.200 F 
ATOM     85  C   UNL A   1      39.316  35.629  39.211  1.00  0.00     0.200 A 
ATOM     86  F   UNL A   1      37.884  34.023  40.182  1.00  0.00    -0.200 F 
ATOM     87  F   UNL A   1      39.215  36.401  40.301  1.00  0.00    -0.200 F 
ENDBRANCH  53  77
BRANCH  65  88
ATOM     88  C   UNL A   1      43.861  28.799  35.221  1.00  0.00     0.064 A 
ATOM     89  C   UNL A   1      43.678  27.727  36.106  1.00  0.00     0.173 A 
ATOM     90  C   UNL A   1      45.172  29.245  34.992  1.00  0.00     0.173 A 
ATOM     91  F   UNL A   1      42.443  27.274  36.372  1.00  0.00    -0.203 F 
ATOM     92  C   UNL A   1      44.761  27.143  36.756  1.00  0.00     0.198 A 
ATOM     93  C   UNL A   1      46.256  28.637  35.618  1.00  0.00     0.198 A 
ATOM     94  F   UNL A   1      45.403  30.263  34.148  1.00  0.00    -0.203 F 
ATOM     95  F   UNL A   1      44.558  26.153  37.638  1.00  0.00    -0.200 F 
ATOM     96  C   UNL A   1      46.049  27.593  36.506  1.00  0.00     0.200 A 
ATOM     97  F   UNL A   1      47.501  29.063  35.363  1.00  0.00    -0.200 F 
ATOM     98  F   UNL A   1      47.092  27.023  37.128  1.00  0.00    -0.200 F 
ENDBRANCH  65  88
ENDBRANCH  39  40
ENDBRANCH  31  34
ENDBRANCH  29  30
ENDBRANCH  28  29
ENDBRANCH  27  28
ENDBRANCH   1  27
TORSDOF 16
ENDMDL
MODEL 2
REMARK VINA RESULT:     -12.9      6.238     11.764
REMARK SMILES CC(=O)Nc1cccc(C(=O)N2CCCC[C@@H]2C(=O)NCCCCCCNC(=O)c2ccc(-c3c4nc(c(-c5c(F)c(F)c(F)c(F)c5F)c5ccc([nH]5)c(-c5c(F)c(F)c(F)c(F)c5F)c5nc(c(-c6c(F)c(F)c(F)c(F)c6F)c6ccc3[nH]6)C=C5)C=C4)cc2)c1
REMARK SMILES IDX 23 1 22 2 21 3 20 4 18 5 19 6 17 8 12 9 13 10 14 11 16 12
REMARK SMILES IDX 15 13 10 14 11 15 9 16 5 17 6 18 93 19 7 20 8 21 4 22 1 23
REMARK SMILES IDX 2 24 3 25 24 27 25 28 26 29 27 30 28 31 29 33 30 34 31 35
REMARK SMILES IDX 92 36 32 37 91 38 33 39 34 40 35 41 85 42 36 43 90 44 84 45
REMARK SMILES IDX 86 46 37 47 89 48 83 49 82 50 38 52 70 53 50 54 69 55 51 56
REMARK SMILES IDX 54 57 68 58 87 59 52 60 53 61 67 63 88 64 55 65 39 66 40 67
REMARK SMILES IDX 48 68 41 69 42 70 46 71 49 72 43 73 44 74 47 75 45 76 71 77
REMARK SMILES IDX 72 78 80 79 73 80 74 81 78 82 81 83 75 84 76 85 79 86 77 87
REMARK SMILES IDX 56 88 57 89 65 90 58 91 59 92 63 93 66 94 60 95 61 96 64 97
REMARK SMILES IDX 62 98
REMARK H PARENT 20 7 4 26 27 32 86 51 54 62
REMARK Flexibility Score: inf
ROOT
ATOM      1  C   UNL A   1      37.184  21.938  24.565  1.00  0.00     0.002 C 
ENDROOT
BRANCH   1   2
ATOM      2  C   UNL A   1      37.396  22.926  25.719  1.00  0.00     0.021 C 
BRANCH   2   3
ATOM      3  C   UNL A   1      36.306  23.989  25.822  1.00  0.00     0.116 C 
BRANCH   3   4
ATOM      4  N   UNL A   1      35.563  24.060  24.579  1.00  0.00    -0.354 N 
ATOM      5  C   UNL A   1      34.220  24.031  24.370  1.00  0.00     0.242 C 
ATOM      6  O   UNL A   1      33.821  23.827  23.221  1.00  0.00    -0.273 OA
ATOM      7  H   UNL A   1      36.113  24.139  23.766  1.00  0.00     0.163 HD
BRANCH   5   8
ATOM      8  C   UNL A   1      33.219  24.127  25.542  1.00  0.00     0.174 C 
ATOM      9  N   UNL A   1      32.665  22.834  26.033  1.00  0.00    -0.327 N 
ATOM     10  C   UNL A   1      31.515  22.937  26.929  1.00  0.00     0.120 C 
ATOM     11  C   UNL A   1      30.401  23.794  26.359  1.00  0.00     0.022 C 
ATOM     12  C   UNL A   1      32.107  25.102  25.077  1.00  0.00     0.035 C 
ATOM     13  C   UNL A   1      30.922  25.183  26.029  1.00  0.00     0.004 C 
BRANCH   9  14
ATOM     14  C   UNL A   1      33.316  21.589  26.068  1.00  0.00     0.254 C 
ATOM     15  O   UNL A   1      34.211  21.353  26.883  1.00  0.00    -0.269 OA
BRANCH  14  16
ATOM     16  C   UNL A   1      32.989  20.498  25.118  1.00  0.00     0.042 A 
ATOM     17  C   UNL A   1      32.510  18.157  24.681  1.00  0.00     0.041 A 
ATOM     18  C   UNL A   1      32.252  18.480  23.344  1.00  0.00     0.026 A 
ATOM     19  C   UNL A   1      32.866  19.178  25.561  1.00  0.00     0.040 A 
ATOM     20  C   UNL A   1      32.308  19.806  22.904  1.00  0.00     0.003 A 
ATOM     21  C   UNL A   1      32.674  20.816  23.792  1.00  0.00     0.014 A 
BRANCH  17  22
ATOM     22  N   UNL A   1      32.448  16.802  25.044  1.00  0.00    -0.326 N 
ATOM     23  C   UNL A   1      34.855  16.132  24.986  1.00  0.00     0.114 C 
ATOM     24  C   UNL A   1      33.388  15.812  25.071  1.00  0.00     0.221 C 
ATOM     25  O   UNL A   1      33.016  14.646  25.228  1.00  0.00    -0.275 OA
ATOM     26  H   UNL A   1      31.554  16.509  25.335  1.00  0.00     0.169 HD
ENDBRANCH  17  22
ENDBRANCH  14  16
ENDBRANCH   9  14
ENDBRANCH   5   8
ENDBRANCH   3   4
ENDBRANCH   2   3
ENDBRANCH   1   2
BRANCH   1  27
ATOM     27  C   UNL A   1      36.958  20.487  25.001  1.00  0.00     0.002 C 
BRANCH  27  28
ATOM     28  C   UNL A   1      38.194  19.591  24.901  1.00  0.00     0.021 C 
BRANCH  28  29
ATOM     29  C   UNL A   1      39.359  20.030  25.781  1.00  0.00     0.116 C 
BRANCH  29  30
ATOM     30  N   UNL A   1      40.366  18.988  25.908  1.00  0.00    -0.352 N 
ATOM     31  C   UNL A   1      41.719  19.111  26.089  1.00  0.00     0.251 C 
ATOM     32  H   UNL A   1      40.029  18.064  25.858  1.00  0.00     0.163 HD
ATOM     33  O   UNL A   1      42.453  18.132  25.974  1.00  0.00    -0.269 OA
BRANCH  31  34
ATOM     34  C   UNL A   1      42.296  20.433  26.402  1.00  0.00     0.039 A 
ATOM     35  C   UNL A   1      42.810  21.209  25.362  1.00  0.00     0.014 A 
ATOM     36  C   UNL A   1      42.326  20.904  27.719  1.00  0.00     0.014 A 
ATOM     37  C   UNL A   1      43.298  22.487  25.633  1.00  0.00     0.010 A 
ATOM     38  C   UNL A   1      42.746  22.205  27.977  1.00  0.00     0.010 A 
ATOM     39  C   UNL A   1      43.237  23.009  26.936  1.00  0.00    -0.014 A 
BRANCH  39  40
ATOM     40  C   UNL A   1      43.669  24.399  27.224  1.00  0.00     0.031 A 
ATOM     41  C   UNL A   1      42.675  25.417  27.704  1.00  0.00     0.074 A 
ATOM     42  C   UNL A   1      44.947  24.755  26.993  1.00  0.00     0.049 A 
ATOM     43  N   UNL A   1      42.849  26.691  27.955  1.00  0.00    -0.248 NA
ATOM     44  C   UNL A   1      41.294  24.950  27.906  1.00  0.00     0.031 C 
ATOM     45  C   UNL A   1      45.992  23.868  26.481  1.00  0.00     0.029 A 
ATOM     46  N   UNL A   1      45.584  25.961  27.150  1.00  0.00    -0.354 N 
ATOM     47  C   UNL A   1      41.605  27.176  28.333  1.00  0.00     0.074 A 
ATOM     48  C   UNL A   1      40.672  26.075  28.225  1.00  0.00     0.031 C 
ATOM     49  C   UNL A   1      47.143  24.551  26.388  1.00  0.00     0.029 A 
ATOM     50  C   UNL A   1      46.909  25.934  26.793  1.00  0.00     0.049 A 
ATOM     51  H   UNL A   1      45.132  26.769  27.486  1.00  0.00     0.167 HD
ATOM     52  C   UNL A   1      41.277  28.421  28.753  1.00  0.00     0.037 A 
ATOM     53  C   UNL A   1      47.830  26.916  26.786  1.00  0.00     0.037 A 
ATOM     54  C   UNL A   1      42.215  29.507  28.874  1.00  0.00     0.049 A 
ATOM     55  C   UNL A   1      47.434  28.294  27.241  1.00  0.00     0.074 A 
ATOM     56  C   UNL A   1      41.994  30.788  29.349  1.00  0.00     0.029 A 
ATOM     57  N   UNL A   1      43.552  29.440  28.511  1.00  0.00    -0.354 N 
ATOM     58  N   UNL A   1      46.272  28.723  27.668  1.00  0.00    -0.248 NA
ATOM     59  C   UNL A   1      48.482  29.324  27.219  1.00  0.00     0.031 C 
ATOM     60  C   UNL A   1      43.184  31.512  29.223  1.00  0.00     0.029 A 
ATOM     61  C   UNL A   1      44.162  30.667  28.723  1.00  0.00     0.049 A 
ATOM     62  H   UNL A   1      44.002  28.640  28.154  1.00  0.00     0.167 HD
ATOM     63  C   UNL A   1      46.453  30.062  27.988  1.00  0.00     0.074 A 
ATOM     64  C   UNL A   1      47.843  30.369  27.725  1.00  0.00     0.031 C 
ATOM     65  C   UNL A   1      45.548  30.956  28.457  1.00  0.00     0.037 A 
BRANCH  52  66
ATOM     66  C   UNL A   1      39.842  28.676  29.115  1.00  0.00     0.064 A 
ATOM     67  C   UNL A   1      39.360  28.460  30.416  1.00  0.00     0.173 A 
ATOM     68  C   UNL A   1      38.946  29.183  28.161  1.00  0.00     0.173 A 
ATOM     69  F   UNL A   1      40.172  27.967  31.363  1.00  0.00    -0.203 F 
ATOM     70  C   UNL A   1      38.029  28.713  30.738  1.00  0.00     0.198 A 
ATOM     71  C   UNL A   1      37.624  29.464  28.496  1.00  0.00     0.198 A 
ATOM     72  F   UNL A   1      39.354  29.413  26.904  1.00  0.00    -0.203 F 
ATOM     73  F   UNL A   1      37.581  28.451  31.974  1.00  0.00    -0.200 F 
ATOM     74  C   UNL A   1      37.164  29.221  29.781  1.00  0.00     0.200 A 
ATOM     75  F   UNL A   1      36.793  29.970  27.573  1.00  0.00    -0.200 F 
ATOM     76  F   UNL A   1      35.886  29.472  30.096  1.00  0.00    -0.200 F 
ENDBRANCH  52  66
BRANCH  53  77
ATOM     77  C   UNL A   1      49.221  26.627  26.348  1.00  0.00     0.064 A 
ATOM     78  C   UNL A   1      50.179  26.155  27.257  1.00  0.00     0.173 A 
ATOM     79  C   UNL A   1      49.623  26.818  25.019  1.00  0.00     0.173 A 
ATOM     80  F   UNL A   1      49.848  25.976  28.545  1.00  0.00    -0.203 F 
ATOM     81  C   UNL A   1      51.490  25.909  26.859  1.00  0.00     0.198 A 
ATOM     82  C   UNL A   1      50.927  26.541  24.614  1.00  0.00     0.198 A 
ATOM     83  F   UNL A   1      48.745  27.262  24.108  1.00  0.00    -0.203 F 
ATOM     84  F   UNL A   1      52.398  25.505  27.759  1.00  0.00    -0.200 F 
ATOM     85  C   UNL A   1      51.862  26.096  25.536  1.00  0.00     0.200 A 
ATOM     86  F   UNL A   1      51.279  26.709  23.332  1.00  0.00    -0.200 F 
ATOM     87  F   UNL A   1      53.123  25.855  25.152  1.00  0.00    -0.200 F 
ENDBRANCH  53  77
BRANCH  65  88
ATOM     88  C   UNL A   1      46.041  32.346  28.741  1.00  0.00     0.064 A 
ATOM     89  C   UNL A   1      46.040  33.344  27.755  1.00  0.00     0.173 A 
ATOM     90  C   UNL A   1      46.484  32.693  30.026  1.00  0.00     0.173 A 
ATOM     91  F   UNL A   1      45.641  33.059  26.507  1.00  0.00    -0.203 F 
ATOM     92  C   UNL A   1      46.491  34.630  28.038  1.00  0.00     0.198 A 
ATOM     93  C   UNL A   1      46.903  33.989  30.315  1.00  0.00     0.198 A 
ATOM     94  F   UNL A   1      46.499  31.778  31.008  1.00  0.00    -0.203 F 
ATOM     95  F   UNL A   1      46.531  35.554  27.067  1.00  0.00    -0.200 F 
ATOM     96  C   UNL A   1      46.915  34.953  29.319  1.00  0.00     0.200 A 
ATOM     97  F   UNL A   1      47.299  34.303  31.556  1.00  0.00    -0.200 F 
ATOM     98  F   UNL A   1      47.342  36.195  29.591  1.00  0.00    -0.200 F 
ENDBRANCH  65  88
ENDBRANCH  39  40
ENDBRANCH  31  34
ENDBRANCH  29  30
ENDBRANCH  28  29
ENDBRANCH  27  28
ENDBRANCH   1  27
TORSDOF 16
ENDMDL
MODEL 3
REMARK VINA RESULT:     -12.6      1.272      2.168
REMARK SMILES CC(=O)Nc1cccc(C(=O)N2CCCC[C@@H]2C(=O)NCCCCCCNC(=O)c2ccc(-c3c4nc(c(-c5c(F)c(F)c(F)c(F)c5F)c5ccc([nH]5)c(-c5c(F)c(F)c(F)c(F)c5F)c5nc(c(-c6c(F)c(F)c(F)c(F)c6F)c6ccc3[nH]6)C=C5)C=C4)cc2)c1
REMARK SMILES IDX 23 1 22 2 21 3 20 4 18 5 19 6 17 8 12 9 13 10 14 11 16 12
REMARK SMILES IDX 15 13 10 14 11 15 9 16 5 17 6 18 93 19 7 20 8 21 4 22 1 23
REMARK SMILES IDX 2 24 3 25 24 27 25 28 26 29 27 30 28 31 29 33 30 34 31 35
REMARK SMILES IDX 92 36 32 37 91 38 33 39 34 40 35 41 85 42 36 43 90 44 84 45
REMARK SMILES IDX 86 46 37 47 89 48 83 49 82 50 38 52 70 53 50 54 69 55 51 56
REMARK SMILES IDX 54 57 68 58 87 59 52 60 53 61 67 63 88 64 55 65 39 66 40 67
REMARK SMILES IDX 48 68 41 69 42 70 46 71 49 72 43 73 44 74 47 75 45 76 71 77
REMARK SMILES IDX 72 78 80 79 73 80 74 81 78 82 81 83 75 84 76 85 79 86 77 87
REMARK SMILES IDX 56 88 57 89 65 90 58 91 59 92 63 93 66 94 60 95 61 96 64 97
REMARK SMILES IDX 62 98
REMARK H PARENT 20 7 4 26 27 32 86 51 54 62
REMARK Flexibility Score: inf
ROOT
ATOM      1  C   UNL A   1      31.689  29.424  27.135  1.00  0.00     0.002 C 
ENDROOT
BRANCH   1   2
ATOM      2  C   UNL A   1      31.292  28.113  26.446  1.00  0.00     0.021 C 
BRANCH   2   3
ATOM      3  C   UNL A   1      32.082  26.901  26.933  1.00  0.00     0.116 C 
BRANCH   3   4
ATOM      4  N   UNL A   1      31.246  25.718  26.897  1.00  0.00    -0.354 N 
ATOM      5  C   UNL A   1      31.514  24.484  26.391  1.00  0.00     0.242 C 
ATOM      6  O   UNL A   1      30.565  23.714  26.220  1.00  0.00    -0.273 OA
ATOM      7  H   UNL A   1      30.353  25.823  27.297  1.00  0.00     0.163 HD
BRANCH   5   8
ATOM      8  C   UNL A   1      32.934  24.093  25.927  1.00  0.00     0.174 C 
ATOM      9  N   UNL A   1      33.145  24.032  24.455  1.00  0.00    -0.327 N 
ATOM     10  C   UNL A   1      34.381  23.388  24.018  1.00  0.00     0.120 C 
ATOM     11  C   UNL A   1      34.574  22.011  24.624  1.00  0.00     0.022 C 
ATOM     12  C   UNL A   1      33.254  22.744  26.622  1.00  0.00     0.035 C 
ATOM     13  C   UNL A   1      34.546  22.097  26.142  1.00  0.00     0.004 C 
BRANCH   9  14
ATOM     14  C   UNL A   1      32.531  24.831  23.474  1.00  0.00     0.254 C 
ATOM     15  O   UNL A   1      31.763  24.348  22.640  1.00  0.00    -0.269 OA
BRANCH  14  16
ATOM     16  C   UNL A   1      32.787  26.288  23.366  1.00  0.00     0.042 A 
ATOM     17  C   UNL A   1      32.072  28.509  22.691  1.00  0.00     0.041 A 
ATOM     18  C   UNL A   1      33.226  29.038  23.281  1.00  0.00     0.026 A 
ATOM     19  C   UNL A   1      31.859  27.133  22.752  1.00  0.00     0.040 A 
ATOM     20  C   UNL A   1      34.128  28.211  23.956  1.00  0.00     0.003 A 
ATOM     21  C   UNL A   1      33.908  26.835  24.001  1.00  0.00     0.014 A 
BRANCH  17  22
ATOM     22  N   UNL A   1      31.221  29.401  22.019  1.00  0.00    -0.326 N 
ATOM     23  C   UNL A   1      29.038  29.012  23.173  1.00  0.00     0.114 C 
ATOM     24  C   UNL A   1      29.869  29.594  22.062  1.00  0.00     0.221 C 
ATOM     25  O   UNL A   1      29.345  30.306  21.203  1.00  0.00    -0.275 OA
ATOM     26  H   UNL A   1      31.687  30.004  21.397  1.00  0.00     0.169 HD
ENDBRANCH  17  22
ENDBRANCH  14  16
ENDBRANCH   9  14
ENDBRANCH   5   8
ENDBRANCH   3   4
ENDBRANCH   2   3
ENDBRANCH   1   2
BRANCH   1  27
ATOM     27  C   UNL A   1      31.715  30.646  26.213  1.00  0.00     0.002 C 
BRANCH  27  28
ATOM     28  C   UNL A   1      31.486  31.983  26.919  1.00  0.00     0.021 C 
BRANCH  28  29
ATOM     29  C   UNL A   1      32.754  32.801  27.141  1.00  0.00     0.116 C 
BRANCH  29  30
ATOM     30  N   UNL A   1      32.456  34.171  27.531  1.00  0.00    -0.352 N 
ATOM     31  C   UNL A   1      32.980  34.910  28.558  1.00  0.00     0.251 C 
ATOM     32  H   UNL A   1      31.784  34.632  26.977  1.00  0.00     0.163 HD
ATOM     33  O   UNL A   1      32.472  35.984  28.873  1.00  0.00    -0.269 OA
BRANCH  31  34
ATOM     34  C   UNL A   1      34.147  34.400  29.303  1.00  0.00     0.039 A 
ATOM     35  C   UNL A   1      33.939  33.731  30.510  1.00  0.00     0.014 A 
ATOM     36  C   UNL A   1      35.443  34.580  28.807  1.00  0.00     0.014 A 
ATOM     37  C   UNL A   1      35.027  33.186  31.192  1.00  0.00     0.010 A 
ATOM     38  C   UNL A   1      36.518  33.974  29.450  1.00  0.00     0.010 A 
ATOM     39  C   UNL A   1      36.320  33.272  30.650  1.00  0.00    -0.014 A 
BRANCH  39  40
ATOM     40  C   UNL A   1      37.474  32.620  31.317  1.00  0.00     0.031 A 
ATOM     41  C   UNL A   1      38.188  31.478  30.652  1.00  0.00     0.074 A 
ATOM     42  C   UNL A   1      37.837  33.020  32.550  1.00  0.00     0.049 A 
ATOM     43  N   UNL A   1      39.178  30.747  31.100  1.00  0.00    -0.248 NA
ATOM     44  C   UNL A   1      37.711  31.087  29.316  1.00  0.00     0.031 C 
ATOM     45  C   UNL A   1      37.189  34.085  33.318  1.00  0.00     0.029 A 
ATOM     46  N   UNL A   1      38.834  32.573  33.381  1.00  0.00    -0.354 N 
ATOM     47  C   UNL A   1      39.434  29.809  30.109  1.00  0.00     0.074 A 
ATOM     48  C   UNL A   1      38.460  30.025  29.060  1.00  0.00     0.031 C 
ATOM     49  C   UNL A   1      37.818  34.224  34.495  1.00  0.00     0.029 A 
ATOM     50  C   UNL A   1      38.886  33.233  34.583  1.00  0.00     0.049 A 
ATOM     51  H   UNL A   1      39.453  31.847  33.137  1.00  0.00     0.167 HD
ATOM     52  C   UNL A   1      40.407  28.869  30.069  1.00  0.00     0.037 A 
ATOM     53  C   UNL A   1      39.698  33.054  35.642  1.00  0.00     0.037 A 
ATOM     54  C   UNL A   1      41.384  28.670  31.108  1.00  0.00     0.049 A 
ATOM     55  C   UNL A   1      40.760  31.990  35.578  1.00  0.00     0.074 A 
ATOM     56  C   UNL A   1      42.448  27.786  31.135  1.00  0.00     0.029 A 
ATOM     57  N   UNL A   1      41.410  29.363  32.310  1.00  0.00    -0.354 N 
ATOM     58  N   UNL A   1      41.041  31.158  34.604  1.00  0.00    -0.248 NA
ATOM     59  C   UNL A   1      41.622  31.844  36.759  1.00  0.00     0.031 C 
ATOM     60  C   UNL A   1      43.086  27.906  32.374  1.00  0.00     0.029 A 
ATOM     61  C   UNL A   1      42.455  28.906  33.097  1.00  0.00     0.049 A 
ATOM     62  H   UNL A   1      40.780  30.076  32.566  1.00  0.00     0.167 HD
ATOM     63  C   UNL A   1      42.125  30.409  35.043  1.00  0.00     0.074 A 
ATOM     64  C   UNL A   1      42.463  30.899  36.363  1.00  0.00     0.031 C 
ATOM     65  C   UNL A   1      42.779  29.405  34.409  1.00  0.00     0.037 A 
BRANCH  52  66
ATOM     66  C   UNL A   1      40.466  27.981  28.859  1.00  0.00     0.064 A 
ATOM     67  C   UNL A   1      39.793  26.750  28.813  1.00  0.00     0.173 A 
ATOM     68  C   UNL A   1      41.170  28.384  27.714  1.00  0.00     0.173 A 
ATOM     69  F   UNL A   1      39.114  26.312  29.885  1.00  0.00    -0.203 F 
ATOM     70  C   UNL A   1      39.848  25.943  27.680  1.00  0.00     0.198 A 
ATOM     71  C   UNL A   1      41.196  27.590  26.571  1.00  0.00     0.198 A 
ATOM     72  F   UNL A   1      41.826  29.554  27.700  1.00  0.00    -0.203 F 
ATOM     73  F   UNL A   1      39.239  24.749  27.679  1.00  0.00    -0.200 F 
ATOM     74  C   UNL A   1      40.543  26.366  26.557  1.00  0.00     0.200 A 
ATOM     75  F   UNL A   1      41.856  28.007  25.480  1.00  0.00    -0.200 F 
ATOM     76  F   UNL A   1      40.587  25.593  25.464  1.00  0.00    -0.200 F 
ENDBRANCH  52  66
BRANCH  53  77
ATOM     77  C   UNL A   1      39.550  33.913  36.846  1.00  0.00     0.064 A 
ATOM     78  C   UNL A   1      40.202  35.151  36.931  1.00  0.00     0.173 A 
ATOM     79  C   UNL A   1      38.761  33.515  37.935  1.00  0.00     0.173 A 
ATOM     80  F   UNL A   1      40.984  35.567  35.924  1.00  0.00    -0.203 F 
ATOM     81  C   UNL A   1      40.088  35.948  38.068  1.00  0.00     0.198 A 
ATOM     82  C   UNL A   1      38.623  34.326  39.059  1.00  0.00     0.198 A 
ATOM     83  F   UNL A   1      38.113  32.342  37.902  1.00  0.00    -0.203 F 
ATOM     84  F   UNL A   1      40.761  37.105  38.144  1.00  0.00    -0.200 F 
ATOM     85  C   UNL A   1      39.295  35.537  39.129  1.00  0.00     0.200 A 
ATOM     86  F   UNL A   1      37.844  33.933  40.075  1.00  0.00    -0.200 F 
ATOM     87  F   UNL A   1      39.183  36.306  40.221  1.00  0.00    -0.200 F 
ENDBRANCH  53  77
BRANCH  65  88
ATOM     88  C   UNL A   1      43.946  28.787  35.126  1.00  0.00     0.064 A 
ATOM     89  C   UNL A   1      43.787  27.681  35.973  1.00  0.00     0.173 A 
ATOM     90  C   UNL A   1      45.243  29.285  34.932  1.00  0.00     0.173 A 
ATOM     91  F   UNL A   1      42.566  27.177  36.205  1.00  0.00    -0.203 F 
ATOM     92  C   UNL A   1      44.881  27.114  36.622  1.00  0.00     0.198 A 
ATOM     93  C   UNL A   1      46.339  28.696  35.555  1.00  0.00     0.198 A 
ATOM     94  F   UNL A   1      45.451  30.338  34.125  1.00  0.00    -0.203 F 
ATOM     95  F   UNL A   1      44.700  26.091  37.469  1.00  0.00    -0.200 F 
ATOM     96  C   UNL A   1      46.156  27.617  36.407  1.00  0.00     0.200 A 
ATOM     97  F   UNL A   1      47.571  29.174  35.335  1.00  0.00    -0.200 F 
ATOM     98  F   UNL A   1      47.208  27.065  37.027  1.00  0.00    -0.200 F 
ENDBRANCH  65  88
ENDBRANCH  39  40
ENDBRANCH  31  34
ENDBRANCH  29  30
ENDBRANCH  28  29
ENDBRANCH  27  28
ENDBRANCH   1  27
TORSDOF 16
ENDMDL
