MODEL 1
REMARK VINA RESULT:     -13.0      0.000      0.000
REMARK SMILES O=C(NCCCCCCNC(=O)[C@@H]1[C@@H](C(=O)Nc2cccc([N+](=O)[O-])c2)[C@@H]2C=C[C@H]1O2)c1ccc(-c2c3nc(c(-c4c(F)c(F)c(F)c(F)c4F)c4ccc([nH]4)c(-c4c(F)c(F)c(F)c(F)c4F)c4nc(c(-c5c(F)c(F)c(F)c(F)c5F)c5ccc2[nH]5)C=C4)C=C3)cc1
REMARK SMILES IDX 7 1 6 2 5 3 4 4 3 5 1 6 2 7 32 9 33 10 94 11 34 12 93 13
REMARK SMILES IDX 35 14 36 15 37 16 87 17 38 18 92 19 86 20 88 21 39 22 91 23
REMARK SMILES IDX 85 24 84 25 40 27 72 28 52 29 71 30 53 31 56 32 70 33 89 34
REMARK SMILES IDX 54 35 55 36 69 38 90 39 57 40 41 41 42 42 50 43 43 44 44 45
REMARK SMILES IDX 48 46 51 47 45 48 46 49 49 50 47 51 73 52 74 53 82 54 75 55
REMARK SMILES IDX 76 56 80 57 83 58 77 59 78 60 81 61 79 62 58 63 59 64 67 65
REMARK SMILES IDX 60 66 61 67 65 68 68 69 62 70 63 71 66 72 64 73 8 74 9 75
REMARK SMILES IDX 10 76 11 77 12 79 13 80 14 81 30 82 27 83 29 84 31 85 28 86
REMARK SMILES IDX 15 87 16 88 17 89 18 91 19 92 26 93 20 94 22 95 21 96 23 97
REMARK SMILES IDX 24 98 25 99
REMARK H PARENT 3 8 88 26 56 37 10 78 17 90
REMARK Flexibility Score: inf
ROOT
ATOM      1  C   UNL A   1      32.934  30.079  27.395  1.00  0.00     0.002 C 
ENDROOT
BRANCH   1   2
ATOM      2  C   UNL A   1      31.660  30.628  26.743  1.00  0.00     0.002 C 
BRANCH   2   3
ATOM      3  C   UNL A   1      31.574  32.155  26.737  1.00  0.00     0.021 C 
BRANCH   3   4
ATOM      4  C   UNL A   1      32.818  32.820  27.307  1.00  0.00     0.116 C 
BRANCH   4   5
ATOM      5  N   UNL A   1      32.557  34.214  27.623  1.00  0.00    -0.352 N 
ATOM      6  O   UNL A   1      32.516  35.998  29.011  1.00  0.00    -0.269 OA
ATOM      7  C   UNL A   1      33.045  34.947  28.674  1.00  0.00     0.251 C 
ATOM      8  H   UNL A   1      31.954  34.692  27.008  1.00  0.00     0.163 HD
BRANCH   7   9
ATOM      9  C   UNL A   1      34.237  34.448  29.386  1.00  0.00     0.039 A 
ATOM     10  C   UNL A   1      34.085  33.791  30.611  1.00  0.00     0.014 A 
ATOM     11  C   UNL A   1      35.500  34.608  28.813  1.00  0.00     0.014 A 
ATOM     12  C   UNL A   1      35.203  33.369  31.311  1.00  0.00     0.010 A 
ATOM     13  C   UNL A   1      36.618  34.103  29.476  1.00  0.00     0.010 A 
ATOM     14  C   UNL A   1      36.473  33.475  30.725  1.00  0.00    -0.014 A 
BRANCH  14  15
ATOM     15  C   UNL A   1      37.616  32.782  31.362  1.00  0.00     0.031 A 
ATOM     16  C   UNL A   1      38.283  31.615  30.705  1.00  0.00     0.074 A 
ATOM     17  C   UNL A   1      38.019  33.224  32.570  1.00  0.00     0.049 A 
ATOM     18  N   UNL A   1      39.253  30.865  31.161  1.00  0.00    -0.248 NA
ATOM     19  C   UNL A   1      37.800  31.230  29.371  1.00  0.00     0.031 C 
ATOM     20  C   UNL A   1      37.417  34.347  33.298  1.00  0.00     0.029 A 
ATOM     21  N   UNL A   1      39.015  32.789  33.402  1.00  0.00    -0.354 N 
ATOM     22  C   UNL A   1      39.482  29.905  30.185  1.00  0.00     0.074 A 
ATOM     23  C   UNL A   1      38.542  30.160  29.113  1.00  0.00     0.031 C 
ATOM     24  C   UNL A   1      38.067  34.522  34.456  1.00  0.00     0.029 A 
ATOM     25  C   UNL A   1      39.075  33.480  34.589  1.00  0.00     0.049 A 
ATOM     26  H   UNL A   1      39.627  32.052  33.174  1.00  0.00     0.167 HD
ATOM     27  C   UNL A   1      40.395  28.907  30.196  1.00  0.00     0.037 A 
ATOM     28  C   UNL A   1      39.827  33.269  35.684  1.00  0.00     0.037 A 
ATOM     29  C   UNL A   1      41.334  28.686  31.267  1.00  0.00     0.049 A 
ATOM     30  C   UNL A   1      40.799  32.126  35.675  1.00  0.00     0.074 A 
ATOM     31  C   UNL A   1      42.355  27.755  31.338  1.00  0.00     0.029 A 
ATOM     32  N   UNL A   1      41.355  29.392  32.462  1.00  0.00    -0.354 N 
ATOM     33  N   UNL A   1      41.061  31.272  34.715  1.00  0.00    -0.248 NA
ATOM     34  C   UNL A   1      41.574  31.908  36.903  1.00  0.00     0.031 C 
ATOM     35  C   UNL A   1      42.946  27.849  32.600  1.00  0.00     0.029 A 
ATOM     36  C   UNL A   1      42.337  28.882  33.295  1.00  0.00     0.049 A 
ATOM     37  H   UNL A   1      40.760  30.145  32.683  1.00  0.00     0.167 HD
ATOM     38  C   UNL A   1      42.037  30.425  35.217  1.00  0.00     0.074 A 
ATOM     39  C   UNL A   1      42.343  30.886  36.555  1.00  0.00     0.031 C 
ATOM     40  C   UNL A   1      42.621  29.355  34.626  1.00  0.00     0.037 A 
BRANCH  27  41
ATOM     41  C   UNL A   1      40.423  27.950  29.041  1.00  0.00     0.064 A 
ATOM     42  C   UNL A   1      39.644  26.786  29.022  1.00  0.00     0.173 A 
ATOM     43  C   UNL A   1      41.171  28.258  27.893  1.00  0.00     0.173 A 
ATOM     44  F   UNL A   1      38.917  26.442  30.096  1.00  0.00    -0.203 F 
ATOM     45  C   UNL A   1      39.617  25.960  27.900  1.00  0.00     0.198 A 
ATOM     46  C   UNL A   1      41.121  27.445  26.764  1.00  0.00     0.198 A 
ATOM     47  F   UNL A   1      41.929  29.364  27.856  1.00  0.00    -0.203 F 
ATOM     48  F   UNL A   1      38.883  24.840  27.912  1.00  0.00    -0.200 F 
ATOM     49  C   UNL A   1      40.346  26.296  26.768  1.00  0.00     0.200 A 
ATOM     50  F   UNL A   1      41.814  27.782  25.667  1.00  0.00    -0.200 F 
ATOM     51  F   UNL A   1      40.302  25.513  25.682  1.00  0.00    -0.200 F 
ENDBRANCH  27  41
BRANCH  28  52
ATOM     52  C   UNL A   1      39.647  34.123  36.887  1.00  0.00     0.064 A 
ATOM     53  C   UNL A   1      40.282  35.366  36.995  1.00  0.00     0.173 A 
ATOM     54  C   UNL A   1      38.845  33.703  37.960  1.00  0.00     0.173 A 
ATOM     55  F   UNL A   1      41.071  35.804  36.003  1.00  0.00    -0.203 F 
ATOM     56  C   UNL A   1      40.147  36.144  38.143  1.00  0.00     0.198 A 
ATOM     57  C   UNL A   1      38.681  34.498  39.091  1.00  0.00     0.198 A 
ATOM     58  F   UNL A   1      38.208  32.524  37.906  1.00  0.00    -0.203 F 
ATOM     59  F   UNL A   1      40.812  37.302  38.246  1.00  0.00    -0.200 F 
ATOM     60  C   UNL A   1      39.342  35.713  39.188  1.00  0.00     0.200 A 
ATOM     61  F   UNL A   1      37.886  34.087  40.088  1.00  0.00    -0.200 F 
ATOM     62  F   UNL A   1      39.214  36.461  40.291  1.00  0.00    -0.200 F 
ENDBRANCH  28  52
BRANCH  40  63
ATOM     63  C   UNL A   1      43.659  28.618  35.420  1.00  0.00     0.064 A 
ATOM     64  C   UNL A   1      43.304  27.596  36.313  1.00  0.00     0.173 A 
ATOM     65  C   UNL A   1      45.021  28.904  35.253  1.00  0.00     0.173 A 
ATOM     66  F   UNL A   1      42.013  27.300  36.523  1.00  0.00    -0.203 F 
ATOM     67  C   UNL A   1      44.278  26.898  37.022  1.00  0.00     0.198 A 
ATOM     68  C   UNL A   1      45.994  28.183  35.939  1.00  0.00     0.198 A 
ATOM     69  F   UNL A   1      45.410  29.871  34.408  1.00  0.00    -0.203 F 
ATOM     70  F   UNL A   1      43.915  25.957  37.904  1.00  0.00    -0.200 F 
ATOM     71  C   UNL A   1      45.620  27.185  36.827  1.00  0.00     0.200 A 
ATOM     72  F   UNL A   1      47.290  28.451  35.737  1.00  0.00    -0.200 F 
ATOM     73  F   UNL A   1      46.557  26.502  37.500  1.00  0.00    -0.200 F 
ENDBRANCH  40  63
ENDBRANCH  14  15
ENDBRANCH   7   9
ENDBRANCH   4   5
ENDBRANCH   3   4
ENDBRANCH   2   3
ENDBRANCH   1   2
BRANCH   1  74
ATOM     74  C   UNL A   1      33.097  28.558  27.273  1.00  0.00     0.021 C 
BRANCH  74  75
ATOM     75  C   UNL A   1      34.255  28.160  26.354  1.00  0.00     0.116 C 
BRANCH  75  76
ATOM     76  N   UNL A   1      34.137  28.855  25.095  1.00  0.00    -0.356 N 
ATOM     77  C   UNL A   1      33.716  28.441  23.882  1.00  0.00     0.227 C 
ATOM     78  H   UNL A   1      34.412  29.799  25.127  1.00  0.00     0.163 HD
ATOM     79  O   UNL A   1      34.035  29.162  22.928  1.00  0.00    -0.275 OA
BRANCH  77  80
ATOM     80  C   UNL A   1      32.798  27.262  23.627  1.00  0.00     0.127 C 
ATOM     81  C   UNL A   1      32.297  26.754  22.256  1.00  0.00     0.127 C 
ATOM     82  C   UNL A   1      31.453  27.532  24.339  1.00  0.00     0.155 C 
ATOM     83  C   UNL A   1      30.778  26.677  22.456  1.00  0.00     0.155 C 
ATOM     84  C   UNL A   1      30.663  28.609  23.652  1.00  0.00     0.004 C 
ATOM     85  O   UNL A   1      30.689  26.391  23.869  1.00  0.00    -0.365 OA
ATOM     86  C   UNL A   1      30.235  28.080  22.496  1.00  0.00     0.004 C 
BRANCH  81  87
ATOM     87  C   UNL A   1      32.917  25.485  21.654  1.00  0.00     0.231 C 
ATOM     88  O   UNL A   1      32.955  25.397  20.418  1.00  0.00    -0.274 OA
ATOM     89  N   UNL A   1      33.536  24.484  22.347  1.00  0.00    -0.325 N 
ATOM     90  H   UNL A   1      34.100  23.896  21.795  1.00  0.00     0.169 HD
BRANCH  89  91
ATOM     91  C   UNL A   1      33.508  24.151  23.704  1.00  0.00     0.048 A 
ATOM     92  C   UNL A   1      34.599  24.509  24.501  1.00  0.00     0.026 A 
ATOM     93  C   UNL A   1      32.407  23.529  24.279  1.00  0.00     0.111 A 
ATOM     94  C   UNL A   1      34.511  24.407  25.894  1.00  0.00     0.009 A 
ATOM     95  C   UNL A   1      32.306  23.464  25.671  1.00  0.00     0.271 A 
ATOM     96  C   UNL A   1      33.346  23.919  26.488  1.00  0.00     0.086 A 
BRANCH  95  97
ATOM     97  N   UNL A   1      31.064  22.980  26.273  1.00  0.00     0.062 N 
ATOM     98  O   UNL A   1      30.536  21.982  25.763  1.00  0.00    -0.258 OA
ATOM     99  O   UNL A   1      30.616  23.602  27.245  1.00  0.00    -0.258 OA
ENDBRANCH  95  97
ENDBRANCH  89  91
ENDBRANCH  81  87
ENDBRANCH  77  80
ENDBRANCH  75  76
ENDBRANCH  74  75
ENDBRANCH   1  74
TORSDOF 16
ENDMDL
MODEL 2
REMARK VINA RESULT:     -12.9      5.658     11.025
REMARK SMILES O=C(NCCCCCCNC(=O)[C@@H]1[C@@H](C(=O)Nc2cccc([N+](=O)[O-])c2)[C@@H]2C=C[C@H]1O2)c1ccc(-c2c3nc(c(-c4c(F)c(F)c(F)c(F)c4F)c4ccc([nH]4)c(-c4c(F)c(F)c(F)c(F)c4F)c4nc(c(-c5c(F)c(F)c(F)c(F)c5F)c5ccc2[nH]5)C=C4)C=C3)cc1
REMARK SMILES IDX 7 1 6 2 5 3 4 4 3 5 1 6 2 7 32 9 33 10 94 11 34 12 93 13
REMARK SMILES IDX 35 14 36 15 37 16 87 17 38 18 92 19 86 20 88 21 39 22 91 23
REMARK SMILES IDX 85 24 84 25 40 27 72 28 52 29 71 30 53 31 56 32 70 33 89 34
REMARK SMILES IDX 54 35 55 36 69 38 90 39 57 40 41 41 42 42 50 43 43 44 44 45
REMARK SMILES IDX 48 46 51 47 45 48 46 49 49 50 47 51 73 52 74 53 82 54 75 55
REMARK SMILES IDX 76 56 80 57 83 58 77 59 78 60 81 61 79 62 58 63 59 64 67 65
REMARK SMILES IDX 60 66 61 67 65 68 68 69 62 70 63 71 66 72 64 73 8 74 9 75
REMARK SMILES IDX 10 76 11 77 12 79 13 80 14 81 30 82 27 83 29 84 31 85 28 86
REMARK SMILES IDX 15 87 16 88 17 89 18 91 19 92 26 93 20 94 22 95 21 96 23 97
REMARK SMILES IDX 24 98 25 99
REMARK H PARENT 3 8 88 26 56 37 10 78 17 90
REMARK Flexibility Score: inf
ROOT
ATOM      1  C   UNL A   1      37.777  22.051  25.405  1.00  0.00     0.002 C 
ENDROOT
BRANCH   1   2
ATOM      2  C   UNL A   1      37.417  20.746  24.687  1.00  0.00     0.002 C 
BRANCH   2   3
ATOM      3  C   UNL A   1      38.369  19.588  24.990  1.00  0.00     0.021 C 
BRANCH   3   4
ATOM      4  C   UNL A   1      39.455  19.960  25.989  1.00  0.00     0.116 C 
BRANCH   4   5
ATOM      5  N   UNL A   1      40.480  18.931  26.042  1.00  0.00    -0.352 N 
ATOM      6  O   UNL A   1      42.591  18.168  25.781  1.00  0.00    -0.269 OA
ATOM      7  C   UNL A   1      41.841  19.096  26.051  1.00  0.00     0.251 C 
ATOM      8  H   UNL A   1      40.158  18.001  26.074  1.00  0.00     0.163 HD
BRANCH   7   9
ATOM      9  C   UNL A   1      42.386  20.419  26.411  1.00  0.00     0.039 A 
ATOM     10  C   UNL A   1      42.835  21.277  25.402  1.00  0.00     0.014 A 
ATOM     11  C   UNL A   1      42.418  20.812  27.749  1.00  0.00     0.014 A 
ATOM     12  C   UNL A   1      43.400  22.498  25.736  1.00  0.00     0.010 A 
ATOM     13  C   UNL A   1      42.903  22.078  28.077  1.00  0.00     0.010 A 
ATOM     14  C   UNL A   1      43.390  22.929  27.070  1.00  0.00    -0.014 A 
BRANCH  14  15
ATOM     15  C   UNL A   1      43.747  24.333  27.372  1.00  0.00     0.031 A 
ATOM     16  C   UNL A   1      42.716  25.319  27.824  1.00  0.00     0.074 A 
ATOM     17  C   UNL A   1      45.032  24.701  27.200  1.00  0.00     0.049 A 
ATOM     18  N   UNL A   1      42.857  26.596  28.068  1.00  0.00    -0.248 NA
ATOM     19  C   UNL A   1      41.349  24.816  28.021  1.00  0.00     0.031 C 
ATOM     20  C   UNL A   1      46.108  23.813  26.745  1.00  0.00     0.029 A 
ATOM     21  N   UNL A   1      45.655  25.908  27.375  1.00  0.00    -0.354 N 
ATOM     22  C   UNL A   1      41.598  27.057  28.423  1.00  0.00     0.074 A 
ATOM     23  C   UNL A   1      40.698  25.924  28.355  1.00  0.00     0.031 C 
ATOM     24  C   UNL A   1      47.257  24.498  26.696  1.00  0.00     0.029 A 
ATOM     25  C   UNL A   1      46.988  25.888  27.038  1.00  0.00     0.049 A 
ATOM     26  H   UNL A   1      45.195  26.711  27.710  1.00  0.00     0.167 HD
ATOM     27  C   UNL A   1      41.238  28.314  28.771  1.00  0.00     0.037 A 
ATOM     28  C   UNL A   1      47.883  26.888  26.965  1.00  0.00     0.037 A 
ATOM     29  C   UNL A   1      42.157  29.422  28.852  1.00  0.00     0.049 A 
ATOM     30  C   UNL A   1      47.437  28.276  27.318  1.00  0.00     0.074 A 
ATOM     31  C   UNL A   1      41.909  30.716  29.276  1.00  0.00     0.029 A 
ATOM     32  N   UNL A   1      43.494  29.371  28.485  1.00  0.00    -0.354 N 
ATOM     33  N   UNL A   1      46.261  28.686  27.728  1.00  0.00    -0.248 NA
ATOM     34  C   UNL A   1      48.436  29.345  27.191  1.00  0.00     0.031 C 
ATOM     35  C   UNL A   1      43.075  31.464  29.098  1.00  0.00     0.029 A 
ATOM     36  C   UNL A   1      44.070  30.624  28.623  1.00  0.00     0.049 A 
ATOM     37  H   UNL A   1      43.964  28.563  28.173  1.00  0.00     0.167 HD
ATOM     38  C   UNL A   1      46.381  30.054  27.918  1.00  0.00     0.074 A 
ATOM     39  C   UNL A   1      47.752  30.400  27.609  1.00  0.00     0.031 C 
ATOM     40  C   UNL A   1      45.437  30.946  28.306  1.00  0.00     0.037 A 
BRANCH  27  41
ATOM     41  C   UNL A   1      39.793  28.588  29.067  1.00  0.00     0.064 A 
ATOM     42  C   UNL A   1      39.251  28.413  30.347  1.00  0.00     0.173 A 
ATOM     43  C   UNL A   1      38.962  29.127  28.071  1.00  0.00     0.173 A 
ATOM     44  F   UNL A   1      39.999  27.894  31.333  1.00  0.00    -0.203 F 
ATOM     45  C   UNL A   1      37.929  28.759  30.619  1.00  0.00     0.198 A 
ATOM     46  C   UNL A   1      37.650  29.497  28.353  1.00  0.00     0.198 A 
ATOM     47  F   UNL A   1      39.433  29.320  26.830  1.00  0.00    -0.203 F 
ATOM     48  F   UNL A   1      37.424  28.562  31.845  1.00  0.00    -0.200 F 
ATOM     49  C   UNL A   1      37.134  29.311  29.625  1.00  0.00     0.200 A 
ATOM     50  F   UNL A   1      36.890  30.044  27.394  1.00  0.00    -0.200 F 
ATOM     51  F   UNL A   1      35.869  29.665  29.894  1.00  0.00    -0.200 F 
ENDBRANCH  27  41
BRANCH  28  52
ATOM     52  C   UNL A   1      49.265  26.616  26.490  1.00  0.00     0.064 A 
ATOM     53  C   UNL A   1      50.261  26.176  27.370  1.00  0.00     0.173 A 
ATOM     54  C   UNL A   1      49.621  26.807  25.145  1.00  0.00     0.173 A 
ATOM     55  F   UNL A   1      49.976  25.994  28.668  1.00  0.00    -0.203 F 
ATOM     56  C   UNL A   1      51.566  25.966  26.931  1.00  0.00     0.198 A 
ATOM     57  C   UNL A   1      50.916  26.561  24.700  1.00  0.00     0.198 A 
ATOM     58  F   UNL A   1      48.704  27.221  24.258  1.00  0.00    -0.203 F 
ATOM     59  F   UNL A   1      52.514  25.602  27.805  1.00  0.00    -0.200 F 
ATOM     60  C   UNL A   1      51.892  26.153  25.595  1.00  0.00     0.200 A 
ATOM     61  F   UNL A   1      51.220  26.722  23.405  1.00  0.00    -0.200 F 
ATOM     62  F   UNL A   1      53.148  25.950  25.174  1.00  0.00    -0.200 F 
ENDBRANCH  28  52
BRANCH  40  63
ATOM     63  C   UNL A   1      45.862  32.380  28.427  1.00  0.00     0.064 A 
ATOM     64  C   UNL A   1      46.439  32.872  29.607  1.00  0.00     0.173 A 
ATOM     65  C   UNL A   1      45.733  33.255  27.340  1.00  0.00     0.173 A 
ATOM     66  F   UNL A   1      46.564  32.079  30.681  1.00  0.00    -0.203 F 
ATOM     67  C   UNL A   1      46.857  34.197  29.697  1.00  0.00     0.198 A 
ATOM     68  C   UNL A   1      46.181  34.570  27.423  1.00  0.00     0.198 A 
ATOM     69  F   UNL A   1      45.190  32.831  26.190  1.00  0.00    -0.203 F 
ATOM     70  F   UNL A   1      47.364  34.659  30.848  1.00  0.00    -0.200 F 
ATOM     71  C   UNL A   1      46.737  35.041  28.604  1.00  0.00     0.200 A 
ATOM     72  F   UNL A   1      46.080  35.379  26.361  1.00  0.00    -0.200 F 
ATOM     73  F   UNL A   1      47.154  36.312  28.688  1.00  0.00    -0.200 F 
ENDBRANCH  40  63
ENDBRANCH  14  15
ENDBRANCH   7   9
ENDBRANCH   4   5
ENDBRANCH   3   4
ENDBRANCH   2   3
ENDBRANCH   1   2
BRANCH   1  74
ATOM     74  C   UNL A   1      37.233  23.314  24.723  1.00  0.00     0.021 C 
BRANCH  74  75
ATOM     75  C   UNL A   1      36.272  24.102  25.617  1.00  0.00     0.116 C 
BRANCH  75  76
ATOM     76  N   UNL A   1      35.703  23.223  26.610  1.00  0.00    -0.356 N 
ATOM     77  C   UNL A   1      34.421  22.955  26.935  1.00  0.00     0.227 C 
ATOM     78  H   UNL A   1      36.367  22.733  27.146  1.00  0.00     0.163 HD
ATOM     79  O   UNL A   1      34.247  22.416  28.035  1.00  0.00    -0.275 OA
BRANCH  77  80
ATOM     80  C   UNL A   1      33.227  23.140  26.020  1.00  0.00     0.127 C 
ATOM     81  C   UNL A   1      31.772  22.694  26.289  1.00  0.00     0.127 C 
ATOM     82  C   UNL A   1      33.511  22.398  24.695  1.00  0.00     0.155 C 
ATOM     83  C   UNL A   1      31.418  21.904  25.023  1.00  0.00     0.155 C 
ATOM     84  C   UNL A   1      33.456  20.907  24.867  1.00  0.00     0.004 C 
ATOM     85  O   UNL A   1      32.231  22.571  24.033  1.00  0.00    -0.365 OA
ATOM     86  C   UNL A   1      32.165  20.598  25.058  1.00  0.00     0.004 C 
BRANCH  81  87
ATOM     87  C   UNL A   1      30.726  23.746  26.687  1.00  0.00     0.231 C 
ATOM     88  O   UNL A   1      29.725  23.354  27.304  1.00  0.00    -0.274 OA
ATOM     89  N   UNL A   1      30.841  25.098  26.525  1.00  0.00    -0.325 N 
ATOM     90  H   UNL A   1      30.213  25.627  27.068  1.00  0.00     0.169 HD
BRANCH  89  91
ATOM     91  C   UNL A   1      31.695  25.858  25.722  1.00  0.00     0.048 A 
ATOM     92  C   UNL A   1      32.710  26.595  26.340  1.00  0.00     0.026 A 
ATOM     93  C   UNL A   1      31.591  25.853  24.337  1.00  0.00     0.111 A 
ATOM     94  C   UNL A   1      33.722  27.175  25.567  1.00  0.00     0.009 A 
ATOM     95  C   UNL A   1      32.621  26.400  23.569  1.00  0.00     0.271 A 
ATOM     96  C   UNL A   1      33.702  27.046  24.177  1.00  0.00     0.086 A 
BRANCH  95  97
ATOM     97  N   UNL A   1      32.599  26.225  22.118  1.00  0.00     0.062 N 
ATOM     98  O   UNL A   1      31.496  26.289  21.554  1.00  0.00    -0.258 OA
ATOM     99  O   UNL A   1      33.677  26.016  21.546  1.00  0.00    -0.258 OA
ENDBRANCH  95  97
ENDBRANCH  89  91
ENDBRANCH  81  87
ENDBRANCH  77  80
ENDBRANCH  75  76
ENDBRANCH  74  75
ENDBRANCH   1  74
TORSDOF 16
ENDMDL
MODEL 3
REMARK VINA RESULT:     -12.9      5.757     10.990
REMARK SMILES O=C(NCCCCCCNC(=O)[C@@H]1[C@@H](C(=O)Nc2cccc([N+](=O)[O-])c2)[C@@H]2C=C[C@H]1O2)c1ccc(-c2c3nc(c(-c4c(F)c(F)c(F)c(F)c4F)c4ccc([nH]4)c(-c4c(F)c(F)c(F)c(F)c4F)c4nc(c(-c5c(F)c(F)c(F)c(F)c5F)c5ccc2[nH]5)C=C4)C=C3)cc1
REMARK SMILES IDX 7 1 6 2 5 3 4 4 3 5 1 6 2 7 32 9 33 10 94 11 34 12 93 13
REMARK SMILES IDX 35 14 36 15 37 16 87 17 38 18 92 19 86 20 88 21 39 22 91 23
REMARK SMILES IDX 85 24 84 25 40 27 72 28 52 29 71 30 53 31 56 32 70 33 89 34
REMARK SMILES IDX 54 35 55 36 69 38 90 39 57 40 41 41 42 42 50 43 43 44 44 45
REMARK SMILES IDX 48 46 51 47 45 48 46 49 49 50 47 51 73 52 74 53 82 54 75 55
REMARK SMILES IDX 76 56 80 57 83 58 77 59 78 60 81 61 79 62 58 63 59 64 67 65
REMARK SMILES IDX 60 66 61 67 65 68 68 69 62 70 63 71 66 72 64 73 8 74 9 75
REMARK SMILES IDX 10 76 11 77 12 79 13 80 14 81 30 82 27 83 29 84 31 85 28 86
REMARK SMILES IDX 15 87 16 88 17 89 18 91 19 92 26 93 20 94 22 95 21 96 23 97
REMARK SMILES IDX 24 98 25 99
REMARK H PARENT 3 8 88 26 56 37 10 78 17 90
REMARK Flexibility Score: inf
ROOT
ATOM      1  C   UNL A   1      37.147  22.139  25.488  1.00  0.00     0.002 C 
ENDROOT
BRANCH   1   2
ATOM      2  C   UNL A   1      36.915  20.857  24.681  1.00  0.00     0.002 C 
BRANCH   2   3
ATOM      3  C   UNL A   1      37.923  19.746  24.978  1.00  0.00     0.021 C 
BRANCH   3   4
ATOM      4  C   UNL A   1      39.137  20.239  25.753  1.00  0.00     0.116 C 
BRANCH   4   5
ATOM      5  N   UNL A   1      40.097  19.165  25.943  1.00  0.00    -0.352 N 
ATOM      6  O   UNL A   1      42.178  18.284  25.899  1.00  0.00    -0.269 OA
ATOM      7  C   UNL A   1      41.459  19.262  26.058  1.00  0.00     0.251 C 
ATOM      8  H   UNL A   1      39.723  18.255  25.994  1.00  0.00     0.163 HD
BRANCH   7   9
ATOM      9  C   UNL A   1      42.045  20.573  26.396  1.00  0.00     0.039 A 
ATOM     10  C   UNL A   1      42.401  21.454  25.370  1.00  0.00     0.014 A 
ATOM     11  C   UNL A   1      42.206  20.934  27.734  1.00  0.00     0.014 A 
ATOM     12  C   UNL A   1      43.002  22.664  25.678  1.00  0.00     0.010 A 
ATOM     13  C   UNL A   1      42.728  22.189  28.045  1.00  0.00     0.010 A 
ATOM     14  C   UNL A   1      43.122  23.062  27.017  1.00  0.00    -0.014 A 
BRANCH  14  15
ATOM     15  C   UNL A   1      43.515  24.458  27.318  1.00  0.00     0.031 A 
ATOM     16  C   UNL A   1      42.515  25.462  27.799  1.00  0.00     0.074 A 
ATOM     17  C   UNL A   1      44.803  24.800  27.116  1.00  0.00     0.049 A 
ATOM     18  N   UNL A   1      42.688  26.734  28.046  1.00  0.00    -0.248 NA
ATOM     19  C   UNL A   1      41.143  24.985  28.027  1.00  0.00     0.031 C 
ATOM     20  C   UNL A   1      45.848  23.893  26.630  1.00  0.00     0.029 A 
ATOM     21  N   UNL A   1      45.454  25.993  27.282  1.00  0.00    -0.354 N 
ATOM     22  C   UNL A   1      41.447  27.218  28.435  1.00  0.00     0.074 A 
ATOM     23  C   UNL A   1      40.524  26.104  28.382  1.00  0.00     0.031 C 
ATOM     24  C   UNL A   1      47.010  24.555  26.557  1.00  0.00     0.029 A 
ATOM     25  C   UNL A   1      46.777  25.948  26.912  1.00  0.00     0.049 A 
ATOM     26  H   UNL A   1      45.018  26.804  27.632  1.00  0.00     0.167 HD
ATOM     27  C   UNL A   1      41.122  28.481  28.798  1.00  0.00     0.037 A 
ATOM     28  C   UNL A   1      47.691  26.931  26.823  1.00  0.00     0.037 A 
ATOM     29  C   UNL A   1      42.064  29.569  28.862  1.00  0.00     0.049 A 
ATOM     30  C   UNL A   1      47.282  28.326  27.194  1.00  0.00     0.074 A 
ATOM     31  C   UNL A   1      41.854  30.865  29.298  1.00  0.00     0.029 A 
ATOM     32  N   UNL A   1      43.391  29.493  28.462  1.00  0.00    -0.354 N 
ATOM     33  N   UNL A   1      46.124  28.757  27.634  1.00  0.00    -0.248 NA
ATOM     34  C   UNL A   1      48.299  29.374  27.048  1.00  0.00     0.031 C 
ATOM     35  C   UNL A   1      43.030  31.591  29.096  1.00  0.00     0.029 A 
ATOM     36  C   UNL A   1      43.995  30.733  28.592  1.00  0.00     0.049 A 
ATOM     37  H   UNL A   1      43.837  28.678  28.135  1.00  0.00     0.167 HD
ATOM     38  C   UNL A   1      46.277  30.121  27.829  1.00  0.00     0.074 A 
ATOM     39  C   UNL A   1      47.647  30.441  27.487  1.00  0.00     0.031 C 
ATOM     40  C   UNL A   1      45.361  31.029  28.243  1.00  0.00     0.037 A 
BRANCH  27  41
ATOM     41  C   UNL A   1      39.690  28.782  29.130  1.00  0.00     0.064 A 
ATOM     42  C   UNL A   1      39.183  28.639  30.429  1.00  0.00     0.173 A 
ATOM     43  C   UNL A   1      38.839  29.314  28.148  1.00  0.00     0.173 A 
ATOM     44  F   UNL A   1      39.953  28.128  31.402  1.00  0.00    -0.203 F 
ATOM     45  C   UNL A   1      37.875  29.011  30.732  1.00  0.00     0.198 A 
ATOM     46  C   UNL A   1      37.541  29.709  28.461  1.00  0.00     0.198 A 
ATOM     47  F   UNL A   1      39.275  29.476  26.890  1.00  0.00    -0.203 F 
ATOM     48  F   UNL A   1      37.404  28.845  31.975  1.00  0.00    -0.200 F 
ATOM     49  C   UNL A   1      37.059  29.556  29.751  1.00  0.00     0.200 A 
ATOM     50  F   UNL A   1      36.761  30.250  27.514  1.00  0.00    -0.200 F 
ATOM     51  F   UNL A   1      35.809  29.934  30.050  1.00  0.00    -0.200 F 
ENDBRANCH  27  41
BRANCH  28  52
ATOM     52  C   UNL A   1      49.055  26.634  26.313  1.00  0.00     0.064 A 
ATOM     53  C   UNL A   1      50.068  26.185  27.170  1.00  0.00     0.173 A 
ATOM     54  C   UNL A   1      49.377  26.809  24.957  1.00  0.00     0.173 A 
ATOM     55  F   UNL A   1      49.815  26.018  28.476  1.00  0.00    -0.203 F 
ATOM     56  C   UNL A   1      51.357  25.951  26.697  1.00  0.00     0.198 A 
ATOM     57  C   UNL A   1      50.656  26.539  24.479  1.00  0.00     0.198 A 
ATOM     58  F   UNL A   1      48.443  27.230  24.092  1.00  0.00    -0.203 F 
ATOM     59  F   UNL A   1      52.323  25.579  27.548  1.00  0.00    -0.200 F 
ATOM     60  C   UNL A   1      51.649  26.122  25.352  1.00  0.00     0.200 A 
ATOM     61  F   UNL A   1      50.927  26.685  23.175  1.00  0.00    -0.200 F 
ATOM     62  F   UNL A   1      52.890  25.897  24.898  1.00  0.00    -0.200 F 
ENDBRANCH  28  52
BRANCH  40  63
ATOM     63  C   UNL A   1      45.818  32.454  28.362  1.00  0.00     0.064 A 
ATOM     64  C   UNL A   1      46.406  32.936  29.540  1.00  0.00     0.173 A 
ATOM     65  C   UNL A   1      45.708  33.330  27.273  1.00  0.00     0.173 A 
ATOM     66  F   UNL A   1      46.515  32.141  30.616  1.00  0.00    -0.203 F 
ATOM     67  C   UNL A   1      46.854  34.251  29.628  1.00  0.00     0.198 A 
ATOM     68  C   UNL A   1      46.185  34.635  27.354  1.00  0.00     0.198 A 
ATOM     69  F   UNL A   1      45.154  32.915  26.124  1.00  0.00    -0.203 F 
ATOM     70  F   UNL A   1      47.372  34.704  30.777  1.00  0.00    -0.200 F 
ATOM     71  C   UNL A   1      46.752  35.095  28.533  1.00  0.00     0.200 A 
ATOM     72  F   UNL A   1      46.101  35.444  26.289  1.00  0.00    -0.200 F 
ATOM     73  F   UNL A   1      47.197  36.357  28.614  1.00  0.00    -0.200 F 
ENDBRANCH  40  63
ENDBRANCH  14  15
ENDBRANCH   7   9
ENDBRANCH   4   5
ENDBRANCH   3   4
ENDBRANCH   2   3
ENDBRANCH   1   2
BRANCH   1  74
ATOM     74  C   UNL A   1      36.728  23.424  24.759  1.00  0.00     0.021 C 
BRANCH  74  75
ATOM     75  C   UNL A   1      35.520  23.217  23.843  1.00  0.00     0.116 C 
BRANCH  75  76
ATOM     76  N   UNL A   1      34.715  24.414  23.823  1.00  0.00    -0.356 N 
ATOM     77  C   UNL A   1      33.603  24.753  24.509  1.00  0.00     0.227 C 
ATOM     78  H   UNL A   1      35.032  25.105  23.200  1.00  0.00     0.163 HD
ATOM     79  O   UNL A   1      32.955  25.700  24.046  1.00  0.00    -0.275 OA
BRANCH  77  80
ATOM     80  C   UNL A   1      33.176  24.160  25.837  1.00  0.00     0.127 C 
ATOM     81  C   UNL A   1      32.666  22.724  26.092  1.00  0.00     0.127 C 
ATOM     82  C   UNL A   1      31.986  24.984  26.376  1.00  0.00     0.155 C 
ATOM     83  C   UNL A   1      31.356  22.958  26.856  1.00  0.00     0.155 C 
ATOM     84  C   UNL A   1      30.732  24.739  25.586  1.00  0.00     0.004 C 
ATOM     85  O   UNL A   1      31.645  24.195  27.545  1.00  0.00    -0.365 OA
ATOM     86  C   UNL A   1      30.335  23.494  25.889  1.00  0.00     0.004 C 
BRANCH  81  87
ATOM     87  C   UNL A   1      33.603  21.700  26.749  1.00  0.00     0.231 C 
ATOM     88  O   UNL A   1      34.304  22.090  27.694  1.00  0.00    -0.274 OA
ATOM     89  N   UNL A   1      33.661  20.365  26.469  1.00  0.00    -0.325 N 
ATOM     90  H   UNL A   1      34.114  19.825  27.157  1.00  0.00     0.169 HD
BRANCH  89  91
ATOM     91  C   UNL A   1      33.190  19.633  25.376  1.00  0.00     0.048 A 
ATOM     92  C   UNL A   1      32.449  20.301  24.397  1.00  0.00     0.026 A 
ATOM     93  C   UNL A   1      33.487  18.285  25.218  1.00  0.00     0.111 A 
ATOM     94  C   UNL A   1      32.163  19.666  23.183  1.00  0.00     0.009 A 
ATOM     95  C   UNL A   1      33.233  17.667  23.992  1.00  0.00     0.271 A 
ATOM     96  C   UNL A   1      32.589  18.356  22.960  1.00  0.00     0.086 A 
BRANCH  95  97
ATOM     97  N   UNL A   1      33.718  16.305  23.767  1.00  0.00     0.062 N 
ATOM     98  O   UNL A   1      33.427  15.451  24.616  1.00  0.00    -0.258 OA
ATOM     99  O   UNL A   1      34.395  16.095  22.751  1.00  0.00    -0.258 OA
ENDBRANCH  95  97
ENDBRANCH  89  91
ENDBRANCH  81  87
ENDBRANCH  77  80
ENDBRANCH  75  76
ENDBRANCH  74  75
ENDBRANCH   1  74
TORSDOF 16
ENDMDL
