MODEL 1
REMARK VINA RESULT:     -11.5      0.000      0.000
REMARK SMILES Cc1ccc(S(=O)(=O)n2cc(C(=O)C(=O)NCC(=O)N[C@@H](Cc3c[nH]c4ccccc34)C(=O)NCCCCCCNC(=O)c3ccc(-c4c5nc(c(-c6c(F)c(F)c(F)c(F)c6F)c6ccc([nH]6)c(-c6c(F)c(F)c(F)c(F)c6F)c6nc(c(-c7c(F)c(F)c(F)c(F)c7F)c7ccc4[nH]7)C=C6)C=C5)cc3)c3ccccc32)cc1
REMARK SMILES IDX 35 1 34 2 32 3 33 4 21 6 20 7 18 8 19 9 17 11 16 12 14 13
REMARK SMILES IDX 15 14 12 16 13 17 11 18 9 19 10 20 112 21 107 22 111 23
REMARK SMILES IDX 108 24 110 25 109 26 6 27 7 28 8 29 5 30 1 31 2 32 3 33
REMARK SMILES IDX 114 34 4 35 113 36 22 37 23 38 24 39 31 40 25 41 26 42 30 43
REMARK SMILES IDX 27 45 29 46 28 47 36 48 37 49 38 50 39 51 40 52 41 53 42 54
REMARK SMILES IDX 43 56 44 57 45 58 106 59 46 60 105 61 47 62 48 63 49 64
REMARK SMILES IDX 99 65 50 66 104 67 98 68 100 69 51 70 103 71 97 72 96 73
REMARK SMILES IDX 52 75 84 76 64 77 83 78 65 79 68 80 82 81 101 82 66 83 67 84
REMARK SMILES IDX 81 86 102 87 69 88 53 89 54 90 62 91 55 92 56 93 60 94 63 95
REMARK SMILES IDX 57 96 58 97 61 98 59 99 85 100 86 101 94 102 87 103 88 104
REMARK SMILES IDX 92 105 95 106 89 107 90 108 93 109 91 110 70 111 71 112
REMARK SMILES IDX 79 113 72 114 73 115 77 116 80 117 74 118 75 119 78 120
REMARK SMILES IDX 76 121
REMARK H PARENT 34 5 20 10 16 15 25 44 41 55 100 74 68 85
REMARK Flexibility Score: inf
ROOT
ATOM      1  C   UNL A   1      38.987  25.689  28.800  1.00  0.00     0.116 C 
ENDROOT
BRANCH   1   2
ATOM      2  N   UNL A   1      39.793  25.666  27.600  1.00  0.00    -0.354 N 
ATOM      3  C   UNL A   1      39.861  24.723  26.617  1.00  0.00     0.242 C 
ATOM      4  O   UNL A   1      40.229  25.118  25.504  1.00  0.00    -0.273 OA
ATOM      5  H   UNL A   1      40.379  26.447  27.473  1.00  0.00     0.163 HD
BRANCH   3   6
ATOM      6  C   UNL A   1      39.425  23.243  26.781  1.00  0.00     0.175 C 
BRANCH   6   7
ATOM      7  N   UNL A   1      38.820  22.608  25.608  1.00  0.00    -0.342 N 
ATOM      8  C   UNL A   1      37.583  22.854  25.070  1.00  0.00     0.240 C 
ATOM      9  O   UNL A   1      37.348  22.435  23.936  1.00  0.00    -0.273 OA
ATOM     10  H   UNL A   1      39.364  21.924  25.154  1.00  0.00     0.164 HD
BRANCH   8  11
ATOM     11  C   UNL A   1      36.548  23.676  25.865  1.00  0.00     0.216 C 
BRANCH  11  12
ATOM     12  N   UNL A   1      35.840  22.820  26.824  1.00  0.00    -0.340 N 
ATOM     13  C   UNL A   1      34.745  22.002  26.605  1.00  0.00     0.292 C 
ATOM     14  O   UNL A   1      34.184  21.437  27.536  1.00  0.00    -0.265 OA
ATOM     15  H   UNL A   1      36.190  22.830  27.743  1.00  0.00     0.164 HD
BRANCH  13  16
ATOM     16  C   UNL A   1      34.228  21.818  25.174  1.00  0.00     0.252 C 
ATOM     17  O   UNL A   1      34.633  20.822  24.574  1.00  0.00    -0.283 OA
BRANCH  16  18
ATOM     18  C   UNL A   1      33.441  22.864  24.506  1.00  0.00     0.054 A 
ATOM     19  N   UNL A   1      32.532  24.345  23.062  1.00  0.00    -0.240 N 
ATOM     20  C   UNL A   1      33.529  23.384  23.210  1.00  0.00     0.117 A 
ATOM     21  C   UNL A   1      31.700  24.277  24.189  1.00  0.00     0.065 A 
ATOM     22  C   UNL A   1      32.436  23.628  25.174  1.00  0.00     0.012 A 
ATOM     23  C   UNL A   1      30.500  24.951  24.490  1.00  0.00     0.028 A 
ATOM     24  C   UNL A   1      32.061  23.807  26.524  1.00  0.00     0.011 A 
ATOM     25  C   UNL A   1      30.183  25.162  25.830  1.00  0.00     0.002 A 
ATOM     26  C   UNL A   1      30.978  24.633  26.838  1.00  0.00     0.001 A 
BRANCH  19  27
ATOM     27  S   UNL A   1      32.758  25.987  22.525  1.00  0.00     0.268 S 
ATOM     28  O   UNL A   1      31.635  26.195  21.627  1.00  0.00    -0.201 OA
ATOM     29  O   UNL A   1      34.128  25.977  22.031  1.00  0.00    -0.201 OA
BRANCH  27  30
ATOM     30  C   UNL A   1      32.770  27.394  23.574  1.00  0.00     0.088 A 
ATOM     31  C   UNL A   1      33.188  30.184  26.844  1.00  0.00     0.044 C 
ATOM     32  C   UNL A   1      33.054  29.260  25.668  1.00  0.00    -0.051 A 
ATOM     33  C   UNL A   1      33.840  28.116  25.660  1.00  0.00     0.005 A 
ATOM     34  C   UNL A   1      32.137  29.467  24.612  1.00  0.00     0.005 A 
ATOM     35  C   UNL A   1      33.703  27.210  24.624  1.00  0.00     0.022 A 
ATOM     36  C   UNL A   1      31.984  28.533  23.556  1.00  0.00     0.022 A 
ENDBRANCH  27  30
ENDBRANCH  19  27
ENDBRANCH  16  18
ENDBRANCH  13  16
ENDBRANCH  11  12
ENDBRANCH   8  11
ENDBRANCH   6   7
BRANCH   6  37
ATOM     37  C   UNL A   1      40.415  22.330  27.525  1.00  0.00     0.072 C 
BRANCH  37  38
ATOM     38  C   UNL A   1      41.867  22.504  27.212  1.00  0.00    -0.020 A 
ATOM     39  C   UNL A   1      42.473  22.129  26.028  1.00  0.00     0.087 A 
ATOM     40  C   UNL A   1      42.872  23.164  27.995  1.00  0.00     0.003 A 
ATOM     41  N   UNL A   1      43.801  22.442  26.101  1.00  0.00    -0.361 N 
ATOM     42  C   UNL A   1      44.077  23.059  27.297  1.00  0.00     0.046 A 
ATOM     43  C   UNL A   1      42.877  23.857  29.225  1.00  0.00     0.010 A 
ATOM     44  H   UNL A   1      44.464  22.253  25.398  1.00  0.00     0.166 HD
ATOM     45  C   UNL A   1      45.292  23.552  27.789  1.00  0.00     0.026 A 
ATOM     46  C   UNL A   1      44.077  24.397  29.710  1.00  0.00     0.001 A 
ATOM     47  C   UNL A   1      45.268  24.231  29.009  1.00  0.00     0.002 A 
ENDBRANCH  37  38
ENDBRANCH   6  37
ENDBRANCH   3   6
ENDBRANCH   1   2
BRANCH   1  48
ATOM     48  C   UNL A   1      39.356  26.784  29.800  1.00  0.00     0.021 C 
BRANCH  48  49
ATOM     49  C   UNL A   1      38.557  28.096  29.753  1.00  0.00     0.002 C 
BRANCH  49  50
ATOM     50  C   UNL A   1      38.170  28.678  28.384  1.00  0.00     0.002 C 
BRANCH  50  51
ATOM     51  C   UNL A   1      36.878  29.489  28.295  1.00  0.00     0.021 C 
BRANCH  51  52
ATOM     52  C   UNL A   1      36.293  29.953  29.620  1.00  0.00     0.116 C 
BRANCH  52  53
ATOM     53  N   UNL A   1      35.482  31.162  29.540  1.00  0.00    -0.352 N 
ATOM     54  C   UNL A   1      35.733  32.413  30.099  1.00  0.00     0.251 C 
ATOM     55  H   UNL A   1      34.648  31.083  29.025  1.00  0.00     0.163 HD
ATOM     56  O   UNL A   1      34.961  33.332  29.949  1.00  0.00    -0.269 OA
BRANCH  54  57
ATOM     57  C   UNL A   1      37.039  32.627  30.772  1.00  0.00     0.039 A 
ATOM     58  C   UNL A   1      37.995  33.405  30.111  1.00  0.00     0.014 A 
ATOM     59  C   UNL A   1      37.392  31.864  31.882  1.00  0.00     0.014 A 
ATOM     60  C   UNL A   1      39.343  33.206  30.396  1.00  0.00     0.010 A 
ATOM     61  C   UNL A   1      38.727  31.581  32.086  1.00  0.00     0.010 A 
ATOM     62  C   UNL A   1      39.700  32.197  31.291  1.00  0.00    -0.014 A 
BRANCH  62  63
ATOM     63  C   UNL A   1      41.035  31.606  31.330  1.00  0.00     0.031 A 
ATOM     64  C   UNL A   1      41.480  30.644  30.300  1.00  0.00     0.074 A 
ATOM     65  C   UNL A   1      41.913  32.024  32.273  1.00  0.00     0.049 A 
ATOM     66  N   UNL A   1      42.419  29.778  30.490  1.00  0.00    -0.248 NA
ATOM     67  C   UNL A   1      40.878  30.557  28.973  1.00  0.00     0.031 C 
ATOM     68  C   UNL A   1      43.355  31.791  32.300  1.00  0.00     0.029 A 
ATOM     69  N   UNL A   1      41.632  32.609  33.521  1.00  0.00    -0.354 N 
ATOM     70  C   UNL A   1      42.718  29.213  29.274  1.00  0.00     0.074 A 
ATOM     71  C   UNL A   1      41.698  29.691  28.368  1.00  0.00     0.031 C 
ATOM     72  C   UNL A   1      43.796  31.939  33.558  1.00  0.00     0.029 A 
ATOM     73  C   UNL A   1      42.631  32.130  34.402  1.00  0.00     0.049 A 
ATOM     74  H   UNL A   1      40.894  33.224  33.737  1.00  0.00     0.167 HD
ATOM     75  C   UNL A   1      43.865  28.496  29.120  1.00  0.00     0.037 A 
ATOM     76  C   UNL A   1      42.327  31.374  35.496  1.00  0.00     0.037 A 
ATOM     77  C   UNL A   1      44.627  28.412  30.357  1.00  0.00     0.049 A 
ATOM     78  C   UNL A   1      42.990  30.018  35.513  1.00  0.00     0.074 A 
ATOM     79  C   UNL A   1      45.682  29.156  30.856  1.00  0.00     0.029 A 
ATOM     80  N   UNL A   1      44.123  27.676  31.424  1.00  0.00    -0.354 N 
ATOM     81  N   UNL A   1      43.488  29.444  34.454  1.00  0.00    -0.248 NA
ATOM     82  C   UNL A   1      43.101  29.182  36.706  1.00  0.00     0.031 C 
ATOM     83  C   UNL A   1      45.786  28.900  32.243  1.00  0.00     0.029 A 
ATOM     84  C   UNL A   1      44.806  27.984  32.584  1.00  0.00     0.049 A 
ATOM     85  H   UNL A   1      43.384  27.029  31.361  1.00  0.00     0.167 HD
ATOM     86  C   UNL A   1      43.941  28.194  34.785  1.00  0.00     0.074 A 
ATOM     87  C   UNL A   1      43.697  28.084  36.209  1.00  0.00     0.031 C 
ATOM     88  C   UNL A   1      44.465  27.353  33.846  1.00  0.00     0.037 A 
BRANCH  75  89
ATOM     89  C   UNL A   1      44.401  28.121  27.768  1.00  0.00     0.064 A 
ATOM     90  C   UNL A   1      43.845  27.056  27.029  1.00  0.00     0.173 A 
ATOM     91  C   UNL A   1      45.505  28.759  27.175  1.00  0.00     0.173 A 
ATOM     92  F   UNL A   1      42.758  26.401  27.453  1.00  0.00    -0.203 F 
ATOM     93  C   UNL A   1      44.408  26.609  25.832  1.00  0.00     0.198 A 
ATOM     94  C   UNL A   1      46.098  28.278  26.004  1.00  0.00     0.198 A 
ATOM     95  F   UNL A   1      46.027  29.869  27.717  1.00  0.00    -0.203 F 
ATOM     96  F   UNL A   1      43.845  25.584  25.174  1.00  0.00    -0.200 F 
ATOM     97  C   UNL A   1      45.554  27.197  25.337  1.00  0.00     0.200 A 
ATOM     98  F   UNL A   1      47.210  28.861  25.534  1.00  0.00    -0.200 F 
ATOM     99  F   UNL A   1      46.125  26.732  24.218  1.00  0.00    -0.200 F 
ENDBRANCH  75  89
BRANCH  76 100
ATOM    100  C   UNL A   1      40.988  31.673  36.063  1.00  0.00     0.064 A 
ATOM    101  C   UNL A   1      40.837  32.844  36.831  1.00  0.00     0.173 A 
ATOM    102  C   UNL A   1      39.830  31.073  35.560  1.00  0.00     0.173 A 
ATOM    103  F   UNL A   1      41.919  33.460  37.334  1.00  0.00    -0.203 F 
ATOM    104  C   UNL A   1      39.593  33.452  36.985  1.00  0.00     0.198 A 
ATOM    105  C   UNL A   1      38.584  31.680  35.725  1.00  0.00     0.198 A 
ATOM    106  F   UNL A   1      39.913  29.968  34.804  1.00  0.00    -0.203 F 
ATOM    107  F   UNL A   1      39.498  34.629  37.621  1.00  0.00    -0.200 F 
ATOM    108  C   UNL A   1      38.471  32.884  36.405  1.00  0.00     0.200 A 
ATOM    109  F   UNL A   1      37.501  31.148  35.138  1.00  0.00    -0.200 F 
ATOM    110  F   UNL A   1      37.292  33.518  36.463  1.00  0.00    -0.200 F 
ENDBRANCH  76 100
BRANCH  88 111
ATOM    111  C   UNL A   1      44.791  25.893  34.038  1.00  0.00     0.064 A 
ATOM    112  C   UNL A   1      46.099  25.383  34.066  1.00  0.00     0.173 A 
ATOM    113  C   UNL A   1      43.766  24.970  34.362  1.00  0.00     0.173 A 
ATOM    114  F   UNL A   1      47.160  26.179  33.885  1.00  0.00    -0.203 F 
ATOM    115  C   UNL A   1      46.358  24.038  34.344  1.00  0.00     0.198 A 
ATOM    116  C   UNL A   1      44.034  23.643  34.692  1.00  0.00     0.198 A 
ATOM    117  F   UNL A   1      42.476  25.338  34.393  1.00  0.00    -0.203 F 
ATOM    118  F   UNL A   1      47.621  23.590  34.324  1.00  0.00    -0.200 F 
ATOM    119  C   UNL A   1      45.329  23.172  34.669  1.00  0.00     0.200 A 
ATOM    120  F   UNL A   1      43.030  22.832  35.054  1.00  0.00    -0.200 F 
ATOM    121  F   UNL A   1      45.588  21.896  34.981  1.00  0.00    -0.200 F 
ENDBRANCH  88 111
ENDBRANCH  62  63
ENDBRANCH  54  57
ENDBRANCH  52  53
ENDBRANCH  51  52
ENDBRANCH  50  51
ENDBRANCH  49  50
ENDBRANCH  48  49
ENDBRANCH   1  48
TORSDOF 22
ENDMDL
MODEL 2
REMARK VINA RESULT:     -10.8      1.581      2.441
REMARK SMILES Cc1ccc(S(=O)(=O)n2cc(C(=O)C(=O)NCC(=O)N[C@@H](Cc3c[nH]c4ccccc34)C(=O)NCCCCCCNC(=O)c3ccc(-c4c5nc(c(-c6c(F)c(F)c(F)c(F)c6F)c6ccc([nH]6)c(-c6c(F)c(F)c(F)c(F)c6F)c6nc(c(-c7c(F)c(F)c(F)c(F)c7F)c7ccc4[nH]7)C=C6)C=C5)cc3)c3ccccc32)cc1
REMARK SMILES IDX 35 1 34 2 32 3 33 4 21 6 20 7 18 8 19 9 17 11 16 12 14 13
REMARK SMILES IDX 15 14 12 16 13 17 11 18 9 19 10 20 112 21 107 22 111 23
REMARK SMILES IDX 108 24 110 25 109 26 6 27 7 28 8 29 5 30 1 31 2 32 3 33
REMARK SMILES IDX 114 34 4 35 113 36 22 37 23 38 24 39 31 40 25 41 26 42 30 43
REMARK SMILES IDX 27 45 29 46 28 47 36 48 37 49 38 50 39 51 40 52 41 53 42 54
REMARK SMILES IDX 43 56 44 57 45 58 106 59 46 60 105 61 47 62 48 63 49 64
REMARK SMILES IDX 99 65 50 66 104 67 98 68 100 69 51 70 103 71 97 72 96 73
REMARK SMILES IDX 52 75 84 76 64 77 83 78 65 79 68 80 82 81 101 82 66 83 67 84
REMARK SMILES IDX 81 86 102 87 69 88 53 89 54 90 62 91 55 92 56 93 60 94 63 95
REMARK SMILES IDX 57 96 58 97 61 98 59 99 85 100 86 101 94 102 87 103 88 104
REMARK SMILES IDX 92 105 95 106 89 107 90 108 93 109 91 110 70 111 71 112
REMARK SMILES IDX 79 113 72 114 73 115 77 116 80 117 74 118 75 119 78 120
REMARK SMILES IDX 76 121
REMARK H PARENT 34 5 20 10 16 15 25 44 41 55 100 74 68 85
REMARK Flexibility Score: inf
ROOT
ATOM      1  C   UNL A   1      39.046  25.954  28.534  1.00  0.00     0.116 C 
ENDROOT
BRANCH   1   2
ATOM      2  N   UNL A   1      39.956  25.810  27.420  1.00  0.00    -0.354 N 
ATOM      3  C   UNL A   1      40.169  24.736  26.606  1.00  0.00     0.242 C 
ATOM      4  O   UNL A   1      40.610  24.985  25.477  1.00  0.00    -0.273 OA
ATOM      5  H   UNL A   1      40.503  26.604  27.219  1.00  0.00     0.163 HD
BRANCH   3   6
ATOM      6  C   UNL A   1      39.810  23.270  26.965  1.00  0.00     0.175 C 
BRANCH   6   7
ATOM      7  N   UNL A   1      39.178  22.476  25.908  1.00  0.00    -0.342 N 
ATOM      8  C   UNL A   1      37.883  22.555  25.466  1.00  0.00     0.240 C 
ATOM      9  O   UNL A   1      37.598  22.014  24.397  1.00  0.00    -0.273 OA
ATOM     10  H   UNL A   1      39.750  21.808  25.465  1.00  0.00     0.164 HD
BRANCH   8  11
ATOM     11  C   UNL A   1      36.839  23.345  26.281  1.00  0.00     0.216 C 
BRANCH  11  12
ATOM     12  N   UNL A   1      35.832  22.438  26.842  1.00  0.00    -0.340 N 
ATOM     13  C   UNL A   1      34.545  22.193  26.392  1.00  0.00     0.292 C 
ATOM     14  O   UNL A   1      33.773  21.496  27.039  1.00  0.00    -0.265 OA
ATOM     15  H   UNL A   1      36.106  21.939  27.644  1.00  0.00     0.164 HD
BRANCH  13  16
ATOM     16  C   UNL A   1      34.088  22.818  25.070  1.00  0.00     0.252 C 
ATOM     17  O   UNL A   1      34.154  22.095  24.076  1.00  0.00    -0.283 OA
BRANCH  16  18
ATOM     18  C   UNL A   1      33.763  24.248  24.974  1.00  0.00     0.054 A 
ATOM     19  N   UNL A   1      33.329  26.433  25.352  1.00  0.00    -0.240 N 
ATOM     20  C   UNL A   1      33.609  25.217  25.971  1.00  0.00     0.117 A 
ATOM     21  C   UNL A   1      33.513  26.264  23.972  1.00  0.00     0.065 A 
ATOM     22  C   UNL A   1      33.450  24.894  23.739  1.00  0.00     0.012 A 
ATOM     23  C   UNL A   1      33.462  27.193  22.914  1.00  0.00     0.028 A 
ATOM     24  C   UNL A   1      33.149  24.445  22.434  1.00  0.00     0.011 A 
ATOM     25  C   UNL A   1      33.106  26.731  21.650  1.00  0.00     0.002 A 
ATOM     26  C   UNL A   1      32.910  25.377  21.420  1.00  0.00     0.001 A 
BRANCH  19  27
ATOM     27  S   UNL A   1      31.980  27.478  25.700  1.00  0.00     0.268 S 
ATOM     28  O   UNL A   1      32.622  28.717  26.106  1.00  0.00    -0.201 OA
ATOM     29  O   UNL A   1      31.198  26.689  26.641  1.00  0.00    -0.201 OA
BRANCH  27  30
ATOM     30  C   UNL A   1      30.756  27.959  24.538  1.00  0.00     0.088 A 
ATOM     31  C   UNL A   1      27.891  30.081  22.101  1.00  0.00     0.044 C 
ATOM     32  C   UNL A   1      28.897  29.306  22.901  1.00  0.00    -0.051 A 
ATOM     33  C   UNL A   1      29.931  30.019  23.492  1.00  0.00     0.005 A 
ATOM     34  C   UNL A   1      28.812  27.913  23.125  1.00  0.00     0.005 A 
ATOM     35  C   UNL A   1      30.845  29.351  24.285  1.00  0.00     0.022 A 
ATOM     36  C   UNL A   1      29.739  27.226  23.950  1.00  0.00     0.022 A 
ENDBRANCH  27  30
ENDBRANCH  19  27
ENDBRANCH  16  18
ENDBRANCH  13  16
ENDBRANCH  11  12
ENDBRANCH   8  11
ENDBRANCH   6   7
BRANCH   6  37
ATOM     37  C   UNL A   1      40.876  22.493  27.755  1.00  0.00     0.072 C 
BRANCH  37  38
ATOM     38  C   UNL A   1      41.404  21.239  27.133  1.00  0.00    -0.020 A 
ATOM     39  C   UNL A   1      40.762  20.015  27.147  1.00  0.00     0.087 A 
ATOM     40  C   UNL A   1      42.584  21.073  26.333  1.00  0.00     0.003 A 
ATOM     41  N   UNL A   1      41.539  19.109  26.483  1.00  0.00    -0.361 N 
ATOM     42  C   UNL A   1      42.666  19.721  25.990  1.00  0.00     0.046 A 
ATOM     43  C   UNL A   1      43.587  21.940  25.850  1.00  0.00     0.010 A 
ATOM     44  H   UNL A   1      41.322  18.154  26.374  1.00  0.00     0.166 HD
ATOM     45  C   UNL A   1      43.723  19.183  25.248  1.00  0.00     0.026 A 
ATOM     46  C   UNL A   1      44.629  21.425  25.067  1.00  0.00     0.001 A 
ATOM     47  C   UNL A   1      44.703  20.064  24.785  1.00  0.00     0.002 A 
ENDBRANCH  37  38
ENDBRANCH   6  37
ENDBRANCH   3   6
ENDBRANCH   1   2
BRANCH   1  48
ATOM     48  C   UNL A   1      39.346  27.134  29.459  1.00  0.00     0.021 C 
BRANCH  48  49
ATOM     49  C   UNL A   1      38.271  28.223  29.601  1.00  0.00     0.002 C 
BRANCH  49  50
ATOM     50  C   UNL A   1      37.892  29.055  28.365  1.00  0.00     0.002 C 
BRANCH  50  51
ATOM     51  C   UNL A   1      37.319  30.452  28.597  1.00  0.00     0.021 C 
BRANCH  51  52
ATOM     52  C   UNL A   1      36.556  30.649  29.898  1.00  0.00     0.116 C 
BRANCH  52  53
ATOM     53  N   UNL A   1      35.750  31.863  29.956  1.00  0.00    -0.352 N 
ATOM     54  C   UNL A   1      36.026  33.057  30.617  1.00  0.00     0.251 C 
ATOM     55  H   UNL A   1      34.898  31.833  29.465  1.00  0.00     0.163 HD
ATOM     56  O   UNL A   1      35.255  33.988  30.578  1.00  0.00    -0.269 OA
BRANCH  54  57
ATOM     57  C   UNL A   1      37.357  33.206  31.261  1.00  0.00     0.039 A 
ATOM     58  C   UNL A   1      38.355  33.880  30.551  1.00  0.00     0.014 A 
ATOM     59  C   UNL A   1      37.671  32.472  32.401  1.00  0.00     0.014 A 
ATOM     60  C   UNL A   1      39.690  33.595  30.827  1.00  0.00     0.010 A 
ATOM     61  C   UNL A   1      38.986  32.101  32.601  1.00  0.00     0.010 A 
ATOM     62  C   UNL A   1      39.987  32.606  31.764  1.00  0.00    -0.014 A 
BRANCH  62  63
ATOM     63  C   UNL A   1      41.276  31.921  31.812  1.00  0.00     0.031 A 
ATOM     64  C   UNL A   1      41.603  30.831  30.870  1.00  0.00     0.074 A 
ATOM     65  C   UNL A   1      42.224  32.361  32.675  1.00  0.00     0.049 A 
ATOM     66  N   UNL A   1      42.484  29.918  31.112  1.00  0.00    -0.248 NA
ATOM     67  C   UNL A   1      40.938  30.660  29.582  1.00  0.00     0.031 C 
ATOM     68  C   UNL A   1      43.645  32.022  32.672  1.00  0.00     0.029 A 
ATOM     69  N   UNL A   1      42.042  33.086  33.867  1.00  0.00    -0.354 N 
ATOM     70  C   UNL A   1      42.687  29.215  29.949  1.00  0.00     0.074 A 
ATOM     71  C   UNL A   1      41.665  29.678  29.038  1.00  0.00     0.031 C 
ATOM     72  C   UNL A   1      44.151  32.259  33.891  1.00  0.00     0.029 A 
ATOM     73  C   UNL A   1      43.042  32.621  34.754  1.00  0.00     0.049 A 
ATOM     74  H   UNL A   1      41.361  33.774  34.046  1.00  0.00     0.167 HD
ATOM     75  C   UNL A   1      43.771  28.400  29.827  1.00  0.00     0.037 A 
ATOM     76  C   UNL A   1      42.733  32.002  35.930  1.00  0.00     0.037 A 
ATOM     77  C   UNL A   1      44.579  28.380  31.036  1.00  0.00     0.049 A 
ATOM     78  C   UNL A   1      43.295  30.607  36.060  1.00  0.00     0.074 A 
ATOM     79  C   UNL A   1      45.707  29.087  31.418  1.00  0.00     0.029 A 
ATOM     80  N   UNL A   1      44.071  27.794  32.190  1.00  0.00    -0.354 N 
ATOM     81  N   UNL A   1      43.702  29.895  35.047  1.00  0.00    -0.248 NA
ATOM     82  C   UNL A   1      43.399  29.887  37.327  1.00  0.00     0.031 C 
ATOM     83  C   UNL A   1      45.854  28.961  32.819  1.00  0.00     0.029 A 
ATOM     84  C   UNL A   1      44.826  28.161  33.287  1.00  0.00     0.049 A 
ATOM     85  H   UNL A   1      43.285  27.203  32.221  1.00  0.00     0.167 HD
ATOM     86  C   UNL A   1      44.078  28.653  35.486  1.00  0.00     0.074 A 
ATOM     87  C   UNL A   1      43.891  28.703  36.922  1.00  0.00     0.031 C 
ATOM     88  C   UNL A   1      44.497  27.685  34.619  1.00  0.00     0.037 A 
BRANCH  75  89
ATOM     89  C   UNL A   1      44.217  27.853  28.501  1.00  0.00     0.064 A 
ATOM     90  C   UNL A   1      45.099  28.573  27.669  1.00  0.00     0.173 A 
ATOM     91  C   UNL A   1      43.757  26.630  27.981  1.00  0.00     0.173 A 
ATOM     92  F   UNL A   1      45.654  29.725  28.067  1.00  0.00    -0.203 F 
ATOM     93  C   UNL A   1      45.424  28.143  26.381  1.00  0.00     0.198 A 
ATOM     94  C   UNL A   1      44.041  26.226  26.674  1.00  0.00     0.198 A 
ATOM     95  F   UNL A   1      43.028  25.796  28.736  1.00  0.00    -0.203 F 
ATOM     96  F   UNL A   1      46.260  28.873  25.628  1.00  0.00    -0.200 F 
ATOM     97  C   UNL A   1      44.868  26.988  25.870  1.00  0.00     0.200 A 
ATOM     98  F   UNL A   1      43.496  25.100  26.192  1.00  0.00    -0.200 F 
ATOM     99  F   UNL A   1      45.136  26.606  24.615  1.00  0.00    -0.200 F 
ENDBRANCH  75  89
BRANCH  76 100
ATOM    100  C   UNL A   1      41.446  32.458  36.513  1.00  0.00     0.064 A 
ATOM    101  C   UNL A   1      41.403  33.728  37.121  1.00  0.00     0.173 A 
ATOM    102  C   UNL A   1      40.230  31.870  36.151  1.00  0.00     0.173 A 
ATOM    103  F   UNL A   1      42.544  34.336  37.484  1.00  0.00    -0.203 F 
ATOM    104  C   UNL A   1      40.206  34.428  37.248  1.00  0.00     0.198 A 
ATOM    105  C   UNL A   1      39.031  32.571  36.290  1.00  0.00     0.198 A 
ATOM    106  F   UNL A   1      40.209  30.671  35.548  1.00  0.00    -0.203 F 
ATOM    107  F   UNL A   1      40.212  35.682  37.723  1.00  0.00    -0.200 F 
ATOM    108  C   UNL A   1      39.023  33.859  36.805  1.00  0.00     0.200 A 
ATOM    109  F   UNL A   1      37.889  32.035  35.831  1.00  0.00    -0.200 F 
ATOM    110  F   UNL A   1      37.886  34.568  36.831  1.00  0.00    -0.200 F 
ENDBRANCH  76 100
BRANCH  88 111
ATOM    111  C   UNL A   1      44.724  26.231  34.945  1.00  0.00     0.064 A 
ATOM    112  C   UNL A   1      45.945  25.717  35.410  1.00  0.00     0.173 A 
ATOM    113  C   UNL A   1      43.638  25.322  34.944  1.00  0.00     0.173 A 
ATOM    114  F   UNL A   1      47.018  26.504  35.563  1.00  0.00    -0.203 F 
ATOM    115  C   UNL A   1      46.083  24.380  35.794  1.00  0.00     0.198 A 
ATOM    116  C   UNL A   1      43.767  24.004  35.379  1.00  0.00     0.198 A 
ATOM    117  F   UNL A   1      42.412  25.695  34.544  1.00  0.00    -0.203 F 
ATOM    118  F   UNL A   1      47.278  23.927  36.198  1.00  0.00    -0.200 F 
ATOM    119  C   UNL A   1      44.993  23.529  35.790  1.00  0.00     0.200 A 
ATOM    120  F   UNL A   1      42.689  23.208  35.417  1.00  0.00    -0.200 F 
ATOM    121  F   UNL A   1      45.120  22.261  36.204  1.00  0.00    -0.200 F 
ENDBRANCH  88 111
ENDBRANCH  62  63
ENDBRANCH  54  57
ENDBRANCH  52  53
ENDBRANCH  51  52
ENDBRANCH  50  51
ENDBRANCH  49  50
ENDBRANCH  48  49
ENDBRANCH   1  48
TORSDOF 22
ENDMDL
MODEL 3
REMARK VINA RESULT:     -10.8      8.713     13.352
REMARK SMILES Cc1ccc(S(=O)(=O)n2cc(C(=O)C(=O)NCC(=O)N[C@@H](Cc3c[nH]c4ccccc34)C(=O)NCCCCCCNC(=O)c3ccc(-c4c5nc(c(-c6c(F)c(F)c(F)c(F)c6F)c6ccc([nH]6)c(-c6c(F)c(F)c(F)c(F)c6F)c6nc(c(-c7c(F)c(F)c(F)c(F)c7F)c7ccc4[nH]7)C=C6)C=C5)cc3)c3ccccc32)cc1
REMARK SMILES IDX 35 1 34 2 32 3 33 4 21 6 20 7 18 8 19 9 17 11 16 12 14 13
REMARK SMILES IDX 15 14 12 16 13 17 11 18 9 19 10 20 112 21 107 22 111 23
REMARK SMILES IDX 108 24 110 25 109 26 6 27 7 28 8 29 5 30 1 31 2 32 3 33
REMARK SMILES IDX 114 34 4 35 113 36 22 37 23 38 24 39 31 40 25 41 26 42 30 43
REMARK SMILES IDX 27 45 29 46 28 47 36 48 37 49 38 50 39 51 40 52 41 53 42 54
REMARK SMILES IDX 43 56 44 57 45 58 106 59 46 60 105 61 47 62 48 63 49 64
REMARK SMILES IDX 99 65 50 66 104 67 98 68 100 69 51 70 103 71 97 72 96 73
REMARK SMILES IDX 52 75 84 76 64 77 83 78 65 79 68 80 82 81 101 82 66 83 67 84
REMARK SMILES IDX 81 86 102 87 69 88 53 89 54 90 62 91 55 92 56 93 60 94 63 95
REMARK SMILES IDX 57 96 58 97 61 98 59 99 85 100 86 101 94 102 87 103 88 104
REMARK SMILES IDX 92 105 95 106 89 107 90 108 93 109 91 110 70 111 71 112
REMARK SMILES IDX 79 113 72 114 73 115 77 116 80 117 74 118 75 119 78 120
REMARK SMILES IDX 76 121
REMARK H PARENT 34 5 20 10 16 15 25 44 41 55 100 74 68 85
REMARK Flexibility Score: inf
ROOT
ATOM      1  C   UNL A   1      42.520  36.298  29.257  1.00  0.00     0.116 C 
ENDROOT
BRANCH   1   2
ATOM      2  N   UNL A   1      43.132  36.577  27.977  1.00  0.00    -0.354 N 
ATOM      3  C   UNL A   1      43.598  37.758  27.477  1.00  0.00     0.242 C 
ATOM      4  O   UNL A   1      44.478  37.676  26.611  1.00  0.00    -0.273 OA
ATOM      5  H   UNL A   1      43.226  35.802  27.378  1.00  0.00     0.163 HD
BRANCH   3   6
ATOM      6  C   UNL A   1      43.173  39.161  27.983  1.00  0.00     0.175 C 
BRANCH   6   7
ATOM      7  N   UNL A   1      41.869  39.651  27.529  1.00  0.00    -0.342 N 
ATOM      8  C   UNL A   1      41.590  40.328  26.371  1.00  0.00     0.240 C 
ATOM      9  O   UNL A   1      40.413  40.421  26.019  1.00  0.00    -0.273 OA
ATOM     10  H   UNL A   1      41.105  39.474  28.125  1.00  0.00     0.164 HD
BRANCH   8  11
ATOM     11  C   UNL A   1      42.739  40.911  25.523  1.00  0.00     0.216 C 
BRANCH  11  12
ATOM     12  N   UNL A   1      43.321  42.084  26.184  1.00  0.00    -0.340 N 
ATOM     13  C   UNL A   1      44.428  42.826  25.809  1.00  0.00     0.292 C 
ATOM     14  O   UNL A   1      44.869  43.711  26.531  1.00  0.00    -0.265 OA
ATOM     15  H   UNL A   1      42.864  42.383  27.003  1.00  0.00     0.164 HD
BRANCH  13  16
ATOM     16  C   UNL A   1      45.111  42.518  24.471  1.00  0.00     0.252 C 
ATOM     17  O   UNL A   1      46.022  41.692  24.505  1.00  0.00    -0.283 OA
BRANCH  16  18
ATOM     18  C   UNL A   1      44.809  43.299  23.263  1.00  0.00     0.054 A 
ATOM     19  N   UNL A   1      43.886  44.238  21.428  1.00  0.00    -0.240 N 
ATOM     20  C   UNL A   1      43.691  43.282  22.422  1.00  0.00     0.117 A 
ATOM     21  C   UNL A   1      45.022  44.986  21.768  1.00  0.00     0.065 A 
ATOM     22  C   UNL A   1      45.737  44.212  22.676  1.00  0.00     0.012 A 
ATOM     23  C   UNL A   1      45.590  46.126  21.164  1.00  0.00     0.028 A 
ATOM     24  C   UNL A   1      47.113  44.476  22.850  1.00  0.00     0.011 A 
ATOM     25  C   UNL A   1      46.960  46.330  21.306  1.00  0.00     0.002 A 
ATOM     26  C   UNL A   1      47.723  45.491  22.106  1.00  0.00     0.001 A 
BRANCH  19  27
ATOM     27  S   UNL A   1      43.780  43.971  19.710  1.00  0.00     0.268 S 
ATOM     28  O   UNL A   1      42.956  42.778  19.615  1.00  0.00    -0.201 OA
ATOM     29  O   UNL A   1      45.177  43.958  19.300  1.00  0.00    -0.201 OA
BRANCH  27  30
ATOM     30  C   UNL A   1      43.084  45.098  18.558  1.00  0.00     0.088 A 
ATOM     31  C   UNL A   1      42.183  48.459  16.000  1.00  0.00     0.044 C 
ATOM     32  C   UNL A   1      42.471  47.253  16.848  1.00  0.00    -0.051 A 
ATOM     33  C   UNL A   1      43.780  47.067  17.271  1.00  0.00     0.005 A 
ATOM     34  C   UNL A   1      41.477  46.344  17.276  1.00  0.00     0.005 A 
ATOM     35  C   UNL A   1      44.075  46.002  18.102  1.00  0.00     0.022 A 
ATOM     36  C   UNL A   1      41.774  45.259  18.139  1.00  0.00     0.022 A 
ENDBRANCH  27  30
ENDBRANCH  19  27
ENDBRANCH  16  18
ENDBRANCH  13  16
ENDBRANCH  11  12
ENDBRANCH   8  11
ENDBRANCH   6   7
BRANCH   6  37
ATOM     37  C   UNL A   1      43.447  39.450  29.470  1.00  0.00     0.072 C 
BRANCH  37  38
ATOM     38  C   UNL A   1      44.005  40.796  29.808  1.00  0.00    -0.020 A 
ATOM     39  C   UNL A   1      45.044  41.415  29.140  1.00  0.00     0.087 A 
ATOM     40  C   UNL A   1      43.531  41.734  30.786  1.00  0.00     0.003 A 
ATOM     41  N   UNL A   1      45.278  42.626  29.726  1.00  0.00    -0.361 N 
ATOM     42  C   UNL A   1      44.382  42.841  30.744  1.00  0.00     0.046 A 
ATOM     43  C   UNL A   1      42.452  41.761  31.695  1.00  0.00     0.010 A 
ATOM     44  H   UNL A   1      45.987  43.255  29.457  1.00  0.00     0.166 HD
ATOM     45  C   UNL A   1      44.249  43.940  31.602  1.00  0.00     0.026 A 
ATOM     46  C   UNL A   1      42.278  42.875  32.529  1.00  0.00     0.001 A 
ATOM     47  C   UNL A   1      43.174  43.939  32.493  1.00  0.00     0.002 A 
ENDBRANCH  37  38
ENDBRANCH   6  37
ENDBRANCH   3   6
ENDBRANCH   1   2
BRANCH   1  48
ATOM     48  C   UNL A   1      41.798  34.953  29.342  1.00  0.00     0.021 C 
BRANCH  48  49
ATOM     49  C   UNL A   1      40.270  34.948  29.176  1.00  0.00     0.002 C 
BRANCH  49  50
ATOM     50  C   UNL A   1      39.395  34.589  30.388  1.00  0.00     0.002 C 
BRANCH  50  51
ATOM     51  C   UNL A   1      38.538  33.327  30.298  1.00  0.00     0.021 C 
BRANCH  51  52
ATOM     52  C   UNL A   1      37.816  33.109  28.977  1.00  0.00     0.116 C 
BRANCH  52  53
ATOM     53  N   UNL A   1      36.371  32.948  29.091  1.00  0.00    -0.352 N 
ATOM     54  C   UNL A   1      35.617  31.782  28.988  1.00  0.00     0.251 C 
ATOM     55  H   UNL A   1      35.862  33.772  29.263  1.00  0.00     0.163 HD
ATOM     56  O   UNL A   1      34.413  31.802  29.103  1.00  0.00    -0.269 OA
BRANCH  54  57
ATOM     57  C   UNL A   1      36.342  30.491  28.864  1.00  0.00     0.039 A 
ATOM     58  C   UNL A   1      36.699  29.827  30.042  1.00  0.00     0.014 A 
ATOM     59  C   UNL A   1      36.878  30.101  27.641  1.00  0.00     0.014 A 
ATOM     60  C   UNL A   1      37.788  28.960  30.025  1.00  0.00     0.010 A 
ATOM     61  C   UNL A   1      38.025  29.333  27.642  1.00  0.00     0.010 A 
ATOM     62  C   UNL A   1      38.523  28.825  28.847  1.00  0.00    -0.014 A 
BRANCH  62  63
ATOM     63  C   UNL A   1      39.894  28.324  28.821  1.00  0.00     0.031 A 
ATOM     64  C   UNL A   1      40.190  26.909  28.511  1.00  0.00     0.074 A 
ATOM     65  C   UNL A   1      40.917  29.196  28.989  1.00  0.00     0.049 A 
ATOM     66  N   UNL A   1      41.270  26.307  28.885  1.00  0.00    -0.248 NA
ATOM     67  C   UNL A   1      39.274  26.043  27.775  1.00  0.00     0.031 C 
ATOM     68  C   UNL A   1      42.331  28.962  28.705  1.00  0.00     0.029 A 
ATOM     69  N   UNL A   1      40.896  30.444  29.638  1.00  0.00    -0.354 N 
ATOM     70  C   UNL A   1      41.314  25.094  28.242  1.00  0.00     0.074 A 
ATOM     71  C   UNL A   1      40.026  24.951  27.603  1.00  0.00     0.031 C 
ATOM     72  C   UNL A   1      43.066  29.841  29.403  1.00  0.00     0.029 A 
ATOM     73  C   UNL A   1      42.157  30.572  30.265  1.00  0.00     0.049 A 
ATOM     74  H   UNL A   1      40.156  31.094  29.651  1.00  0.00     0.167 HD
ATOM     75  C   UNL A   1      42.476  24.384  28.210  1.00  0.00     0.037 A 
ATOM     76  C   UNL A   1      42.282  30.679  31.620  1.00  0.00     0.037 A 
ATOM     77  C   UNL A   1      43.546  25.052  28.934  1.00  0.00     0.049 A 
ATOM     78  C   UNL A   1      43.129  29.600  32.249  1.00  0.00     0.074 A 
ATOM     79  C   UNL A   1      44.566  25.894  28.524  1.00  0.00     0.029 A 
ATOM     80  N   UNL A   1      43.471  25.168  30.317  1.00  0.00    -0.354 N 
ATOM     81  N   UNL A   1      43.407  28.468  31.666  1.00  0.00    -0.248 NA
ATOM     82  C   UNL A   1      43.688  29.687  33.596  1.00  0.00     0.031 C 
ATOM     83  C   UNL A   1      45.079  26.554  29.665  1.00  0.00     0.029 A 
ATOM     84  C   UNL A   1      44.384  26.099  30.771  1.00  0.00     0.049 A 
ATOM     85  H   UNL A   1      42.853  24.659  30.890  1.00  0.00     0.167 HD
ATOM     86  C   UNL A   1      44.123  27.677  32.525  1.00  0.00     0.074 A 
ATOM     87  C   UNL A   1      44.293  28.491  33.712  1.00  0.00     0.031 C 
ATOM     88  C   UNL A   1      44.500  26.410  32.185  1.00  0.00     0.037 A 
BRANCH  75  89
ATOM     89  C   UNL A   1      42.679  23.221  27.280  1.00  0.00     0.064 A 
ATOM     90  C   UNL A   1      42.181  21.939  27.589  1.00  0.00     0.173 A 
ATOM     91  C   UNL A   1      43.409  23.315  26.082  1.00  0.00     0.173 A 
ATOM     92  F   UNL A   1      41.423  21.724  28.671  1.00  0.00    -0.203 F 
ATOM     93  C   UNL A   1      42.468  20.821  26.804  1.00  0.00     0.198 A 
ATOM     94  C   UNL A   1      43.738  22.188  25.325  1.00  0.00     0.198 A 
ATOM     95  F   UNL A   1      43.810  24.507  25.615  1.00  0.00    -0.203 F 
ATOM     96  F   UNL A   1      41.977  19.621  27.150  1.00  0.00    -0.200 F 
ATOM     97  C   UNL A   1      43.275  20.939  25.691  1.00  0.00     0.200 A 
ATOM     98  F   UNL A   1      44.522  22.318  24.244  1.00  0.00    -0.200 F 
ATOM     99  F   UNL A   1      43.596  19.857  24.970  1.00  0.00    -0.200 F 
ENDBRANCH  75  89
BRANCH  76 100
ATOM    100  C   UNL A   1      41.116  31.331  32.268  1.00  0.00     0.064 A 
ATOM    101  C   UNL A   1      40.095  30.509  32.783  1.00  0.00     0.173 A 
ATOM    102  C   UNL A   1      41.175  32.653  32.720  1.00  0.00     0.173 A 
ATOM    103  F   UNL A   1      39.999  29.231  32.383  1.00  0.00    -0.203 F 
ATOM    104  C   UNL A   1      39.249  30.955  33.794  1.00  0.00     0.198 A 
ATOM    105  C   UNL A   1      40.318  33.100  33.727  1.00  0.00     0.198 A 
ATOM    106  F   UNL A   1      42.139  33.477  32.282  1.00  0.00    -0.203 F 
ATOM    107  F   UNL A   1      38.364  30.112  34.346  1.00  0.00    -0.200 F 
ATOM    108  C   UNL A   1      39.381  32.243  34.286  1.00  0.00     0.200 A 
ATOM    109  F   UNL A   1      40.466  34.336  34.227  1.00  0.00    -0.200 F 
ATOM    110  F   UNL A   1      38.639  32.643  35.328  1.00  0.00    -0.200 F 
ENDBRANCH  76 100
BRANCH  88 111
ATOM    111  C   UNL A   1      45.091  25.375  33.108  1.00  0.00     0.064 A 
ATOM    112  C   UNL A   1      44.349  24.337  33.694  1.00  0.00     0.173 A 
ATOM    113  C   UNL A   1      46.492  25.314  33.306  1.00  0.00     0.173 A 
ATOM    114  F   UNL A   1      43.030  24.222  33.488  1.00  0.00    -0.203 F 
ATOM    115  C   UNL A   1      44.957  23.342  34.465  1.00  0.00     0.198 A 
ATOM    116  C   UNL A   1      47.100  24.290  34.030  1.00  0.00     0.198 A 
ATOM    117  F   UNL A   1      47.315  26.233  32.779  1.00  0.00    -0.203 F 
ATOM    118  F   UNL A   1      44.202  22.392  35.034  1.00  0.00    -0.200 F 
ATOM    119  C   UNL A   1      46.331  23.312  34.623  1.00  0.00     0.200 A 
ATOM    120  F   UNL A   1      48.436  24.247  34.129  1.00  0.00    -0.200 F 
ATOM    121  F   UNL A   1      46.912  22.329  35.323  1.00  0.00    -0.200 F 
ENDBRANCH  88 111
ENDBRANCH  62  63
ENDBRANCH  54  57
ENDBRANCH  52  53
ENDBRANCH  51  52
ENDBRANCH  50  51
ENDBRANCH  49  50
ENDBRANCH  48  49
ENDBRANCH   1  48
TORSDOF 22
ENDMDL
