MODEL 1
REMARK VINA RESULT:     -12.4      0.000      0.000
REMARK SMILES Nc1cc(C(=O)NCCCCCCNC(=O)c2ccc(-c3c4nc(c(-c5c(F)c(F)c(F)c(F)c5F)c5ccc([nH]5)c(-c5c(F)c(F)c(F)c(F)c5F)c5nc(c(-c6c(F)c(F)c(F)c(F)c6F)c6ccc3[nH]6)C=C5)C=C4)cc2)nc2ccc(F)cc12
REMARK SMILES IDX 11 1 10 2 9 3 8 4 7 5 5 6 6 7 4 9 2 10 3 11 87 12 81 13
REMARK SMILES IDX 86 14 80 15 82 16 84 17 83 18 85 19 1 20 12 23 13 24 14 25
REMARK SMILES IDX 15 26 16 28 17 29 18 30 79 31 19 32 78 33 20 34 21 35 22 36
REMARK SMILES IDX 72 37 23 38 77 39 71 40 73 41 24 42 76 43 70 44 69 45 25 47
REMARK SMILES IDX 57 48 37 49 56 50 38 51 41 52 55 53 74 54 39 55 40 56 54 58
REMARK SMILES IDX 75 59 42 60 26 61 27 62 35 63 28 64 29 65 33 66 36 67 30 68
REMARK SMILES IDX 31 69 34 70 32 71 58 72 59 73 67 74 60 75 61 76 65 77 68 78
REMARK SMILES IDX 62 79 63 80 66 81 64 82 43 83 44 84 52 85 45 86 46 87 50 88
REMARK SMILES IDX 53 89 47 90 48 91 51 92 49 93
REMARK H PARENT 7 8 1 21 1 22 14 27 73 46 41 57
REMARK Flexibility Score: inf
ROOT
ATOM      1  C   UNL A   1      31.719  30.495  25.942  1.00  0.00     0.002 C 
ENDROOT
BRANCH   1   2
ATOM      2  C   UNL A   1      32.311  29.481  26.932  1.00  0.00     0.002 C 
BRANCH   2   3
ATOM      3  C   UNL A   1      33.333  28.511  26.324  1.00  0.00     0.021 C 
BRANCH   3   4
ATOM      4  C   UNL A   1      33.033  27.046  26.649  1.00  0.00     0.116 C 
BRANCH   4   5
ATOM      5  N   UNL A   1      33.297  26.216  25.494  1.00  0.00    -0.351 N 
ATOM      6  C   UNL A   1      32.606  25.955  24.334  1.00  0.00     0.269 C 
ATOM      7  O   UNL A   1      33.140  25.144  23.571  1.00  0.00    -0.268 OA
ATOM      8  H   UNL A   1      34.155  25.735  25.551  1.00  0.00     0.163 HD
BRANCH   6   9
ATOM      9  C   UNL A   1      31.303  26.606  23.940  1.00  0.00     0.130 A 
ATOM     10  C   UNL A   1      28.908  26.812  23.840  1.00  0.00     0.043 A 
ATOM     11  C   UNL A   1      30.048  26.069  24.159  1.00  0.00     0.060 A 
ATOM     12  C   UNL A   1      29.065  28.047  23.171  1.00  0.00     0.026 A 
ATOM     13  C   UNL A   1      30.384  28.478  22.910  1.00  0.00     0.073 A 
ATOM     14  C   UNL A   1      27.990  28.863  22.749  1.00  0.00     0.051 A 
ATOM     15  N   UNL A   1      31.462  27.796  23.310  1.00  0.00    -0.242 NA
ATOM     16  C   UNL A   1      30.587  29.656  22.202  1.00  0.00     0.032 A 
ATOM     17  C   UNL A   1      28.228  30.039  22.050  1.00  0.00     0.124 A 
ATOM     18  C   UNL A   1      29.520  30.437  21.759  1.00  0.00     0.041 A 
ATOM     19  F   UNL A   1      27.194  30.788  21.648  1.00  0.00    -0.207 F 
BRANCH  10  20
ATOM     20  N   UNL A   1      27.661  26.240  24.090  1.00  0.00    -0.398 N 
ATOM     21  H   UNL A   1      27.549  25.615  24.843  1.00  0.00     0.156 HD
ATOM     22  H   UNL A   1      26.893  26.460  23.515  1.00  0.00     0.156 HD
ENDBRANCH  10  20
ENDBRANCH   6   9
ENDBRANCH   4   5
ENDBRANCH   3   4
ENDBRANCH   2   3
ENDBRANCH   1   2
BRANCH   1  23
ATOM     23  C   UNL A   1      31.434  31.876  26.532  1.00  0.00     0.021 C 
BRANCH  23  24
ATOM     24  C   UNL A   1      32.631  32.504  27.235  1.00  0.00     0.116 C 
BRANCH  24  25
ATOM     25  N   UNL A   1      32.410  33.913  27.528  1.00  0.00    -0.352 N 
ATOM     26  C   UNL A   1      33.000  34.710  28.480  1.00  0.00     0.251 C 
ATOM     27  H   UNL A   1      31.740  34.360  26.962  1.00  0.00     0.163 HD
ATOM     28  O   UNL A   1      32.541  35.813  28.739  1.00  0.00    -0.269 OA
BRANCH  26  29
ATOM     29  C   UNL A   1      34.187  34.210  29.206  1.00  0.00     0.039 A 
ATOM     30  C   UNL A   1      35.471  34.498  28.743  1.00  0.00     0.014 A 
ATOM     31  C   UNL A   1      34.008  33.430  30.351  1.00  0.00     0.014 A 
ATOM     32  C   UNL A   1      36.566  33.867  29.318  1.00  0.00     0.010 A 
ATOM     33  C   UNL A   1      35.121  32.874  30.988  1.00  0.00     0.010 A 
ATOM     34  C   UNL A   1      36.405  33.049  30.449  1.00  0.00    -0.014 A 
BRANCH  34  35
ATOM     35  C   UNL A   1      37.596  32.388  31.042  1.00  0.00     0.031 A 
ATOM     36  C   UNL A   1      38.065  32.746  32.426  1.00  0.00     0.074 A 
ATOM     37  C   UNL A   1      38.221  31.419  30.346  1.00  0.00     0.049 A 
ATOM     38  N   UNL A   1      39.074  32.261  33.106  1.00  0.00    -0.248 NA
ATOM     39  C   UNL A   1      37.306  33.784  33.142  1.00  0.00     0.031 C 
ATOM     40  C   UNL A   1      37.847  30.976  29.001  1.00  0.00     0.029 A 
ATOM     41  N   UNL A   1      39.281  30.614  30.678  1.00  0.00    -0.354 N 
ATOM     42  C   UNL A   1      39.079  32.942  34.316  1.00  0.00     0.074 A 
ATOM     43  C   UNL A   1      37.997  33.900  34.268  1.00  0.00     0.031 C 
ATOM     44  C   UNL A   1      38.625  29.943  28.646  1.00  0.00     0.029 A 
ATOM     45  C   UNL A   1      39.599  29.699  29.704  1.00  0.00     0.049 A 
ATOM     46  H   UNL A   1      39.766  30.685  31.532  1.00  0.00     0.167 HD
ATOM     47  C   UNL A   1      39.905  32.769  35.377  1.00  0.00     0.037 A 
ATOM     48  C   UNL A   1      40.577  28.775  29.659  1.00  0.00     0.037 A 
ATOM     49  C   UNL A   1      40.968  31.800  35.426  1.00  0.00     0.049 A 
ATOM     50  C   UNL A   1      41.515  28.648  30.825  1.00  0.00     0.074 A 
ATOM     51  C   UNL A   1      41.846  31.536  36.463  1.00  0.00     0.029 A 
ATOM     52  N   UNL A   1      41.300  30.935  34.393  1.00  0.00    -0.354 N 
ATOM     53  N   UNL A   1      41.501  29.288  31.970  1.00  0.00    -0.248 NA
ATOM     54  C   UNL A   1      42.608  27.677  30.693  1.00  0.00     0.031 C 
ATOM     55  C   UNL A   1      42.739  30.549  36.042  1.00  0.00     0.029 A 
ATOM     56  C   UNL A   1      42.385  30.154  34.761  1.00  0.00     0.049 A 
ATOM     57  H   UNL A   1      40.834  30.883  33.528  1.00  0.00     0.167 HD
ATOM     58  C   UNL A   1      42.572  28.790  32.697  1.00  0.00     0.074 A 
ATOM     59  C   UNL A   1      43.201  27.777  31.875  1.00  0.00     0.031 C 
ATOM     60  C   UNL A   1      42.999  29.147  33.933  1.00  0.00     0.037 A 
BRANCH  47  61
ATOM     61  C   UNL A   1      39.699  33.645  36.580  1.00  0.00     0.064 A 
ATOM     62  C   UNL A   1      40.277  34.919  36.668  1.00  0.00     0.173 A 
ATOM     63  C   UNL A   1      38.852  33.236  37.622  1.00  0.00     0.173 A 
ATOM     64  F   UNL A   1      41.104  35.354  35.705  1.00  0.00    -0.203 F 
ATOM     65  C   UNL A   1      40.027  35.747  37.761  1.00  0.00     0.198 A 
ATOM     66  C   UNL A   1      38.580  34.077  38.698  1.00  0.00     0.198 A 
ATOM     67  F   UNL A   1      38.267  32.029  37.584  1.00  0.00    -0.203 F 
ATOM     68  F   UNL A   1      40.617  36.947  37.840  1.00  0.00    -0.200 F 
ATOM     69  C   UNL A   1      39.171  35.330  38.769  1.00  0.00     0.200 A 
ATOM     70  F   UNL A   1      37.740  33.678  39.663  1.00  0.00    -0.200 F 
ATOM     71  F   UNL A   1      38.915  36.134  39.810  1.00  0.00    -0.200 F 
ENDBRANCH  47  61
BRANCH  48  72
ATOM     72  C   UNL A   1      40.706  27.901  28.465  1.00  0.00     0.064 A 
ATOM     73  C   UNL A   1      40.066  26.655  28.411  1.00  0.00     0.173 A 
ATOM     74  C   UNL A   1      41.444  28.304  27.341  1.00  0.00     0.173 A 
ATOM     75  F   UNL A   1      39.365  26.217  29.468  1.00  0.00    -0.203 F 
ATOM     76  C   UNL A   1      40.163  25.844  27.283  1.00  0.00     0.198 A 
ATOM     77  C   UNL A   1      41.513  27.507  26.202  1.00  0.00     0.198 A 
ATOM     78  F   UNL A   1      42.072  29.489  27.340  1.00  0.00    -0.203 F 
ATOM     79  F   UNL A   1      39.567  24.644  27.270  1.00  0.00    -0.200 F 
ATOM     80  C   UNL A   1      40.877  26.275  26.175  1.00  0.00     0.200 A 
ATOM     81  F   UNL A   1      42.188  27.937  25.127  1.00  0.00    -0.200 F 
ATOM     82  F   UNL A   1      40.955  25.503  25.083  1.00  0.00    -0.200 F 
ENDBRANCH  48  72
BRANCH  60  83
ATOM     83  C   UNL A   1      44.195  28.430  34.487  1.00  0.00     0.064 A 
ATOM     84  C   UNL A   1      45.489  28.955  34.353  1.00  0.00     0.173 A 
ATOM     85  C   UNL A   1      44.037  27.248  35.227  1.00  0.00     0.173 A 
ATOM     86  F   UNL A   1      45.693  30.075  33.644  1.00  0.00    -0.203 F 
ATOM     87  C   UNL A   1      46.582  28.313  34.928  1.00  0.00     0.198 A 
ATOM     88  C   UNL A   1      45.129  26.627  35.826  1.00  0.00     0.198 A 
ATOM     89  F   UNL A   1      42.819  26.710  35.391  1.00  0.00    -0.203 F 
ATOM     90  F   UNL A   1      47.814  28.813  34.757  1.00  0.00    -0.200 F 
ATOM     91  C   UNL A   1      46.401  27.158  35.673  1.00  0.00     0.200 A 
ATOM     92  F   UNL A   1      44.949  25.520  36.560  1.00  0.00    -0.200 F 
ATOM     93  F   UNL A   1      47.453  26.553  36.242  1.00  0.00    -0.200 F 
ENDBRANCH  60  83
ENDBRANCH  34  35
ENDBRANCH  26  29
ENDBRANCH  24  25
ENDBRANCH  23  24
ENDBRANCH   1  23
TORSDOF 14
ENDMDL
MODEL 2
REMARK VINA RESULT:     -12.2      0.139      1.978
REMARK SMILES Nc1cc(C(=O)NCCCCCCNC(=O)c2ccc(-c3c4nc(c(-c5c(F)c(F)c(F)c(F)c5F)c5ccc([nH]5)c(-c5c(F)c(F)c(F)c(F)c5F)c5nc(c(-c6c(F)c(F)c(F)c(F)c6F)c6ccc3[nH]6)C=C5)C=C4)cc2)nc2ccc(F)cc12
REMARK SMILES IDX 11 1 10 2 9 3 8 4 7 5 5 6 6 7 4 9 2 10 3 11 87 12 81 13
REMARK SMILES IDX 86 14 80 15 82 16 84 17 83 18 85 19 1 20 12 23 13 24 14 25
REMARK SMILES IDX 15 26 16 28 17 29 18 30 79 31 19 32 78 33 20 34 21 35 22 36
REMARK SMILES IDX 72 37 23 38 77 39 71 40 73 41 24 42 76 43 70 44 69 45 25 47
REMARK SMILES IDX 57 48 37 49 56 50 38 51 41 52 55 53 74 54 39 55 40 56 54 58
REMARK SMILES IDX 75 59 42 60 26 61 27 62 35 63 28 64 29 65 33 66 36 67 30 68
REMARK SMILES IDX 31 69 34 70 32 71 58 72 59 73 67 74 60 75 61 76 65 77 68 78
REMARK SMILES IDX 62 79 63 80 66 81 64 82 43 83 44 84 52 85 45 86 46 87 50 88
REMARK SMILES IDX 53 89 47 90 48 91 51 92 49 93
REMARK H PARENT 7 8 1 21 1 22 14 27 73 46 41 57
REMARK Flexibility Score: inf
ROOT
ATOM      1  C   UNL A   1      31.699  30.480  26.000  1.00  0.00     0.002 C 
ENDROOT
BRANCH   1   2
ATOM      2  C   UNL A   1      32.266  29.532  27.067  1.00  0.00     0.002 C 
BRANCH   2   3
ATOM      3  C   UNL A   1      33.278  28.505  26.540  1.00  0.00     0.021 C 
BRANCH   3   4
ATOM      4  C   UNL A   1      32.841  27.058  26.783  1.00  0.00     0.116 C 
BRANCH   4   5
ATOM      5  N   UNL A   1      33.163  26.242  25.633  1.00  0.00    -0.351 N 
ATOM      6  C   UNL A   1      32.529  25.991  24.438  1.00  0.00     0.269 C 
ATOM      7  O   UNL A   1      33.103  25.191  23.692  1.00  0.00    -0.268 OA
ATOM      8  H   UNL A   1      34.019  25.765  25.725  1.00  0.00     0.163 HD
BRANCH   6   9
ATOM      9  C   UNL A   1      31.243  26.642  23.990  1.00  0.00     0.130 A 
ATOM     10  C   UNL A   1      28.854  26.862  23.814  1.00  0.00     0.043 A 
ATOM     11  C   UNL A   1      29.978  26.118  24.184  1.00  0.00     0.060 A 
ATOM     12  C   UNL A   1      29.039  28.079  23.120  1.00  0.00     0.026 A 
ATOM     13  C   UNL A   1      30.369  28.494  22.888  1.00  0.00     0.073 A 
ATOM     14  C   UNL A   1      27.983  28.892  22.647  1.00  0.00     0.051 A 
ATOM     15  N   UNL A   1      31.429  27.815  23.336  1.00  0.00    -0.242 NA
ATOM     16  C   UNL A   1      30.601  29.653  22.159  1.00  0.00     0.032 A 
ATOM     17  C   UNL A   1      28.252  30.048  21.927  1.00  0.00     0.124 A 
ATOM     18  C   UNL A   1      29.554  30.430  21.665  1.00  0.00     0.041 A 
ATOM     19  F   UNL A   1      27.235  30.794  21.476  1.00  0.00    -0.207 F 
BRANCH  10  20
ATOM     20  N   UNL A   1      27.596  26.304  24.041  1.00  0.00    -0.398 N 
ATOM     21  H   UNL A   1      27.024  26.657  24.761  1.00  0.00     0.156 HD
ATOM     22  H   UNL A   1      27.279  25.558  23.482  1.00  0.00     0.156 HD
ENDBRANCH  10  20
ENDBRANCH   6   9
ENDBRANCH   4   5
ENDBRANCH   3   4
ENDBRANCH   2   3
ENDBRANCH   1   2
BRANCH   1  23
ATOM     23  C   UNL A   1      31.436  31.906  26.484  1.00  0.00     0.021 C 
BRANCH  23  24
ATOM     24  C   UNL A   1      32.615  32.536  27.216  1.00  0.00     0.116 C 
BRANCH  24  25
ATOM     25  N   UNL A   1      32.387  33.945  27.499  1.00  0.00    -0.352 N 
ATOM     26  C   UNL A   1      32.974  34.752  28.446  1.00  0.00     0.251 C 
ATOM     27  H   UNL A   1      31.715  34.386  26.930  1.00  0.00     0.163 HD
ATOM     28  O   UNL A   1      32.509  35.854  28.698  1.00  0.00    -0.269 OA
BRANCH  26  29
ATOM     29  C   UNL A   1      34.163  34.262  29.175  1.00  0.00     0.039 A 
ATOM     30  C   UNL A   1      35.444  34.504  28.678  1.00  0.00     0.014 A 
ATOM     31  C   UNL A   1      33.989  33.540  30.358  1.00  0.00     0.014 A 
ATOM     32  C   UNL A   1      36.537  33.879  29.264  1.00  0.00     0.010 A 
ATOM     33  C   UNL A   1      35.102  32.992  31.002  1.00  0.00     0.010 A 
ATOM     34  C   UNL A   1      36.380  33.117  30.434  1.00  0.00    -0.014 A 
BRANCH  34  35
ATOM     35  C   UNL A   1      37.568  32.461  31.037  1.00  0.00     0.031 A 
ATOM     36  C   UNL A   1      38.026  32.823  32.424  1.00  0.00     0.074 A 
ATOM     37  C   UNL A   1      38.200  31.491  30.349  1.00  0.00     0.049 A 
ATOM     38  N   UNL A   1      39.032  32.343  33.113  1.00  0.00    -0.248 NA
ATOM     39  C   UNL A   1      37.260  33.861  33.132  1.00  0.00     0.031 C 
ATOM     40  C   UNL A   1      37.837  31.043  29.003  1.00  0.00     0.029 A 
ATOM     41  N   UNL A   1      39.260  30.690  30.691  1.00  0.00    -0.354 N 
ATOM     42  C   UNL A   1      39.026  33.028  34.321  1.00  0.00     0.074 A 
ATOM     43  C   UNL A   1      37.942  33.983  34.262  1.00  0.00     0.031 C 
ATOM     44  C   UNL A   1      38.620  30.011  28.657  1.00  0.00     0.029 A 
ATOM     45  C   UNL A   1      39.587  29.772  29.722  1.00  0.00     0.049 A 
ATOM     46  H   UNL A   1      39.739  30.765  31.548  1.00  0.00     0.167 HD
ATOM     47  C   UNL A   1      39.844  32.860  35.388  1.00  0.00     0.037 A 
ATOM     48  C   UNL A   1      40.568  28.850  29.687  1.00  0.00     0.037 A 
ATOM     49  C   UNL A   1      40.910  31.893  35.448  1.00  0.00     0.049 A 
ATOM     50  C   UNL A   1      41.497  28.729  30.861  1.00  0.00     0.074 A 
ATOM     51  C   UNL A   1      41.780  31.635  36.492  1.00  0.00     0.029 A 
ATOM     52  N   UNL A   1      41.251  31.026  34.420  1.00  0.00    -0.354 N 
ATOM     53  N   UNL A   1      41.474  29.373  32.003  1.00  0.00    -0.248 NA
ATOM     54  C   UNL A   1      42.595  27.761  30.739  1.00  0.00     0.031 C 
ATOM     55  C   UNL A   1      42.679  30.648  36.080  1.00  0.00     0.029 A 
ATOM     56  C   UNL A   1      42.335  30.249  34.798  1.00  0.00     0.049 A 
ATOM     57  H   UNL A   1      40.791  30.970  33.552  1.00  0.00     0.167 HD
ATOM     58  C   UNL A   1      42.541  28.880  32.739  1.00  0.00     0.074 A 
ATOM     59  C   UNL A   1      43.178  27.866  31.925  1.00  0.00     0.031 C 
ATOM     60  C   UNL A   1      42.958  29.242  33.978  1.00  0.00     0.037 A 
BRANCH  47  61
ATOM     61  C   UNL A   1      39.628  33.738  36.587  1.00  0.00     0.064 A 
ATOM     62  C   UNL A   1      38.833  33.325  37.666  1.00  0.00     0.173 A 
ATOM     63  C   UNL A   1      40.285  34.974  36.693  1.00  0.00     0.173 A 
ATOM     64  F   UNL A   1      38.173  32.158  37.612  1.00  0.00    -0.203 F 
ATOM     65  C   UNL A   1      38.692  34.123  38.800  1.00  0.00     0.198 A 
ATOM     66  C   UNL A   1      40.166  35.755  37.840  1.00  0.00     0.198 A 
ATOM     67  F   UNL A   1      41.064  35.413  35.693  1.00  0.00    -0.203 F 
ATOM     68  F   UNL A   1      37.900  33.723  39.804  1.00  0.00    -0.200 F 
ATOM     69  C   UNL A   1      39.366  35.331  38.891  1.00  0.00     0.200 A 
ATOM     70  F   UNL A   1      40.832  36.915  37.931  1.00  0.00    -0.200 F 
ATOM     71  F   UNL A   1      39.246  36.087  39.990  1.00  0.00    -0.200 F 
ENDBRANCH  47  61
BRANCH  48  72
ATOM     72  C   UNL A   1      40.708  27.973  28.497  1.00  0.00     0.064 A 
ATOM     73  C   UNL A   1      41.481  28.369  27.397  1.00  0.00     0.173 A 
ATOM     74  C   UNL A   1      40.099  26.710  28.444  1.00  0.00     0.173 A 
ATOM     75  F   UNL A   1      42.067  29.576  27.392  1.00  0.00    -0.203 F 
ATOM     76  C   UNL A   1      41.637  27.538  26.290  1.00  0.00     0.198 A 
ATOM     77  C   UNL A   1      40.282  25.867  27.351  1.00  0.00     0.198 A 
ATOM     78  F   UNL A   1      39.351  26.281  29.472  1.00  0.00    -0.203 F 
ATOM     79  F   UNL A   1      42.357  27.954  25.239  1.00  0.00    -0.200 F 
ATOM     80  C   UNL A   1      41.047  26.284  26.272  1.00  0.00     0.200 A 
ATOM     81  F   UNL A   1      39.725  24.648  27.348  1.00  0.00    -0.200 F 
ATOM     82  F   UNL A   1      41.211  25.478  25.215  1.00  0.00    -0.200 F 
ENDBRANCH  48  72
BRANCH  60  83
ATOM     83  C   UNL A   1      44.152  28.529  34.542  1.00  0.00     0.064 A 
ATOM     84  C   UNL A   1      44.020  27.316  35.234  1.00  0.00     0.173 A 
ATOM     85  C   UNL A   1      45.446  29.025  34.323  1.00  0.00     0.173 A 
ATOM     86  F   UNL A   1      42.804  26.809  35.481  1.00  0.00    -0.203 F 
ATOM     87  C   UNL A   1      45.141  26.633  35.696  1.00  0.00     0.198 A 
ATOM     88  C   UNL A   1      46.566  28.323  34.759  1.00  0.00     0.198 A 
ATOM     89  F   UNL A   1      45.626  30.178  33.659  1.00  0.00    -0.203 F 
ATOM     90  F   UNL A   1      44.991  25.493  36.385  1.00  0.00    -0.200 F 
ATOM     91  C   UNL A   1      46.412  27.129  35.449  1.00  0.00     0.200 A 
ATOM     92  F   UNL A   1      47.794  28.796  34.504  1.00  0.00    -0.200 F 
ATOM     93  F   UNL A   1      47.490  26.459  35.877  1.00  0.00    -0.200 F 
ENDBRANCH  60  83
ENDBRANCH  34  35
ENDBRANCH  26  29
ENDBRANCH  24  25
ENDBRANCH  23  24
ENDBRANCH   1  23
TORSDOF 14
ENDMDL
MODEL 3
REMARK VINA RESULT:     -12.1      5.826      9.984
REMARK SMILES Nc1cc(C(=O)NCCCCCCNC(=O)c2ccc(-c3c4nc(c(-c5c(F)c(F)c(F)c(F)c5F)c5ccc([nH]5)c(-c5c(F)c(F)c(F)c(F)c5F)c5nc(c(-c6c(F)c(F)c(F)c(F)c6F)c6ccc3[nH]6)C=C5)C=C4)cc2)nc2ccc(F)cc12
REMARK SMILES IDX 11 1 10 2 9 3 8 4 7 5 5 6 6 7 4 9 2 10 3 11 87 12 81 13
REMARK SMILES IDX 86 14 80 15 82 16 84 17 83 18 85 19 1 20 12 23 13 24 14 25
REMARK SMILES IDX 15 26 16 28 17 29 18 30 79 31 19 32 78 33 20 34 21 35 22 36
REMARK SMILES IDX 72 37 23 38 77 39 71 40 73 41 24 42 76 43 70 44 69 45 25 47
REMARK SMILES IDX 57 48 37 49 56 50 38 51 41 52 55 53 74 54 39 55 40 56 54 58
REMARK SMILES IDX 75 59 42 60 26 61 27 62 35 63 28 64 29 65 33 66 36 67 30 68
REMARK SMILES IDX 31 69 34 70 32 71 58 72 59 73 67 74 60 75 61 76 65 77 68 78
REMARK SMILES IDX 62 79 63 80 66 81 64 82 43 83 44 84 52 85 45 86 46 87 50 88
REMARK SMILES IDX 53 89 47 90 48 91 51 92 49 93
REMARK H PARENT 7 8 1 21 1 22 14 27 73 46 41 57
REMARK Flexibility Score: inf
ROOT
ATOM      1  C   UNL A   1      36.508  20.749  25.218  1.00  0.00     0.002 C 
ENDROOT
BRANCH   1   2
ATOM      2  C   UNL A   1      36.404  22.176  24.659  1.00  0.00     0.002 C 
BRANCH   2   3
ATOM      3  C   UNL A   1      35.946  23.232  25.675  1.00  0.00     0.021 C 
BRANCH   3   4
ATOM      4  C   UNL A   1      35.158  24.376  25.032  1.00  0.00     0.116 C 
BRANCH   4   5
ATOM      5  N   UNL A   1      33.848  24.479  25.638  1.00  0.00    -0.351 N 
ATOM      6  C   UNL A   1      32.705  23.716  25.565  1.00  0.00     0.269 C 
ATOM      7  O   UNL A   1      31.743  24.142  26.210  1.00  0.00    -0.268 OA
ATOM      8  H   UNL A   1      33.755  25.261  26.227  1.00  0.00     0.163 HD
BRANCH   6   9
ATOM      9  C   UNL A   1      32.579  22.420  24.802  1.00  0.00     0.130 A 
ATOM     10  C   UNL A   1      32.160  21.061  22.861  1.00  0.00     0.043 A 
ATOM     11  C   UNL A   1      32.138  22.306  23.496  1.00  0.00     0.060 A 
ATOM     12  C   UNL A   1      32.505  19.917  23.614  1.00  0.00     0.026 A 
ATOM     13  C   UNL A   1      32.859  20.117  24.967  1.00  0.00     0.073 A 
ATOM     14  C   UNL A   1      32.512  18.600  23.100  1.00  0.00     0.051 A 
ATOM     15  N   UNL A   1      32.924  21.328  25.528  1.00  0.00    -0.242 NA
ATOM     16  C   UNL A   1      33.148  19.016  25.763  1.00  0.00     0.032 A 
ATOM     17  C   UNL A   1      32.813  17.523  23.923  1.00  0.00     0.124 A 
ATOM     18  C   UNL A   1      33.117  17.717  25.258  1.00  0.00     0.041 A 
ATOM     19  F   UNL A   1      32.798  16.283  23.417  1.00  0.00    -0.207 F 
BRANCH  10  20
ATOM     20  N   UNL A   1      31.720  20.992  21.539  1.00  0.00    -0.398 N 
ATOM     21  H   UNL A   1      32.285  20.564  20.854  1.00  0.00     0.156 HD
ATOM     22  H   UNL A   1      30.847  21.372  21.289  1.00  0.00     0.156 HD
ENDBRANCH  10  20
ENDBRANCH   6   9
ENDBRANCH   4   5
ENDBRANCH   3   4
ENDBRANCH   2   3
ENDBRANCH   1   2
BRANCH   1  23
ATOM     23  C   UNL A   1      37.805  20.018  24.873  1.00  0.00     0.021 C 
BRANCH  23  24
ATOM     24  C   UNL A   1      38.994  20.436  25.729  1.00  0.00     0.116 C 
BRANCH  24  25
ATOM     25  N   UNL A   1      39.968  19.364  25.865  1.00  0.00    -0.352 N 
ATOM     26  C   UNL A   1      41.328  19.437  26.061  1.00  0.00     0.251 C 
ATOM     27  H   UNL A   1      39.601  18.451  25.808  1.00  0.00     0.163 HD
ATOM     28  O   UNL A   1      42.029  18.445  25.931  1.00  0.00    -0.269 OA
BRANCH  26  29
ATOM     29  C   UNL A   1      41.937  20.738  26.409  1.00  0.00     0.039 A 
ATOM     30  C   UNL A   1      42.069  21.120  27.745  1.00  0.00     0.014 A 
ATOM     31  C   UNL A   1      42.364  21.588  25.386  1.00  0.00     0.014 A 
ATOM     32  C   UNL A   1      42.463  22.416  28.052  1.00  0.00     0.010 A 
ATOM     33  C   UNL A   1      42.853  22.859  25.704  1.00  0.00     0.010 A 
ATOM     34  C   UNL A   1      42.862  23.300  27.036  1.00  0.00    -0.014 A 
BRANCH  34  35
ATOM     35  C   UNL A   1      43.279  24.679  27.397  1.00  0.00     0.031 A 
ATOM     36  C   UNL A   1      42.261  25.707  27.812  1.00  0.00     0.074 A 
ATOM     37  C   UNL A   1      44.590  24.986  27.404  1.00  0.00     0.049 A 
ATOM     38  N   UNL A   1      42.447  26.953  28.173  1.00  0.00    -0.248 NA
ATOM     39  C   UNL A   1      40.851  25.287  27.821  1.00  0.00     0.031 C 
ATOM     40  C   UNL A   1      45.669  24.067  27.035  1.00  0.00     0.029 A 
ATOM     41  N   UNL A   1      45.242  26.140  27.755  1.00  0.00    -0.354 N 
ATOM     42  C   UNL A   1      41.183  27.464  28.437  1.00  0.00     0.074 A 
ATOM     43  C   UNL A   1      40.233  26.410  28.160  1.00  0.00     0.031 C 
ATOM     44  C   UNL A   1      46.849  24.672  27.235  1.00  0.00     0.029 A 
ATOM     45  C   UNL A   1      46.610  26.043  27.674  1.00  0.00     0.049 A 
ATOM     46  H   UNL A   1      44.775  26.960  28.039  1.00  0.00     0.167 HD
ATOM     47  C   UNL A   1      40.851  28.699  28.886  1.00  0.00     0.037 A 
ATOM     48  C   UNL A   1      47.568  26.959  27.910  1.00  0.00     0.037 A 
ATOM     49  C   UNL A   1      41.803  29.738  29.178  1.00  0.00     0.049 A 
ATOM     50  C   UNL A   1      47.165  28.338  28.348  1.00  0.00     0.074 A 
ATOM     51  C   UNL A   1      41.565  31.016  29.655  1.00  0.00     0.029 A 
ATOM     52  N   UNL A   1      43.177  29.621  29.020  1.00  0.00    -0.354 N 
ATOM     53  N   UNL A   1      45.968  28.806  28.606  1.00  0.00    -0.248 NA
ATOM     54  C   UNL A   1      48.244  29.320  28.518  1.00  0.00     0.031 C 
ATOM     55  C   UNL A   1      42.786  31.687  29.738  1.00  0.00     0.029 A 
ATOM     56  C   UNL A   1      43.795  30.812  29.367  1.00  0.00     0.049 A 
ATOM     57  H   UNL A   1      43.643  28.812  28.708  1.00  0.00     0.167 HD
ATOM     58  C   UNL A   1      46.149  30.129  28.982  1.00  0.00     0.074 A 
ATOM     59  C   UNL A   1      47.574  30.384  28.941  1.00  0.00     0.031 C 
ATOM     60  C   UNL A   1      45.215  31.051  29.324  1.00  0.00     0.037 A 
BRANCH  47  61
ATOM     61  C   UNL A   1      39.394  29.006  29.091  1.00  0.00     0.064 A 
ATOM     62  C   UNL A   1      38.795  28.909  30.356  1.00  0.00     0.173 A 
ATOM     63  C   UNL A   1      38.608  29.476  28.028  1.00  0.00     0.173 A 
ATOM     64  F   UNL A   1      39.498  28.454  31.404  1.00  0.00    -0.203 F 
ATOM     65  C   UNL A   1      37.459  29.258  30.545  1.00  0.00     0.198 A 
ATOM     66  C   UNL A   1      37.282  29.852  28.227  1.00  0.00     0.198 A 
ATOM     67  F   UNL A   1      39.134  29.594  26.799  1.00  0.00    -0.203 F 
ATOM     68  F   UNL A   1      36.899  29.126  31.755  1.00  0.00    -0.200 F 
ATOM     69  C   UNL A   1      36.708  29.739  29.484  1.00  0.00     0.200 A 
ATOM     70  F   UNL A   1      36.563  30.331  27.202  1.00  0.00    -0.200 F 
ATOM     71  F   UNL A   1      35.429  30.093  29.671  1.00  0.00    -0.200 F 
ENDBRANCH  47  61
BRANCH  48  72
ATOM     72  C   UNL A   1      48.996  26.589  27.738  1.00  0.00     0.064 A 
ATOM     73  C   UNL A   1      49.800  26.285  28.846  1.00  0.00     0.173 A 
ATOM     74  C   UNL A   1      49.580  26.500  26.465  1.00  0.00     0.173 A 
ATOM     75  F   UNL A   1      49.293  26.375  30.085  1.00  0.00    -0.203 F 
ATOM     76  C   UNL A   1      51.132  25.912  28.687  1.00  0.00     0.198 A 
ATOM     77  C   UNL A   1      50.902  26.095  26.306  1.00  0.00     0.198 A 
ATOM     78  F   UNL A   1      48.852  26.776  25.372  1.00  0.00    -0.203 F 
ATOM     79  F   UNL A   1      51.887  25.657  29.764  1.00  0.00    -0.200 F 
ATOM     80  C   UNL A   1      51.680  25.807  27.417  1.00  0.00     0.200 A 
ATOM     81  F   UNL A   1      51.420  25.976  25.075  1.00  0.00    -0.200 F 
ATOM     82  F   UNL A   1      52.956  25.430  27.263  1.00  0.00    -0.200 F 
ENDBRANCH  48  72
BRANCH  60  83
ATOM     83  C   UNL A   1      45.699  32.421  29.698  1.00  0.00     0.064 A 
ATOM     84  C   UNL A   1      45.790  33.449  28.748  1.00  0.00     0.173 A 
ATOM     85  C   UNL A   1      46.000  32.730  31.033  1.00  0.00     0.173 A 
ATOM     86  F   UNL A   1      45.527  33.199  27.457  1.00  0.00    -0.203 F 
ATOM     87  C   UNL A   1      46.178  34.733  29.120  1.00  0.00     0.198 A 
ATOM     88  C   UNL A   1      46.357  34.023  31.407  1.00  0.00     0.198 A 
ATOM     89  F   UNL A   1      45.920  31.784  31.982  1.00  0.00    -0.203 F 
ATOM     90  F   UNL A   1      46.293  35.691  28.190  1.00  0.00    -0.200 F 
ATOM     91  C   UNL A   1      46.450  35.022  30.449  1.00  0.00     0.200 A 
ATOM     92  F   UNL A   1      46.602  34.303  32.694  1.00  0.00    -0.200 F 
ATOM     93  F   UNL A   1      46.803  36.264  30.807  1.00  0.00    -0.200 F 
ENDBRANCH  60  83
ENDBRANCH  34  35
ENDBRANCH  26  29
ENDBRANCH  24  25
ENDBRANCH  23  24
ENDBRANCH   1  23
TORSDOF 14
ENDMDL
