MODEL 1
REMARK VINA RESULT:     -11.7      0.000      0.000
REMARK SMILES COc1ccccc1CCNC(=O)[C@@H]1[C@@H](C(=O)NCCCCCCNC(=O)c2ccc(-c3c4nc(c(-c5c(F)c(F)c(F)c(F)c5F)c5ccc([nH]5)c(-c5c(F)c(F)c(F)c(F)c5F)c5nc(c(-c6c(F)c(F)c(F)c(F)c6F)c6ccc3[nH]6)C=C5)C=C4)cc2)[C@H]2C=C[C@@H]1CC2
REMARK SMILES IDX 20 1 19 2 18 3 16 4 17 5 15 7 14 8 94 9 91 10 93 11 95 12
REMARK SMILES IDX 92 13 96 14 12 15 11 16 13 18 10 19 9 20 8 21 3 22 4 23 5 24
REMARK SMILES IDX 7 25 6 26 2 27 1 28 21 29 22 30 23 31 24 32 25 33 26 34
REMARK SMILES IDX 27 36 28 37 29 38 90 39 30 40 89 41 31 42 32 43 33 44 83 45
REMARK SMILES IDX 34 46 88 47 82 48 84 49 35 50 87 51 81 52 80 53 36 55 68 56
REMARK SMILES IDX 48 57 67 58 49 59 52 60 66 61 85 62 50 63 51 64 65 66 86 67
REMARK SMILES IDX 53 68 37 69 38 70 46 71 39 72 40 73 44 74 47 75 41 76 42 77
REMARK SMILES IDX 45 78 43 79 69 80 70 81 78 82 71 83 72 84 76 85 79 86 73 87
REMARK SMILES IDX 74 88 77 89 75 90 54 91 55 92 63 93 56 94 57 95 61 96 64 97
REMARK SMILES IDX 58 98 59 99 62 100 60 101
REMARK H PARENT 18 6 11 17 25 35 84 54 52 65
REMARK Flexibility Score: inf
ROOT
ATOM      1  C   UNL A   1      31.400  28.931  27.282  1.00  0.00     0.021 C 
ENDROOT
BRANCH   1   2
ATOM      2  C   UNL A   1      32.272  27.731  27.681  1.00  0.00     0.116 C 
BRANCH   2   3
ATOM      3  N   UNL A   1      33.378  27.592  26.756  1.00  0.00    -0.356 N 
ATOM      4  C   UNL A   1      33.480  26.831  25.637  1.00  0.00     0.224 C 
ATOM      5  O   UNL A   1      34.614  26.448  25.343  1.00  0.00    -0.275 OA
ATOM      6  H   UNL A   1      34.174  28.129  26.971  1.00  0.00     0.163 HD
BRANCH   4   7
ATOM      7  C   UNL A   1      32.253  26.566  24.759  1.00  0.00     0.098 C 
ATOM      8  C   UNL A   1      32.606  25.534  23.642  1.00  0.00     0.098 C 
ATOM      9  C   UNL A   1      32.557  26.234  22.247  1.00  0.00     0.025 C 
ATOM     10  C   UNL A   1      31.809  27.907  24.086  1.00  0.00     0.025 C 
ATOM     11  C   UNL A   1      33.383  27.508  22.311  1.00  0.00    -0.027 C 
ATOM     12  C   UNL A   1      31.118  26.729  21.948  1.00  0.00     0.009 C 
ATOM     13  C   UNL A   1      32.958  28.400  23.223  1.00  0.00    -0.027 C 
ATOM     14  C   UNL A   1      30.632  27.617  23.120  1.00  0.00     0.009 C 
BRANCH   8  15
ATOM     15  C   UNL A   1      31.615  24.375  23.637  1.00  0.00     0.224 C 
ATOM     16  N   UNL A   1      31.725  23.430  22.657  1.00  0.00    -0.355 N 
ATOM     17  H   UNL A   1      30.973  23.307  22.034  1.00  0.00     0.163 HD
ATOM     18  O   UNL A   1      30.666  24.296  24.418  1.00  0.00    -0.275 OA
BRANCH  16  19
ATOM     19  C   UNL A   1      32.906  22.596  22.494  1.00  0.00     0.120 C 
BRANCH  19  20
ATOM     20  C   UNL A   1      33.322  21.951  23.830  1.00  0.00     0.060 C 
BRANCH  20  21
ATOM     21  C   UNL A   1      34.632  22.489  24.373  1.00  0.00    -0.004 A 
ATOM     22  C   UNL A   1      34.774  22.884  25.710  1.00  0.00     0.122 A 
ATOM     23  C   UNL A   1      35.948  23.491  26.165  1.00  0.00     0.047 A 
ATOM     24  C   UNL A   1      37.021  23.671  25.296  1.00  0.00     0.004 A 
ATOM     25  C   UNL A   1      35.741  22.642  23.523  1.00  0.00     0.007 A 
ATOM     26  C   UNL A   1      36.921  23.237  23.976  1.00  0.00     0.001 A 
BRANCH  22  27
ATOM     27  O   UNL A   1      33.749  22.729  26.605  1.00  0.00    -0.496 OA
ATOM     28  C   UNL A   1      34.009  21.615  27.465  1.00  0.00     0.278 C 
ENDBRANCH  22  27
ENDBRANCH  20  21
ENDBRANCH  19  20
ENDBRANCH  16  19
ENDBRANCH   8  15
ENDBRANCH   4   7
ENDBRANCH   2   3
ENDBRANCH   1   2
BRANCH   1  29
ATOM     29  C   UNL A   1      32.175  30.197  26.881  1.00  0.00     0.002 C 
BRANCH  29  30
ATOM     30  C   UNL A   1      31.425  31.153  25.951  1.00  0.00     0.002 C 
BRANCH  30  31
ATOM     31  C   UNL A   1      31.322  32.594  26.453  1.00  0.00     0.021 C 
BRANCH  31  32
ATOM     32  C   UNL A   1      32.521  33.088  27.262  1.00  0.00     0.116 C 
BRANCH  32  33
ATOM     33  N   UNL A   1      32.362  34.456  27.724  1.00  0.00    -0.352 N 
ATOM     34  C   UNL A   1      33.015  35.134  28.723  1.00  0.00     0.251 C 
ATOM     35  H   UNL A   1      31.678  34.980  27.246  1.00  0.00     0.163 HD
ATOM     36  O   UNL A   1      32.628  36.250  29.054  1.00  0.00    -0.269 OA
BRANCH  34  37
ATOM     37  C   UNL A   1      34.167  34.523  29.428  1.00  0.00     0.039 A 
ATOM     38  C   UNL A   1      33.934  33.899  30.656  1.00  0.00     0.014 A 
ATOM     39  C   UNL A   1      35.465  34.586  28.916  1.00  0.00     0.014 A 
ATOM     40  C   UNL A   1      34.989  33.292  31.342  1.00  0.00     0.010 A 
ATOM     41  C   UNL A   1      36.507  33.921  29.566  1.00  0.00     0.010 A 
ATOM     42  C   UNL A   1      36.280  33.269  30.787  1.00  0.00    -0.014 A 
BRANCH  42  43
ATOM     43  C   UNL A   1      37.376  32.540  31.475  1.00  0.00     0.031 A 
ATOM     44  C   UNL A   1      38.065  31.376  30.818  1.00  0.00     0.074 A 
ATOM     45  C   UNL A   1      37.737  32.918  32.717  1.00  0.00     0.049 A 
ATOM     46  N   UNL A   1      39.071  30.658  31.253  1.00  0.00    -0.248 NA
ATOM     47  C   UNL A   1      37.544  30.947  29.512  1.00  0.00     0.031 C 
ATOM     48  C   UNL A   1      37.099  33.984  33.492  1.00  0.00     0.029 A 
ATOM     49  N   UNL A   1      38.728  32.453  33.544  1.00  0.00    -0.354 N 
ATOM     50  C   UNL A   1      39.300  29.696  30.280  1.00  0.00     0.074 A 
ATOM     51  C   UNL A   1      38.293  29.884  29.257  1.00  0.00     0.031 C 
ATOM     52  C   UNL A   1      37.740  34.119  34.664  1.00  0.00     0.029 A 
ATOM     53  C   UNL A   1      38.816  33.134  34.733  1.00  0.00     0.049 A 
ATOM     54  H   UNL A   1      39.320  31.702  33.307  1.00  0.00     0.167 HD
ATOM     55  C   UNL A   1      40.276  28.757  30.231  1.00  0.00     0.037 A 
ATOM     56  C   UNL A   1      39.675  32.992  35.759  1.00  0.00     0.037 A 
ATOM     57  C   UNL A   1      41.289  28.581  31.241  1.00  0.00     0.049 A 
ATOM     58  C   UNL A   1      40.766  31.961  35.667  1.00  0.00     0.074 A 
ATOM     59  C   UNL A   1      42.356  27.699  31.251  1.00  0.00     0.029 A 
ATOM     60  N   UNL A   1      41.356  29.301  32.425  1.00  0.00    -0.354 N 
ATOM     61  N   UNL A   1      41.026  31.114  34.700  1.00  0.00    -0.248 NA
ATOM     62  C   UNL A   1      41.693  31.878  36.804  1.00  0.00     0.031 C 
ATOM     63  C   UNL A   1      43.044  27.857  32.460  1.00  0.00     0.029 A 
ATOM     64  C   UNL A   1      42.435  28.869  33.182  1.00  0.00     0.049 A 
ATOM     65  H   UNL A   1      40.730  30.014  32.688  1.00  0.00     0.167 HD
ATOM     66  C   UNL A   1      42.155  30.413  35.101  1.00  0.00     0.074 A 
ATOM     67  C   UNL A   1      42.547  30.954  36.387  1.00  0.00     0.031 C 
ATOM     68  C   UNL A   1      42.808  29.409  34.464  1.00  0.00     0.037 A 
BRANCH  55  69
ATOM     69  C   UNL A   1      40.304  27.848  29.036  1.00  0.00     0.064 A 
ATOM     70  C   UNL A   1      41.078  28.145  27.903  1.00  0.00     0.173 A 
ATOM     71  C   UNL A   1      39.581  26.644  29.036  1.00  0.00     0.173 A 
ATOM     72  F   UNL A   1      41.780  29.288  27.847  1.00  0.00    -0.203 F 
ATOM     73  C   UNL A   1      41.106  27.288  26.807  1.00  0.00     0.198 A 
ATOM     74  C   UNL A   1      39.634  25.775  27.949  1.00  0.00     0.198 A 
ATOM     75  F   UNL A   1      38.829  26.307  30.095  1.00  0.00    -0.203 F 
ATOM     76  F   UNL A   1      41.815  27.618  25.718  1.00  0.00    -0.200 F 
ATOM     77  C   UNL A   1      40.390  26.101  26.833  1.00  0.00     0.200 A 
ATOM     78  F   UNL A   1      38.952  24.623  27.982  1.00  0.00    -0.200 F 
ATOM     79  F   UNL A   1      40.422  25.273  25.779  1.00  0.00    -0.200 F 
ENDBRANCH  55  69
BRANCH  56  80
ATOM     80  C   UNL A   1      39.568  33.881  36.943  1.00  0.00     0.064 A 
ATOM     81  C   UNL A   1      38.825  33.497  38.068  1.00  0.00     0.173 A 
ATOM     82  C   UNL A   1      40.202  35.132  36.975  1.00  0.00     0.173 A 
ATOM     83  F   UNL A   1      38.184  32.318  38.075  1.00  0.00    -0.203 F 
ATOM     84  C   UNL A   1      38.702  34.338  39.172  1.00  0.00     0.198 A 
ATOM     85  C   UNL A   1      40.102  35.960  38.091  1.00  0.00     0.198 A 
ATOM     86  F   UNL A   1      40.929  35.543  35.927  1.00  0.00    -0.203 F 
ATOM     87  F   UNL A   1      37.948  33.965  40.215  1.00  0.00    -0.200 F 
ATOM     88  C   UNL A   1      39.346  35.566  39.185  1.00  0.00     0.200 A 
ATOM     89  F   UNL A   1      40.736  37.140  38.106  1.00  0.00    -0.200 F 
ATOM     90  F   UNL A   1      39.231  36.373  40.248  1.00  0.00    -0.200 F 
ENDBRANCH  56  80
BRANCH  68  91
ATOM     91  C   UNL A   1      44.021  28.847  35.146  1.00  0.00     0.064 A 
ATOM     92  C   UNL A   1      45.304  29.366  34.909  1.00  0.00     0.173 A 
ATOM     93  C   UNL A   1      43.902  27.778  36.048  1.00  0.00     0.173 A 
ATOM     94  F   UNL A   1      45.473  30.377  34.043  1.00  0.00    -0.203 F 
ATOM     95  C   UNL A   1      46.425  28.809  35.519  1.00  0.00     0.198 A 
ATOM     96  C   UNL A   1      45.022  27.246  36.680  1.00  0.00     0.198 A 
ATOM     97  F   UNL A   1      42.698  27.250  36.315  1.00  0.00    -0.203 F 
ATOM     98  F   UNL A   1      47.646  29.281  35.229  1.00  0.00    -0.200 F 
ATOM     99  C   UNL A   1      46.283  27.754  36.407  1.00  0.00     0.200 A 
ATOM    100  F   UNL A   1      44.882  26.233  37.547  1.00  0.00    -0.200 F 
ATOM    101  F   UNL A   1      47.364  27.217  36.990  1.00  0.00    -0.200 F 
ENDBRANCH  68  91
ENDBRANCH  42  43
ENDBRANCH  34  37
ENDBRANCH  32  33
ENDBRANCH  31  32
ENDBRANCH  30  31
ENDBRANCH  29  30
ENDBRANCH   1  29
TORSDOF 18
ENDMDL
MODEL 2
REMARK VINA RESULT:     -11.7      0.968      7.146
REMARK SMILES COc1ccccc1CCNC(=O)[C@@H]1[C@@H](C(=O)NCCCCCCNC(=O)c2ccc(-c3c4nc(c(-c5c(F)c(F)c(F)c(F)c5F)c5ccc([nH]5)c(-c5c(F)c(F)c(F)c(F)c5F)c5nc(c(-c6c(F)c(F)c(F)c(F)c6F)c6ccc3[nH]6)C=C5)C=C4)cc2)[C@H]2C=C[C@@H]1CC2
REMARK SMILES IDX 20 1 19 2 18 3 16 4 17 5 15 7 14 8 94 9 91 10 93 11 95 12
REMARK SMILES IDX 92 13 96 14 12 15 11 16 13 18 10 19 9 20 8 21 3 22 4 23 5 24
REMARK SMILES IDX 7 25 6 26 2 27 1 28 21 29 22 30 23 31 24 32 25 33 26 34
REMARK SMILES IDX 27 36 28 37 29 38 90 39 30 40 89 41 31 42 32 43 33 44 83 45
REMARK SMILES IDX 34 46 88 47 82 48 84 49 35 50 87 51 81 52 80 53 36 55 68 56
REMARK SMILES IDX 48 57 67 58 49 59 52 60 66 61 85 62 50 63 51 64 65 66 86 67
REMARK SMILES IDX 53 68 37 69 38 70 46 71 39 72 40 73 44 74 47 75 41 76 42 77
REMARK SMILES IDX 45 78 43 79 69 80 70 81 78 82 71 83 72 84 76 85 79 86 73 87
REMARK SMILES IDX 74 88 77 89 75 90 54 91 55 92 63 93 56 94 57 95 61 96 64 97
REMARK SMILES IDX 58 98 59 99 62 100 60 101
REMARK H PARENT 18 6 11 17 25 35 84 54 52 65
REMARK Flexibility Score: inf
ROOT
ATOM      1  C   UNL A   1      33.045  29.257  27.288  1.00  0.00     0.021 C 
ENDROOT
BRANCH   1   2
ATOM      2  C   UNL A   1      32.595  27.808  27.048  1.00  0.00     0.116 C 
BRANCH   2   3
ATOM      3  N   UNL A   1      33.623  27.082  26.331  1.00  0.00    -0.356 N 
ATOM      4  C   UNL A   1      33.502  26.082  25.422  1.00  0.00     0.224 C 
ATOM      5  O   UNL A   1      34.435  25.278  25.372  1.00  0.00    -0.275 OA
ATOM      6  H   UNL A   1      34.547  27.353  26.534  1.00  0.00     0.163 HD
BRANCH   4   7
ATOM      7  C   UNL A   1      32.308  26.040  24.462  1.00  0.00     0.098 C 
ATOM      8  C   UNL A   1      32.611  25.075  23.272  1.00  0.00     0.098 C 
ATOM      9  C   UNL A   1      32.726  25.896  21.948  1.00  0.00     0.025 C 
ATOM     10  C   UNL A   1      32.060  27.478  23.897  1.00  0.00     0.025 C 
ATOM     11  C   UNL A   1      33.685  27.053  22.173  1.00  0.00    -0.027 C 
ATOM     12  C   UNL A   1      31.373  26.581  21.625  1.00  0.00     0.009 C 
ATOM     13  C   UNL A   1      33.308  27.906  23.143  1.00  0.00    -0.027 C 
ATOM     14  C   UNL A   1      30.919  27.413  22.849  1.00  0.00     0.009 C 
BRANCH   8  15
ATOM     15  C   UNL A   1      31.498  24.046  23.108  1.00  0.00     0.224 C 
ATOM     16  N   UNL A   1      31.766  22.907  22.402  1.00  0.00    -0.355 N 
ATOM     17  H   UNL A   1      31.250  22.730  21.582  1.00  0.00     0.163 HD
ATOM     18  O   UNL A   1      30.347  24.229  23.504  1.00  0.00    -0.275 OA
BRANCH  16  19
ATOM     19  C   UNL A   1      32.778  21.945  22.809  1.00  0.00     0.120 C 
BRANCH  19  20
ATOM     20  C   UNL A   1      32.296  21.098  24.002  1.00  0.00     0.060 C 
BRANCH  20  21
ATOM     21  C   UNL A   1      32.768  21.628  25.342  1.00  0.00    -0.004 A 
ATOM     22  C   UNL A   1      34.003  21.258  25.892  1.00  0.00     0.122 A 
ATOM     23  C   UNL A   1      34.371  21.658  27.180  1.00  0.00     0.047 A 
ATOM     24  C   UNL A   1      33.523  22.475  27.925  1.00  0.00     0.004 A 
ATOM     25  C   UNL A   1      31.946  22.486  26.094  1.00  0.00     0.007 A 
ATOM     26  C   UNL A   1      32.315  22.898  27.377  1.00  0.00     0.001 A 
BRANCH  22  27
ATOM     27  O   UNL A   1      34.873  20.457  25.202  1.00  0.00    -0.496 OA
ATOM     28  C   UNL A   1      36.006  21.216  24.768  1.00  0.00     0.278 C 
ENDBRANCH  22  27
ENDBRANCH  20  21
ENDBRANCH  19  20
ENDBRANCH  16  19
ENDBRANCH   8  15
ENDBRANCH   4   7
ENDBRANCH   2   3
ENDBRANCH   1   2
BRANCH   1  29
ATOM     29  C   UNL A   1      32.792  30.222  26.118  1.00  0.00     0.002 C 
BRANCH  29  30
ATOM     30  C   UNL A   1      31.378  30.803  26.047  1.00  0.00     0.002 C 
BRANCH  30  31
ATOM     31  C   UNL A   1      31.259  32.266  26.480  1.00  0.00     0.021 C 
BRANCH  31  32
ATOM     32  C   UNL A   1      32.518  32.863  27.106  1.00  0.00     0.116 C 
BRANCH  32  33
ATOM     33  N   UNL A   1      32.308  34.208  27.616  1.00  0.00    -0.352 N 
ATOM     34  C   UNL A   1      32.973  34.894  28.602  1.00  0.00     0.251 C 
ATOM     35  H   UNL A   1      31.574  34.705  27.187  1.00  0.00     0.163 HD
ATOM     36  O   UNL A   1      32.543  35.977  28.984  1.00  0.00    -0.269 OA
BRANCH  34  37
ATOM     37  C   UNL A   1      34.189  34.329  29.232  1.00  0.00     0.039 A 
ATOM     38  C   UNL A   1      34.033  33.518  30.360  1.00  0.00     0.014 A 
ATOM     39  C   UNL A   1      35.470  34.611  28.753  1.00  0.00     0.014 A 
ATOM     40  C   UNL A   1      35.153  32.949  30.971  1.00  0.00     0.010 A 
ATOM     41  C   UNL A   1      36.584  33.988  29.320  1.00  0.00     0.010 A 
ATOM     42  C   UNL A   1      36.436  33.152  30.436  1.00  0.00    -0.014 A 
BRANCH  42  43
ATOM     43  C   UNL A   1      37.612  32.467  31.033  1.00  0.00     0.031 A 
ATOM     44  C   UNL A   1      38.105  32.828  32.406  1.00  0.00     0.074 A 
ATOM     45  C   UNL A   1      38.256  31.525  30.316  1.00  0.00     0.049 A 
ATOM     46  N   UNL A   1      39.083  32.299  33.099  1.00  0.00    -0.248 NA
ATOM     47  C   UNL A   1      37.426  33.942  33.083  1.00  0.00     0.031 C 
ATOM     48  C   UNL A   1      37.921  31.133  28.946  1.00  0.00     0.029 A 
ATOM     49  N   UNL A   1      39.320  30.723  30.641  1.00  0.00    -0.354 N 
ATOM     50  C   UNL A   1      39.138  33.015  34.287  1.00  0.00     0.074 A 
ATOM     51  C   UNL A   1      38.133  34.053  34.199  1.00  0.00     0.031 C 
ATOM     52  C   UNL A   1      38.737  30.139  28.561  1.00  0.00     0.029 A 
ATOM     53  C   UNL A   1      39.666  29.840  29.647  1.00  0.00     0.049 A 
ATOM     54  H   UNL A   1      39.792  30.774  31.504  1.00  0.00     0.167 HD
ATOM     55  C   UNL A   1      39.937  32.811  35.362  1.00  0.00     0.037 A 
ATOM     56  C   UNL A   1      40.617  28.887  29.617  1.00  0.00     0.037 A 
ATOM     57  C   UNL A   1      40.926  31.767  35.456  1.00  0.00     0.049 A 
ATOM     58  C   UNL A   1      41.471  28.663  30.835  1.00  0.00     0.074 A 
ATOM     59  C   UNL A   1      41.741  31.440  36.526  1.00  0.00     0.029 A 
ATOM     60  N   UNL A   1      41.238  30.881  34.435  1.00  0.00    -0.354 N 
ATOM     61  N   UNL A   1      41.454  29.290  31.986  1.00  0.00    -0.248 NA
ATOM     62  C   UNL A   1      42.466  27.585  30.752  1.00  0.00     0.031 C 
ATOM     63  C   UNL A   1      42.574  30.385  36.139  1.00  0.00     0.029 A 
ATOM     64  C   UNL A   1      42.246  30.022  34.843  1.00  0.00     0.049 A 
ATOM     65  H   UNL A   1      40.805  30.865  33.550  1.00  0.00     0.167 HD
ATOM     66  C   UNL A   1      42.418  28.672  32.770  1.00  0.00     0.074 A 
ATOM     67  C   UNL A   1      42.982  27.603  31.973  1.00  0.00     0.031 C 
ATOM     68  C   UNL A   1      42.805  28.967  34.036  1.00  0.00     0.037 A 
BRANCH  55  69
ATOM     69  C   UNL A   1      39.769  33.733  36.536  1.00  0.00     0.064 A 
ATOM     70  C   UNL A   1      40.426  34.971  36.598  1.00  0.00     0.173 A 
ATOM     71  C   UNL A   1      38.909  33.395  37.593  1.00  0.00     0.173 A 
ATOM     72  F   UNL A   1      41.267  35.338  35.619  1.00  0.00    -0.203 F 
ATOM     73  C   UNL A   1      40.252  35.823  37.686  1.00  0.00     0.198 A 
ATOM     74  C   UNL A   1      38.715  34.262  38.665  1.00  0.00     0.198 A 
ATOM     75  F   UNL A   1      38.250  32.226  37.582  1.00  0.00    -0.203 F 
ATOM     76  F   UNL A   1      40.929  36.979  37.744  1.00  0.00    -0.200 F 
ATOM     77  C   UNL A   1      39.392  35.471  38.714  1.00  0.00     0.200 A 
ATOM     78  F   UNL A   1      37.873  33.927  39.652  1.00  0.00    -0.200 F 
ATOM     79  F   UNL A   1      39.220  36.295  39.758  1.00  0.00    -0.200 F 
ENDBRANCH  55  69
BRANCH  56  80
ATOM     80  C   UNL A   1      40.778  28.040  28.409  1.00  0.00     0.064 A 
ATOM     81  C   UNL A   1      40.117  26.809  28.299  1.00  0.00     0.173 A 
ATOM     82  C   UNL A   1      41.597  28.440  27.342  1.00  0.00     0.173 A 
ATOM     83  F   UNL A   1      39.339  26.376  29.303  1.00  0.00    -0.203 F 
ATOM     84  C   UNL A   1      40.283  26.000  27.177  1.00  0.00     0.198 A 
ATOM     85  C   UNL A   1      41.740  27.643  26.208  1.00  0.00     0.198 A 
ATOM     86  F   UNL A   1      42.246  29.612  27.396  1.00  0.00    -0.203 F 
ATOM     87  F   UNL A   1      39.675  24.807  27.118  1.00  0.00    -0.200 F 
ATOM     88  C   UNL A   1      41.090  26.420  26.130  1.00  0.00     0.200 A 
ATOM     89  F   UNL A   1      42.509  28.058  25.193  1.00  0.00    -0.200 F 
ATOM     90  F   UNL A   1      41.247  25.643  25.050  1.00  0.00    -0.200 F 
ENDBRANCH  56  80
BRANCH  68  91
ATOM     91  C   UNL A   1      43.878  28.106  34.637  1.00  0.00     0.064 A 
ATOM     92  C   UNL A   1      43.570  26.914  35.313  1.00  0.00     0.173 A 
ATOM     93  C   UNL A   1      45.228  28.472  34.534  1.00  0.00     0.173 A 
ATOM     94  F   UNL A   1      42.293  26.528  35.453  1.00  0.00    -0.203 F 
ATOM     95  C   UNL A   1      44.572  26.145  35.899  1.00  0.00     0.198 A 
ATOM     96  C   UNL A   1      46.229  27.683  35.094  1.00  0.00     0.198 A 
ATOM     97  F   UNL A   1      45.577  29.597  33.892  1.00  0.00    -0.203 F 
ATOM     98  F   UNL A   1      44.249  25.045  36.594  1.00  0.00    -0.200 F 
ATOM     99  C   UNL A   1      45.900  26.527  35.785  1.00  0.00     0.200 A 
ATOM    100  F   UNL A   1      47.514  28.048  34.973  1.00  0.00    -0.200 F 
ATOM    101  F   UNL A   1      46.863  25.787  36.352  1.00  0.00    -0.200 F 
ENDBRANCH  68  91
ENDBRANCH  42  43
ENDBRANCH  34  37
ENDBRANCH  32  33
ENDBRANCH  31  32
ENDBRANCH  30  31
ENDBRANCH  29  30
ENDBRANCH   1  29
TORSDOF 18
ENDMDL
MODEL 3
REMARK VINA RESULT:     -11.7      1.853      7.486
REMARK SMILES COc1ccccc1CCNC(=O)[C@@H]1[C@@H](C(=O)NCCCCCCNC(=O)c2ccc(-c3c4nc(c(-c5c(F)c(F)c(F)c(F)c5F)c5ccc([nH]5)c(-c5c(F)c(F)c(F)c(F)c5F)c5nc(c(-c6c(F)c(F)c(F)c(F)c6F)c6ccc3[nH]6)C=C5)C=C4)cc2)[C@H]2C=C[C@@H]1CC2
REMARK SMILES IDX 20 1 19 2 18 3 16 4 17 5 15 7 14 8 94 9 91 10 93 11 95 12
REMARK SMILES IDX 92 13 96 14 12 15 11 16 13 18 10 19 9 20 8 21 3 22 4 23 5 24
REMARK SMILES IDX 7 25 6 26 2 27 1 28 21 29 22 30 23 31 24 32 25 33 26 34
REMARK SMILES IDX 27 36 28 37 29 38 90 39 30 40 89 41 31 42 32 43 33 44 83 45
REMARK SMILES IDX 34 46 88 47 82 48 84 49 35 50 87 51 81 52 80 53 36 55 68 56
REMARK SMILES IDX 48 57 67 58 49 59 52 60 66 61 85 62 50 63 51 64 65 66 86 67
REMARK SMILES IDX 53 68 37 69 38 70 46 71 39 72 40 73 44 74 47 75 41 76 42 77
REMARK SMILES IDX 45 78 43 79 69 80 70 81 78 82 71 83 72 84 76 85 79 86 73 87
REMARK SMILES IDX 74 88 77 89 75 90 54 91 55 92 63 93 56 94 57 95 61 96 64 97
REMARK SMILES IDX 58 98 59 99 62 100 60 101
REMARK H PARENT 18 6 11 17 25 35 84 54 52 65
REMARK Flexibility Score: inf
ROOT
ATOM      1  C   UNL A   1      31.355  29.167  22.868  1.00  0.00     0.021 C 
ENDROOT
BRANCH   1   2
ATOM      2  C   UNL A   1      32.771  28.576  22.795  1.00  0.00     0.116 C 
BRANCH   2   3
ATOM      3  N   UNL A   1      32.748  27.322  22.071  1.00  0.00    -0.356 N 
ATOM      4  C   UNL A   1      33.152  26.088  22.464  1.00  0.00     0.224 C 
ATOM      5  O   UNL A   1      33.551  25.337  21.572  1.00  0.00    -0.275 OA
ATOM      6  H   UNL A   1      32.387  27.372  21.156  1.00  0.00     0.163 HD
BRANCH   4   7
ATOM      7  C   UNL A   1      33.014  25.651  23.926  1.00  0.00     0.098 C 
ATOM      8  C   UNL A   1      33.386  24.141  24.072  1.00  0.00     0.098 C 
ATOM      9  C   UNL A   1      32.113  23.323  24.459  1.00  0.00     0.025 C 
ATOM     10  C   UNL A   1      31.530  25.852  24.379  1.00  0.00     0.025 C 
ATOM     11  C   UNL A   1      30.993  23.678  23.496  1.00  0.00    -0.027 C 
ATOM     12  C   UNL A   1      31.585  23.780  25.843  1.00  0.00     0.009 C 
ATOM     13  C   UNL A   1      30.650  24.979  23.500  1.00  0.00    -0.027 C 
ATOM     14  C   UNL A   1      31.371  25.314  25.825  1.00  0.00     0.009 C 
BRANCH   8  15
ATOM     15  C   UNL A   1      34.439  23.941  25.157  1.00  0.00     0.224 C 
ATOM     16  N   UNL A   1      34.601  22.690  25.682  1.00  0.00    -0.355 N 
ATOM     17  H   UNL A   1      34.432  22.557  26.643  1.00  0.00     0.163 HD
ATOM     18  O   UNL A   1      35.087  24.867  25.646  1.00  0.00    -0.275 OA
BRANCH  16  19
ATOM     19  C   UNL A   1      35.014  21.547  24.883  1.00  0.00     0.120 C 
BRANCH  19  20
ATOM     20  C   UNL A   1      34.531  20.224  25.509  1.00  0.00     0.060 C 
BRANCH  20  21
ATOM     21  C   UNL A   1      33.846  19.307  24.515  1.00  0.00    -0.004 A 
ATOM     22  C   UNL A   1      34.319  18.015  24.251  1.00  0.00     0.122 A 
ATOM     23  C   UNL A   1      33.751  17.226  23.246  1.00  0.00     0.047 A 
ATOM     24  C   UNL A   1      32.665  17.704  22.516  1.00  0.00     0.004 A 
ATOM     25  C   UNL A   1      32.724  19.754  23.795  1.00  0.00     0.007 A 
ATOM     26  C   UNL A   1      32.145  18.965  22.797  1.00  0.00     0.001 A 
BRANCH  22  27
ATOM     27  O   UNL A   1      35.383  17.496  24.940  1.00  0.00    -0.496 OA
ATOM     28  C   UNL A   1      35.155  16.115  25.236  1.00  0.00     0.278 C 
ENDBRANCH  22  27
ENDBRANCH  20  21
ENDBRANCH  19  20
ENDBRANCH  16  19
ENDBRANCH   8  15
ENDBRANCH   4   7
ENDBRANCH   2   3
ENDBRANCH   1   2
BRANCH   1  29
ATOM     29  C   UNL A   1      30.787  29.330  24.287  1.00  0.00     0.002 C 
BRANCH  29  30
ATOM     30  C   UNL A   1      31.807  29.733  25.355  1.00  0.00     0.002 C 
BRANCH  30  31
ATOM     31  C   UNL A   1      31.470  31.016  26.117  1.00  0.00     0.021 C 
BRANCH  31  32
ATOM     32  C   UNL A   1      32.622  31.616  26.921  1.00  0.00     0.116 C 
BRANCH  32  33
ATOM     33  N   UNL A   1      32.409  33.016  27.249  1.00  0.00    -0.352 N 
ATOM     34  C   UNL A   1      33.079  33.830  28.129  1.00  0.00     0.251 C 
ATOM     35  H   UNL A   1      31.669  33.448  26.765  1.00  0.00     0.163 HD
ATOM     36  O   UNL A   1      32.647  34.953  28.366  1.00  0.00    -0.269 OA
BRANCH  34  37
ATOM     37  C   UNL A   1      34.304  33.360  28.817  1.00  0.00     0.039 A 
ATOM     38  C   UNL A   1      34.163  32.443  29.863  1.00  0.00     0.014 A 
ATOM     39  C   UNL A   1      35.573  33.829  28.472  1.00  0.00     0.014 A 
ATOM     40  C   UNL A   1      35.295  31.958  30.523  1.00  0.00     0.010 A 
ATOM     41  C   UNL A   1      36.708  33.294  29.084  1.00  0.00     0.010 A 
ATOM     42  C   UNL A   1      36.580  32.355  30.117  1.00  0.00    -0.014 A 
BRANCH  42  43
ATOM     43  C   UNL A   1      37.782  31.763  30.760  1.00  0.00     0.031 A 
ATOM     44  C   UNL A   1      38.206  32.178  32.141  1.00  0.00     0.074 A 
ATOM     45  C   UNL A   1      38.512  30.858  30.078  1.00  0.00     0.049 A 
ATOM     46  N   UNL A   1      39.198  31.729  32.871  1.00  0.00    -0.248 NA
ATOM     47  C   UNL A   1      37.430  33.250  32.780  1.00  0.00     0.031 C 
ATOM     48  C   UNL A   1      38.248  30.425  28.705  1.00  0.00     0.029 A 
ATOM     49  N   UNL A   1      39.620  30.138  30.448  1.00  0.00    -0.354 N 
ATOM     50  C   UNL A   1      39.166  32.464  34.048  1.00  0.00     0.074 A 
ATOM     51  C   UNL A   1      38.093  33.427  33.914  1.00  0.00     0.031 C 
ATOM     52  C   UNL A   1      39.144  29.485  28.362  1.00  0.00     0.029 A 
ATOM     53  C   UNL A   1      40.058  29.269  29.479  1.00  0.00     0.049 A 
ATOM     54  H   UNL A   1      40.060  30.235  31.323  1.00  0.00     0.167 HD
ATOM     55  C   UNL A   1      39.943  32.332  35.150  1.00  0.00     0.037 A 
ATOM     56  C   UNL A   1      41.073  28.385  29.493  1.00  0.00     0.037 A 
ATOM     57  C   UNL A   1      41.000  31.363  35.290  1.00  0.00     0.049 A 
ATOM     58  C   UNL A   1      41.903  28.239  30.739  1.00  0.00     0.074 A 
ATOM     59  C   UNL A   1      41.803  31.110  36.390  1.00  0.00     0.029 A 
ATOM     60  N   UNL A   1      41.404  30.486  34.293  1.00  0.00    -0.354 N 
ATOM     61  N   UNL A   1      41.806  28.879  31.878  1.00  0.00    -0.248 NA
ATOM     62  C   UNL A   1      42.973  27.233  30.704  1.00  0.00     0.031 C 
ATOM     63  C   UNL A   1      42.719  30.110  36.044  1.00  0.00     0.029 A 
ATOM     64  C   UNL A   1      42.458  29.706  34.745  1.00  0.00     0.049 A 
ATOM     65  H   UNL A   1      41.001  30.427  33.397  1.00  0.00     0.167 HD
ATOM     66  C   UNL A   1      42.787  28.343  32.701  1.00  0.00     0.074 A 
ATOM     67  C   UNL A   1      43.449  27.304  31.939  1.00  0.00     0.031 C 
ATOM     68  C   UNL A   1      43.113  28.682  33.973  1.00  0.00     0.037 A 
BRANCH  55  69
ATOM     69  C   UNL A   1      39.675  33.256  36.303  1.00  0.00     0.064 A 
ATOM     70  C   UNL A   1      38.771  32.917  37.322  1.00  0.00     0.173 A 
ATOM     71  C   UNL A   1      40.357  34.478  36.414  1.00  0.00     0.173 A 
ATOM     72  F   UNL A   1      38.085  31.765  37.259  1.00  0.00    -0.203 F 
ATOM     73  C   UNL A   1      38.540  33.776  38.393  1.00  0.00     0.198 A 
ATOM     74  C   UNL A   1      40.145  35.322  37.501  1.00  0.00     0.198 A 
ATOM     75  F   UNL A   1      41.237  34.850  35.472  1.00  0.00    -0.203 F 
ATOM     76  F   UNL A   1      37.636  33.450  39.329  1.00  0.00    -0.200 F 
ATOM     77  C   UNL A   1      39.232  34.974  38.486  1.00  0.00     0.200 A 
ATOM     78  F   UNL A   1      40.823  36.473  37.597  1.00  0.00    -0.200 F 
ATOM     79  F   UNL A   1      39.013  35.798  39.520  1.00  0.00    -0.200 F 
ENDBRANCH  55  69
BRANCH  56  80
ATOM     80  C   UNL A   1      41.330  27.534  28.304  1.00  0.00     0.064 A 
ATOM     81  C   UNL A   1      40.650  26.322  28.125  1.00  0.00     0.173 A 
ATOM     82  C   UNL A   1      42.262  27.911  27.325  1.00  0.00     0.173 A 
ATOM     83  F   UNL A   1      39.765  25.909  29.045  1.00  0.00    -0.203 F 
ATOM     84  C   UNL A   1      40.905  25.509  27.022  1.00  0.00     0.198 A 
ATOM     85  C   UNL A   1      42.495  27.111  26.209  1.00  0.00     0.198 A 
ATOM     86  F   UNL A   1      42.934  29.064  27.447  1.00  0.00    -0.203 F 
ATOM     87  F   UNL A   1      40.273  24.333  26.900  1.00  0.00    -0.200 F 
ATOM     88  C   UNL A   1      41.823  25.907  26.063  1.00  0.00     0.200 A 
ATOM     89  F   UNL A   1      43.372  27.505  25.277  1.00  0.00    -0.200 F 
ATOM     90  F   UNL A   1      42.065  25.126  25.001  1.00  0.00    -0.200 F 
ENDBRANCH  56  80
BRANCH  68  91
ATOM     91  C   UNL A   1      44.225  27.907  34.619  1.00  0.00     0.064 A 
ATOM     92  C   UNL A   1      45.558  28.342  34.553  1.00  0.00     0.173 A 
ATOM     93  C   UNL A   1      43.956  26.719  35.314  1.00  0.00     0.173 A 
ATOM     94  F   UNL A   1      45.870  29.464  33.886  1.00  0.00    -0.203 F 
ATOM     95  C   UNL A   1      46.584  27.593  35.124  1.00  0.00     0.198 A 
ATOM     96  C   UNL A   1      44.981  25.990  35.911  1.00  0.00     0.198 A 
ATOM     97  F   UNL A   1      42.698  26.263  35.414  1.00  0.00    -0.203 F 
ATOM     98  F   UNL A   1      47.857  27.995  34.994  1.00  0.00    -0.200 F 
ATOM     99  C   UNL A   1      46.294  26.421  35.806  1.00  0.00     0.200 A 
ATOM    100  F   UNL A   1      44.698  24.863  36.580  1.00  0.00    -0.200 F 
ATOM    101  F   UNL A   1      47.284  25.700  36.351  1.00  0.00    -0.200 F 
ENDBRANCH  68  91
ENDBRANCH  42  43
ENDBRANCH  34  37
ENDBRANCH  32  33
ENDBRANCH  31  32
ENDBRANCH  30  31
ENDBRANCH  29  30
ENDBRANCH   1  29
TORSDOF 18
ENDMDL
