MODEL 1
REMARK VINA RESULT:     -12.1      0.000      0.000
REMARK SMILES Cc1ccc(S(=O)(=O)/C=C/C(=O)NCCCCCCNC(=O)c2ccc(-c3c4nc(c(-c5c(F)c(F)c(F)c(F)c5F)c5ccc([nH]5)c(-c5c(F)c(F)c(F)c(F)c5F)c5nc(c(-c6c(F)c(F)c(F)c(F)c6F)c6ccc3[nH]6)C=C5)C=C4)cc2)cc1
REMARK SMILES IDX 16 1 15 2 14 3 13 4 11 5 12 6 10 8 9 9 6 10 7 11 8 12 5 13
REMARK SMILES IDX 1 14 2 15 3 16 87 17 4 18 86 19 17 20 18 21 19 22 20 23
REMARK SMILES IDX 21 24 22 26 23 27 24 28 85 29 25 30 84 31 26 32 27 33 28 34
REMARK SMILES IDX 78 35 29 36 83 37 77 38 79 39 30 40 82 41 76 42 75 43 31 45
REMARK SMILES IDX 63 46 43 47 62 48 44 49 47 50 61 51 80 52 45 53 46 54 60 56
REMARK SMILES IDX 81 57 48 58 32 59 33 60 41 61 34 62 35 63 39 64 42 65 36 66
REMARK SMILES IDX 37 67 40 68 38 69 64 70 65 71 73 72 66 73 67 74 71 75 74 76
REMARK SMILES IDX 68 77 69 78 72 79 70 80 49 81 50 82 58 83 51 84 52 85 56 86
REMARK SMILES IDX 59 87 53 88 54 89 57 90 55 91
REMARK H PARENT 13 7 20 25 79 44 47 55
REMARK Flexibility Score: inf
ROOT
ATOM      1  C   UNL A   1      33.707  28.605  25.558  1.00  0.00     0.002 C 
ENDROOT
BRANCH   1   2
ATOM      2  C   UNL A   1      32.538  29.124  24.712  1.00  0.00     0.021 C 
BRANCH   2   3
ATOM      3  C   UNL A   1      31.854  28.080  23.830  1.00  0.00     0.116 C 
BRANCH   3   4
ATOM      4  N   UNL A   1      32.677  27.687  22.703  1.00  0.00    -0.353 N 
ATOM      5  C   UNL A   1      33.317  26.505  22.496  1.00  0.00     0.244 C 
ATOM      6  O   UNL A   1      33.848  26.239  21.424  1.00  0.00    -0.270 OA
ATOM      7  H   UNL A   1      32.789  28.365  21.997  1.00  0.00     0.163 HD
BRANCH   5   8
ATOM      8  C   UNL A   1      33.348  25.524  23.588  1.00  0.00     0.083 C 
ATOM      9  C   UNL A   1      33.520  24.230  23.284  1.00  0.00     0.117 C 
BRANCH   9  10
ATOM     10  S   UNL A   1      33.470  23.055  24.547  1.00  0.00     0.200 S 
ATOM     11  O   UNL A   1      32.979  21.805  23.998  1.00  0.00    -0.219 OA
ATOM     12  O   UNL A   1      32.821  23.666  25.691  1.00  0.00    -0.219 OA
BRANCH  10  13
ATOM     13  C   UNL A   1      35.160  22.766  25.028  1.00  0.00     0.071 A 
ATOM     14  C   UNL A   1      39.282  21.964  25.940  1.00  0.00     0.044 C 
ATOM     15  C   UNL A   1      37.842  22.245  25.625  1.00  0.00    -0.051 A 
ATOM     16  C   UNL A   1      37.073  21.293  24.946  1.00  0.00     0.005 A 
ATOM     17  C   UNL A   1      37.249  23.445  26.030  1.00  0.00     0.005 A 
ATOM     18  C   UNL A   1      35.736  21.553  24.640  1.00  0.00     0.021 A 
ATOM     19  C   UNL A   1      35.909  23.708  25.738  1.00  0.00     0.021 A 
ENDBRANCH  10  13
ENDBRANCH   9  10
ENDBRANCH   5   8
ENDBRANCH   3   4
ENDBRANCH   2   3
ENDBRANCH   1   2
BRANCH   1  20
ATOM     20  C   UNL A   1      33.620  28.848  27.075  1.00  0.00     0.002 C 
BRANCH  20  21
ATOM     21  C   UNL A   1      33.139  30.233  27.517  1.00  0.00     0.021 C 
BRANCH  21  22
ATOM     22  C   UNL A   1      34.141  31.355  27.284  1.00  0.00     0.116 C 
BRANCH  22  23
ATOM     23  N   UNL A   1      34.612  31.987  28.511  1.00  0.00    -0.352 N 
ATOM     24  C   UNL A   1      35.533  31.532  29.438  1.00  0.00     0.251 C 
ATOM     25  H   UNL A   1      34.216  32.868  28.709  1.00  0.00     0.163 HD
ATOM     26  O   UNL A   1      35.779  32.186  30.440  1.00  0.00    -0.269 OA
BRANCH  24  27
ATOM     27  C   UNL A   1      36.329  30.321  29.127  1.00  0.00     0.039 A 
ATOM     28  C   UNL A   1      36.644  29.469  30.192  1.00  0.00     0.014 A 
ATOM     29  C   UNL A   1      36.950  30.168  27.892  1.00  0.00     0.014 A 
ATOM     30  C   UNL A   1      37.771  28.658  30.101  1.00  0.00     0.010 A 
ATOM     31  C   UNL A   1      38.122  29.440  27.831  1.00  0.00     0.010 A 
ATOM     32  C   UNL A   1      38.575  28.759  28.967  1.00  0.00    -0.014 A 
BRANCH  32  33
ATOM     33  C   UNL A   1      39.974  28.344  28.956  1.00  0.00     0.031 A 
ATOM     34  C   UNL A   1      40.361  26.971  28.579  1.00  0.00     0.074 A 
ATOM     35  C   UNL A   1      40.923  29.279  29.185  1.00  0.00     0.049 A 
ATOM     36  N   UNL A   1      41.491  26.423  28.880  1.00  0.00    -0.248 NA
ATOM     37  C   UNL A   1      39.462  26.075  27.868  1.00  0.00     0.031 C 
ATOM     38  C   UNL A   1      42.354  29.174  28.912  1.00  0.00     0.029 A 
ATOM     39  N   UNL A   1      40.792  30.478  29.908  1.00  0.00    -0.354 N 
ATOM     40  C   UNL A   1      41.592  25.246  28.170  1.00  0.00     0.074 A 
ATOM     41  C   UNL A   1      40.266  25.034  27.638  1.00  0.00     0.031 C 
ATOM     42  C   UNL A   1      43.005  30.066  29.675  1.00  0.00     0.029 A 
ATOM     43  C   UNL A   1      42.028  30.657  30.571  1.00  0.00     0.049 A 
ATOM     44  H   UNL A   1      40.005  31.068  29.945  1.00  0.00     0.167 HD
ATOM     45  C   UNL A   1      42.826  24.683  28.002  1.00  0.00     0.037 A 
ATOM     46  C   UNL A   1      42.115  30.646  31.933  1.00  0.00     0.037 A 
ATOM     47  C   UNL A   1      43.835  25.385  28.800  1.00  0.00     0.049 A 
ATOM     48  C   UNL A   1      43.031  29.581  32.487  1.00  0.00     0.074 A 
ATOM     49  C   UNL A   1      44.800  26.328  28.481  1.00  0.00     0.029 A 
ATOM     50  N   UNL A   1      43.749  25.370  30.190  1.00  0.00    -0.354 N 
ATOM     51  N   UNL A   1      43.418  28.536  31.811  1.00  0.00    -0.248 NA
ATOM     52  C   UNL A   1      43.541  29.582  33.855  1.00  0.00     0.031 C 
ATOM     53  C   UNL A   1      45.258  26.918  29.684  1.00  0.00     0.029 A 
ATOM     54  C   UNL A   1      44.585  26.325  30.737  1.00  0.00     0.049 A 
ATOM     55  H   UNL A   1      43.173  24.763  30.709  1.00  0.00     0.167 HD
ATOM     56  C   UNL A   1      44.171  27.723  32.618  1.00  0.00     0.074 A 
ATOM     57  C   UNL A   1      44.240  28.434  33.881  1.00  0.00     0.031 C 
ATOM     58  C   UNL A   1      44.652  26.526  32.177  1.00  0.00     0.037 A 
BRANCH  45  59
ATOM     59  C   UNL A   1      43.188  23.714  26.882  1.00  0.00     0.064 A 
ATOM     60  C   UNL A   1      42.840  22.344  26.973  1.00  0.00     0.173 A 
ATOM     61  C   UNL A   1      43.949  24.033  25.743  1.00  0.00     0.173 A 
ATOM     62  F   UNL A   1      42.001  21.894  27.915  1.00  0.00    -0.203 F 
ATOM     63  C   UNL A   1      43.337  21.375  26.096  1.00  0.00     0.198 A 
ATOM     64  C   UNL A   1      44.485  23.061  24.889  1.00  0.00     0.198 A 
ATOM     65  F   UNL A   1      44.148  25.297  25.362  1.00  0.00    -0.203 F 
ATOM     66  F   UNL A   1      42.988  20.091  26.256  1.00  0.00    -0.200 F 
ATOM     67  C   UNL A   1      44.195  21.728  25.077  1.00  0.00     0.200 A 
ATOM     68  F   UNL A   1      45.282  23.435  23.877  1.00  0.00    -0.200 F 
ATOM     69  F   UNL A   1      44.708  20.797  24.261  1.00  0.00    -0.200 F 
ENDBRANCH  45  59
BRANCH  46  70
ATOM     70  C   UNL A   1      40.890  31.143  32.610  1.00  0.00     0.064 A 
ATOM     71  C   UNL A   1      40.647  32.529  32.625  1.00  0.00     0.173 A 
ATOM     72  C   UNL A   1      39.817  30.293  32.900  1.00  0.00     0.173 A 
ATOM     73  F   UNL A   1      41.642  33.386  32.346  1.00  0.00    -0.203 F 
ATOM     74  C   UNL A   1      39.364  33.038  32.817  1.00  0.00     0.198 A 
ATOM     75  C   UNL A   1      38.534  30.808  33.102  1.00  0.00     0.198 A 
ATOM     76  F   UNL A   1      39.979  28.963  32.877  1.00  0.00    -0.203 F 
ATOM     77  F   UNL A   1      39.148  34.358  32.722  1.00  0.00    -0.200 F 
ATOM     78  C   UNL A   1      38.303  32.174  33.028  1.00  0.00     0.200 A 
ATOM     79  F   UNL A   1      37.500  29.971  33.273  1.00  0.00    -0.200 F 
ATOM     80  F   UNL A   1      37.056  32.653  33.122  1.00  0.00    -0.200 F 
ENDBRANCH  46  70
BRANCH  58  81
ATOM     81  C   UNL A   1      45.303  25.468  33.031  1.00  0.00     0.064 A 
ATOM     82  C   UNL A   1      46.691  25.275  33.118  1.00  0.00     0.173 A 
ATOM     83  C   UNL A   1      44.521  24.696  33.926  1.00  0.00     0.173 A 
ATOM     84  F   UNL A   1      47.542  26.023  32.402  1.00  0.00    -0.203 F 
ATOM     85  C   UNL A   1      47.254  24.343  33.994  1.00  0.00     0.198 A 
ATOM     86  C   UNL A   1      45.089  23.808  34.836  1.00  0.00     0.198 A 
ATOM     87  F   UNL A   1      43.184  24.803  33.956  1.00  0.00    -0.203 F 
ATOM     88  F   UNL A   1      48.583  24.170  34.014  1.00  0.00    -0.200 F 
ATOM     89  C   UNL A   1      46.456  23.620  34.861  1.00  0.00     0.200 A 
ATOM     90  F   UNL A   1      44.306  23.150  35.704  1.00  0.00    -0.200 F 
ATOM     91  F   UNL A   1      47.004  22.762  35.732  1.00  0.00    -0.200 F 
ENDBRANCH  58  81
ENDBRANCH  32  33
ENDBRANCH  24  27
ENDBRANCH  22  23
ENDBRANCH  21  22
ENDBRANCH  20  21
ENDBRANCH   1  20
TORSDOF 15
ENDMDL
MODEL 2
REMARK VINA RESULT:     -12.1      3.509      9.907
REMARK SMILES Cc1ccc(S(=O)(=O)/C=C/C(=O)NCCCCCCNC(=O)c2ccc(-c3c4nc(c(-c5c(F)c(F)c(F)c(F)c5F)c5ccc([nH]5)c(-c5c(F)c(F)c(F)c(F)c5F)c5nc(c(-c6c(F)c(F)c(F)c(F)c6F)c6ccc3[nH]6)C=C5)C=C4)cc2)cc1
REMARK SMILES IDX 16 1 15 2 14 3 13 4 11 5 12 6 10 8 9 9 6 10 7 11 8 12 5 13
REMARK SMILES IDX 1 14 2 15 3 16 87 17 4 18 86 19 17 20 18 21 19 22 20 23
REMARK SMILES IDX 21 24 22 26 23 27 24 28 85 29 25 30 84 31 26 32 27 33 28 34
REMARK SMILES IDX 78 35 29 36 83 37 77 38 79 39 30 40 82 41 76 42 75 43 31 45
REMARK SMILES IDX 63 46 43 47 62 48 44 49 47 50 61 51 80 52 45 53 46 54 60 56
REMARK SMILES IDX 81 57 48 58 32 59 33 60 41 61 34 62 35 63 39 64 42 65 36 66
REMARK SMILES IDX 37 67 40 68 38 69 64 70 65 71 73 72 66 73 67 74 71 75 74 76
REMARK SMILES IDX 68 77 69 78 72 79 70 80 49 81 50 82 58 83 51 84 52 85 56 86
REMARK SMILES IDX 59 87 53 88 54 89 57 90 55 91
REMARK H PARENT 13 7 20 25 79 44 47 55
REMARK Flexibility Score: inf
ROOT
ATOM      1  C   UNL A   1      36.737  22.777  23.784  1.00  0.00     0.002 C 
ENDROOT
BRANCH   1   2
ATOM      2  C   UNL A   1      35.377  23.445  24.024  1.00  0.00     0.021 C 
BRANCH   2   3
ATOM      3  C   UNL A   1      34.205  22.837  23.255  1.00  0.00     0.116 C 
BRANCH   3   4
ATOM      4  N   UNL A   1      33.502  21.832  24.028  1.00  0.00    -0.353 N 
ATOM      5  C   UNL A   1      32.256  21.900  24.568  1.00  0.00     0.244 C 
ATOM      6  O   UNL A   1      31.712  20.919  25.061  1.00  0.00    -0.270 OA
ATOM      7  H   UNL A   1      33.991  20.991  24.183  1.00  0.00     0.163 HD
BRANCH   5   8
ATOM      8  C   UNL A   1      31.548  23.186  24.536  1.00  0.00     0.083 C 
ATOM      9  C   UNL A   1      31.395  23.864  25.682  1.00  0.00     0.117 C 
BRANCH   9  10
ATOM     10  S   UNL A   1      30.490  25.333  25.677  1.00  0.00     0.200 S 
ATOM     11  O   UNL A   1      29.521  25.285  26.757  1.00  0.00    -0.219 OA
ATOM     12  O   UNL A   1      30.064  25.583  24.313  1.00  0.00    -0.219 OA
BRANCH  10  13
ATOM     13  C   UNL A   1      31.639  26.629  26.086  1.00  0.00     0.071 A 
ATOM     14  C   UNL A   1      34.359  29.712  27.337  1.00  0.00     0.044 C 
ATOM     15  C   UNL A   1      33.410  28.637  26.897  1.00  0.00    -0.051 A 
ATOM     16  C   UNL A   1      32.157  28.513  27.508  1.00  0.00     0.005 A 
ATOM     17  C   UNL A   1      33.755  27.768  25.856  1.00  0.00     0.005 A 
ATOM     18  C   UNL A   1      31.274  27.507  27.110  1.00  0.00     0.021 A 
ATOM     19  C   UNL A   1      32.873  26.767  25.445  1.00  0.00     0.021 A 
ENDBRANCH  10  13
ENDBRANCH   9  10
ENDBRANCH   5   8
ENDBRANCH   3   4
ENDBRANCH   2   3
ENDBRANCH   1   2
BRANCH   1  20
ATOM     20  C   UNL A   1      37.012  21.476  24.558  1.00  0.00     0.002 C 
BRANCH  20  21
ATOM     21  C   UNL A   1      38.362  21.381  25.275  1.00  0.00     0.021 C 
BRANCH  21  22
ATOM     22  C   UNL A   1      38.765  22.637  26.035  1.00  0.00     0.116 C 
BRANCH  22  23
ATOM     23  N   UNL A   1      40.193  22.718  26.322  1.00  0.00    -0.352 N 
ATOM     24  C   UNL A   1      40.955  23.810  26.697  1.00  0.00     0.251 C 
ATOM     25  H   UNL A   1      40.687  21.870  26.236  1.00  0.00     0.163 HD
ATOM     26  O   UNL A   1      42.160  23.698  26.859  1.00  0.00    -0.269 OA
BRANCH  24  27
ATOM     27  C   UNL A   1      40.272  25.078  27.049  1.00  0.00     0.039 A 
ATOM     28  C   UNL A   1      40.610  26.216  26.307  1.00  0.00     0.014 A 
ATOM     29  C   UNL A   1      39.527  25.191  28.218  1.00  0.00     0.014 A 
ATOM     30  C   UNL A   1      40.446  27.472  26.882  1.00  0.00     0.010 A 
ATOM     31  C   UNL A   1      39.451  26.426  28.832  1.00  0.00     0.010 A 
ATOM     32  C   UNL A   1      39.992  27.550  28.198  1.00  0.00    -0.014 A 
BRANCH  32  33
ATOM     33  C   UNL A   1      40.224  28.718  29.041  1.00  0.00     0.031 A 
ATOM     34  C   UNL A   1      39.200  29.769  29.189  1.00  0.00     0.074 A 
ATOM     35  C   UNL A   1      41.354  28.762  29.782  1.00  0.00     0.049 A 
ATOM     36  N   UNL A   1      39.439  30.969  29.601  1.00  0.00    -0.248 NA
ATOM     37  C   UNL A   1      37.807  29.558  28.823  1.00  0.00     0.031 C 
ATOM     38  C   UNL A   1      41.641  29.644  30.910  1.00  0.00     0.029 A 
ATOM     39  N   UNL A   1      42.577  28.116  29.523  1.00  0.00    -0.354 N 
ATOM     40  C   UNL A   1      38.230  31.585  29.835  1.00  0.00     0.074 A 
ATOM     41  C   UNL A   1      37.255  30.699  29.242  1.00  0.00     0.031 C 
ATOM     42  C   UNL A   1      42.971  29.720  31.071  1.00  0.00     0.029 A 
ATOM     43  C   UNL A   1      43.578  29.015  29.956  1.00  0.00     0.049 A 
ATOM     44  H   UNL A   1      42.707  27.226  29.124  1.00  0.00     0.167 HD
ATOM     45  C   UNL A   1      38.199  32.695  30.634  1.00  0.00     0.037 A 
ATOM     46  C   UNL A   1      44.470  29.565  29.082  1.00  0.00     0.037 A 
ATOM     47  C   UNL A   1      39.557  33.140  30.963  1.00  0.00     0.049 A 
ATOM     48  C   UNL A   1      44.442  31.075  29.036  1.00  0.00     0.074 A 
ATOM     49  C   UNL A   1      40.349  32.992  32.091  1.00  0.00     0.029 A 
ATOM     50  N   UNL A   1      40.399  33.592  29.951  1.00  0.00    -0.354 N 
ATOM     51  N   UNL A   1      43.449  31.794  29.476  1.00  0.00    -0.248 NA
ATOM     52  C   UNL A   1      45.503  31.887  28.447  1.00  0.00     0.031 C 
ATOM     53  C   UNL A   1      41.684  33.308  31.739  1.00  0.00     0.029 A 
ATOM     54  C   UNL A   1      41.703  33.665  30.402  1.00  0.00     0.049 A 
ATOM     55  H   UNL A   1      40.105  33.828  29.041  1.00  0.00     0.167 HD
ATOM     56  C   UNL A   1      43.692  33.117  29.215  1.00  0.00     0.074 A 
ATOM     57  C   UNL A   1      45.002  33.126  28.591  1.00  0.00     0.031 C 
ATOM     58  C   UNL A   1      42.780  34.085  29.519  1.00  0.00     0.037 A 
BRANCH  45  59
ATOM     59  C   UNL A   1      36.966  33.187  31.382  1.00  0.00     0.064 A 
ATOM     60  C   UNL A   1      35.923  33.852  30.693  1.00  0.00     0.173 A 
ATOM     61  C   UNL A   1      36.780  33.128  32.775  1.00  0.00     0.173 A 
ATOM     62  F   UNL A   1      35.868  33.874  29.355  1.00  0.00    -0.203 F 
ATOM     63  C   UNL A   1      34.884  34.519  31.350  1.00  0.00     0.198 A 
ATOM     64  C   UNL A   1      35.768  33.832  33.439  1.00  0.00     0.198 A 
ATOM     65  F   UNL A   1      37.520  32.330  33.550  1.00  0.00    -0.203 F 
ATOM     66  F   UNL A   1      33.942  35.151  30.636  1.00  0.00    -0.200 F 
ATOM     67  C   UNL A   1      34.830  34.545  32.727  1.00  0.00     0.200 A 
ATOM     68  F   UNL A   1      35.711  33.805  34.779  1.00  0.00    -0.200 F 
ATOM     69  F   UNL A   1      33.862  35.220  33.361  1.00  0.00    -0.200 F 
ENDBRANCH  45  59
BRANCH  46  70
ATOM     70  C   UNL A   1      44.782  28.689  27.923  1.00  0.00     0.064 A 
ATOM     71  C   UNL A   1      45.603  27.566  28.133  1.00  0.00     0.173 A 
ATOM     72  C   UNL A   1      44.019  28.726  26.750  1.00  0.00     0.173 A 
ATOM     73  F   UNL A   1      46.349  27.481  29.247  1.00  0.00    -0.203 F 
ATOM     74  C   UNL A   1      45.581  26.479  27.262  1.00  0.00     0.198 A 
ATOM     75  C   UNL A   1      44.007  27.637  25.875  1.00  0.00     0.198 A 
ATOM     76  F   UNL A   1      43.199  29.757  26.506  1.00  0.00    -0.203 F 
ATOM     77  F   UNL A   1      46.297  25.381  27.545  1.00  0.00    -0.200 F 
ATOM     78  C   UNL A   1      44.761  26.505  26.147  1.00  0.00     0.200 A 
ATOM     79  F   UNL A   1      43.188  27.647  24.813  1.00  0.00    -0.200 F 
ATOM     80  F   UNL A   1      44.668  25.427  25.357  1.00  0.00    -0.200 F 
ENDBRANCH  46  70
BRANCH  58  81
ATOM     81  C   UNL A   1      42.850  35.529  29.089  1.00  0.00     0.064 A 
ATOM     82  C   UNL A   1      42.080  36.073  28.049  1.00  0.00     0.173 A 
ATOM     83  C   UNL A   1      43.610  36.458  29.839  1.00  0.00     0.173 A 
ATOM     84  F   UNL A   1      41.237  35.313  27.337  1.00  0.00    -0.203 F 
ATOM     85  C   UNL A   1      42.109  37.437  27.745  1.00  0.00     0.198 A 
ATOM     86  C   UNL A   1      43.594  37.825  29.569  1.00  0.00     0.198 A 
ATOM     87  F   UNL A   1      44.371  36.067  30.872  1.00  0.00    -0.203 F 
ATOM     88  F   UNL A   1      41.383  37.904  26.719  1.00  0.00    -0.200 F 
ATOM     89  C   UNL A   1      42.854  38.314  28.513  1.00  0.00     0.200 A 
ATOM     90  F   UNL A   1      44.282  38.669  30.352  1.00  0.00    -0.200 F 
ATOM     91  F   UNL A   1      42.841  39.628  28.247  1.00  0.00    -0.200 F 
ENDBRANCH  58  81
ENDBRANCH  32  33
ENDBRANCH  24  27
ENDBRANCH  22  23
ENDBRANCH  21  22
ENDBRANCH  20  21
ENDBRANCH   1  20
TORSDOF 15
ENDMDL
MODEL 3
REMARK VINA RESULT:     -12.1      1.449      2.072
REMARK SMILES Cc1ccc(S(=O)(=O)/C=C/C(=O)NCCCCCCNC(=O)c2ccc(-c3c4nc(c(-c5c(F)c(F)c(F)c(F)c5F)c5ccc([nH]5)c(-c5c(F)c(F)c(F)c(F)c5F)c5nc(c(-c6c(F)c(F)c(F)c(F)c6F)c6ccc3[nH]6)C=C5)C=C4)cc2)cc1
REMARK SMILES IDX 16 1 15 2 14 3 13 4 11 5 12 6 10 8 9 9 6 10 7 11 8 12 5 13
REMARK SMILES IDX 1 14 2 15 3 16 87 17 4 18 86 19 17 20 18 21 19 22 20 23
REMARK SMILES IDX 21 24 22 26 23 27 24 28 85 29 25 30 84 31 26 32 27 33 28 34
REMARK SMILES IDX 78 35 29 36 83 37 77 38 79 39 30 40 82 41 76 42 75 43 31 45
REMARK SMILES IDX 63 46 43 47 62 48 44 49 47 50 61 51 80 52 45 53 46 54 60 56
REMARK SMILES IDX 81 57 48 58 32 59 33 60 41 61 34 62 35 63 39 64 42 65 36 66
REMARK SMILES IDX 37 67 40 68 38 69 64 70 65 71 73 72 66 73 67 74 71 75 74 76
REMARK SMILES IDX 68 77 69 78 72 79 70 80 49 81 50 82 58 83 51 84 52 85 56 86
REMARK SMILES IDX 59 87 53 88 54 89 57 90 55 91
REMARK H PARENT 13 7 20 25 79 44 47 55
REMARK Flexibility Score: inf
ROOT
ATOM      1  C   UNL A   1      32.153  28.525  26.683  1.00  0.00     0.002 C 
ENDROOT
BRANCH   1   2
ATOM      2  C   UNL A   1      31.374  27.552  25.789  1.00  0.00     0.021 C 
BRANCH   2   3
ATOM      3  C   UNL A   1      31.800  26.087  25.888  1.00  0.00     0.116 C 
BRANCH   3   4
ATOM      4  N   UNL A   1      30.777  25.259  26.497  1.00  0.00    -0.353 N 
ATOM      5  C   UNL A   1      30.722  23.902  26.569  1.00  0.00     0.244 C 
ATOM      6  O   UNL A   1      29.885  23.326  27.255  1.00  0.00    -0.270 OA
ATOM      7  H   UNL A   1      30.024  25.741  26.910  1.00  0.00     0.163 HD
BRANCH   5   8
ATOM      8  C   UNL A   1      31.710  23.119  25.816  1.00  0.00     0.083 C 
ATOM      9  C   UNL A   1      31.428  22.778  24.551  1.00  0.00     0.117 C 
BRANCH   9  10
ATOM     10  S   UNL A   1      32.538  21.785  23.680  1.00  0.00     0.200 S 
ATOM     11  O   UNL A   1      32.533  22.193  22.287  1.00  0.00    -0.219 OA
ATOM     12  O   UNL A   1      32.277  20.406  24.047  1.00  0.00    -0.219 OA
BRANCH  10  13
ATOM     13  C   UNL A   1      34.157  22.171  24.313  1.00  0.00     0.071 A 
ATOM     14  C   UNL A   1      38.145  22.855  25.762  1.00  0.00     0.044 C 
ATOM     15  C   UNL A   1      36.752  22.619  25.257  1.00  0.00    -0.051 A 
ATOM     16  C   UNL A   1      36.118  21.394  25.492  1.00  0.00     0.005 A 
ATOM     17  C   UNL A   1      36.064  23.629  24.575  1.00  0.00     0.005 A 
ATOM     18  C   UNL A   1      34.826  21.164  25.015  1.00  0.00     0.021 A 
ATOM     19  C   UNL A   1      34.767  23.411  24.105  1.00  0.00     0.021 A 
ENDBRANCH  10  13
ENDBRANCH   9  10
ENDBRANCH   5   8
ENDBRANCH   3   4
ENDBRANCH   2   3
ENDBRANCH   1   2
BRANCH   1  20
ATOM     20  C   UNL A   1      32.009  30.022  26.361  1.00  0.00     0.002 C 
BRANCH  20  21
ATOM     21  C   UNL A   1      32.805  30.989  27.242  1.00  0.00     0.021 C 
BRANCH  21  22
ATOM     22  C   UNL A   1      34.189  30.492  27.636  1.00  0.00     0.116 C 
BRANCH  22  23
ATOM     23  N   UNL A   1      34.888  31.375  28.564  1.00  0.00    -0.352 N 
ATOM     24  C   UNL A   1      36.058  31.160  29.271  1.00  0.00     0.251 C 
ATOM     25  H   UNL A   1      34.465  32.253  28.708  1.00  0.00     0.163 HD
ATOM     26  O   UNL A   1      36.481  32.008  30.042  1.00  0.00    -0.269 OA
BRANCH  24  27
ATOM     27  C   UNL A   1      36.872  29.959  28.969  1.00  0.00     0.039 A 
ATOM     28  C   UNL A   1      37.036  29.019  29.994  1.00  0.00     0.014 A 
ATOM     29  C   UNL A   1      37.646  29.888  27.815  1.00  0.00     0.014 A 
ATOM     30  C   UNL A   1      38.155  28.193  29.983  1.00  0.00     0.010 A 
ATOM     31  C   UNL A   1      38.807  29.141  27.847  1.00  0.00     0.010 A 
ATOM     32  C   UNL A   1      39.100  28.363  28.973  1.00  0.00    -0.014 A 
BRANCH  32  33
ATOM     33  C   UNL A   1      40.483  27.918  29.108  1.00  0.00     0.031 A 
ATOM     34  C   UNL A   1      40.915  26.601  28.604  1.00  0.00     0.074 A 
ATOM     35  C   UNL A   1      41.393  28.789  29.600  1.00  0.00     0.049 A 
ATOM     36  N   UNL A   1      41.985  25.988  28.987  1.00  0.00    -0.248 NA
ATOM     37  C   UNL A   1      40.126  25.833  27.652  1.00  0.00     0.031 C 
ATOM     38  C   UNL A   1      42.847  28.686  29.526  1.00  0.00     0.029 A 
ATOM     39  N   UNL A   1      41.162  29.880  30.457  1.00  0.00    -0.354 N 
ATOM     40  C   UNL A   1      42.184  24.917  28.143  1.00  0.00     0.074 A 
ATOM     41  C   UNL A   1      40.950  24.813  27.399  1.00  0.00     0.031 C 
ATOM     42  C   UNL A   1      43.383  29.448  30.493  1.00  0.00     0.029 A 
ATOM     43  C   UNL A   1      42.287  29.935  31.310  1.00  0.00     0.049 A 
ATOM     44  H   UNL A   1      40.381  30.479  30.461  1.00  0.00     0.167 HD
ATOM     45  C   UNL A   1      43.427  24.351  28.079  1.00  0.00     0.037 A 
ATOM     46  C   UNL A   1      42.172  29.736  32.656  1.00  0.00     0.037 A 
ATOM     47  C   UNL A   1      44.310  24.911  29.105  1.00  0.00     0.049 A 
ATOM     48  C   UNL A   1      42.992  28.582  33.183  1.00  0.00     0.074 A 
ATOM     49  C   UNL A   1      45.317  25.864  29.064  1.00  0.00     0.029 A 
ATOM     50  N   UNL A   1      44.020  24.709  30.452  1.00  0.00    -0.354 N 
ATOM     51  N   UNL A   1      43.469  27.630  32.432  1.00  0.00    -0.248 NA
ATOM     52  C   UNL A   1      43.294  28.383  34.598  1.00  0.00     0.031 C 
ATOM     53  C   UNL A   1      45.594  26.272  30.391  1.00  0.00     0.029 A 
ATOM     54  C   UNL A   1      44.770  25.557  31.243  1.00  0.00     0.049 A 
ATOM     55  H   UNL A   1      43.371  24.051  30.793  1.00  0.00     0.167 HD
ATOM     56  C   UNL A   1      44.090  26.696  33.219  1.00  0.00     0.074 A 
ATOM     57  C   UNL A   1      43.975  27.225  34.566  1.00  0.00     0.031 C 
ATOM     58  C   UNL A   1      44.626  25.558  32.691  1.00  0.00     0.037 A 
BRANCH  45  59
ATOM     59  C   UNL A   1      43.945  23.535  26.900  1.00  0.00     0.064 A 
ATOM     60  C   UNL A   1      43.492  22.211  26.685  1.00  0.00     0.173 A 
ATOM     61  C   UNL A   1      44.947  23.947  26.002  1.00  0.00     0.173 A 
ATOM     62  F   UNL A   1      42.447  21.709  27.354  1.00  0.00    -0.203 F 
ATOM     63  C   UNL A   1      44.092  21.344  25.766  1.00  0.00     0.198 A 
ATOM     64  C   UNL A   1      45.580  23.070  25.113  1.00  0.00     0.198 A 
ATOM     65  F   UNL A   1      45.307  25.228  25.891  1.00  0.00    -0.203 F 
ATOM     66  F   UNL A   1      43.629  20.093  25.631  1.00  0.00    -0.200 F 
ATOM     67  C   UNL A   1      45.165  21.761  25.008  1.00  0.00     0.200 A 
ATOM     68  F   UNL A   1      46.593  23.512  24.354  1.00  0.00    -0.200 F 
ATOM     69  F   UNL A   1      45.771  20.920  24.158  1.00  0.00    -0.200 F 
ENDBRANCH  45  59
BRANCH  46  70
ATOM     70  C   UNL A   1      40.863  30.166  33.210  1.00  0.00     0.064 A 
ATOM     71  C   UNL A   1      40.622  31.544  33.368  1.00  0.00     0.173 A 
ATOM     72  C   UNL A   1      39.758  29.307  33.233  1.00  0.00     0.173 A 
ATOM     73  F   UNL A   1      41.648  32.410  33.347  1.00  0.00    -0.203 F 
ATOM     74  C   UNL A   1      39.326  32.049  33.440  1.00  0.00     0.198 A 
ATOM     75  C   UNL A   1      38.461  29.818  33.314  1.00  0.00     0.198 A 
ATOM     76  F   UNL A   1      39.922  27.988  33.062  1.00  0.00    -0.203 F 
ATOM     77  F   UNL A   1      39.127  33.374  33.486  1.00  0.00    -0.200 F 
ATOM     78  C   UNL A   1      38.245  31.186  33.385  1.00  0.00     0.200 A 
ATOM     79  F   UNL A   1      37.413  28.986  33.227  1.00  0.00    -0.200 F 
ATOM     80  F   UNL A   1      36.997  31.674  33.361  1.00  0.00    -0.200 F 
ENDBRANCH  46  70
BRANCH  58  81
ATOM     81  C   UNL A   1      45.138  24.377  33.475  1.00  0.00     0.064 A 
ATOM     82  C   UNL A   1      44.385  23.219  33.728  1.00  0.00     0.173 A 
ATOM     83  C   UNL A   1      46.495  24.322  33.874  1.00  0.00     0.173 A 
ATOM     84  F   UNL A   1      43.120  23.107  33.301  1.00  0.00    -0.203 F 
ATOM     85  C   UNL A   1      44.930  22.111  34.380  1.00  0.00     0.198 A 
ATOM     86  C   UNL A   1      47.052  23.195  34.475  1.00  0.00     0.198 A 
ATOM     87  F   UNL A   1      47.326  25.356  33.670  1.00  0.00    -0.203 F 
ATOM     88  F   UNL A   1      44.160  21.042  34.631  1.00  0.00    -0.200 F 
ATOM     89  C   UNL A   1      46.266  22.093  34.741  1.00  0.00     0.200 A 
ATOM     90  F   UNL A   1      48.359  23.174  34.774  1.00  0.00    -0.200 F 
ATOM     91  F   UNL A   1      46.797  21.009  35.323  1.00  0.00    -0.200 F 
ENDBRANCH  58  81
ENDBRANCH  32  33
ENDBRANCH  24  27
ENDBRANCH  22  23
ENDBRANCH  21  22
ENDBRANCH  20  21
ENDBRANCH   1  20
TORSDOF 15
ENDMDL
