MODEL 1
REMARK VINA RESULT:     -14.6      0.000      0.000
REMARK SMILES O=C(NCCCCCCNC(=O)c1nccnc1C(=O)Nc1n[nH]c2ncccc12)c1ccc(-c2c3nc(c(-c4c(F)c(F)c(F)c(F)c4F)c4ccc([nH]4)c(-c4c(F)c(F)c(F)c(F)c4F)c4nc(c(-c5c(F)c(F)c(F)c(F)c5F)c5ccc2[nH]5)C=C4)C=C3)cc1
REMARK SMILES IDX 6 1 5 2 4 3 3 4 1 5 2 6 31 8 32 9 93 10 33 11 92 12 34 13
REMARK SMILES IDX 35 14 36 15 86 16 37 17 91 18 85 19 87 20 38 21 90 22 84 23
REMARK SMILES IDX 83 24 39 26 71 27 51 28 70 29 52 30 55 31 69 32 88 33 53 34
REMARK SMILES IDX 54 35 68 37 89 38 56 39 40 40 41 41 49 42 42 43 43 44 47 45
REMARK SMILES IDX 50 46 44 47 45 48 48 49 46 50 72 51 73 52 81 53 74 54 75 55
REMARK SMILES IDX 79 56 82 57 76 58 77 59 80 60 78 61 57 62 58 63 66 64 59 65
REMARK SMILES IDX 60 66 64 67 67 68 61 69 62 70 65 71 63 72 7 73 8 74 9 75
REMARK SMILES IDX 10 76 11 77 12 79 13 80 14 81 18 82 15 83 17 84 16 85 19 86
REMARK SMILES IDX 20 87 21 88 22 90 23 91 30 92 24 93 25 94 29 95 26 97 28 98
REMARK SMILES IDX 27 99
REMARK H PARENT 3 7 87 25 55 36 10 78 21 89 24 96
REMARK Flexibility Score: inf
ROOT
ATOM      1  C   UNL A   1      31.589  30.782  26.150  1.00  0.00     0.002 C 
ENDROOT
BRANCH   1   2
ATOM      2  C   UNL A   1      31.446  32.238  26.591  1.00  0.00     0.021 C 
BRANCH   2   3
ATOM      3  C   UNL A   1      32.635  32.765  27.368  1.00  0.00     0.116 C 
BRANCH   3   4
ATOM      4  N   UNL A   1      32.489  34.186  27.626  1.00  0.00    -0.352 N 
ATOM      5  O   UNL A   1      32.528  36.004  28.960  1.00  0.00    -0.269 OA
ATOM      6  C   UNL A   1      33.025  34.927  28.649  1.00  0.00     0.251 C 
ATOM      7  H   UNL A   1      31.933  34.682  26.983  1.00  0.00     0.163 HD
BRANCH   6   8
ATOM      8  C   UNL A   1      34.210  34.422  29.375  1.00  0.00     0.039 A 
ATOM      9  C   UNL A   1      34.058  33.684  30.552  1.00  0.00     0.014 A 
ATOM     10  C   UNL A   1      35.484  34.630  28.839  1.00  0.00     0.014 A 
ATOM     11  C   UNL A   1      35.173  33.259  31.258  1.00  0.00     0.010 A 
ATOM     12  C   UNL A   1      36.600  34.103  29.491  1.00  0.00     0.010 A 
ATOM     13  C   UNL A   1      36.451  33.418  30.710  1.00  0.00    -0.014 A 
BRANCH  13  14
ATOM     14  C   UNL A   1      37.615  32.765  31.355  1.00  0.00     0.031 A 
ATOM     15  C   UNL A   1      38.299  31.600  30.711  1.00  0.00     0.074 A 
ATOM     16  C   UNL A   1      38.015  33.211  32.561  1.00  0.00     0.049 A 
ATOM     17  N   UNL A   1      39.253  30.840  31.181  1.00  0.00    -0.248 NA
ATOM     18  C   UNL A   1      37.839  31.231  29.364  1.00  0.00     0.031 C 
ATOM     19  C   UNL A   1      37.416  34.337  33.282  1.00  0.00     0.029 A 
ATOM     20  N   UNL A   1      39.002  32.766  33.402  1.00  0.00    -0.354 N 
ATOM     21  C   UNL A   1      39.490  29.884  30.204  1.00  0.00     0.074 A 
ATOM     22  C   UNL A   1      38.560  30.145  29.125  1.00  0.00     0.031 C 
ATOM     23  C   UNL A   1      38.049  34.499  34.451  1.00  0.00     0.029 A 
ATOM     24  C   UNL A   1      39.040  33.441  34.598  1.00  0.00     0.049 A 
ATOM     25  H   UNL A   1      39.620  32.036  33.173  1.00  0.00     0.167 HD
ATOM     26  C   UNL A   1      40.404  28.882  30.214  1.00  0.00     0.037 A 
ATOM     27  C   UNL A   1      39.753  33.204  35.713  1.00  0.00     0.037 A 
ATOM     28  C   UNL A   1      41.311  28.635  31.307  1.00  0.00     0.049 A 
ATOM     29  C   UNL A   1      40.718  32.055  35.727  1.00  0.00     0.074 A 
ATOM     30  C   UNL A   1      42.303  27.675  31.404  1.00  0.00     0.029 A 
ATOM     31  N   UNL A   1      41.317  29.338  32.505  1.00  0.00    -0.354 N 
ATOM     32  N   UNL A   1      40.970  31.182  34.782  1.00  0.00    -0.248 NA
ATOM     33  C   UNL A   1      41.497  31.856  36.955  1.00  0.00     0.031 C 
ATOM     34  C   UNL A   1      42.852  27.745  32.688  1.00  0.00     0.029 A 
ATOM     35  C   UNL A   1      42.268  28.806  33.362  1.00  0.00     0.049 A 
ATOM     36  H   UNL A   1      40.732  30.102  32.716  1.00  0.00     0.167 HD
ATOM     37  C   UNL A   1      41.955  30.347  35.287  1.00  0.00     0.074 A 
ATOM     38  C   UNL A   1      42.256  30.820  36.624  1.00  0.00     0.031 C 
ATOM     39  C   UNL A   1      42.562  29.292  34.690  1.00  0.00     0.037 A 
BRANCH  26  40
ATOM     40  C   UNL A   1      40.423  27.950  29.034  1.00  0.00     0.064 A 
ATOM     41  C   UNL A   1      41.191  28.211  27.888  1.00  0.00     0.173 A 
ATOM     42  C   UNL A   1      39.653  26.775  29.047  1.00  0.00     0.173 A 
ATOM     43  F   UNL A   1      41.943  29.319  27.815  1.00  0.00    -0.203 F 
ATOM     44  C   UNL A   1      41.141  27.365  26.781  1.00  0.00     0.198 A 
ATOM     45  C   UNL A   1      39.639  25.910  27.957  1.00  0.00     0.198 A 
ATOM     46  F   UNL A   1      38.908  26.466  30.120  1.00  0.00    -0.203 F 
ATOM     47  F   UNL A   1      41.820  27.679  25.669  1.00  0.00    -0.200 F 
ATOM     48  C   UNL A   1      40.368  26.214  26.818  1.00  0.00     0.200 A 
ATOM     49  F   UNL A   1      38.907  24.788  28.003  1.00  0.00    -0.200 F 
ATOM     50  F   UNL A   1      40.317  25.405  25.751  1.00  0.00    -0.200 F 
ENDBRANCH  26  40
BRANCH  27  51
ATOM     51  C   UNL A   1      39.545  34.071  36.900  1.00  0.00     0.064 A 
ATOM     52  C   UNL A   1      38.729  33.663  37.962  1.00  0.00     0.173 A 
ATOM     53  C   UNL A   1      40.215  35.299  37.026  1.00  0.00     0.173 A 
ATOM     54  F   UNL A   1      38.059  32.503  37.884  1.00  0.00    -0.203 F 
ATOM     55  C   UNL A   1      38.585  34.452  39.102  1.00  0.00     0.198 A 
ATOM     56  C   UNL A   1      40.098  36.071  38.178  1.00  0.00     0.198 A 
ATOM     57  F   UNL A   1      41.021  35.727  36.042  1.00  0.00    -0.203 F 
ATOM     58  F   UNL A   1      37.777  34.051  40.093  1.00  0.00    -0.200 F 
ATOM     59  C   UNL A   1      39.278  35.649  39.214  1.00  0.00     0.200 A 
ATOM     60  F   UNL A   1      40.789  37.212  38.292  1.00  0.00    -0.200 F 
ATOM     61  F   UNL A   1      39.157  36.394  40.321  1.00  0.00    -0.200 F 
ENDBRANCH  27  51
BRANCH  39  62
ATOM     62  C   UNL A   1      43.657  28.597  35.447  1.00  0.00     0.064 A 
ATOM     63  C   UNL A   1      43.398  27.539  36.328  1.00  0.00     0.173 A 
ATOM     64  C   UNL A   1      44.997  28.944  35.213  1.00  0.00     0.173 A 
ATOM     65  F   UNL A   1      42.134  27.180  36.601  1.00  0.00    -0.203 F 
ATOM     66  C   UNL A   1      44.440  26.856  36.951  1.00  0.00     0.198 A 
ATOM     67  C   UNL A   1      46.036  28.238  35.809  1.00  0.00     0.198 A 
ATOM     68  F   UNL A   1      45.299  29.950  34.377  1.00  0.00    -0.203 F 
ATOM     69  F   UNL A   1      44.169  25.866  37.813  1.00  0.00    -0.200 F 
ATOM     70  C   UNL A   1      45.757  27.196  36.679  1.00  0.00     0.200 A 
ATOM     71  F   UNL A   1      47.308  28.557  35.530  1.00  0.00    -0.200 F 
ATOM     72  F   UNL A   1      46.759  26.518  37.257  1.00  0.00    -0.200 F 
ENDBRANCH  39  62
ENDBRANCH  13  14
ENDBRANCH   6   8
ENDBRANCH   3   4
ENDBRANCH   2   3
ENDBRANCH   1   2
BRANCH   1  73
ATOM     73  C   UNL A   1      32.277  29.808  27.133  1.00  0.00     0.002 C 
BRANCH  73  74
ATOM     74  C   UNL A   1      31.620  28.220  27.509  1.00  0.00     0.021 C 
BRANCH  74  75
ATOM     75  C   UNL A   1      31.778  26.272  26.500  1.00  0.00     0.116 C 
BRANCH  75  76
ATOM     76  N   UNL A   1      31.083  24.855  26.783  1.00  0.00    -0.351 N 
ATOM     77  C   UNL A   1      31.449  23.603  26.334  1.00  0.00     0.272 C 
ATOM     78  H   UNL A   1      30.285  24.882  27.358  1.00  0.00     0.163 HD
ATOM     79  O   UNL A   1      30.742  22.618  26.498  1.00  0.00    -0.267 OA
BRANCH  77  80
ATOM     80  C   UNL A   1      32.765  23.505  25.682  1.00  0.00     0.159 A 
ATOM     81  N   UNL A   1      33.807  23.607  26.577  1.00  0.00    -0.247 NA
ATOM     82  C   UNL A   1      32.945  23.506  24.307  1.00  0.00     0.159 A 
ATOM     83  C   UNL A   1      35.038  23.672  26.044  1.00  0.00     0.132 A 
ATOM     84  N   UNL A   1      34.214  23.590  23.789  1.00  0.00    -0.247 NA
ATOM     85  C   UNL A   1      35.237  23.662  24.678  1.00  0.00     0.132 A 
BRANCH  82  86
ATOM     86  C   UNL A   1      31.876  23.311  23.279  1.00  0.00     0.277 C 
ATOM     87  O   UNL A   1      31.657  22.153  22.909  1.00  0.00    -0.267 OA
ATOM     88  N   UNL A   1      31.089  24.311  22.751  1.00  0.00    -0.303 N 
ATOM     89  H   UNL A   1      30.336  23.993  22.203  1.00  0.00     0.172 HD
BRANCH  88  90
ATOM     90  C   UNL A   1      31.179  25.674  22.861  1.00  0.00     0.164 A 
ATOM     91  N   UNL A   1      32.341  26.257  22.516  1.00  0.00    -0.155 NA
ATOM     92  C   UNL A   1      30.161  26.598  23.171  1.00  0.00     0.063 A 
ATOM     93  N   UNL A   1      32.096  27.544  22.129  1.00  0.00    -0.259 N 
ATOM     94  C   UNL A   1      30.827  27.984  22.376  1.00  0.00     0.157 A 
ATOM     95  C   UNL A   1      28.498  26.703  23.806  1.00  0.00     0.017 A 
ATOM     96  H   UNL A   1      32.782  28.111  21.707  1.00  0.00     0.192 HD
ATOM     97  N   UNL A   1      29.903  29.408  21.980  1.00  0.00    -0.237 NA
ATOM     98  C   UNL A   1      27.493  28.138  23.501  1.00  0.00     0.021 A 
ATOM     99  C   UNL A   1      28.232  29.470  22.629  1.00  0.00     0.113 A 
ENDBRANCH  88  90
ENDBRANCH  82  86
ENDBRANCH  77  80
ENDBRANCH  75  76
ENDBRANCH  74  75
ENDBRANCH  73  74
ENDBRANCH   1  73
TORSDOF 15
ENDMDL
MODEL 2
REMARK VINA RESULT:     -14.6      0.256      1.578
REMARK SMILES O=C(NCCCCCCNC(=O)c1nccnc1C(=O)Nc1n[nH]c2ncccc12)c1ccc(-c2c3nc(c(-c4c(F)c(F)c(F)c(F)c4F)c4ccc([nH]4)c(-c4c(F)c(F)c(F)c(F)c4F)c4nc(c(-c5c(F)c(F)c(F)c(F)c5F)c5ccc2[nH]5)C=C4)C=C3)cc1
REMARK SMILES IDX 6 1 5 2 4 3 3 4 1 5 2 6 31 8 32 9 93 10 33 11 92 12 34 13
REMARK SMILES IDX 35 14 36 15 86 16 37 17 91 18 85 19 87 20 38 21 90 22 84 23
REMARK SMILES IDX 83 24 39 26 71 27 51 28 70 29 52 30 55 31 69 32 88 33 53 34
REMARK SMILES IDX 54 35 68 37 89 38 56 39 40 40 41 41 49 42 42 43 43 44 47 45
REMARK SMILES IDX 50 46 44 47 45 48 48 49 46 50 72 51 73 52 81 53 74 54 75 55
REMARK SMILES IDX 79 56 82 57 76 58 77 59 80 60 78 61 57 62 58 63 66 64 59 65
REMARK SMILES IDX 60 66 64 67 67 68 61 69 62 70 65 71 63 72 7 73 8 74 9 75
REMARK SMILES IDX 10 76 11 77 12 79 13 80 14 81 18 82 15 83 17 84 16 85 19 86
REMARK SMILES IDX 20 87 21 88 22 90 23 91 30 92 24 93 25 94 29 95 26 97 28 98
REMARK SMILES IDX 27 99
REMARK H PARENT 3 7 87 25 55 36 10 78 21 89 24 96
REMARK Flexibility Score: inf
ROOT
ATOM      1  C   UNL A   1      31.499  30.702  26.123  1.00  0.00     0.002 C 
ENDROOT
BRANCH   1   2
ATOM      2  C   UNL A   1      31.374  32.174  26.515  1.00  0.00     0.021 C 
BRANCH   2   3
ATOM      3  C   UNL A   1      32.536  32.692  27.340  1.00  0.00     0.116 C 
BRANCH   3   4
ATOM      4  N   UNL A   1      32.410  34.121  27.561  1.00  0.00    -0.352 N 
ATOM      5  O   UNL A   1      32.502  35.975  28.841  1.00  0.00    -0.269 OA
ATOM      6  C   UNL A   1      32.980  34.885  28.547  1.00  0.00     0.251 C 
ATOM      7  H   UNL A   1      31.842  34.604  26.919  1.00  0.00     0.163 HD
BRANCH   6   8
ATOM      8  C   UNL A   1      34.180  34.388  29.256  1.00  0.00     0.039 A 
ATOM      9  C   UNL A   1      34.050  33.633  30.425  1.00  0.00     0.014 A 
ATOM     10  C   UNL A   1      35.445  34.622  28.712  1.00  0.00     0.014 A 
ATOM     11  C   UNL A   1      35.177  33.215  31.115  1.00  0.00     0.010 A 
ATOM     12  C   UNL A   1      36.575  34.104  29.346  1.00  0.00     0.010 A 
ATOM     13  C   UNL A   1      36.448  33.402  30.557  1.00  0.00    -0.014 A 
BRANCH  13  14
ATOM     14  C   UNL A   1      37.627  32.758  31.183  1.00  0.00     0.031 A 
ATOM     15  C   UNL A   1      38.324  31.613  30.516  1.00  0.00     0.074 A 
ATOM     16  C   UNL A   1      38.031  33.193  32.392  1.00  0.00     0.049 A 
ATOM     17  N   UNL A   1      39.294  30.861  30.968  1.00  0.00    -0.248 NA
ATOM     18  C   UNL A   1      37.858  31.255  29.169  1.00  0.00     0.031 C 
ATOM     19  C   UNL A   1      37.420  34.299  33.134  1.00  0.00     0.029 A 
ATOM     20  N   UNL A   1      39.032  32.752  33.218  1.00  0.00    -0.354 N 
ATOM     21  C   UNL A   1      39.537  29.923  29.975  1.00  0.00     0.074 A 
ATOM     22  C   UNL A   1      38.594  30.185  28.908  1.00  0.00     0.031 C 
ATOM     23  C   UNL A   1      38.062  34.455  34.300  1.00  0.00     0.029 A 
ATOM     24  C   UNL A   1      39.070  33.410  34.423  1.00  0.00     0.049 A 
ATOM     25  H   UNL A   1      39.659  32.034  32.973  1.00  0.00     0.167 HD
ATOM     26  C   UNL A   1      40.467  28.935  29.964  1.00  0.00     0.037 A 
ATOM     27  C   UNL A   1      39.797  33.169  35.528  1.00  0.00     0.037 A 
ATOM     28  C   UNL A   1      41.386  28.687  31.045  1.00  0.00     0.049 A 
ATOM     29  C   UNL A   1      40.779  32.035  35.518  1.00  0.00     0.074 A 
ATOM     30  C   UNL A   1      42.394  27.742  31.119  1.00  0.00     0.029 A 
ATOM     31  N   UNL A   1      41.393  29.373  32.253  1.00  0.00    -0.354 N 
ATOM     32  N   UNL A   1      41.037  31.180  34.559  1.00  0.00    -0.248 NA
ATOM     33  C   UNL A   1      41.572  31.831  36.737  1.00  0.00     0.031 C 
ATOM     34  C   UNL A   1      42.953  27.802  32.400  1.00  0.00     0.029 A 
ATOM     35  C   UNL A   1      42.359  28.844  33.094  1.00  0.00     0.049 A 
ATOM     36  H   UNL A   1      40.798  30.125  32.479  1.00  0.00     0.167 HD
ATOM     37  C   UNL A   1      42.039  30.353  35.043  1.00  0.00     0.074 A 
ATOM     38  C   UNL A   1      42.344  30.811  36.384  1.00  0.00     0.031 C 
ATOM     39  C   UNL A   1      42.657  29.316  34.426  1.00  0.00     0.037 A 
BRANCH  26  40
ATOM     40  C   UNL A   1      40.490  28.020  28.770  1.00  0.00     0.064 A 
ATOM     41  C   UNL A   1      39.785  26.806  28.744  1.00  0.00     0.173 A 
ATOM     42  C   UNL A   1      41.235  28.364  27.630  1.00  0.00     0.173 A 
ATOM     43  F   UNL A   1      39.059  26.423  29.805  1.00  0.00    -0.203 F 
ATOM     44  C   UNL A   1      39.874  25.946  27.652  1.00  0.00     0.198 A 
ATOM     45  C   UNL A   1      41.287  27.522  26.523  1.00  0.00     0.198 A 
ATOM     46  F   UNL A   1      41.919  29.518  27.590  1.00  0.00    -0.203 F 
ATOM     47  F   UNL A   1      39.258  24.756  27.686  1.00  0.00    -0.200 F 
ATOM     48  C   UNL A   1      40.622  26.306  26.541  1.00  0.00     0.200 A 
ATOM     49  F   UNL A   1      41.994  27.882  25.442  1.00  0.00    -0.200 F 
ATOM     50  F   UNL A   1      40.711  25.475  25.493  1.00  0.00    -0.200 F 
ENDBRANCH  26  40
BRANCH  27  51
ATOM     51  C   UNL A   1      39.585  34.015  36.730  1.00  0.00     0.064 A 
ATOM     52  C   UNL A   1      38.762  33.592  37.780  1.00  0.00     0.173 A 
ATOM     53  C   UNL A   1      40.259  35.239  36.880  1.00  0.00     0.173 A 
ATOM     54  F   UNL A   1      38.089  32.436  37.678  1.00  0.00    -0.203 F 
ATOM     55  C   UNL A   1      38.616  34.361  38.933  1.00  0.00     0.198 A 
ATOM     56  C   UNL A   1      40.138  35.991  38.045  1.00  0.00     0.198 A 
ATOM     57  F   UNL A   1      41.072  35.681  35.908  1.00  0.00    -0.203 F 
ATOM     58  F   UNL A   1      37.801  33.946  39.912  1.00  0.00    -0.200 F 
ATOM     59  C   UNL A   1      39.312  35.554  39.069  1.00  0.00     0.200 A 
ATOM     60  F   UNL A   1      40.833  37.128  38.183  1.00  0.00    -0.200 F 
ATOM     61  F   UNL A   1      39.188  36.280  40.188  1.00  0.00    -0.200 F 
ENDBRANCH  27  51
BRANCH  39  62
ATOM     62  C   UNL A   1      43.769  28.628  35.164  1.00  0.00     0.064 A 
ATOM     63  C   UNL A   1      45.106  29.033  35.041  1.00  0.00     0.173 A 
ATOM     64  C   UNL A   1      43.474  27.604  36.076  1.00  0.00     0.173 A 
ATOM     65  F   UNL A   1      45.444  29.995  34.169  1.00  0.00    -0.203 F 
ATOM     66  C   UNL A   1      46.106  28.434  35.803  1.00  0.00     0.198 A 
ATOM     67  C   UNL A   1      44.470  27.031  36.860  1.00  0.00     0.198 A 
ATOM     68  F   UNL A   1      42.210  27.180  36.231  1.00  0.00    -0.203 F 
ATOM     69  F   UNL A   1      47.382  28.815  35.649  1.00  0.00    -0.200 F 
ATOM     70  C   UNL A   1      45.785  27.445  36.722  1.00  0.00     0.200 A 
ATOM     71  F   UNL A   1      44.154  26.089  37.760  1.00  0.00    -0.200 F 
ATOM     72  F   UNL A   1      46.746  26.890  37.474  1.00  0.00    -0.200 F 
ENDBRANCH  39  62
ENDBRANCH  13  14
ENDBRANCH   6   8
ENDBRANCH   3   4
ENDBRANCH   2   3
ENDBRANCH   1   2
BRANCH   1  73
ATOM     73  C   UNL A   1      32.280  29.777  27.083  1.00  0.00     0.002 C 
BRANCH  73  74
ATOM     74  C   UNL A   1      31.715  28.170  27.519  1.00  0.00     0.021 C 
BRANCH  74  75
ATOM     75  C   UNL A   1      31.738  26.248  26.449  1.00  0.00     0.116 C 
BRANCH  75  76
ATOM     76  N   UNL A   1      30.880  24.906  26.630  1.00  0.00    -0.351 N 
ATOM     77  C   UNL A   1      31.176  23.623  26.218  1.00  0.00     0.272 C 
ATOM     78  H   UNL A   1      30.023  25.012  27.101  1.00  0.00     0.163 HD
ATOM     79  O   UNL A   1      30.363  22.712  26.284  1.00  0.00    -0.267 OA
BRANCH  77  80
ATOM     80  C   UNL A   1      32.548  23.396  25.735  1.00  0.00     0.159 A 
ATOM     81  N   UNL A   1      33.482  23.465  26.745  1.00  0.00    -0.247 NA
ATOM     82  C   UNL A   1      32.887  23.314  24.393  1.00  0.00     0.159 A 
ATOM     83  C   UNL A   1      34.769  23.412  26.362  1.00  0.00     0.132 A 
ATOM     84  N   UNL A   1      34.211  23.279  24.029  1.00  0.00    -0.247 NA
ATOM     85  C   UNL A   1      35.125  23.320  25.032  1.00  0.00     0.132 A 
BRANCH  82  86
ATOM     86  C   UNL A   1      31.935  23.148  23.252  1.00  0.00     0.277 C 
ATOM     87  O   UNL A   1      31.737  21.996  22.849  1.00  0.00    -0.267 OA
ATOM     88  N   UNL A   1      31.229  24.167  22.650  1.00  0.00    -0.303 N 
ATOM     89  H   UNL A   1      30.536  23.867  22.020  1.00  0.00     0.172 HD
BRANCH  88  90
ATOM     90  C   UNL A   1      31.331  25.527  22.782  1.00  0.00     0.164 A 
ATOM     91  N   UNL A   1      32.495  26.105  22.437  1.00  0.00    -0.155 NA
ATOM     92  C   UNL A   1      30.324  26.454  23.116  1.00  0.00     0.063 A 
ATOM     93  N   UNL A   1      32.258  27.401  22.074  1.00  0.00    -0.259 N 
ATOM     94  C   UNL A   1      30.994  27.847  22.339  1.00  0.00     0.157 A 
ATOM     95  C   UNL A   1      28.667  26.561  23.767  1.00  0.00     0.017 A 
ATOM     96  H   UNL A   1      32.944  27.970  21.655  1.00  0.00     0.192 HD
ATOM     97  N   UNL A   1      30.079  29.285  21.975  1.00  0.00    -0.237 NA
ATOM     98  C   UNL A   1      27.672  28.009  23.495  1.00  0.00     0.021 A 
ATOM     99  C   UNL A   1      28.414  29.350  22.639  1.00  0.00     0.113 A 
ENDBRANCH  88  90
ENDBRANCH  82  86
ENDBRANCH  77  80
ENDBRANCH  75  76
ENDBRANCH  74  75
ENDBRANCH  73  74
ENDBRANCH   1  73
TORSDOF 15
ENDMDL
MODEL 3
REMARK VINA RESULT:     -14.4      1.240      2.968
REMARK SMILES O=C(NCCCCCCNC(=O)c1nccnc1C(=O)Nc1n[nH]c2ncccc12)c1ccc(-c2c3nc(c(-c4c(F)c(F)c(F)c(F)c4F)c4ccc([nH]4)c(-c4c(F)c(F)c(F)c(F)c4F)c4nc(c(-c5c(F)c(F)c(F)c(F)c5F)c5ccc2[nH]5)C=C4)C=C3)cc1
REMARK SMILES IDX 6 1 5 2 4 3 3 4 1 5 2 6 31 8 32 9 93 10 33 11 92 12 34 13
REMARK SMILES IDX 35 14 36 15 86 16 37 17 91 18 85 19 87 20 38 21 90 22 84 23
REMARK SMILES IDX 83 24 39 26 71 27 51 28 70 29 52 30 55 31 69 32 88 33 53 34
REMARK SMILES IDX 54 35 68 37 89 38 56 39 40 40 41 41 49 42 42 43 43 44 47 45
REMARK SMILES IDX 50 46 44 47 45 48 48 49 46 50 72 51 73 52 81 53 74 54 75 55
REMARK SMILES IDX 79 56 82 57 76 58 77 59 80 60 78 61 57 62 58 63 66 64 59 65
REMARK SMILES IDX 60 66 64 67 67 68 61 69 62 70 65 71 63 72 7 73 8 74 9 75
REMARK SMILES IDX 10 76 11 77 12 79 13 80 14 81 18 82 15 83 17 84 16 85 19 86
REMARK SMILES IDX 20 87 21 88 22 90 23 91 30 92 24 93 25 94 29 95 26 97 28 98
REMARK SMILES IDX 27 99
REMARK H PARENT 3 7 87 25 55 36 10 78 21 89 24 96
REMARK Flexibility Score: inf
ROOT
ATOM      1  C   UNL A   1      31.557  30.889  26.143  1.00  0.00     0.002 C 
ENDROOT
BRANCH   1   2
ATOM      2  C   UNL A   1      31.378  32.278  26.756  1.00  0.00     0.021 C 
BRANCH   2   3
ATOM      3  C   UNL A   1      32.629  32.826  27.414  1.00  0.00     0.116 C 
BRANCH   3   4
ATOM      4  N   UNL A   1      32.493  34.249  27.664  1.00  0.00    -0.352 N 
ATOM      5  O   UNL A   1      32.562  36.075  28.986  1.00  0.00    -0.269 OA
ATOM      6  C   UNL A   1      33.048  34.994  28.674  1.00  0.00     0.251 C 
ATOM      7  H   UNL A   1      31.930  34.744  27.027  1.00  0.00     0.163 HD
BRANCH   6   8
ATOM      8  C   UNL A   1      34.243  34.488  29.385  1.00  0.00     0.039 A 
ATOM      9  C   UNL A   1      34.110  33.822  30.607  1.00  0.00     0.014 A 
ATOM     10  C   UNL A   1      35.501  34.620  28.794  1.00  0.00     0.014 A 
ATOM     11  C   UNL A   1      35.235  33.397  31.296  1.00  0.00     0.010 A 
ATOM     12  C   UNL A   1      36.623  34.090  29.434  1.00  0.00     0.010 A 
ATOM     13  C   UNL A   1      36.497  33.480  30.694  1.00  0.00    -0.014 A 
BRANCH  13  14
ATOM     14  C   UNL A   1      37.661  32.823  31.334  1.00  0.00     0.031 A 
ATOM     15  C   UNL A   1      38.330  31.648  30.692  1.00  0.00     0.074 A 
ATOM     16  C   UNL A   1      38.076  33.275  32.532  1.00  0.00     0.049 A 
ATOM     17  N   UNL A   1      39.283  30.883  31.159  1.00  0.00    -0.248 NA
ATOM     18  C   UNL A   1      37.855  31.272  29.352  1.00  0.00     0.031 C 
ATOM     19  C   UNL A   1      37.492  34.410  33.251  1.00  0.00     0.029 A 
ATOM     20  N   UNL A   1      39.067  32.828  33.368  1.00  0.00    -0.354 N 
ATOM     21  C   UNL A   1      39.503  29.918  30.187  1.00  0.00     0.074 A 
ATOM     22  C   UNL A   1      38.565  30.179  29.115  1.00  0.00     0.031 C 
ATOM     23  C   UNL A   1      38.138  34.576  34.412  1.00  0.00     0.029 A 
ATOM     24  C   UNL A   1      39.122  33.511  34.558  1.00  0.00     0.049 A 
ATOM     25  H   UNL A   1      39.677  32.091  33.138  1.00  0.00     0.167 HD
ATOM     26  C   UNL A   1      40.409  28.909  30.197  1.00  0.00     0.037 A 
ATOM     27  C   UNL A   1      39.843  33.277  35.668  1.00  0.00     0.037 A 
ATOM     28  C   UNL A   1      41.323  28.663  31.283  1.00  0.00     0.049 A 
ATOM     29  C   UNL A   1      40.799  32.120  35.682  1.00  0.00     0.074 A 
ATOM     30  C   UNL A   1      42.309  27.696  31.377  1.00  0.00     0.029 A 
ATOM     31  N   UNL A   1      41.347  29.375  32.476  1.00  0.00    -0.354 N 
ATOM     32  N   UNL A   1      41.035  31.239  34.742  1.00  0.00    -0.248 NA
ATOM     33  C   UNL A   1      41.588  31.924  36.905  1.00  0.00     0.031 C 
ATOM     34  C   UNL A   1      42.870  27.771  32.656  1.00  0.00     0.029 A 
ATOM     35  C   UNL A   1      42.301  28.842  33.327  1.00  0.00     0.049 A 
ATOM     36  H   UNL A   1      40.770  30.145  32.685  1.00  0.00     0.167 HD
ATOM     37  C   UNL A   1      42.018  30.399  35.244  1.00  0.00     0.074 A 
ATOM     38  C   UNL A   1      42.335  30.879  36.574  1.00  0.00     0.031 C 
ATOM     39  C   UNL A   1      42.611  29.335  34.649  1.00  0.00     0.037 A 
BRANCH  26  40
ATOM     40  C   UNL A   1      40.409  27.968  29.023  1.00  0.00     0.064 A 
ATOM     41  C   UNL A   1      41.165  28.217  27.866  1.00  0.00     0.173 A 
ATOM     42  C   UNL A   1      39.635  26.797  29.054  1.00  0.00     0.173 A 
ATOM     43  F   UNL A   1      41.921  29.321  27.776  1.00  0.00    -0.203 F 
ATOM     44  C   UNL A   1      41.098  27.363  26.767  1.00  0.00     0.198 A 
ATOM     45  C   UNL A   1      39.603  25.924  27.971  1.00  0.00     0.198 A 
ATOM     46  F   UNL A   1      38.901  26.499  30.138  1.00  0.00    -0.203 F 
ATOM     47  F   UNL A   1      41.765  27.666  25.644  1.00  0.00    -0.200 F 
ATOM     48  C   UNL A   1      40.321  26.216  26.821  1.00  0.00     0.200 A 
ATOM     49  F   UNL A   1      38.867  24.806  28.034  1.00  0.00    -0.200 F 
ATOM     50  F   UNL A   1      40.254  25.400  25.761  1.00  0.00    -0.200 F 
ENDBRANCH  26  40
BRANCH  27  51
ATOM     51  C   UNL A   1      39.652  34.154  36.851  1.00  0.00     0.064 A 
ATOM     52  C   UNL A   1      38.840  33.762  37.921  1.00  0.00     0.173 A 
ATOM     53  C   UNL A   1      40.336  35.376  36.963  1.00  0.00     0.173 A 
ATOM     54  F   UNL A   1      38.158  32.609  37.857  1.00  0.00    -0.203 F 
ATOM     55  C   UNL A   1      38.713  34.560  39.057  1.00  0.00     0.198 A 
ATOM     56  C   UNL A   1      40.235  36.157  38.111  1.00  0.00     0.198 A 
ATOM     57  F   UNL A   1      41.139  35.789  35.970  1.00  0.00    -0.203 F 
ATOM     58  F   UNL A   1      37.908  34.175  40.057  1.00  0.00    -0.200 F 
ATOM     59  C   UNL A   1      39.419  35.751  39.155  1.00  0.00     0.200 A 
ATOM     60  F   UNL A   1      40.939  37.292  38.211  1.00  0.00    -0.200 F 
ATOM     61  F   UNL A   1      39.314  36.506  40.258  1.00  0.00    -0.200 F 
ENDBRANCH  27  51
BRANCH  39  62
ATOM     62  C   UNL A   1      43.708  28.637  35.401  1.00  0.00     0.064 A 
ATOM     63  C   UNL A   1      45.055  28.998  35.258  1.00  0.00     0.173 A 
ATOM     64  C   UNL A   1      43.388  27.651  36.347  1.00  0.00     0.173 A 
ATOM     65  F   UNL A   1      45.415  29.922  34.354  1.00  0.00    -0.203 F 
ATOM     66  C   UNL A   1      46.042  28.393  36.032  1.00  0.00     0.198 A 
ATOM     67  C   UNL A   1      44.373  27.074  37.142  1.00  0.00     0.198 A 
ATOM     68  F   UNL A   1      42.113  27.271  36.523  1.00  0.00    -0.203 F 
ATOM     69  F   UNL A   1      47.328  28.730  35.858  1.00  0.00    -0.200 F 
ATOM     70  C   UNL A   1      45.698  27.443  36.983  1.00  0.00     0.200 A 
ATOM     71  F   UNL A   1      44.034  26.170  38.073  1.00  0.00    -0.200 F 
ATOM     72  F   UNL A   1      46.647  26.883  37.746  1.00  0.00    -0.200 F 
ENDBRANCH  39  62
ENDBRANCH  13  14
ENDBRANCH   6   8
ENDBRANCH   3   4
ENDBRANCH   2   3
ENDBRANCH   1   2
BRANCH   1  73
ATOM     73  C   UNL A   1      32.248  29.815  27.012  1.00  0.00     0.002 C 
BRANCH  73  74
ATOM     74  C   UNL A   1      31.700  28.145  27.070  1.00  0.00     0.021 C 
BRANCH  74  75
ATOM     75  C   UNL A   1      30.792  26.829  25.560  1.00  0.00     0.116 C 
BRANCH  75  76
ATOM     76  N   UNL A   1      29.973  27.137  24.216  1.00  0.00    -0.351 N 
ATOM     77  C   UNL A   1      30.423  27.676  23.029  1.00  0.00     0.272 C 
ATOM     78  H   UNL A   1      29.016  26.909  24.242  1.00  0.00     0.163 HD
ATOM     79  O   UNL A   1      29.660  28.003  22.130  1.00  0.00    -0.267 OA
BRANCH  77  80
ATOM     80  C   UNL A   1      31.882  27.795  22.880  1.00  0.00     0.159 A 
ATOM     81  N   UNL A   1      32.392  28.895  23.533  1.00  0.00    -0.247 NA
ATOM     82  C   UNL A   1      32.635  27.006  22.023  1.00  0.00     0.159 A 
ATOM     83  C   UNL A   1      33.694  29.153  23.325  1.00  0.00     0.132 A 
ATOM     84  N   UNL A   1      33.960  27.303  21.816  1.00  0.00    -0.247 NA
ATOM     85  C   UNL A   1      34.461  28.372  22.485  1.00  0.00     0.132 A 
BRANCH  82  86
ATOM     86  C   UNL A   1      32.177  25.751  21.350  1.00  0.00     0.277 C 
ATOM     87  O   UNL A   1      32.078  25.779  20.119  1.00  0.00    -0.267 OA
ATOM     88  N   UNL A   1      31.906  24.561  21.988  1.00  0.00    -0.303 N 
ATOM     89  H   UNL A   1      31.765  23.796  21.384  1.00  0.00     0.172 HD
BRANCH  88  90
ATOM     90  C   UNL A   1      31.801  24.262  23.321  1.00  0.00     0.164 A 
ATOM     91  N   UNL A   1      30.594  23.894  23.788  1.00  0.00    -0.155 NA
ATOM     92  C   UNL A   1      32.827  24.157  24.281  1.00  0.00     0.063 A 
ATOM     93  N   UNL A   1      30.765  23.110  24.894  1.00  0.00    -0.259 N 
ATOM     94  C   UNL A   1      32.044  23.063  25.369  1.00  0.00     0.157 A 
ATOM     95  C   UNL A   1      34.549  24.532  24.549  1.00  0.00     0.017 A 
ATOM     96  H   UNL A   1      30.023  22.619  25.316  1.00  0.00     0.192 HD
ATOM     97  N   UNL A   1      32.885  22.149  26.593  1.00  0.00    -0.237 NA
ATOM     98  C   UNL A   1      35.481  23.692  25.809  1.00  0.00     0.021 A 
ATOM     99  C   UNL A   1      34.618  22.549  26.825  1.00  0.00     0.113 A 
ENDBRANCH  88  90
ENDBRANCH  82  86
ENDBRANCH  77  80
ENDBRANCH  75  76
ENDBRANCH  74  75
ENDBRANCH  73  74
ENDBRANCH   1  73
TORSDOF 15
ENDMDL
