MODEL 1
REMARK VINA RESULT:     -12.4      0.000      0.000
REMARK SMILES Cc1c(C(=O)NCCCCCCNC(=O)c2ccc(-c3c4nc(c(-c5c(F)c(F)c(F)c(F)c5F)c5ccc([nH]5)c(-c5c(F)c(F)c(F)c(F)c5F)c5nc(c(-c6c(F)c(F)c(F)c(F)c6F)c6ccc3[nH]6)C=C5)C=C4)cc2)sc2ncnc(NCc3cn4c(n3)SCC4)c12
REMARK SMILES IDX 9 1 8 2 7 3 6 4 4 5 5 6 3 8 1 9 2 10 95 11 79 12 80 13 84 14
REMARK SMILES IDX 81 15 83 16 82 17 85 18 86 20 87 21 88 22 91 23 89 24 90 25
REMARK SMILES IDX 94 26 92 27 93 28 10 29 11 30 12 31 13 32 14 33 15 35 16 36
REMARK SMILES IDX 17 37 78 38 18 39 77 40 19 41 20 42 21 43 71 44 22 45 76 46
REMARK SMILES IDX 70 47 72 48 23 49 75 50 69 51 68 52 24 54 56 55 36 56 55 57
REMARK SMILES IDX 37 58 40 59 54 60 73 61 38 62 39 63 53 65 74 66 41 67 25 68
REMARK SMILES IDX 26 69 34 70 27 71 28 72 32 73 35 74 29 75 30 76 33 77 31 78
REMARK SMILES IDX 57 79 58 80 66 81 59 82 60 83 64 84 67 85 61 86 62 87 65 88
REMARK SMILES IDX 63 89 42 90 43 91 51 92 44 93 45 94 49 95 52 96 46 97 47 98
REMARK SMILES IDX 50 99 48 100
REMARK H PARENT 6 7 85 19 13 34 72 53 40 64
REMARK Flexibility Score: inf
ROOT
ATOM      1  C   UNL A   1      39.232  21.079  26.106  1.00  0.00     0.002 C 
ENDROOT
BRANCH   1   2
ATOM      2  C   UNL A   1      38.728  22.527  26.048  1.00  0.00     0.021 C 
BRANCH   2   3
ATOM      3  C   UNL A   1      37.213  22.620  25.871  1.00  0.00     0.116 C 
BRANCH   3   4
ATOM      4  N   UNL A   1      36.920  22.906  24.485  1.00  0.00    -0.351 N 
ATOM      5  C   UNL A   1      35.752  22.989  23.780  1.00  0.00     0.261 C 
ATOM      6  O   UNL A   1      35.902  23.025  22.555  1.00  0.00    -0.268 OA
ATOM      7  H   UNL A   1      37.722  23.076  23.940  1.00  0.00     0.163 HD
BRANCH   5   8
ATOM      8  C   UNL A   1      34.445  23.135  24.415  1.00  0.00     0.098 A 
ATOM      9  C   UNL A   1      34.725  25.587  24.891  1.00  0.00     0.047 C 
ATOM     10  C   UNL A   1      33.908  24.334  24.893  1.00  0.00    -0.014 A 
ATOM     11  C   UNL A   1      32.546  24.171  25.411  1.00  0.00     0.057 A 
ATOM     12  S   UNL A   1      33.344  21.857  24.588  1.00  0.00    -0.110 S 
ATOM     13  C   UNL A   1      32.261  22.810  25.469  1.00  0.00     0.129 A 
ATOM     14  C   UNL A   1      31.499  25.003  25.895  1.00  0.00     0.138 A 
ATOM     15  N   UNL A   1      31.227  22.203  26.072  1.00  0.00    -0.225 NA
ATOM     16  N   UNL A   1      30.448  24.404  26.521  1.00  0.00    -0.219 NA
ATOM     17  C   UNL A   1      30.388  23.073  26.615  1.00  0.00     0.225 A 
BRANCH  14  18
ATOM     18  N   UNL A   1      31.322  26.358  25.857  1.00  0.00    -0.364 N 
ATOM     19  H   UNL A   1      30.693  26.697  26.535  1.00  0.00     0.162 HD
BRANCH  18  20
ATOM     20  C   UNL A   1      31.878  27.386  25.015  1.00  0.00     0.172 C 
BRANCH  20  21
ATOM     21  C   UNL A   1      30.957  28.373  24.371  1.00  0.00     0.079 A 
ATOM     22  C   UNL A   1      30.923  29.751  24.564  1.00  0.00     0.113 A 
ATOM     23  N   UNL A   1      29.976  27.973  23.471  1.00  0.00    -0.226 NA
ATOM     24  N   UNL A   1      29.877  30.157  23.810  1.00  0.00    -0.325 N 
ATOM     25  C   UNL A   1      29.353  29.078  23.175  1.00  0.00     0.168 A 
ATOM     26  C   UNL A   1      29.102  31.378  23.774  1.00  0.00     0.135 C 
ATOM     27  S   UNL A   1      27.830  29.421  22.450  1.00  0.00    -0.086 SA
ATOM     28  C   UNL A   1      27.667  30.922  23.505  1.00  0.00     0.100 C 
ENDBRANCH  20  21
ENDBRANCH  18  20
ENDBRANCH  14  18
ENDBRANCH   5   8
ENDBRANCH   3   4
ENDBRANCH   2   3
ENDBRANCH   1   2
BRANCH   1  29
ATOM     29  C   UNL A   1      40.694  20.912  26.552  1.00  0.00     0.002 C 
BRANCH  29  30
ATOM     30  C   UNL A   1      41.414  19.649  26.055  1.00  0.00     0.021 C 
BRANCH  30  31
ATOM     31  C   UNL A   1      42.799  19.470  26.647  1.00  0.00     0.116 C 
BRANCH  31  32
ATOM     32  N   UNL A   1      43.840  19.455  25.616  1.00  0.00    -0.352 N 
ATOM     33  C   UNL A   1      44.289  20.496  24.835  1.00  0.00     0.251 C 
ATOM     34  H   UNL A   1      44.276  18.586  25.461  1.00  0.00     0.163 HD
ATOM     35  O   UNL A   1      44.869  20.288  23.766  1.00  0.00    -0.269 OA
BRANCH  33  36
ATOM     36  C   UNL A   1      44.085  21.869  25.310  1.00  0.00     0.039 A 
ATOM     37  C   UNL A   1      43.173  22.745  24.719  1.00  0.00     0.014 A 
ATOM     38  C   UNL A   1      44.827  22.257  26.420  1.00  0.00     0.014 A 
ATOM     39  C   UNL A   1      42.994  23.999  25.295  1.00  0.00     0.010 A 
ATOM     40  C   UNL A   1      44.461  23.364  27.124  1.00  0.00     0.010 A 
ATOM     41  C   UNL A   1      43.646  24.292  26.506  1.00  0.00    -0.014 A 
BRANCH  41  42
ATOM     42  C   UNL A   1      43.452  25.545  27.213  1.00  0.00     0.031 A 
ATOM     43  C   UNL A   1      44.455  26.579  26.880  1.00  0.00     0.074 A 
ATOM     44  C   UNL A   1      42.340  25.806  27.938  1.00  0.00     0.049 A 
ATOM     45  N   UNL A   1      45.400  27.016  27.641  1.00  0.00    -0.248 NA
ATOM     46  C   UNL A   1      44.531  27.061  25.493  1.00  0.00     0.031 C 
ATOM     47  C   UNL A   1      41.126  24.993  28.099  1.00  0.00     0.029 A 
ATOM     48  N   UNL A   1      42.033  26.927  28.643  1.00  0.00    -0.354 N 
ATOM     49  C   UNL A   1      46.069  27.982  26.901  1.00  0.00     0.074 A 
ATOM     50  C   UNL A   1      45.624  27.827  25.541  1.00  0.00     0.031 C 
ATOM     51  C   UNL A   1      40.147  25.734  28.668  1.00  0.00     0.029 A 
ATOM     52  C   UNL A   1      40.712  27.006  29.073  1.00  0.00     0.049 A 
ATOM     53  H   UNL A   1      42.696  27.628  28.835  1.00  0.00     0.167 HD
ATOM     54  C   UNL A   1      46.740  28.987  27.527  1.00  0.00     0.037 A 
ATOM     55  C   UNL A   1      40.137  28.054  29.715  1.00  0.00     0.037 A 
ATOM     56  C   UNL A   1      46.943  28.674  28.921  1.00  0.00     0.049 A 
ATOM     57  C   UNL A   1      41.242  28.855  30.298  1.00  0.00     0.074 A 
ATOM     58  C   UNL A   1      47.617  27.677  29.600  1.00  0.00     0.029 A 
ATOM     59  N   UNL A   1      46.060  29.214  29.825  1.00  0.00    -0.354 N 
ATOM     60  N   UNL A   1      42.007  28.430  31.266  1.00  0.00    -0.248 NA
ATOM     61  C   UNL A   1      41.801  29.920  29.479  1.00  0.00     0.031 C 
ATOM     62  C   UNL A   1      46.778  27.354  30.708  1.00  0.00     0.029 A 
ATOM     63  C   UNL A   1      45.684  28.221  30.692  1.00  0.00     0.049 A 
ATOM     64  H   UNL A   1      45.752  30.149  29.846  1.00  0.00     0.167 HD
ATOM     65  C   UNL A   1      43.281  28.851  30.917  1.00  0.00     0.074 A 
ATOM     66  C   UNL A   1      43.081  29.829  29.849  1.00  0.00     0.031 C 
ATOM     67  C   UNL A   1      44.383  28.152  31.319  1.00  0.00     0.037 A 
BRANCH  54  68
ATOM     68  C   UNL A   1      46.868  30.392  26.995  1.00  0.00     0.064 A 
ATOM     69  C   UNL A   1      48.127  31.023  27.041  1.00  0.00     0.173 A 
ATOM     70  C   UNL A   1      45.772  31.238  26.724  1.00  0.00     0.173 A 
ATOM     71  F   UNL A   1      49.236  30.320  27.310  1.00  0.00    -0.203 F 
ATOM     72  C   UNL A   1      48.263  32.408  26.903  1.00  0.00     0.198 A 
ATOM     73  C   UNL A   1      45.919  32.610  26.533  1.00  0.00     0.198 A 
ATOM     74  F   UNL A   1      44.508  30.803  26.747  1.00  0.00    -0.203 F 
ATOM     75  F   UNL A   1      49.462  32.978  27.083  1.00  0.00    -0.200 F 
ATOM     76  C   UNL A   1      47.158  33.200  26.654  1.00  0.00     0.200 A 
ATOM     77  F   UNL A   1      44.831  33.363  26.314  1.00  0.00    -0.200 F 
ATOM     78  F   UNL A   1      47.277  34.532  26.582  1.00  0.00    -0.200 F 
ENDBRANCH  54  68
BRANCH  55  79
ATOM     79  C   UNL A   1      38.753  28.576  29.619  1.00  0.00     0.064 A 
ATOM     80  C   UNL A   1      37.989  28.832  30.770  1.00  0.00     0.173 A 
ATOM     81  C   UNL A   1      38.268  29.120  28.413  1.00  0.00     0.173 A 
ATOM     82  F   UNL A   1      38.405  28.389  31.965  1.00  0.00    -0.203 F 
ATOM     83  C   UNL A   1      36.827  29.611  30.724  1.00  0.00     0.198 A 
ATOM     84  C   UNL A   1      37.108  29.897  28.368  1.00  0.00     0.198 A 
ATOM     85  F   UNL A   1      38.967  28.991  27.276  1.00  0.00    -0.203 F 
ATOM     86  F   UNL A   1      36.162  29.887  31.855  1.00  0.00    -0.200 F 
ATOM     87  C   UNL A   1      36.395  30.154  29.526  1.00  0.00     0.200 A 
ATOM     88  F   UNL A   1      36.724  30.452  27.211  1.00  0.00    -0.200 F 
ATOM     89  F   UNL A   1      35.323  30.958  29.493  1.00  0.00    -0.200 F 
ENDBRANCH  55  79
BRANCH  67  90
ATOM     90  C   UNL A   1      44.193  27.067  32.346  1.00  0.00     0.064 A 
ATOM     91  C   UNL A   1      44.108  25.696  32.042  1.00  0.00     0.173 A 
ATOM     92  C   UNL A   1      44.277  27.419  33.698  1.00  0.00     0.173 A 
ATOM     93  F   UNL A   1      44.107  25.268  30.775  1.00  0.00    -0.203 F 
ATOM     94  C   UNL A   1      44.089  24.730  33.049  1.00  0.00     0.198 A 
ATOM     95  C   UNL A   1      44.294  26.453  34.699  1.00  0.00     0.198 A 
ATOM     96  F   UNL A   1      44.408  28.709  34.046  1.00  0.00    -0.203 F 
ATOM     97  F   UNL A   1      44.012  23.428  32.732  1.00  0.00    -0.200 F 
ATOM     98  C   UNL A   1      44.194  25.109  34.375  1.00  0.00     0.200 A 
ATOM     99  F   UNL A   1      44.442  26.823  35.979  1.00  0.00    -0.200 F 
ATOM    100  F   UNL A   1      44.230  24.180  35.341  1.00  0.00    -0.200 F 
ENDBRANCH  67  90
ENDBRANCH  41  42
ENDBRANCH  33  36
ENDBRANCH  31  32
ENDBRANCH  30  31
ENDBRANCH  29  30
ENDBRANCH   1  29
TORSDOF 16
ENDMDL
MODEL 2
REMARK VINA RESULT:     -12.1      5.813     11.056
REMARK SMILES Cc1c(C(=O)NCCCCCCNC(=O)c2ccc(-c3c4nc(c(-c5c(F)c(F)c(F)c(F)c5F)c5ccc([nH]5)c(-c5c(F)c(F)c(F)c(F)c5F)c5nc(c(-c6c(F)c(F)c(F)c(F)c6F)c6ccc3[nH]6)C=C5)C=C4)cc2)sc2ncnc(NCc3cn4c(n3)SCC4)c12
REMARK SMILES IDX 9 1 8 2 7 3 6 4 4 5 5 6 3 8 1 9 2 10 95 11 79 12 80 13 84 14
REMARK SMILES IDX 81 15 83 16 82 17 85 18 86 20 87 21 88 22 91 23 89 24 90 25
REMARK SMILES IDX 94 26 92 27 93 28 10 29 11 30 12 31 13 32 14 33 15 35 16 36
REMARK SMILES IDX 17 37 78 38 18 39 77 40 19 41 20 42 21 43 71 44 22 45 76 46
REMARK SMILES IDX 70 47 72 48 23 49 75 50 69 51 68 52 24 54 56 55 36 56 55 57
REMARK SMILES IDX 37 58 40 59 54 60 73 61 38 62 39 63 53 65 74 66 41 67 25 68
REMARK SMILES IDX 26 69 34 70 27 71 28 72 32 73 35 74 29 75 30 76 33 77 31 78
REMARK SMILES IDX 57 79 58 80 66 81 59 82 60 83 64 84 67 85 61 86 62 87 65 88
REMARK SMILES IDX 63 89 42 90 43 91 51 92 44 93 45 94 49 95 52 96 46 97 47 98
REMARK SMILES IDX 50 99 48 100
REMARK H PARENT 6 7 85 19 13 34 72 53 40 64
REMARK Flexibility Score: inf
ROOT
ATOM      1  C   UNL A   1      44.479  32.439  26.686  1.00  0.00     0.002 C 
ENDROOT
BRANCH   1   2
ATOM      2  C   UNL A   1      43.791  31.136  27.110  1.00  0.00     0.021 C 
BRANCH   2   3
ATOM      3  C   UNL A   1      44.781  30.007  27.392  1.00  0.00     0.116 C 
BRANCH   3   4
ATOM      4  N   UNL A   1      45.097  29.341  26.149  1.00  0.00    -0.351 N 
ATOM      5  C   UNL A   1      45.259  28.026  25.815  1.00  0.00     0.261 C 
ATOM      6  O   UNL A   1      45.758  27.845  24.699  1.00  0.00    -0.268 OA
ATOM      7  H   UNL A   1      45.220  29.958  25.392  1.00  0.00     0.163 HD
BRANCH   5   8
ATOM      8  C   UNL A   1      44.786  26.926  26.651  1.00  0.00     0.098 A 
ATOM      9  C   UNL A   1      42.651  26.602  25.366  1.00  0.00     0.047 C 
ATOM     10  C   UNL A   1      43.609  26.201  26.443  1.00  0.00    -0.014 A 
ATOM     11  C   UNL A   1      43.444  25.110  27.407  1.00  0.00     0.057 A 
ATOM     12  S   UNL A   1      45.661  26.310  27.967  1.00  0.00    -0.110 S 
ATOM     13  C   UNL A   1      44.418  25.247  28.393  1.00  0.00     0.129 A 
ATOM     14  C   UNL A   1      42.557  24.019  27.619  1.00  0.00     0.138 A 
ATOM     15  N   UNL A   1      44.505  24.607  29.569  1.00  0.00    -0.225 NA
ATOM     16  N   UNL A   1      42.623  23.366  28.813  1.00  0.00    -0.219 NA
ATOM     17  C   UNL A   1      43.540  23.712  29.721  1.00  0.00     0.225 A 
BRANCH  14  18
ATOM     18  N   UNL A   1      41.596  23.459  26.823  1.00  0.00    -0.364 N 
ATOM     19  H   UNL A   1      40.945  24.107  26.468  1.00  0.00     0.162 HD
BRANCH  18  20
ATOM     20  C   UNL A   1      41.354  22.102  26.404  1.00  0.00     0.172 C 
BRANCH  20  21
ATOM     21  C   UNL A   1      42.495  21.291  25.878  1.00  0.00     0.079 A 
ATOM     22  C   UNL A   1      42.643  19.908  25.922  1.00  0.00     0.113 A 
ATOM     23  N   UNL A   1      43.593  21.888  25.269  1.00  0.00    -0.226 NA
ATOM     24  N   UNL A   1      43.862  19.695  25.380  1.00  0.00    -0.325 N 
ATOM     25  C   UNL A   1      44.384  20.889  25.000  1.00  0.00     0.168 A 
ATOM     26  C   UNL A   1      44.759  18.560  25.385  1.00  0.00     0.135 C 
ATOM     27  S   UNL A   1      46.054  20.776  24.600  1.00  0.00    -0.086 SA
ATOM     28  C   UNL A   1      46.159  19.169  25.494  1.00  0.00     0.100 C 
ENDBRANCH  20  21
ENDBRANCH  18  20
ENDBRANCH  14  18
ENDBRANCH   5   8
ENDBRANCH   3   4
ENDBRANCH   2   3
ENDBRANCH   1   2
BRANCH   1  29
ATOM     29  C   UNL A   1      43.844  33.154  25.482  1.00  0.00     0.002 C 
BRANCH  29  30
ATOM     30  C   UNL A   1      44.653  34.312  24.877  1.00  0.00     0.021 C 
BRANCH  30  31
ATOM     31  C   UNL A   1      45.839  34.728  25.726  1.00  0.00     0.116 C 
BRANCH  31  32
ATOM     32  N   UNL A   1      45.769  36.139  26.115  1.00  0.00    -0.352 N 
ATOM     33  C   UNL A   1      44.837  36.764  26.914  1.00  0.00     0.251 C 
ATOM     34  H   UNL A   1      46.482  36.717  25.758  1.00  0.00     0.163 HD
ATOM     35  O   UNL A   1      44.658  37.983  26.852  1.00  0.00    -0.269 OA
BRANCH  33  36
ATOM     36  C   UNL A   1      44.069  35.951  27.863  1.00  0.00     0.039 A 
ATOM     37  C   UNL A   1      44.670  35.209  28.881  1.00  0.00     0.014 A 
ATOM     38  C   UNL A   1      42.686  35.980  27.725  1.00  0.00     0.014 A 
ATOM     39  C   UNL A   1      43.848  34.536  29.781  1.00  0.00     0.010 A 
ATOM     40  C   UNL A   1      41.896  35.547  28.747  1.00  0.00     0.010 A 
ATOM     41  C   UNL A   1      42.456  34.721  29.701  1.00  0.00    -0.014 A 
BRANCH  41  42
ATOM     42  C   UNL A   1      41.535  34.120  30.649  1.00  0.00     0.031 A 
ATOM     43  C   UNL A   1      42.132  33.861  31.977  1.00  0.00     0.074 A 
ATOM     44  C   UNL A   1      40.209  34.011  30.404  1.00  0.00     0.049 A 
ATOM     45  N   UNL A   1      42.424  32.712  32.484  1.00  0.00    -0.248 NA
ATOM     46  C   UNL A   1      42.619  35.005  32.762  1.00  0.00     0.031 C 
ATOM     47  C   UNL A   1      39.433  34.508  29.259  1.00  0.00     0.029 A 
ATOM     48  N   UNL A   1      39.244  33.474  31.197  1.00  0.00    -0.354 N 
ATOM     49  C   UNL A   1      42.946  32.974  33.745  1.00  0.00     0.074 A 
ATOM     50  C   UNL A   1      43.222  34.386  33.780  1.00  0.00     0.031 C 
ATOM     51  C   UNL A   1      38.110  34.439  29.535  1.00  0.00     0.029 A 
ATOM     52  C   UNL A   1      37.939  33.733  30.790  1.00  0.00     0.049 A 
ATOM     53  H   UNL A   1      39.454  32.942  31.997  1.00  0.00     0.167 HD
ATOM     54  C   UNL A   1      42.863  32.040  34.732  1.00  0.00     0.037 A 
ATOM     55  C   UNL A   1      36.807  33.386  31.451  1.00  0.00     0.037 A 
ATOM     56  C   UNL A   1      42.542  30.745  34.183  1.00  0.00     0.049 A 
ATOM     57  C   UNL A   1      37.175  32.292  32.384  1.00  0.00     0.074 A 
ATOM     58  C   UNL A   1      43.167  29.888  33.297  1.00  0.00     0.029 A 
ATOM     59  N   UNL A   1      41.226  30.350  34.223  1.00  0.00    -0.354 N 
ATOM     60  N   UNL A   1      37.543  31.104  31.990  1.00  0.00    -0.248 NA
ATOM     61  C   UNL A   1      37.604  32.670  33.722  1.00  0.00     0.031 C 
ATOM     62  C   UNL A   1      42.113  29.347  32.502  1.00  0.00     0.029 A 
ATOM     63  C   UNL A   1      40.902  29.838  32.994  1.00  0.00     0.049 A 
ATOM     64  H   UNL A   1      40.623  30.423  34.998  1.00  0.00     0.167 HD
ATOM     65  C   UNL A   1      38.593  30.765  32.831  1.00  0.00     0.074 A 
ATOM     66  C   UNL A   1      38.534  31.733  33.925  1.00  0.00     0.031 C 
ATOM     67  C   UNL A   1      39.582  29.925  32.410  1.00  0.00     0.037 A 
BRANCH  54  68
ATOM     68  C   UNL A   1      42.688  32.355  36.195  1.00  0.00     0.064 A 
ATOM     69  C   UNL A   1      43.607  31.819  37.120  1.00  0.00     0.173 A 
ATOM     70  C   UNL A   1      41.512  32.901  36.752  1.00  0.00     0.173 A 
ATOM     71  F   UNL A   1      44.749  31.256  36.702  1.00  0.00    -0.203 F 
ATOM     72  C   UNL A   1      43.328  31.765  38.489  1.00  0.00     0.198 A 
ATOM     73  C   UNL A   1      41.264  32.894  38.123  1.00  0.00     0.198 A 
ATOM     74  F   UNL A   1      40.507  33.356  35.997  1.00  0.00    -0.203 F 
ATOM     75  F   UNL A   1      44.173  31.130  39.313  1.00  0.00    -0.200 F 
ATOM     76  C   UNL A   1      42.155  32.298  38.988  1.00  0.00     0.200 A 
ATOM     77  F   UNL A   1      40.110  33.398  38.584  1.00  0.00    -0.200 F 
ATOM     78  F   UNL A   1      41.859  32.194  40.290  1.00  0.00    -0.200 F 
ENDBRANCH  54  68
BRANCH  55  79
ATOM     79  C   UNL A   1      35.516  34.108  31.557  1.00  0.00     0.064 A 
ATOM     80  C   UNL A   1      35.305  35.081  32.549  1.00  0.00     0.173 A 
ATOM     81  C   UNL A   1      34.582  34.077  30.503  1.00  0.00     0.173 A 
ATOM     82  F   UNL A   1      36.174  35.208  33.562  1.00  0.00    -0.203 F 
ATOM     83  C   UNL A   1      34.242  35.989  32.475  1.00  0.00     0.198 A 
ATOM     84  C   UNL A   1      33.521  34.983  30.430  1.00  0.00     0.198 A 
ATOM     85  F   UNL A   1      34.742  33.233  29.473  1.00  0.00    -0.203 F 
ATOM     86  F   UNL A   1      34.112  36.944  33.406  1.00  0.00    -0.200 F 
ATOM     87  C   UNL A   1      33.359  35.947  31.409  1.00  0.00     0.200 A 
ATOM     88  F   UNL A   1      32.698  34.961  29.373  1.00  0.00    -0.200 F 
ATOM     89  F   UNL A   1      32.383  36.860  31.301  1.00  0.00    -0.200 F 
ENDBRANCH  55  79
BRANCH  67  90
ATOM     90  C   UNL A   1      39.376  29.188  31.112  1.00  0.00     0.064 A 
ATOM     91  C   UNL A   1      39.754  29.684  29.851  1.00  0.00     0.173 A 
ATOM     92  C   UNL A   1      38.940  27.859  31.173  1.00  0.00     0.173 A 
ATOM     93  F   UNL A   1      40.260  30.914  29.717  1.00  0.00    -0.203 F 
ATOM     94  C   UNL A   1      39.679  28.889  28.707  1.00  0.00     0.198 A 
ATOM     95  C   UNL A   1      38.899  27.057  30.036  1.00  0.00     0.198 A 
ATOM     96  F   UNL A   1      38.611  27.316  32.356  1.00  0.00    -0.203 F 
ATOM     97  F   UNL A   1      40.050  29.385  27.517  1.00  0.00    -0.200 F 
ATOM     98  C   UNL A   1      39.263  27.573  28.803  1.00  0.00     0.200 A 
ATOM     99  F   UNL A   1      38.539  25.770  30.143  1.00  0.00    -0.200 F 
ATOM    100  F   UNL A   1      39.240  26.792  27.714  1.00  0.00    -0.200 F 
ENDBRANCH  67  90
ENDBRANCH  41  42
ENDBRANCH  33  36
ENDBRANCH  31  32
ENDBRANCH  30  31
ENDBRANCH  29  30
ENDBRANCH   1  29
TORSDOF 16
ENDMDL
MODEL 3
REMARK VINA RESULT:     -12.0      2.751      3.712
REMARK SMILES Cc1c(C(=O)NCCCCCCNC(=O)c2ccc(-c3c4nc(c(-c5c(F)c(F)c(F)c(F)c5F)c5ccc([nH]5)c(-c5c(F)c(F)c(F)c(F)c5F)c5nc(c(-c6c(F)c(F)c(F)c(F)c6F)c6ccc3[nH]6)C=C5)C=C4)cc2)sc2ncnc(NCc3cn4c(n3)SCC4)c12
REMARK SMILES IDX 9 1 8 2 7 3 6 4 4 5 5 6 3 8 1 9 2 10 95 11 79 12 80 13 84 14
REMARK SMILES IDX 81 15 83 16 82 17 85 18 86 20 87 21 88 22 91 23 89 24 90 25
REMARK SMILES IDX 94 26 92 27 93 28 10 29 11 30 12 31 13 32 14 33 15 35 16 36
REMARK SMILES IDX 17 37 78 38 18 39 77 40 19 41 20 42 21 43 71 44 22 45 76 46
REMARK SMILES IDX 70 47 72 48 23 49 75 50 69 51 68 52 24 54 56 55 36 56 55 57
REMARK SMILES IDX 37 58 40 59 54 60 73 61 38 62 39 63 53 65 74 66 41 67 25 68
REMARK SMILES IDX 26 69 34 70 27 71 28 72 32 73 35 74 29 75 30 76 33 77 31 78
REMARK SMILES IDX 57 79 58 80 66 81 59 82 60 83 64 84 67 85 61 86 62 87 65 88
REMARK SMILES IDX 63 89 42 90 43 91 51 92 44 93 45 94 49 95 52 96 46 97 47 98
REMARK SMILES IDX 50 99 48 100
REMARK H PARENT 6 7 85 19 13 34 72 53 40 64
REMARK Flexibility Score: inf
ROOT
ATOM      1  C   UNL A   1      37.694  22.987  25.676  1.00  0.00     0.002 C 
ENDROOT
BRANCH   1   2
ATOM      2  C   UNL A   1      36.166  23.117  25.616  1.00  0.00     0.021 C 
BRANCH   2   3
ATOM      3  C   UNL A   1      35.445  21.901  26.197  1.00  0.00     0.116 C 
BRANCH   3   4
ATOM      4  N   UNL A   1      34.820  21.169  25.121  1.00  0.00    -0.351 N 
ATOM      5  C   UNL A   1      33.559  21.189  24.593  1.00  0.00     0.261 C 
ATOM      6  O   UNL A   1      33.317  20.253  23.825  1.00  0.00    -0.268 OA
ATOM      7  H   UNL A   1      35.422  20.528  24.678  1.00  0.00     0.163 HD
BRANCH   5   8
ATOM      8  C   UNL A   1      32.614  22.278  24.825  1.00  0.00     0.098 A 
ATOM      9  C   UNL A   1      33.576  23.763  23.041  1.00  0.00     0.047 C 
ATOM     10  C   UNL A   1      32.552  23.465  24.090  1.00  0.00    -0.014 A 
ATOM     11  C   UNL A   1      31.449  24.332  24.515  1.00  0.00     0.057 A 
ATOM     12  S   UNL A   1      31.383  22.213  25.990  1.00  0.00    -0.110 S 
ATOM     13  C   UNL A   1      30.905  23.805  25.683  1.00  0.00     0.129 A 
ATOM     14  C   UNL A   1      30.842  25.545  24.091  1.00  0.00     0.138 A 
ATOM     15  N   UNL A   1      30.032  24.379  26.525  1.00  0.00    -0.225 NA
ATOM     16  N   UNL A   1      29.962  26.149  24.938  1.00  0.00    -0.219 NA
ATOM     17  C   UNL A   1      29.643  25.573  26.101  1.00  0.00     0.225 A 
BRANCH  14  18
ATOM     18  N   UNL A   1      30.968  26.273  22.939  1.00  0.00    -0.364 N 
ATOM     19  H   UNL A   1      30.404  25.950  22.200  1.00  0.00     0.162 HD
BRANCH  18  20
ATOM     20  C   UNL A   1      31.769  27.421  22.600  1.00  0.00     0.172 C 
BRANCH  20  21
ATOM     21  C   UNL A   1      32.311  28.277  23.700  1.00  0.00     0.079 A 
ATOM     22  C   UNL A   1      33.567  28.201  24.294  1.00  0.00     0.113 A 
ATOM     23  N   UNL A   1      31.550  29.287  24.278  1.00  0.00    -0.226 NA
ATOM     24  N   UNL A   1      33.524  29.140  25.265  1.00  0.00    -0.325 N 
ATOM     25  C   UNL A   1      32.320  29.764  25.214  1.00  0.00     0.168 A 
ATOM     26  C   UNL A   1      34.344  29.393  26.430  1.00  0.00     0.135 C 
ATOM     27  S   UNL A   1      32.032  30.746  26.598  1.00  0.00    -0.086 SA
ATOM     28  C   UNL A   1      33.360  29.850  27.508  1.00  0.00     0.100 C 
ENDBRANCH  20  21
ENDBRANCH  18  20
ENDBRANCH  14  18
ENDBRANCH   5   8
ENDBRANCH   3   4
ENDBRANCH   2   3
ENDBRANCH   1   2
BRANCH   1  29
ATOM     29  C   UNL A   1      38.244  21.584  25.373  1.00  0.00     0.002 C 
BRANCH  29  30
ATOM     30  C   UNL A   1      39.500  21.165  26.154  1.00  0.00     0.021 C 
BRANCH  30  31
ATOM     31  C   UNL A   1      40.299  22.339  26.687  1.00  0.00     0.116 C 
BRANCH  31  32
ATOM     32  N   UNL A   1      41.606  22.456  26.036  1.00  0.00    -0.352 N 
ATOM     33  C   UNL A   1      42.350  23.591  25.802  1.00  0.00     0.251 C 
ATOM     34  H   UNL A   1      42.005  21.611  25.724  1.00  0.00     0.163 HD
ATOM     35  O   UNL A   1      43.219  23.615  24.925  1.00  0.00    -0.269 OA
BRANCH  33  36
ATOM     36  C   UNL A   1      42.106  24.774  26.634  1.00  0.00     0.039 A 
ATOM     37  C   UNL A   1      42.711  24.960  27.878  1.00  0.00     0.014 A 
ATOM     38  C   UNL A   1      41.257  25.739  26.104  1.00  0.00     0.014 A 
ATOM     39  C   UNL A   1      42.477  26.155  28.554  1.00  0.00     0.010 A 
ATOM     40  C   UNL A   1      41.245  26.993  26.636  1.00  0.00     0.010 A 
ATOM     41  C   UNL A   1      41.742  27.167  27.912  1.00  0.00    -0.014 A 
BRANCH  41  42
ATOM     42  C   UNL A   1      41.521  28.470  28.513  1.00  0.00     0.031 A 
ATOM     43  C   UNL A   1      42.565  29.463  28.182  1.00  0.00     0.074 A 
ATOM     44  C   UNL A   1      40.365  28.798  29.134  1.00  0.00     0.049 A 
ATOM     45  N   UNL A   1      43.461  29.941  28.977  1.00  0.00    -0.248 NA
ATOM     46  C   UNL A   1      42.750  29.844  26.773  1.00  0.00     0.031 C 
ATOM     47  C   UNL A   1      39.127  28.015  29.264  1.00  0.00     0.029 A 
ATOM     48  N   UNL A   1      40.030  29.970  29.734  1.00  0.00    -0.354 N 
ATOM     49  C   UNL A   1      44.200  30.842  28.221  1.00  0.00     0.074 A 
ATOM     50  C   UNL A   1      43.851  30.596  26.846  1.00  0.00     0.031 C 
ATOM     51  C   UNL A   1      38.125  28.809  29.706  1.00  0.00     0.029 A 
ATOM     52  C   UNL A   1      38.683  30.099  30.060  1.00  0.00     0.049 A 
ATOM     53  H   UNL A   1      40.691  30.674  29.924  1.00  0.00     0.167 HD
ATOM     54  C   UNL A   1      44.843  31.880  28.822  1.00  0.00     0.037 A 
ATOM     55  C   UNL A   1      38.084  31.198  30.584  1.00  0.00     0.037 A 
ATOM     56  C   UNL A   1      44.940  31.665  30.246  1.00  0.00     0.049 A 
ATOM     57  C   UNL A   1      39.159  32.024  31.188  1.00  0.00     0.074 A 
ATOM     58  C   UNL A   1      45.544  30.710  31.041  1.00  0.00     0.029 A 
ATOM     59  N   UNL A   1      44.005  32.280  31.043  1.00  0.00    -0.354 N 
ATOM     60  N   UNL A   1      39.844  31.658  32.236  1.00  0.00    -0.248 NA
ATOM     61  C   UNL A   1      39.796  33.019  30.338  1.00  0.00     0.031 C 
ATOM     62  C   UNL A   1      44.622  30.479  32.104  1.00  0.00     0.029 A 
ATOM     63  C   UNL A   1      43.549  31.357  31.947  1.00  0.00     0.049 A 
ATOM     64  H   UNL A   1      43.714  33.219  30.975  1.00  0.00     0.167 HD
ATOM     65  C   UNL A   1      41.149  32.035  31.952  1.00  0.00     0.074 A 
ATOM     66  C   UNL A   1      41.044  32.937  30.806  1.00  0.00     0.031 C 
ATOM     67  C   UNL A   1      42.205  31.351  32.481  1.00  0.00     0.037 A 
BRANCH  54  68
ATOM     68  C   UNL A   1      45.036  33.241  28.203  1.00  0.00     0.064 A 
ATOM     69  C   UNL A   1      46.347  33.720  28.011  1.00  0.00     0.173 A 
ATOM     70  C   UNL A   1      44.011  34.201  28.069  1.00  0.00     0.173 A 
ATOM     71  F   UNL A   1      47.401  32.900  28.134  1.00  0.00    -0.203 F 
ATOM     72  C   UNL A   1      46.611  35.073  27.780  1.00  0.00     0.198 A 
ATOM     73  C   UNL A   1      44.275  35.539  27.785  1.00  0.00     0.198 A 
ATOM     74  F   UNL A   1      42.728  33.919  28.319  1.00  0.00    -0.203 F 
ATOM     75  F   UNL A   1      47.879  35.504  27.733  1.00  0.00    -0.200 F 
ATOM     76  C   UNL A   1      45.575  35.982  27.672  1.00  0.00     0.200 A 
ATOM     77  F   UNL A   1      43.257  36.407  27.705  1.00  0.00    -0.200 F 
ATOM     78  F   UNL A   1      45.827  37.288  27.512  1.00  0.00    -0.200 F 
ENDBRANCH  54  68
BRANCH  55  79
ATOM     79  C   UNL A   1      36.721  31.731  30.350  1.00  0.00     0.064 A 
ATOM     80  C   UNL A   1      35.941  32.227  31.408  1.00  0.00     0.173 A 
ATOM     81  C   UNL A   1      36.280  32.044  29.049  1.00  0.00     0.173 A 
ATOM     82  F   UNL A   1      36.316  32.013  32.678  1.00  0.00    -0.203 F 
ATOM     83  C   UNL A   1      34.807  33.016  31.181  1.00  0.00     0.198 A 
ATOM     84  C   UNL A   1      35.149  32.831  28.823  1.00  0.00     0.198 A 
ATOM     85  F   UNL A   1      36.998  31.677  27.978  1.00  0.00    -0.203 F 
ATOM     86  F   UNL A   1      34.128  33.526  32.218  1.00  0.00    -0.200 F 
ATOM     87  C   UNL A   1      34.420  33.328  29.889  1.00  0.00     0.200 A 
ATOM     88  F   UNL A   1      34.808  33.162  27.570  1.00  0.00    -0.200 F 
ATOM     89  F   UNL A   1      33.376  34.142  29.672  1.00  0.00    -0.200 F 
ENDBRANCH  55  79
BRANCH  67  90
ATOM     90  C   UNL A   1      41.921  30.346  33.566  1.00  0.00     0.064 A 
ATOM     91  C   UNL A   1      41.625  28.990  33.330  1.00  0.00     0.173 A 
ATOM     92  C   UNL A   1      42.132  30.734  34.894  1.00  0.00     0.173 A 
ATOM     93  F   UNL A   1      41.491  28.519  32.086  1.00  0.00    -0.203 F 
ATOM     94  C   UNL A   1      41.525  28.077  34.380  1.00  0.00     0.198 A 
ATOM     95  C   UNL A   1      42.067  29.814  35.937  1.00  0.00     0.198 A 
ATOM     96  F   UNL A   1      42.465  32.003  35.175  1.00  0.00    -0.203 F 
ATOM     97  F   UNL A   1      41.246  26.789  34.128  1.00  0.00    -0.200 F 
ATOM     98  C   UNL A   1      41.759  28.488  35.681  1.00  0.00     0.200 A 
ATOM     99  F   UNL A   1      42.340  30.208  37.189  1.00  0.00    -0.200 F 
ATOM    100  F   UNL A   1      41.717  27.601  36.685  1.00  0.00    -0.200 F 
ENDBRANCH  67  90
ENDBRANCH  41  42
ENDBRANCH  33  36
ENDBRANCH  31  32
ENDBRANCH  30  31
ENDBRANCH  29  30
ENDBRANCH   1  29
TORSDOF 16
ENDMDL
