MODEL 1
REMARK VINA RESULT:     -12.1      0.000      0.000
REMARK SMILES COCC[C@H](NC(=O)c1ccc(C)cc1F)C(=O)NCCCCCCNC(=O)c1ccc(-c2c3nc(c(-c4c(F)c(F)c(F)c(F)c4F)c4ccc([nH]4)c(-c4c(F)c(F)c(F)c(F)c4F)c4nc(c(-c5c(F)c(F)c(F)c(F)c5F)c5ccc2[nH]5)C=C4)C=C3)cc1
REMARK SMILES IDX 22 1 21 2 20 3 19 4 17 5 18 6 5 8 4 9 3 10 2 11 1 12 6 13
REMARK SMILES IDX 7 14 8 16 9 17 10 18 15 19 11 20 14 21 16 22 12 23 13 24
REMARK SMILES IDX 23 25 24 26 25 27 26 28 27 29 28 31 29 32 30 33 91 34 31 35
REMARK SMILES IDX 90 36 32 37 33 38 34 39 84 40 35 41 89 42 83 43 85 44 36 45
REMARK SMILES IDX 88 46 82 47 81 48 37 50 69 51 49 52 68 53 50 54 53 55 67 56
REMARK SMILES IDX 86 57 51 58 52 59 66 61 87 62 54 63 38 64 39 65 47 66 40 67
REMARK SMILES IDX 41 68 45 69 48 70 42 71 43 72 46 73 44 74 70 75 71 76 79 77
REMARK SMILES IDX 72 78 73 79 77 80 80 81 74 82 75 83 78 84 76 85 55 86 56 87
REMARK SMILES IDX 64 88 57 89 58 90 62 91 65 92 59 93 60 94 63 95 61 96
REMARK H PARENT 19 7 6 15 26 30 85 49 53 60
REMARK Flexibility Score: inf
ROOT
ATOM      1  C   UNL A   1      31.835  28.164  27.212  1.00  0.00     0.002 C 
ENDROOT
BRANCH   1   2
ATOM      2  C   UNL A   1      31.028  27.186  26.356  1.00  0.00     0.021 C 
BRANCH   2   3
ATOM      3  C   UNL A   1      31.498  25.737  26.472  1.00  0.00     0.116 C 
BRANCH   3   4
ATOM      4  N   UNL A   1      32.931  25.594  26.285  1.00  0.00    -0.354 N 
ATOM      5  C   UNL A   1      33.618  24.826  25.393  1.00  0.00     0.242 C 
ATOM      6  O   UNL A   1      34.849  24.907  25.381  1.00  0.00    -0.273 OA
ATOM      7  H   UNL A   1      33.488  26.132  26.893  1.00  0.00     0.163 HD
BRANCH   5   8
ATOM      8  C   UNL A   1      32.854  24.046  24.321  1.00  0.00     0.173 C 
BRANCH   8   9
ATOM      9  C   UNL A   1      33.095  22.570  24.740  1.00  0.00     0.063 C 
BRANCH   9  10
ATOM     10  C   UNL A   1      31.859  21.735  24.994  1.00  0.00     0.162 C 
BRANCH  10  11
ATOM     11  O   UNL A   1      32.224  20.367  25.129  1.00  0.00    -0.385 OA
ATOM     12  C   UNL A   1      32.530  19.774  23.873  1.00  0.00     0.194 C 
ENDBRANCH  10  11
ENDBRANCH   9  10
ENDBRANCH   8   9
BRANCH   8  13
ATOM     13  N   UNL A   1      33.293  24.344  22.945  1.00  0.00    -0.340 N 
ATOM     14  C   UNL A   1      32.918  25.321  22.047  1.00  0.00     0.254 C 
ATOM     15  H   UNL A   1      33.983  23.730  22.604  1.00  0.00     0.164 HD
ATOM     16  O   UNL A   1      33.275  25.204  20.876  1.00  0.00    -0.269 OA
BRANCH  14  17
ATOM     17  C   UNL A   1      32.165  26.531  22.449  1.00  0.00     0.075 A 
ATOM     18  C   UNL A   1      32.736  27.802  22.382  1.00  0.00     0.017 A 
ATOM     19  C   UNL A   1      30.811  26.446  22.761  1.00  0.00     0.136 A 
ATOM     20  C   UNL A   1      32.033  28.944  22.760  1.00  0.00     0.004 A 
ATOM     21  C   UNL A   1      30.082  27.589  23.114  1.00  0.00     0.043 A 
ATOM     22  F   UNL A   1      30.171  25.267  22.743  1.00  0.00    -0.206 F 
ATOM     23  C   UNL A   1      30.705  28.844  23.163  1.00  0.00    -0.048 A 
ATOM     24  C   UNL A   1      29.963  30.068  23.607  1.00  0.00     0.044 C 
ENDBRANCH  14  17
ENDBRANCH   8  13
ENDBRANCH   5   8
ENDBRANCH   3   4
ENDBRANCH   2   3
ENDBRANCH   1   2
BRANCH   1  25
ATOM     25  C   UNL A   1      32.545  29.262  26.410  1.00  0.00     0.002 C 
BRANCH  25  26
ATOM     26  C   UNL A   1      33.990  28.943  26.019  1.00  0.00     0.021 C 
BRANCH  26  27
ATOM     27  C   UNL A   1      34.905  29.077  27.198  1.00  0.00     0.116 C 
BRANCH  27  28
ATOM     28  N   UNL A   1      35.439  30.430  27.251  1.00  0.00    -0.352 N 
ATOM     29  C   UNL A   1      36.480  30.836  28.050  1.00  0.00     0.251 C 
ATOM     30  H   UNL A   1      35.023  31.106  26.669  1.00  0.00     0.163 HD
ATOM     31  O   UNL A   1      36.585  31.979  28.449  1.00  0.00    -0.269 OA
BRANCH  29  32
ATOM     32  C   UNL A   1      37.488  29.808  28.340  1.00  0.00     0.039 A 
ATOM     33  C   UNL A   1      37.433  28.995  29.474  1.00  0.00     0.014 A 
ATOM     34  C   UNL A   1      38.516  29.692  27.407  1.00  0.00     0.014 A 
ATOM     35  C   UNL A   1      38.472  28.098  29.685  1.00  0.00     0.010 A 
ATOM     36  C   UNL A   1      39.346  28.629  27.461  1.00  0.00     0.010 A 
ATOM     37  C   UNL A   1      39.432  27.966  28.680  1.00  0.00    -0.014 A 
BRANCH  37  38
ATOM     38  C   UNL A   1      40.713  27.310  28.809  1.00  0.00     0.031 A 
ATOM     39  C   UNL A   1      40.816  25.887  28.531  1.00  0.00     0.074 A 
ATOM     40  C   UNL A   1      41.748  28.174  28.927  1.00  0.00     0.049 A 
ATOM     41  N   UNL A   1      41.773  25.142  28.944  1.00  0.00    -0.248 NA
ATOM     42  C   UNL A   1      39.792  25.168  27.783  1.00  0.00     0.031 C 
ATOM     43  C   UNL A   1      43.173  28.012  28.707  1.00  0.00     0.029 A 
ATOM     44  N   UNL A   1      41.637  29.501  29.387  1.00  0.00    -0.354 N 
ATOM     45  C   UNL A   1      41.692  23.968  28.228  1.00  0.00     0.074 A 
ATOM     46  C   UNL A   1      40.355  23.959  27.685  1.00  0.00     0.031 C 
ATOM     47  C   UNL A   1      43.812  29.019  29.341  1.00  0.00     0.029 A 
ATOM     48  C   UNL A   1      42.813  29.761  30.105  1.00  0.00     0.049 A 
ATOM     49  H   UNL A   1      40.887  30.120  29.235  1.00  0.00     0.167 HD
ATOM     50  C   UNL A   1      42.848  23.269  28.028  1.00  0.00     0.037 A 
ATOM     51  C   UNL A   1      42.689  29.799  31.468  1.00  0.00     0.037 A 
ATOM     52  C   UNL A   1      43.955  23.945  28.724  1.00  0.00     0.049 A 
ATOM     53  C   UNL A   1      43.315  28.590  32.130  1.00  0.00     0.074 A 
ATOM     54  C   UNL A   1      44.926  24.845  28.316  1.00  0.00     0.029 A 
ATOM     55  N   UNL A   1      43.915  24.033  30.104  1.00  0.00    -0.354 N 
ATOM     56  N   UNL A   1      43.710  27.525  31.489  1.00  0.00    -0.248 NA
ATOM     57  C   UNL A   1      43.460  28.461  33.577  1.00  0.00     0.031 C 
ATOM     58  C   UNL A   1      45.391  25.544  29.475  1.00  0.00     0.029 A 
ATOM     59  C   UNL A   1      44.719  25.053  30.582  1.00  0.00     0.049 A 
ATOM     60  H   UNL A   1      43.377  23.442  30.678  1.00  0.00     0.167 HD
ATOM     61  C   UNL A   1      44.154  26.595  32.377  1.00  0.00     0.074 A 
ATOM     62  C   UNL A   1      43.941  27.211  33.678  1.00  0.00     0.031 C 
ATOM     63  C   UNL A   1      44.662  25.386  32.000  1.00  0.00     0.037 A 
BRANCH  50  64
ATOM     64  C   UNL A   1      43.072  22.166  27.012  1.00  0.00     0.064 A 
ATOM     65  C   UNL A   1      42.327  20.969  27.112  1.00  0.00     0.173 A 
ATOM     66  C   UNL A   1      44.008  22.175  25.958  1.00  0.00     0.173 A 
ATOM     67  F   UNL A   1      41.335  20.837  28.004  1.00  0.00    -0.203 F 
ATOM     68  C   UNL A   1      42.562  19.859  26.294  1.00  0.00     0.198 A 
ATOM     69  C   UNL A   1      44.256  21.059  25.150  1.00  0.00     0.198 A 
ATOM     70  F   UNL A   1      44.699  23.265  25.623  1.00  0.00    -0.203 F 
ATOM     71  F   UNL A   1      41.830  18.749  26.459  1.00  0.00    -0.200 F 
ATOM     72  C   UNL A   1      43.540  19.897  25.325  1.00  0.00     0.200 A 
ATOM     73  F   UNL A   1      45.193  21.131  24.193  1.00  0.00    -0.200 F 
ATOM     74  F   UNL A   1      43.777  18.831  24.551  1.00  0.00    -0.200 F 
ENDBRANCH  50  64
BRANCH  51  75
ATOM     75  C   UNL A   1      41.378  30.408  31.893  1.00  0.00     0.064 A 
ATOM     76  C   UNL A   1      40.361  29.548  32.367  1.00  0.00     0.173 A 
ATOM     77  C   UNL A   1      41.269  31.765  32.226  1.00  0.00     0.173 A 
ATOM     78  F   UNL A   1      40.406  28.235  32.086  1.00  0.00    -0.203 F 
ATOM     79  C   UNL A   1      39.377  29.998  33.246  1.00  0.00     0.198 A 
ATOM     80  C   UNL A   1      40.257  32.219  33.074  1.00  0.00     0.198 A 
ATOM     81  F   UNL A   1      42.194  32.645  31.818  1.00  0.00    -0.203 F 
ATOM     82  F   UNL A   1      38.523  29.124  33.799  1.00  0.00    -0.200 F 
ATOM     83  C   UNL A   1      39.336  31.332  33.610  1.00  0.00     0.200 A 
ATOM     84  F   UNL A   1      40.229  33.508  33.444  1.00  0.00    -0.200 F 
ATOM     85  F   UNL A   1      38.430  31.759  34.499  1.00  0.00    -0.200 F 
ENDBRANCH  51  75
BRANCH  63  86
ATOM     86  C   UNL A   1      45.173  24.417  33.013  1.00  0.00     0.064 A 
ATOM     87  C   UNL A   1      46.486  24.497  33.500  1.00  0.00     0.173 A 
ATOM     88  C   UNL A   1      44.399  23.330  33.459  1.00  0.00     0.173 A 
ATOM     89  F   UNL A   1      47.319  25.460  33.074  1.00  0.00    -0.203 F 
ATOM     90  C   UNL A   1      46.969  23.588  34.437  1.00  0.00     0.198 A 
ATOM     91  C   UNL A   1      44.909  22.379  34.334  1.00  0.00     0.198 A 
ATOM     92  F   UNL A   1      43.120  23.178  33.086  1.00  0.00    -0.203 F 
ATOM     93  F   UNL A   1      48.196  23.752  34.948  1.00  0.00    -0.200 F 
ATOM     94  C   UNL A   1      46.186  22.523  34.843  1.00  0.00     0.200 A 
ATOM     95  F   UNL A   1      44.152  21.333  34.693  1.00  0.00    -0.200 F 
ATOM     96  F   UNL A   1      46.656  21.637  35.731  1.00  0.00    -0.200 F 
ENDBRANCH  63  86
ENDBRANCH  37  38
ENDBRANCH  29  32
ENDBRANCH  27  28
ENDBRANCH  26  27
ENDBRANCH  25  26
ENDBRANCH   1  25
TORSDOF 18
ENDMDL
MODEL 2
REMARK VINA RESULT:     -12.1      1.286      2.404
REMARK SMILES COCC[C@H](NC(=O)c1ccc(C)cc1F)C(=O)NCCCCCCNC(=O)c1ccc(-c2c3nc(c(-c4c(F)c(F)c(F)c(F)c4F)c4ccc([nH]4)c(-c4c(F)c(F)c(F)c(F)c4F)c4nc(c(-c5c(F)c(F)c(F)c(F)c5F)c5ccc2[nH]5)C=C4)C=C3)cc1
REMARK SMILES IDX 22 1 21 2 20 3 19 4 17 5 18 6 5 8 4 9 3 10 2 11 1 12 6 13
REMARK SMILES IDX 7 14 8 16 9 17 10 18 15 19 11 20 14 21 16 22 12 23 13 24
REMARK SMILES IDX 23 25 24 26 25 27 26 28 27 29 28 31 29 32 30 33 91 34 31 35
REMARK SMILES IDX 90 36 32 37 33 38 34 39 84 40 35 41 89 42 83 43 85 44 36 45
REMARK SMILES IDX 88 46 82 47 81 48 37 50 69 51 49 52 68 53 50 54 53 55 67 56
REMARK SMILES IDX 86 57 51 58 52 59 66 61 87 62 54 63 38 64 39 65 47 66 40 67
REMARK SMILES IDX 41 68 45 69 48 70 42 71 43 72 46 73 44 74 70 75 71 76 79 77
REMARK SMILES IDX 72 78 73 79 77 80 80 81 74 82 75 83 78 84 76 85 55 86 56 87
REMARK SMILES IDX 64 88 57 89 58 90 62 91 65 92 59 93 60 94 63 95 61 96
REMARK H PARENT 19 7 6 15 26 30 85 49 53 60
REMARK Flexibility Score: inf
ROOT
ATOM      1  C   UNL A   1      31.421  27.866  27.213  1.00  0.00     0.002 C 
ENDROOT
BRANCH   1   2
ATOM      2  C   UNL A   1      31.296  27.163  25.859  1.00  0.00     0.021 C 
BRANCH   2   3
ATOM      3  C   UNL A   1      30.685  25.766  25.947  1.00  0.00     0.116 C 
BRANCH   3   4
ATOM      4  N   UNL A   1      31.403  24.895  26.859  1.00  0.00    -0.354 N 
ATOM      5  C   UNL A   1      31.886  23.636  26.658  1.00  0.00     0.242 C 
ATOM      6  O   UNL A   1      32.519  23.102  27.571  1.00  0.00    -0.273 OA
ATOM      7  H   UNL A   1      31.565  25.268  27.755  1.00  0.00     0.163 HD
BRANCH   5   8
ATOM      8  C   UNL A   1      31.800  23.006  25.266  1.00  0.00     0.173 C 
BRANCH   8   9
ATOM      9  C   UNL A   1      32.697  21.746  25.408  1.00  0.00     0.063 C 
BRANCH   9  10
ATOM     10  C   UNL A   1      32.153  20.465  24.815  1.00  0.00     0.162 C 
BRANCH  10  11
ATOM     11  O   UNL A   1      32.827  20.178  23.595  1.00  0.00    -0.385 OA
ATOM     12  C   UNL A   1      32.151  20.735  22.474  1.00  0.00     0.194 C 
ENDBRANCH  10  11
ENDBRANCH   9  10
ENDBRANCH   8   9
BRANCH   8  13
ATOM     13  N   UNL A   1      32.223  23.908  24.179  1.00  0.00    -0.340 N 
ATOM     14  C   UNL A   1      33.464  24.366  23.789  1.00  0.00     0.254 C 
ATOM     15  H   UNL A   1      31.480  24.248  23.629  1.00  0.00     0.164 HD
ATOM     16  O   UNL A   1      33.516  25.299  22.989  1.00  0.00    -0.269 OA
BRANCH  14  17
ATOM     17  C   UNL A   1      34.727  23.738  24.241  1.00  0.00     0.075 A 
ATOM     18  C   UNL A   1      35.397  22.800  23.457  1.00  0.00     0.017 A 
ATOM     19  C   UNL A   1      35.360  24.183  25.398  1.00  0.00     0.136 A 
ATOM     20  C   UNL A   1      36.584  22.204  23.876  1.00  0.00     0.004 A 
ATOM     21  C   UNL A   1      36.570  23.616  25.819  1.00  0.00     0.043 A 
ATOM     22  F   UNL A   1      34.824  25.158  26.147  1.00  0.00    -0.206 F 
ATOM     23  C   UNL A   1      37.167  22.584  25.081  1.00  0.00    -0.048 A 
ATOM     24  C   UNL A   1      38.422  21.914  25.550  1.00  0.00     0.044 C 
ENDBRANCH  14  17
ENDBRANCH   8  13
ENDBRANCH   5   8
ENDBRANCH   3   4
ENDBRANCH   2   3
ENDBRANCH   1   2
BRANCH   1  25
ATOM     25  C   UNL A   1      32.291  29.128  27.187  1.00  0.00     0.002 C 
BRANCH  25  26
ATOM     26  C   UNL A   1      33.557  29.021  26.334  1.00  0.00     0.021 C 
BRANCH  26  27
ATOM     27  C   UNL A   1      34.786  29.069  27.192  1.00  0.00     0.116 C 
BRANCH  27  28
ATOM     28  N   UNL A   1      35.307  30.427  27.222  1.00  0.00    -0.352 N 
ATOM     29  C   UNL A   1      36.348  30.855  28.010  1.00  0.00     0.251 C 
ATOM     30  H   UNL A   1      34.882  31.091  26.633  1.00  0.00     0.163 HD
ATOM     31  O   UNL A   1      36.444  32.004  28.393  1.00  0.00    -0.269 OA
BRANCH  29  32
ATOM     32  C   UNL A   1      37.367  29.840  28.311  1.00  0.00     0.039 A 
ATOM     33  C   UNL A   1      37.339  29.062  29.469  1.00  0.00     0.014 A 
ATOM     34  C   UNL A   1      38.377  29.701  27.361  1.00  0.00     0.014 A 
ATOM     35  C   UNL A   1      38.386  28.175  29.686  1.00  0.00     0.010 A 
ATOM     36  C   UNL A   1      39.213  28.644  27.430  1.00  0.00     0.010 A 
ATOM     37  C   UNL A   1      39.327  28.018  28.666  1.00  0.00    -0.014 A 
BRANCH  37  38
ATOM     38  C   UNL A   1      40.614  27.372  28.789  1.00  0.00     0.031 A 
ATOM     39  C   UNL A   1      40.724  25.947  28.524  1.00  0.00     0.074 A 
ATOM     40  C   UNL A   1      41.644  28.244  28.887  1.00  0.00     0.049 A 
ATOM     41  N   UNL A   1      41.690  25.213  28.935  1.00  0.00    -0.248 NA
ATOM     42  C   UNL A   1      39.697  25.213  27.795  1.00  0.00     0.031 C 
ATOM     43  C   UNL A   1      43.068  28.090  28.654  1.00  0.00     0.029 A 
ATOM     44  N   UNL A   1      41.529  29.575  29.335  1.00  0.00    -0.354 N 
ATOM     45  C   UNL A   1      41.610  24.031  28.232  1.00  0.00     0.074 A 
ATOM     46  C   UNL A   1      40.267  24.008  27.703  1.00  0.00     0.031 C 
ATOM     47  C   UNL A   1      43.706  29.108  29.271  1.00  0.00     0.029 A 
ATOM     48  C   UNL A   1      42.710  29.850  30.038  1.00  0.00     0.049 A 
ATOM     49  H   UNL A   1      40.773  30.188  29.184  1.00  0.00     0.167 HD
ATOM     50  C   UNL A   1      42.768  23.338  28.027  1.00  0.00     0.037 A 
ATOM     51  C   UNL A   1      42.600  29.902  31.401  1.00  0.00     0.037 A 
ATOM     52  C   UNL A   1      43.877  24.028  28.704  1.00  0.00     0.049 A 
ATOM     53  C   UNL A   1      43.240  28.704  32.070  1.00  0.00     0.074 A 
ATOM     54  C   UNL A   1      44.838  24.931  28.277  1.00  0.00     0.029 A 
ATOM     55  N   UNL A   1      43.851  24.131  30.084  1.00  0.00    -0.354 N 
ATOM     56  N   UNL A   1      43.637  27.635  31.435  1.00  0.00    -0.248 NA
ATOM     57  C   UNL A   1      43.401  28.591  33.516  1.00  0.00     0.031 C 
ATOM     58  C   UNL A   1      45.310  25.645  29.425  1.00  0.00     0.029 A 
ATOM     59  C   UNL A   1      44.653  25.160  30.543  1.00  0.00     0.049 A 
ATOM     60  H   UNL A   1      43.323  23.542  30.670  1.00  0.00     0.167 HD
ATOM     61  C   UNL A   1      44.096  26.718  32.329  1.00  0.00     0.074 A 
ATOM     62  C   UNL A   1      43.892  27.345  33.625  1.00  0.00     0.031 C 
ATOM     63  C   UNL A   1      44.608  25.508  31.958  1.00  0.00     0.037 A 
BRANCH  50  64
ATOM     64  C   UNL A   1      42.990  22.226  27.020  1.00  0.00     0.064 A 
ATOM     65  C   UNL A   1      42.239  21.033  27.129  1.00  0.00     0.173 A 
ATOM     66  C   UNL A   1      43.926  22.223  25.968  1.00  0.00     0.173 A 
ATOM     67  F   UNL A   1      41.245  20.912  28.020  1.00  0.00    -0.203 F 
ATOM     68  C   UNL A   1      42.470  19.915  26.320  1.00  0.00     0.198 A 
ATOM     69  C   UNL A   1      44.171  21.100  25.169  1.00  0.00     0.198 A 
ATOM     70  F   UNL A   1      44.622  23.307  25.625  1.00  0.00    -0.203 F 
ATOM     71  F   UNL A   1      41.734  18.810  26.492  1.00  0.00    -0.200 F 
ATOM     72  C   UNL A   1      43.451  19.942  25.352  1.00  0.00     0.200 A 
ATOM     73  F   UNL A   1      45.111  21.160  24.213  1.00  0.00    -0.200 F 
ATOM     74  F   UNL A   1      43.684  18.869  24.587  1.00  0.00    -0.200 F 
ENDBRANCH  50  64
BRANCH  51  75
ATOM     75  C   UNL A   1      41.289  30.506  31.834  1.00  0.00     0.064 A 
ATOM     76  C   UNL A   1      40.295  29.648  32.357  1.00  0.00     0.173 A 
ATOM     77  C   UNL A   1      41.167  31.872  32.125  1.00  0.00     0.173 A 
ATOM     78  F   UNL A   1      40.353  28.328  32.117  1.00  0.00    -0.203 F 
ATOM     79  C   UNL A   1      39.322  30.113  33.241  1.00  0.00     0.198 A 
ATOM     80  C   UNL A   1      40.166  32.339  32.979  1.00  0.00     0.198 A 
ATOM     81  F   UNL A   1      42.071  32.750  31.669  1.00  0.00    -0.203 F 
ATOM     82  F   UNL A   1      38.492  29.246  33.840  1.00  0.00    -0.200 F 
ATOM     83  C   UNL A   1      39.269  31.458  33.562  1.00  0.00     0.200 A 
ATOM     84  F   UNL A   1      40.127  33.640  33.307  1.00  0.00    -0.200 F 
ATOM     85  F   UNL A   1      38.375  31.901  34.455  1.00  0.00    -0.200 F 
ENDBRANCH  51  75
BRANCH  63  86
ATOM     86  C   UNL A   1      45.136  24.553  32.976  1.00  0.00     0.064 A 
ATOM     87  C   UNL A   1      46.452  24.648  33.452  1.00  0.00     0.173 A 
ATOM     88  C   UNL A   1      44.375  23.463  33.438  1.00  0.00     0.173 A 
ATOM     89  F   UNL A   1      47.273  25.615  33.010  1.00  0.00    -0.203 F 
ATOM     90  C   UNL A   1      46.951  23.753  34.393  1.00  0.00     0.198 A 
ATOM     91  C   UNL A   1      44.901  22.525  34.318  1.00  0.00     0.198 A 
ATOM     92  F   UNL A   1      43.094  23.296  33.077  1.00  0.00    -0.203 F 
ATOM     93  F   UNL A   1      48.180  23.933  34.892  1.00  0.00    -0.200 F 
ATOM     94  C   UNL A   1      46.180  22.684  34.815  1.00  0.00     0.200 A 
ATOM     95  F   UNL A   1      44.156  21.476  34.692  1.00  0.00    -0.200 F 
ATOM     96  F   UNL A   1      46.666  21.812  35.706  1.00  0.00    -0.200 F 
ENDBRANCH  63  86
ENDBRANCH  37  38
ENDBRANCH  29  32
ENDBRANCH  27  28
ENDBRANCH  26  27
ENDBRANCH  25  26
ENDBRANCH   1  25
TORSDOF 18
ENDMDL
MODEL 3
REMARK VINA RESULT:     -12.0      3.778      9.946
REMARK SMILES COCC[C@H](NC(=O)c1ccc(C)cc1F)C(=O)NCCCCCCNC(=O)c1ccc(-c2c3nc(c(-c4c(F)c(F)c(F)c(F)c4F)c4ccc([nH]4)c(-c4c(F)c(F)c(F)c(F)c4F)c4nc(c(-c5c(F)c(F)c(F)c(F)c5F)c5ccc2[nH]5)C=C4)C=C3)cc1
REMARK SMILES IDX 22 1 21 2 20 3 19 4 17 5 18 6 5 8 4 9 3 10 2 11 1 12 6 13
REMARK SMILES IDX 7 14 8 16 9 17 10 18 15 19 11 20 14 21 16 22 12 23 13 24
REMARK SMILES IDX 23 25 24 26 25 27 26 28 27 29 28 31 29 32 30 33 91 34 31 35
REMARK SMILES IDX 90 36 32 37 33 38 34 39 84 40 35 41 89 42 83 43 85 44 36 45
REMARK SMILES IDX 88 46 82 47 81 48 37 50 69 51 49 52 68 53 50 54 53 55 67 56
REMARK SMILES IDX 86 57 51 58 52 59 66 61 87 62 54 63 38 64 39 65 47 66 40 67
REMARK SMILES IDX 41 68 45 69 48 70 42 71 43 72 46 73 44 74 70 75 71 76 79 77
REMARK SMILES IDX 72 78 73 79 77 80 80 81 74 82 75 83 78 84 76 85 55 86 56 87
REMARK SMILES IDX 64 88 57 89 58 90 62 91 65 92 59 93 60 94 63 95 61 96
REMARK H PARENT 19 7 6 15 26 30 85 49 53 60
REMARK Flexibility Score: inf
ROOT
ATOM      1  C   UNL A   1      34.426  22.990  26.964  1.00  0.00     0.002 C 
ENDROOT
BRANCH   1   2
ATOM      2  C   UNL A   1      32.988  23.490  26.815  1.00  0.00     0.021 C 
BRANCH   2   3
ATOM      3  C   UNL A   1      32.888  24.955  26.394  1.00  0.00     0.116 C 
BRANCH   3   4
ATOM      4  N   UNL A   1      31.524  25.370  26.124  1.00  0.00    -0.354 N 
ATOM      5  C   UNL A   1      31.060  26.321  25.263  1.00  0.00     0.242 C 
ATOM      6  O   UNL A   1      29.840  26.466  25.159  1.00  0.00    -0.273 OA
ATOM      7  H   UNL A   1      30.832  24.896  26.638  1.00  0.00     0.163 HD
BRANCH   5   8
ATOM      8  C   UNL A   1      32.036  27.034  24.325  1.00  0.00     0.173 C 
BRANCH   8   9
ATOM      9  C   UNL A   1      31.878  28.522  24.739  1.00  0.00     0.063 C 
BRANCH   9  10
ATOM     10  C   UNL A   1      33.158  29.305  24.930  1.00  0.00     0.162 C 
BRANCH  10  11
ATOM     11  O   UNL A   1      33.252  29.749  26.278  1.00  0.00    -0.385 OA
ATOM     12  C   UNL A   1      33.619  28.693  27.158  1.00  0.00     0.194 C 
ENDBRANCH  10  11
ENDBRANCH   9  10
ENDBRANCH   8   9
BRANCH   8  13
ATOM     13  N   UNL A   1      31.770  26.790  22.895  1.00  0.00    -0.340 N 
ATOM     14  C   UNL A   1      32.031  25.710  22.078  1.00  0.00     0.254 C 
ATOM     15  H   UNL A   1      31.321  27.538  22.439  1.00  0.00     0.164 HD
ATOM     16  O   UNL A   1      31.913  25.858  20.862  1.00  0.00    -0.269 OA
BRANCH  14  17
ATOM     17  C   UNL A   1      32.381  24.372  22.606  1.00  0.00     0.075 A 
ATOM     18  C   UNL A   1      33.709  23.972  22.756  1.00  0.00     0.017 A 
ATOM     19  C   UNL A   1      31.392  23.533  23.110  1.00  0.00     0.136 A 
ATOM     20  C   UNL A   1      34.045  22.713  23.250  1.00  0.00     0.004 A 
ATOM     21  C   UNL A   1      31.716  22.277  23.640  1.00  0.00     0.043 A 
ATOM     22  F   UNL A   1      30.102  23.899  23.095  1.00  0.00    -0.206 F 
ATOM     23  C   UNL A   1      33.047  21.838  23.667  1.00  0.00    -0.048 A 
ATOM     24  C   UNL A   1      33.409  20.471  24.162  1.00  0.00     0.044 C 
ENDBRANCH  14  17
ENDBRANCH   8  13
ENDBRANCH   5   8
ENDBRANCH   3   4
ENDBRANCH   2   3
ENDBRANCH   1   2
BRANCH   1  25
ATOM     25  C   UNL A   1      35.462  23.817  26.192  1.00  0.00     0.002 C 
BRANCH  25  26
ATOM     26  C   UNL A   1      36.809  23.125  25.976  1.00  0.00     0.021 C 
BRANCH  26  27
ATOM     27  C   UNL A   1      37.942  24.087  26.171  1.00  0.00     0.116 C 
BRANCH  27  28
ATOM     28  N   UNL A   1      38.985  23.459  26.968  1.00  0.00    -0.352 N 
ATOM     29  C   UNL A   1      40.107  24.094  27.440  1.00  0.00     0.251 C 
ATOM     30  H   UNL A   1      38.878  22.505  27.187  1.00  0.00     0.163 HD
ATOM     31  O   UNL A   1      41.149  23.504  27.648  1.00  0.00    -0.269 OA
BRANCH  29  32
ATOM     32  C   UNL A   1      39.945  25.525  27.730  1.00  0.00     0.039 A 
ATOM     33  C   UNL A   1      40.169  26.519  26.776  1.00  0.00     0.014 A 
ATOM     34  C   UNL A   1      39.551  25.835  29.030  1.00  0.00     0.014 A 
ATOM     35  C   UNL A   1      40.048  27.845  27.174  1.00  0.00     0.010 A 
ATOM     36  C   UNL A   1      39.148  27.089  29.321  1.00  0.00     0.010 A 
ATOM     37  C   UNL A   1      39.573  28.096  28.463  1.00  0.00    -0.014 A 
BRANCH  37  38
ATOM     38  C   UNL A   1      39.631  29.362  29.158  1.00  0.00     0.031 A 
ATOM     39  C   UNL A   1      38.605  30.360  28.906  1.00  0.00     0.074 A 
ATOM     40  C   UNL A   1      40.514  29.371  30.183  1.00  0.00     0.049 A 
ATOM     41  N   UNL A   1      38.736  31.607  29.168  1.00  0.00    -0.248 NA
ATOM     42  C   UNL A   1      37.333  30.022  28.279  1.00  0.00     0.031 C 
ATOM     43  C   UNL A   1      40.639  30.231  31.345  1.00  0.00     0.029 A 
ATOM     44  N   UNL A   1      41.620  28.505  30.298  1.00  0.00    -0.354 N 
ATOM     45  C   UNL A   1      37.476  32.157  29.096  1.00  0.00     0.074 A 
ATOM     46  C   UNL A   1      36.695  31.194  28.357  1.00  0.00     0.031 C 
ATOM     47  C   UNL A   1      41.891  30.096  31.834  1.00  0.00     0.029 A 
ATOM     48  C   UNL A   1      42.637  29.256  30.902  1.00  0.00     0.049 A 
ATOM     49  H   UNL A   1      41.668  27.564  30.012  1.00  0.00     0.167 HD
ATOM     50  C   UNL A   1      37.224  33.263  29.857  1.00  0.00     0.037 A 
ATOM     51  C   UNL A   1      43.660  29.653  30.083  1.00  0.00     0.037 A 
ATOM     52  C   UNL A   1      38.452  33.661  30.562  1.00  0.00     0.049 A 
ATOM     53  C   UNL A   1      43.615  31.139  29.797  1.00  0.00     0.074 A 
ATOM     54  C   UNL A   1      38.941  33.415  31.835  1.00  0.00     0.029 A 
ATOM     55  N   UNL A   1      39.541  34.077  29.814  1.00  0.00    -0.354 N 
ATOM     56  N   UNL A   1      42.605  31.912  30.088  1.00  0.00    -0.248 NA
ATOM     57  C   UNL A   1      44.674  31.845  29.083  1.00  0.00     0.031 C 
ATOM     58  C   UNL A   1      40.361  33.595  31.802  1.00  0.00     0.029 A 
ATOM     59  C   UNL A   1      40.726  33.970  30.519  1.00  0.00     0.049 A 
ATOM     60  H   UNL A   1      39.479  34.408  28.889  1.00  0.00     0.167 HD
ATOM     61  C   UNL A   1      42.848  33.171  29.635  1.00  0.00     0.074 A 
ATOM     62  C   UNL A   1      44.141  33.073  28.976  1.00  0.00     0.031 C 
ATOM     63  C   UNL A   1      41.982  34.210  29.821  1.00  0.00     0.037 A 
BRANCH  50  64
ATOM     64  C   UNL A   1      35.861  33.828  30.207  1.00  0.00     0.064 A 
ATOM     65  C   UNL A   1      35.051  34.368  29.182  1.00  0.00     0.173 A 
ATOM     66  C   UNL A   1      35.297  33.921  31.495  1.00  0.00     0.173 A 
ATOM     67  F   UNL A   1      35.403  34.275  27.892  1.00  0.00    -0.203 F 
ATOM     68  C   UNL A   1      33.839  35.019  29.436  1.00  0.00     0.198 A 
ATOM     69  C   UNL A   1      34.094  34.588  31.754  1.00  0.00     0.198 A 
ATOM     70  F   UNL A   1      35.849  33.343  32.562  1.00  0.00    -0.203 F 
ATOM     71  F   UNL A   1      33.133  35.526  28.417  1.00  0.00    -0.200 F 
ATOM     72  C   UNL A   1      33.370  35.147  30.726  1.00  0.00     0.200 A 
ATOM     73  F   UNL A   1      33.642  34.673  33.014  1.00  0.00    -0.200 F 
ATOM     74  F   UNL A   1      32.218  35.782  30.974  1.00  0.00    -0.200 F 
ENDBRANCH  50  64
BRANCH  51  75
ATOM     75  C   UNL A   1      43.986  28.607  29.049  1.00  0.00     0.064 A 
ATOM     76  C   UNL A   1      44.342  27.313  29.492  1.00  0.00     0.173 A 
ATOM     77  C   UNL A   1      43.564  28.730  27.718  1.00  0.00     0.173 A 
ATOM     78  F   UNL A   1      44.753  27.125  30.757  1.00  0.00    -0.203 F 
ATOM     79  C   UNL A   1      44.143  26.188  28.692  1.00  0.00     0.198 A 
ATOM     80  C   UNL A   1      43.405  27.604  26.907  1.00  0.00     0.198 A 
ATOM     81  F   UNL A   1      43.206  29.922  27.221  1.00  0.00    -0.203 F 
ATOM     82  F   UNL A   1      44.343  24.962  29.199  1.00  0.00    -0.200 F 
ATOM     83  C   UNL A   1      43.660  26.335  27.404  1.00  0.00     0.200 A 
ATOM     84  F   UNL A   1      42.917  27.743  25.665  1.00  0.00    -0.200 F 
ATOM     85  F   UNL A   1      43.412  25.255  26.652  1.00  0.00    -0.200 F 
ENDBRANCH  51  75
BRANCH  63  86
ATOM     86  C   UNL A   1      42.315  35.583  29.339  1.00  0.00     0.064 A 
ATOM     87  C   UNL A   1      41.827  36.064  28.115  1.00  0.00     0.173 A 
ATOM     88  C   UNL A   1      43.201  36.423  30.040  1.00  0.00     0.173 A 
ATOM     89  F   UNL A   1      41.034  35.302  27.345  1.00  0.00    -0.203 F 
ATOM     90  C   UNL A   1      42.144  37.339  27.658  1.00  0.00     0.198 A 
ATOM     91  C   UNL A   1      43.578  37.665  29.544  1.00  0.00     0.198 A 
ATOM     92  F   UNL A   1      43.696  36.078  31.238  1.00  0.00    -0.203 F 
ATOM     93  F   UNL A   1      41.585  37.797  26.531  1.00  0.00    -0.200 F 
ATOM     94  C   UNL A   1      43.030  38.133  28.365  1.00  0.00     0.200 A 
ATOM     95  F   UNL A   1      44.462  38.409  30.221  1.00  0.00    -0.200 F 
ATOM     96  F   UNL A   1      43.350  39.353  27.917  1.00  0.00    -0.200 F 
ENDBRANCH  63  86
ENDBRANCH  37  38
ENDBRANCH  29  32
ENDBRANCH  27  28
ENDBRANCH  26  27
ENDBRANCH  25  26
ENDBRANCH   1  25
TORSDOF 18
ENDMDL
