MODEL 1
REMARK VINA RESULT:     -11.0      0.000      0.000
REMARK SMILES C[C@@H]1[C@H](C(=O)NCCCCCCNC(=O)c2ccc(-c3c4nc(c(-c5c(F)c(F)c(F)c(F)c5F)c5ccc([nH]5)c(-c5c(F)c(F)c(F)c(F)c5F)c5nc(c(-c6c(F)c(F)c(F)c(F)c6F)c6ccc3[nH]6)C=C5)C=C4)cc2)CCN1C(=O)COCc1ccccc1
REMARK SMILES IDX 8 1 7 2 6 3 4 4 5 5 3 7 1 8 2 9 81 10 79 11 80 12 82 13
REMARK SMILES IDX 83 14 84 15 85 16 86 17 87 18 88 19 92 20 89 21 91 22 90 23
REMARK SMILES IDX 9 24 10 25 11 26 12 27 13 28 14 29 15 31 16 32 17 33 78 34
REMARK SMILES IDX 18 35 77 36 19 37 20 38 21 39 71 40 22 41 76 42 70 43 72 44
REMARK SMILES IDX 23 45 75 46 69 47 68 48 24 50 56 51 36 52 55 53 37 54 40 55
REMARK SMILES IDX 54 56 73 57 38 58 39 59 53 61 74 62 41 63 25 64 26 65 34 66
REMARK SMILES IDX 27 67 28 68 32 69 35 70 29 71 30 72 33 73 31 74 57 75 58 76
REMARK SMILES IDX 66 77 59 78 60 79 64 80 67 81 61 82 62 83 65 84 63 85 42 86
REMARK SMILES IDX 43 87 51 88 44 89 45 90 49 91 52 92 46 93 47 94 50 95 48 96
REMARK H PARENT 6 6 13 30 72 49 40 60
REMARK Flexibility Score: inf
ROOT
ATOM      1  C   UNL A   1      39.063  21.757  26.020  1.00  0.00     0.021 C 
ENDROOT
BRANCH   1   2
ATOM      2  C   UNL A   1      38.040  22.894  25.972  1.00  0.00     0.116 C 
BRANCH   2   3
ATOM      3  N   UNL A   1      37.506  23.071  24.635  1.00  0.00    -0.356 N 
ATOM      4  C   UNL A   1      36.270  22.858  24.114  1.00  0.00     0.225 C 
ATOM      5  O   UNL A   1      36.149  23.005  22.892  1.00  0.00    -0.275 OA
ATOM      6  H   UNL A   1      38.162  23.409  23.984  1.00  0.00     0.163 HD
BRANCH   4   7
ATOM      7  C   UNL A   1      35.059  22.458  24.941  1.00  0.00     0.102 C 
ATOM      8  C   UNL A   1      34.634  24.988  25.451  1.00  0.00     0.032 C 
ATOM      9  C   UNL A   1      34.352  23.533  25.800  1.00  0.00     0.094 C 
ATOM     10  N   UNL A   1      32.925  23.160  25.737  1.00  0.00    -0.337 N 
ATOM     11  C   UNL A   1      33.965  21.722  24.169  1.00  0.00     0.037 C 
ATOM     12  C   UNL A   1      32.725  21.920  25.011  1.00  0.00     0.121 C 
BRANCH  10  13
ATOM     13  C   UNL A   1      31.863  23.667  26.464  1.00  0.00     0.248 C 
ATOM     14  O   UNL A   1      31.861  23.641  27.698  1.00  0.00    -0.272 OA
BRANCH  13  15
ATOM     15  C   UNL A   1      30.653  24.228  25.710  1.00  0.00     0.260 C 
BRANCH  15  16
ATOM     16  O   UNL A   1      30.142  25.483  26.140  1.00  0.00    -0.367 OA
BRANCH  16  17
ATOM     17  C   UNL A   1      30.368  26.544  25.208  1.00  0.00     0.196 C 
BRANCH  17  18
ATOM     18  C   UNL A   1      31.567  27.368  25.592  1.00  0.00    -0.022 A 
ATOM     19  C   UNL A   1      32.421  27.881  24.607  1.00  0.00     0.006 A 
ATOM     20  C   UNL A   1      31.879  27.572  26.944  1.00  0.00     0.006 A 
ATOM     21  C   UNL A   1      33.583  28.561  24.970  1.00  0.00     0.000 A 
ATOM     22  C   UNL A   1      33.045  28.247  27.304  1.00  0.00     0.000 A 
ATOM     23  C   UNL A   1      33.897  28.737  26.317  1.00  0.00     0.000 A 
ENDBRANCH  17  18
ENDBRANCH  16  17
ENDBRANCH  15  16
ENDBRANCH  13  15
ENDBRANCH  10  13
ENDBRANCH   4   7
ENDBRANCH   2   3
ENDBRANCH   1   2
BRANCH   1  24
ATOM     24  C   UNL A   1      40.378  22.102  26.720  1.00  0.00     0.002 C 
BRANCH  24  25
ATOM     25  C   UNL A   1      41.191  20.902  27.212  1.00  0.00     0.002 C 
BRANCH  25  26
ATOM     26  C   UNL A   1      41.447  19.806  26.175  1.00  0.00     0.021 C 
BRANCH  26  27
ATOM     27  C   UNL A   1      42.677  18.938  26.426  1.00  0.00     0.116 C 
BRANCH  27  28
ATOM     28  N   UNL A   1      43.460  18.723  25.224  1.00  0.00    -0.352 N 
ATOM     29  C   UNL A   1      44.184  19.616  24.477  1.00  0.00     0.251 C 
ATOM     30  H   UNL A   1      43.474  17.795  24.895  1.00  0.00     0.163 HD
ATOM     31  O   UNL A   1      44.647  19.276  23.392  1.00  0.00    -0.269 OA
BRANCH  29  32
ATOM     32  C   UNL A   1      44.398  20.998  24.961  1.00  0.00     0.039 A 
ATOM     33  C   UNL A   1      43.799  22.048  24.261  1.00  0.00     0.014 A 
ATOM     34  C   UNL A   1      45.217  21.266  26.062  1.00  0.00     0.014 A 
ATOM     35  C   UNL A   1      43.986  23.364  24.689  1.00  0.00     0.010 A 
ATOM     36  C   UNL A   1      45.353  22.574  26.526  1.00  0.00     0.010 A 
ATOM     37  C   UNL A   1      44.749  23.636  25.836  1.00  0.00    -0.014 A 
BRANCH  37  38
ATOM     38  C   UNL A   1      44.940  25.032  26.304  1.00  0.00     0.031 A 
ATOM     39  C   UNL A   1      46.293  25.681  26.218  1.00  0.00     0.074 A 
ATOM     40  C   UNL A   1      43.902  25.702  26.839  1.00  0.00     0.049 A 
ATOM     41  N   UNL A   1      46.660  26.881  26.591  1.00  0.00    -0.248 NA
ATOM     42  C   UNL A   1      47.383  24.867  25.660  1.00  0.00     0.031 C 
ATOM     43  C   UNL A   1      42.552  25.165  27.019  1.00  0.00     0.029 A 
ATOM     44  N   UNL A   1      43.821  26.981  27.332  1.00  0.00    -0.354 N 
ATOM     45  C   UNL A   1      48.021  26.960  26.323  1.00  0.00     0.074 A 
ATOM     46  C   UNL A   1      48.426  25.672  25.804  1.00  0.00     0.031 C 
ATOM     47  C   UNL A   1      41.771  26.114  27.560  1.00  0.00     0.029 A 
ATOM     48  C   UNL A   1      42.570  27.316  27.790  1.00  0.00     0.049 A 
ATOM     49  H   UNL A   1      44.586  27.599  27.355  1.00  0.00     0.167 HD
ATOM     50  C   UNL A   1      48.852  28.020  26.472  1.00  0.00     0.037 A 
ATOM     51  C   UNL A   1      42.119  28.463  28.332  1.00  0.00     0.037 A 
ATOM     52  C   UNL A   1      48.442  29.310  26.960  1.00  0.00     0.049 A 
ATOM     53  C   UNL A   1      43.061  29.626  28.480  1.00  0.00     0.074 A 
ATOM     54  C   UNL A   1      49.194  30.464  27.088  1.00  0.00     0.029 A 
ATOM     55  N   UNL A   1      47.162  29.615  27.402  1.00  0.00    -0.354 N 
ATOM     56  N   UNL A   1      44.329  29.711  28.155  1.00  0.00    -0.248 NA
ATOM     57  C   UNL A   1      42.507  30.857  29.061  1.00  0.00     0.031 C 
ATOM     58  C   UNL A   1      48.380  31.457  27.644  1.00  0.00     0.029 A 
ATOM     59  C   UNL A   1      47.110  30.934  27.822  1.00  0.00     0.049 A 
ATOM     60  H   UNL A   1      46.405  28.987  27.415  1.00  0.00     0.167 HD
ATOM     61  C   UNL A   1      44.717  31.007  28.470  1.00  0.00     0.074 A 
ATOM     62  C   UNL A   1      43.546  31.677  28.996  1.00  0.00     0.031 C 
ATOM     63  C   UNL A   1      45.935  31.587  28.340  1.00  0.00     0.037 A 
BRANCH  50  64
ATOM     64  C   UNL A   1      50.291  27.829  26.094  1.00  0.00     0.064 A 
ATOM     65  C   UNL A   1      50.716  27.909  24.758  1.00  0.00     0.173 A 
ATOM     66  C   UNL A   1      51.264  27.600  27.080  1.00  0.00     0.173 A 
ATOM     67  F   UNL A   1      49.824  28.114  23.777  1.00  0.00    -0.203 F 
ATOM     68  C   UNL A   1      52.056  27.738  24.421  1.00  0.00     0.198 A 
ATOM     69  C   UNL A   1      52.607  27.458  26.741  1.00  0.00     0.198 A 
ATOM     70  F   UNL A   1      50.912  27.521  28.371  1.00  0.00    -0.203 F 
ATOM     71  F   UNL A   1      52.431  27.772  23.135  1.00  0.00    -0.200 F 
ATOM     72  C   UNL A   1      53.001  27.520  25.412  1.00  0.00     0.200 A 
ATOM     73  F   UNL A   1      53.521  27.259  27.700  1.00  0.00    -0.200 F 
ATOM     74  F   UNL A   1      54.291  27.363  25.087  1.00  0.00    -0.200 F 
ENDBRANCH  50  64
BRANCH  51  75
ATOM     75  C   UNL A   1      40.697  28.579  28.743  1.00  0.00     0.064 A 
ATOM     76  C   UNL A   1      39.724  29.037  27.843  1.00  0.00     0.173 A 
ATOM     77  C   UNL A   1      40.282  28.240  30.038  1.00  0.00     0.173 A 
ATOM     78  F   UNL A   1      40.077  29.393  26.600  1.00  0.00    -0.203 F 
ATOM     79  C   UNL A   1      38.392  29.168  28.230  1.00  0.00     0.198 A 
ATOM     80  C   UNL A   1      38.945  28.347  30.417  1.00  0.00     0.198 A 
ATOM     81  F   UNL A   1      41.174  27.792  30.934  1.00  0.00    -0.203 F 
ATOM     82  F   UNL A   1      37.490  29.648  27.364  1.00  0.00    -0.200 F 
ATOM     83  C   UNL A   1      38.003  28.818  29.515  1.00  0.00     0.200 A 
ATOM     84  F   UNL A   1      38.571  27.995  31.654  1.00  0.00    -0.200 F 
ATOM     85  F   UNL A   1      36.721  28.941  29.885  1.00  0.00    -0.200 F 
ENDBRANCH  51  75
BRANCH  63  86
ATOM     86  C   UNL A   1      46.056  33.025  28.749  1.00  0.00     0.064 A 
ATOM     87  C   UNL A   1      46.427  33.387  30.051  1.00  0.00     0.173 A 
ATOM     88  C   UNL A   1      45.831  34.050  27.818  1.00  0.00     0.173 A 
ATOM     89  F   UNL A   1      46.638  32.443  30.981  1.00  0.00    -0.203 F 
ATOM     90  C   UNL A   1      46.547  34.726  30.415  1.00  0.00     0.198 A 
ATOM     91  C   UNL A   1      45.977  35.387  28.178  1.00  0.00     0.198 A 
ATOM     92  F   UNL A   1      45.478  33.755  26.558  1.00  0.00    -0.203 F 
ATOM     93  F   UNL A   1      46.858  35.051  31.676  1.00  0.00    -0.200 F 
ATOM     94  C   UNL A   1      46.328  35.724  29.476  1.00  0.00     0.200 A 
ATOM     95  F   UNL A   1      45.776  36.350  27.267  1.00  0.00    -0.200 F 
ATOM     96  F   UNL A   1      46.447  37.012  29.826  1.00  0.00    -0.200 F 
ENDBRANCH  63  86
ENDBRANCH  37  38
ENDBRANCH  29  32
ENDBRANCH  27  28
ENDBRANCH  26  27
ENDBRANCH  25  26
ENDBRANCH  24  25
ENDBRANCH   1  24
TORSDOF 18
ENDMDL
MODEL 2
REMARK VINA RESULT:     -10.5      1.448      3.123
REMARK SMILES C[C@@H]1[C@H](C(=O)NCCCCCCNC(=O)c2ccc(-c3c4nc(c(-c5c(F)c(F)c(F)c(F)c5F)c5ccc([nH]5)c(-c5c(F)c(F)c(F)c(F)c5F)c5nc(c(-c6c(F)c(F)c(F)c(F)c6F)c6ccc3[nH]6)C=C5)C=C4)cc2)CCN1C(=O)COCc1ccccc1
REMARK SMILES IDX 8 1 7 2 6 3 4 4 5 5 3 7 1 8 2 9 81 10 79 11 80 12 82 13
REMARK SMILES IDX 83 14 84 15 85 16 86 17 87 18 88 19 92 20 89 21 91 22 90 23
REMARK SMILES IDX 9 24 10 25 11 26 12 27 13 28 14 29 15 31 16 32 17 33 78 34
REMARK SMILES IDX 18 35 77 36 19 37 20 38 21 39 71 40 22 41 76 42 70 43 72 44
REMARK SMILES IDX 23 45 75 46 69 47 68 48 24 50 56 51 36 52 55 53 37 54 40 55
REMARK SMILES IDX 54 56 73 57 38 58 39 59 53 61 74 62 41 63 25 64 26 65 34 66
REMARK SMILES IDX 27 67 28 68 32 69 35 70 29 71 30 72 33 73 31 74 57 75 58 76
REMARK SMILES IDX 66 77 59 78 60 79 64 80 67 81 61 82 62 83 65 84 63 85 42 86
REMARK SMILES IDX 43 87 51 88 44 89 45 90 49 91 52 92 46 93 47 94 50 95 48 96
REMARK H PARENT 6 6 13 30 72 49 40 60
REMARK Flexibility Score: inf
ROOT
ATOM      1  C   UNL A   1      40.366  22.970  26.739  1.00  0.00     0.021 C 
ENDROOT
BRANCH   1   2
ATOM      2  C   UNL A   1      38.923  23.417  26.494  1.00  0.00     0.116 C 
BRANCH   2   3
ATOM      3  N   UNL A   1      38.069  22.292  26.162  1.00  0.00    -0.356 N 
ATOM      4  C   UNL A   1      36.740  22.208  25.894  1.00  0.00     0.225 C 
ATOM      5  O   UNL A   1      36.274  21.072  25.748  1.00  0.00    -0.275 OA
ATOM      6  H   UNL A   1      38.540  21.430  26.125  1.00  0.00     0.163 HD
BRANCH   4   7
ATOM      7  C   UNL A   1      35.823  23.414  25.769  1.00  0.00     0.102 C 
ATOM      8  C   UNL A   1      35.649  22.951  23.201  1.00  0.00     0.032 C 
ATOM      9  C   UNL A   1      35.440  23.919  24.358  1.00  0.00     0.094 C 
ATOM     10  N   UNL A   1      34.050  24.390  24.511  1.00  0.00    -0.337 N 
ATOM     11  C   UNL A   1      34.526  23.323  26.571  1.00  0.00     0.037 C 
ATOM     12  C   UNL A   1      33.603  24.307  25.889  1.00  0.00     0.121 C 
BRANCH  10  13
ATOM     13  C   UNL A   1      33.271  25.102  23.616  1.00  0.00     0.248 C 
ATOM     14  O   UNL A   1      33.369  26.329  23.518  1.00  0.00    -0.272 OA
BRANCH  13  15
ATOM     15  C   UNL A   1      32.243  24.348  22.768  1.00  0.00     0.260 C 
BRANCH  15  16
ATOM     16  O   UNL A   1      31.762  23.110  23.276  1.00  0.00    -0.367 OA
BRANCH  16  17
ATOM     17  C   UNL A   1      32.166  21.977  22.502  1.00  0.00     0.196 C 
BRANCH  17  18
ATOM     18  C   UNL A   1      32.346  20.757  23.364  1.00  0.00    -0.022 A 
ATOM     19  C   UNL A   1      32.677  20.887  24.718  1.00  0.00     0.006 A 
ATOM     20  C   UNL A   1      32.252  19.476  22.801  1.00  0.00     0.006 A 
ATOM     21  C   UNL A   1      32.938  19.755  25.490  1.00  0.00     0.000 A 
ATOM     22  C   UNL A   1      32.519  18.346  23.573  1.00  0.00     0.000 A 
ATOM     23  C   UNL A   1      32.866  18.487  24.915  1.00  0.00     0.000 A 
ENDBRANCH  17  18
ENDBRANCH  16  17
ENDBRANCH  15  16
ENDBRANCH  13  15
ENDBRANCH  10  13
ENDBRANCH   4   7
ENDBRANCH   2   3
ENDBRANCH   1   2
BRANCH   1  24
ATOM     24  C   UNL A   1      40.513  21.680  27.547  1.00  0.00     0.002 C 
BRANCH  24  25
ATOM     25  C   UNL A   1      41.942  21.146  27.673  1.00  0.00     0.002 C 
BRANCH  25  26
ATOM     26  C   UNL A   1      42.150  19.698  27.225  1.00  0.00     0.021 C 
BRANCH  26  27
ATOM     27  C   UNL A   1      41.974  19.441  25.730  1.00  0.00     0.116 C 
BRANCH  27  28
ATOM     28  N   UNL A   1      43.190  18.957  25.103  1.00  0.00    -0.352 N 
ATOM     29  C   UNL A   1      44.319  19.642  24.735  1.00  0.00     0.251 C 
ATOM     30  H   UNL A   1      43.206  17.991  24.914  1.00  0.00     0.163 HD
ATOM     31  O   UNL A   1      45.181  19.085  24.062  1.00  0.00    -0.269 OA
BRANCH  29  32
ATOM     32  C   UNL A   1      44.500  21.057  25.128  1.00  0.00     0.039 A 
ATOM     33  C   UNL A   1      45.223  21.337  26.290  1.00  0.00     0.014 A 
ATOM     34  C   UNL A   1      43.926  22.097  24.391  1.00  0.00     0.014 A 
ATOM     35  C   UNL A   1      45.406  22.661  26.692  1.00  0.00     0.010 A 
ATOM     36  C   UNL A   1      44.162  23.421  24.758  1.00  0.00     0.010 A 
ATOM     37  C   UNL A   1      44.893  23.715  25.919  1.00  0.00    -0.014 A 
BRANCH  37  38
ATOM     38  C   UNL A   1      45.097  25.126  26.333  1.00  0.00     0.031 A 
ATOM     39  C   UNL A   1      46.453  25.762  26.211  1.00  0.00     0.074 A 
ATOM     40  C   UNL A   1      44.068  25.823  26.850  1.00  0.00     0.049 A 
ATOM     41  N   UNL A   1      46.832  26.973  26.536  1.00  0.00    -0.248 NA
ATOM     42  C   UNL A   1      47.534  24.921  25.676  1.00  0.00     0.031 C 
ATOM     43  C   UNL A   1      42.716  25.303  27.062  1.00  0.00     0.029 A 
ATOM     44  N   UNL A   1      43.999  27.120  27.296  1.00  0.00    -0.354 N 
ATOM     45  C   UNL A   1      48.191  27.033  26.255  1.00  0.00     0.074 A 
ATOM     46  C   UNL A   1      48.583  25.723  25.781  1.00  0.00     0.031 C 
ATOM     47  C   UNL A   1      41.946  26.276  27.573  1.00  0.00     0.029 A 
ATOM     48  C   UNL A   1      42.755  27.480  27.751  1.00  0.00     0.049 A 
ATOM     49  H   UNL A   1      44.769  27.733  27.289  1.00  0.00     0.167 HD
ATOM     50  C   UNL A   1      49.030  28.092  26.357  1.00  0.00     0.037 A 
ATOM     51  C   UNL A   1      42.316  28.650  28.253  1.00  0.00     0.037 A 
ATOM     52  C   UNL A   1      48.632  29.402  26.800  1.00  0.00     0.049 A 
ATOM     53  C   UNL A   1      43.267  29.811  28.350  1.00  0.00     0.074 A 
ATOM     54  C   UNL A   1      49.393  30.555  26.879  1.00  0.00     0.029 A 
ATOM     55  N   UNL A   1      47.358  29.732  27.241  1.00  0.00    -0.354 N 
ATOM     56  N   UNL A   1      44.532  29.876  28.012  1.00  0.00    -0.248 NA
ATOM     57  C   UNL A   1      42.725  31.067  28.890  1.00  0.00     0.031 C 
ATOM     58  C   UNL A   1      48.590  31.574  27.404  1.00  0.00     0.029 A 
ATOM     59  C   UNL A   1      47.318  31.066  27.611  1.00  0.00     0.049 A 
ATOM     60  H   UNL A   1      46.597  29.110  27.283  1.00  0.00     0.167 HD
ATOM     61  C   UNL A   1      44.931  31.179  28.276  1.00  0.00     0.074 A 
ATOM     62  C   UNL A   1      43.769  31.877  28.785  1.00  0.00     0.031 C 
ATOM     63  C   UNL A   1      46.151  31.746  28.114  1.00  0.00     0.037 A 
BRANCH  50  64
ATOM     64  C   UNL A   1      50.465  27.878  25.975  1.00  0.00     0.064 A 
ATOM     65  C   UNL A   1      50.883  27.930  24.636  1.00  0.00     0.173 A 
ATOM     66  C   UNL A   1      51.439  27.653  26.959  1.00  0.00     0.173 A 
ATOM     67  F   UNL A   1      49.988  28.130  23.656  1.00  0.00    -0.203 F 
ATOM     68  C   UNL A   1      52.219  27.738  24.295  1.00  0.00     0.198 A 
ATOM     69  C   UNL A   1      52.779  27.489  26.616  1.00  0.00     0.198 A 
ATOM     70  F   UNL A   1      51.093  27.599  28.254  1.00  0.00    -0.203 F 
ATOM     71  F   UNL A   1      52.588  27.746  23.006  1.00  0.00    -0.200 F 
ATOM     72  C   UNL A   1      53.166  27.524  25.284  1.00  0.00     0.200 A 
ATOM     73  F   UNL A   1      53.696  27.294  27.574  1.00  0.00    -0.200 F 
ATOM     74  F   UNL A   1      54.453  27.346  24.955  1.00  0.00    -0.200 F 
ENDBRANCH  50  64
BRANCH  51  75
ATOM     75  C   UNL A   1      40.897  28.791  28.672  1.00  0.00     0.064 A 
ATOM     76  C   UNL A   1      40.519  28.590  30.006  1.00  0.00     0.173 A 
ATOM     77  C   UNL A   1      39.895  29.124  27.751  1.00  0.00     0.173 A 
ATOM     78  F   UNL A   1      41.440  28.249  30.919  1.00  0.00    -0.203 F 
ATOM     79  C   UNL A   1      39.188  28.699  30.401  1.00  0.00     0.198 A 
ATOM     80  C   UNL A   1      38.567  29.259  28.151  1.00  0.00     0.198 A 
ATOM     81  F   UNL A   1      40.207  29.332  26.463  1.00  0.00    -0.203 F 
ATOM     82  F   UNL A   1      38.846  28.461  31.674  1.00  0.00    -0.200 F 
ATOM     83  C   UNL A   1      38.213  29.040  29.473  1.00  0.00     0.200 A 
ATOM     84  F   UNL A   1      37.631  29.600  27.255  1.00  0.00    -0.200 F 
ATOM     85  F   UNL A   1      36.933  29.148  29.854  1.00  0.00    -0.200 F 
ENDBRANCH  51  75
BRANCH  63  86
ATOM     86  C   UNL A   1      46.285  33.197  28.467  1.00  0.00     0.064 A 
ATOM     87  C   UNL A   1      46.044  34.206  27.525  1.00  0.00     0.173 A 
ATOM     88  C   UNL A   1      46.627  33.582  29.773  1.00  0.00     0.173 A 
ATOM     89  F   UNL A   1      45.729  33.887  26.260  1.00  0.00    -0.203 F 
ATOM     90  C   UNL A   1      46.161  35.550  27.869  1.00  0.00     0.198 A 
ATOM     91  C   UNL A   1      46.718  34.927  30.120  1.00  0.00     0.198 A 
ATOM     92  F   UNL A   1      46.863  32.655  30.712  1.00  0.00    -0.203 F 
ATOM     93  F   UNL A   1      45.969  36.497  26.942  1.00  0.00    -0.200 F 
ATOM     94  C   UNL A   1      46.491  35.909  29.168  1.00  0.00     0.200 A 
ATOM     95  F   UNL A   1      47.026  35.273  31.378  1.00  0.00    -0.200 F 
ATOM     96  F   UNL A   1      46.600  37.203  29.500  1.00  0.00    -0.200 F 
ENDBRANCH  63  86
ENDBRANCH  37  38
ENDBRANCH  29  32
ENDBRANCH  27  28
ENDBRANCH  26  27
ENDBRANCH  25  26
ENDBRANCH  24  25
ENDBRANCH   1  24
TORSDOF 18
ENDMDL
MODEL 3
REMARK VINA RESULT:     -10.5      0.659      7.218
REMARK SMILES C[C@@H]1[C@H](C(=O)NCCCCCCNC(=O)c2ccc(-c3c4nc(c(-c5c(F)c(F)c(F)c(F)c5F)c5ccc([nH]5)c(-c5c(F)c(F)c(F)c(F)c5F)c5nc(c(-c6c(F)c(F)c(F)c(F)c6F)c6ccc3[nH]6)C=C5)C=C4)cc2)CCN1C(=O)COCc1ccccc1
REMARK SMILES IDX 8 1 7 2 6 3 4 4 5 5 3 7 1 8 2 9 81 10 79 11 80 12 82 13
REMARK SMILES IDX 83 14 84 15 85 16 86 17 87 18 88 19 92 20 89 21 91 22 90 23
REMARK SMILES IDX 9 24 10 25 11 26 12 27 13 28 14 29 15 31 16 32 17 33 78 34
REMARK SMILES IDX 18 35 77 36 19 37 20 38 21 39 71 40 22 41 76 42 70 43 72 44
REMARK SMILES IDX 23 45 75 46 69 47 68 48 24 50 56 51 36 52 55 53 37 54 40 55
REMARK SMILES IDX 54 56 73 57 38 58 39 59 53 61 74 62 41 63 25 64 26 65 34 66
REMARK SMILES IDX 27 67 28 68 32 69 35 70 29 71 30 72 33 73 31 74 57 75 58 76
REMARK SMILES IDX 66 77 59 78 60 79 64 80 67 81 61 82 62 83 65 84 63 85 42 86
REMARK SMILES IDX 43 87 51 88 44 89 45 90 49 91 52 92 46 93 47 94 50 95 48 96
REMARK H PARENT 6 6 13 30 72 49 40 60
REMARK Flexibility Score: inf
ROOT
ATOM      1  C   UNL A   1      39.605  23.625  26.869  1.00  0.00     0.021 C 
ENDROOT
BRANCH   1   2
ATOM      2  C   UNL A   1      38.117  23.889  26.626  1.00  0.00     0.116 C 
BRANCH   2   3
ATOM      3  N   UNL A   1      37.768  23.705  25.230  1.00  0.00    -0.356 N 
ATOM      4  C   UNL A   1      36.678  23.158  24.630  1.00  0.00     0.225 C 
ATOM      5  O   UNL A   1      36.718  23.048  23.400  1.00  0.00    -0.275 OA
ATOM      6  H   UNL A   1      38.446  24.037  24.600  1.00  0.00     0.163 HD
BRANCH   4   7
ATOM      7  C   UNL A   1      35.443  22.689  25.382  1.00  0.00     0.102 C 
ATOM      8  C   UNL A   1      34.529  25.138  25.309  1.00  0.00     0.032 C 
ATOM      9  C   UNL A   1      34.446  23.744  25.917  1.00  0.00     0.094 C 
ATOM     10  N   UNL A   1      33.128  23.096  25.773  1.00  0.00    -0.337 N 
ATOM     11  C   UNL A   1      34.615  21.626  24.661  1.00  0.00     0.037 C 
ATOM     12  C   UNL A   1      33.249  21.730  25.300  1.00  0.00     0.121 C 
BRANCH  10  13
ATOM     13  C   UNL A   1      31.900  23.511  26.257  1.00  0.00     0.248 C 
ATOM     14  O   UNL A   1      31.682  23.588  27.469  1.00  0.00    -0.272 OA
BRANCH  13  15
ATOM     15  C   UNL A   1      30.785  23.838  25.258  1.00  0.00     0.260 C 
BRANCH  15  16
ATOM     16  O   UNL A   1      30.201  25.131  25.334  1.00  0.00    -0.367 OA
BRANCH  16  17
ATOM     17  C   UNL A   1      30.899  26.122  24.575  1.00  0.00     0.196 C 
BRANCH  17  18
ATOM     18  C   UNL A   1      31.223  27.329  25.413  1.00  0.00    -0.022 A 
ATOM     19  C   UNL A   1      31.492  28.562  24.807  1.00  0.00     0.006 A 
ATOM     20  C   UNL A   1      31.327  27.213  26.807  1.00  0.00     0.006 A 
ATOM     21  C   UNL A   1      31.887  29.654  25.579  1.00  0.00     0.000 A 
ATOM     22  C   UNL A   1      31.727  28.305  27.577  1.00  0.00     0.000 A 
ATOM     23  C   UNL A   1      32.011  29.522  26.962  1.00  0.00     0.000 A 
ENDBRANCH  17  18
ENDBRANCH  16  17
ENDBRANCH  15  16
ENDBRANCH  13  15
ENDBRANCH  10  13
ENDBRANCH   4   7
ENDBRANCH   2   3
ENDBRANCH   1   2
BRANCH   1  24
ATOM     24  C   UNL A   1      40.047  22.177  26.650  1.00  0.00     0.002 C 
BRANCH  24  25
ATOM     25  C   UNL A   1      41.128  21.672  27.610  1.00  0.00     0.002 C 
BRANCH  25  26
ATOM     26  C   UNL A   1      41.653  20.262  27.332  1.00  0.00     0.021 C 
BRANCH  26  27
ATOM     27  C   UNL A   1      41.393  19.729  25.925  1.00  0.00     0.116 C 
BRANCH  27  28
ATOM     28  N   UNL A   1      42.570  19.117  25.338  1.00  0.00    -0.352 N 
ATOM     29  C   UNL A   1      43.777  19.677  25.003  1.00  0.00     0.251 C 
ATOM     30  H   UNL A   1      42.491  18.154  25.151  1.00  0.00     0.163 HD
ATOM     31  O   UNL A   1      44.595  19.029  24.359  1.00  0.00    -0.269 OA
BRANCH  29  32
ATOM     32  C   UNL A   1      44.092  21.067  25.399  1.00  0.00     0.039 A 
ATOM     33  C   UNL A   1      43.611  22.111  24.604  1.00  0.00     0.014 A 
ATOM     34  C   UNL A   1      44.893  21.345  26.511  1.00  0.00     0.014 A 
ATOM     35  C   UNL A   1      43.897  23.434  24.947  1.00  0.00     0.010 A 
ATOM     36  C   UNL A   1      45.125  22.667  26.888  1.00  0.00     0.010 A 
ATOM     37  C   UNL A   1      44.640  23.723  26.102  1.00  0.00    -0.014 A 
BRANCH  37  38
ATOM     38  C   UNL A   1      44.935  25.128  26.480  1.00  0.00     0.031 A 
ATOM     39  C   UNL A   1      43.853  26.002  27.050  1.00  0.00     0.074 A 
ATOM     40  C   UNL A   1      46.168  25.628  26.277  1.00  0.00     0.049 A 
ATOM     41  N   UNL A   1      43.911  27.256  27.423  1.00  0.00    -0.248 NA
ATOM     42  C   UNL A   1      42.522  25.394  27.202  1.00  0.00     0.031 C 
ATOM     43  C   UNL A   1      47.290  24.894  25.688  1.00  0.00     0.029 A 
ATOM     44  N   UNL A   1      46.686  26.871  26.541  1.00  0.00    -0.354 N 
ATOM     45  C   UNL A   1      42.629  27.587  27.840  1.00  0.00     0.074 A 
ATOM     46  C   UNL A   1      41.800  26.420  27.628  1.00  0.00     0.031 C 
ATOM     47  C   UNL A   1      48.369  25.693  25.657  1.00  0.00     0.029 A 
ATOM     48  C   UNL A   1      48.009  27.001  26.199  1.00  0.00     0.049 A 
ATOM     49  H   UNL A   1      46.158  27.601  26.938  1.00  0.00     0.167 HD
ATOM     50  C   UNL A   1      42.187  28.751  28.376  1.00  0.00     0.037 A 
ATOM     51  C   UNL A   1      48.838  28.056  26.310  1.00  0.00     0.037 A 
ATOM     52  C   UNL A   1      43.019  29.901  28.613  1.00  0.00     0.049 A 
ATOM     53  C   UNL A   1      48.324  29.334  26.914  1.00  0.00     0.074 A 
ATOM     54  C   UNL A   1      42.681  31.103  29.209  1.00  0.00     0.029 A 
ATOM     55  N   UNL A   1      44.359  29.990  28.265  1.00  0.00    -0.354 N 
ATOM     56  N   UNL A   1      47.128  29.611  27.372  1.00  0.00    -0.248 NA
ATOM     57  C   UNL A   1      49.281  30.445  27.026  1.00  0.00     0.031 C 
ATOM     58  C   UNL A   1      43.806  31.935  29.185  1.00  0.00     0.029 A 
ATOM     59  C   UNL A   1      44.856  31.235  28.615  1.00  0.00     0.049 A 
ATOM     60  H   UNL A   1      44.879  29.275  27.833  1.00  0.00     0.167 HD
ATOM     61  C   UNL A   1      47.192  30.914  27.846  1.00  0.00     0.074 A 
ATOM     62  C   UNL A   1      48.551  31.368  27.636  1.00  0.00     0.031 C 
ATOM     63  C   UNL A   1      46.213  31.669  28.402  1.00  0.00     0.037 A 
BRANCH  50  64
ATOM     64  C   UNL A   1      40.737  28.834  28.750  1.00  0.00     0.064 A 
ATOM     65  C   UNL A   1      39.757  29.197  27.812  1.00  0.00     0.173 A 
ATOM     66  C   UNL A   1      40.315  28.515  30.049  1.00  0.00     0.173 A 
ATOM     67  F   UNL A   1      40.110  29.524  26.559  1.00  0.00    -0.203 F 
ATOM     68  C   UNL A   1      38.413  29.263  28.170  1.00  0.00     0.198 A 
ATOM     69  C   UNL A   1      38.967  28.555  30.395  1.00  0.00     0.198 A 
ATOM     70  F   UNL A   1      41.210  28.157  30.982  1.00  0.00    -0.203 F 
ATOM     71  F   UNL A   1      37.501  29.657  27.270  1.00  0.00    -0.200 F 
ATOM     72  C   UNL A   1      38.018  28.936  29.458  1.00  0.00     0.200 A 
ATOM     73  F   UNL A   1      38.585  28.228  31.637  1.00  0.00    -0.200 F 
ATOM     74  F   UNL A   1      36.723  28.994  29.798  1.00  0.00    -0.200 F 
ENDBRANCH  50  64
BRANCH  51  75
ATOM     75  C   UNL A   1      50.252  27.937  25.870  1.00  0.00     0.064 A 
ATOM     76  C   UNL A   1      51.286  27.794  26.806  1.00  0.00     0.173 A 
ATOM     77  C   UNL A   1      50.598  27.968  24.512  1.00  0.00     0.173 A 
ATOM     78  F   UNL A   1      51.005  27.781  28.117  1.00  0.00    -0.203 F 
ATOM     79  C   UNL A   1      52.615  27.704  26.400  1.00  0.00     0.198 A 
ATOM     80  C   UNL A   1      51.926  27.851  24.106  1.00  0.00     0.198 A 
ATOM     81  F   UNL A   1      49.645  28.098  23.578  1.00  0.00    -0.203 F 
ATOM     82  F   UNL A   1      53.588  27.609  27.316  1.00  0.00    -0.200 F 
ATOM     83  C   UNL A   1      52.934  27.726  25.050  1.00  0.00     0.200 A 
ATOM     84  F   UNL A   1      52.228  27.861  22.801  1.00  0.00    -0.200 F 
ATOM     85  F   UNL A   1      54.213  27.636  24.660  1.00  0.00    -0.200 F 
ENDBRANCH  51  75
BRANCH  63  86
ATOM     86  C   UNL A   1      46.582  33.054  28.844  1.00  0.00     0.064 A 
ATOM     87  C   UNL A   1      47.085  33.302  30.129  1.00  0.00     0.173 A 
ATOM     88  C   UNL A   1      46.463  34.137  27.961  1.00  0.00     0.173 A 
ATOM     89  F   UNL A   1      47.203  32.301  31.013  1.00  0.00    -0.203 F 
ATOM     90  C   UNL A   1      47.434  34.591  30.523  1.00  0.00     0.198 A 
ATOM     91  C   UNL A   1      46.837  35.420  28.350  1.00  0.00     0.198 A 
ATOM     92  F   UNL A   1      45.991  33.950  26.720  1.00  0.00    -0.203 F 
ATOM     93  F   UNL A   1      47.870  34.814  31.769  1.00  0.00    -0.200 F 
ATOM     94  C   UNL A   1      47.316  35.647  29.631  1.00  0.00     0.200 A 
ATOM     95  F   UNL A   1      46.734  36.438  27.484  1.00  0.00    -0.200 F 
ATOM     96  F   UNL A   1      47.656  36.887  30.010  1.00  0.00    -0.200 F 
ENDBRANCH  63  86
ENDBRANCH  37  38
ENDBRANCH  29  32
ENDBRANCH  27  28
ENDBRANCH  26  27
ENDBRANCH  25  26
ENDBRANCH  24  25
ENDBRANCH   1  24
TORSDOF 18
ENDMDL
