MODEL 1
REMARK VINA RESULT:     -12.1      0.000      0.000
REMARK SMILES O=C(COc1ccc(-c2cc3cc(Br)ccc3oc2=O)cc1)NCCCCCCNC(=O)c1ccc(-c2c3nc(c(-c4c(F)c(F)c(F)c(F)c4F)c4ccc([nH]4)c(-c4c(F)c(F)c(F)c(F)c4F)c4nc(c(-c5c(F)c(F)c(F)c(F)c5F)c5ccc2[nH]5)C=C4)C=C3)cc1
REMARK SMILES IDX 26 1 25 2 24 3 23 4 1 5 2 6 3 8 4 9 5 10 6 11 22 12 7 13
REMARK SMILES IDX 21 14 8 15 9 16 10 17 19 18 11 19 18 20 20 21 12 22 17 23
REMARK SMILES IDX 13 24 16 25 14 26 15 27 27 28 28 29 29 30 30 31 31 32 32 34
REMARK SMILES IDX 33 35 34 36 95 37 35 38 94 39 36 40 37 41 38 42 88 43 39 44
REMARK SMILES IDX 93 45 87 46 89 47 40 48 92 49 86 50 85 51 41 53 73 54 53 55
REMARK SMILES IDX 72 56 54 57 57 58 71 59 90 60 55 61 56 62 70 64 91 65 58 66
REMARK SMILES IDX 42 67 43 68 51 69 44 70 45 71 49 72 52 73 46 74 47 75 50 76
REMARK SMILES IDX 48 77 74 78 75 79 83 80 76 81 77 82 81 83 84 84 78 85 79 86
REMARK SMILES IDX 82 87 80 88 59 89 60 90 68 91 61 92 62 93 66 94 69 95 63 96
REMARK SMILES IDX 64 97 67 98 65 99
REMARK H PARENT 23 7 30 33 89 52 57 63
REMARK Flexibility Score: inf
ROOT
ATOM      1  C   UNL A   1      42.119  21.399  27.406  1.00  0.00     0.002 C 
ENDROOT
BRANCH   1   2
ATOM      2  C   UNL A   1      41.239  22.115  26.375  1.00  0.00     0.021 C 
BRANCH   2   3
ATOM      3  C   UNL A   1      39.879  22.558  26.911  1.00  0.00     0.116 C 
BRANCH   3   4
ATOM      4  N   UNL A   1      38.772  21.949  26.202  1.00  0.00    -0.353 N 
ATOM      5  O   UNL A   1      37.612  23.901  25.889  1.00  0.00    -0.271 OA
ATOM      6  C   UNL A   1      37.731  22.693  25.695  1.00  0.00     0.257 C 
ATOM      7  H   UNL A   1      38.766  20.973  26.079  1.00  0.00     0.163 HD
BRANCH   6   8
ATOM      8  C   UNL A   1      36.715  21.908  24.853  1.00  0.00     0.329 C 
BRANCH   8   9
ATOM      9  O   UNL A   1      35.376  21.810  25.314  1.00  0.00    -0.484 OA
BRANCH   9  10
ATOM     10  C   UNL A   1      34.387  22.324  24.524  1.00  0.00     0.120 A 
ATOM     11  C   UNL A   1      34.803  22.790  23.276  1.00  0.00     0.047 A 
ATOM     12  C   UNL A   1      33.058  22.501  24.897  1.00  0.00     0.047 A 
ATOM     13  C   UNL A   1      33.938  23.535  22.468  1.00  0.00     0.013 A 
ATOM     14  C   UNL A   1      32.191  23.236  24.086  1.00  0.00     0.013 A 
ATOM     15  C   UNL A   1      32.642  23.842  22.906  1.00  0.00    -0.011 A 
BRANCH  15  16
ATOM     16  C   UNL A   1      31.917  24.960  22.219  1.00  0.00     0.068 A 
ATOM     17  C   UNL A   1      31.117  25.869  22.828  1.00  0.00     0.028 A 
ATOM     18  C   UNL A   1      32.846  25.753  21.327  1.00  0.00     0.344 A 
ATOM     19  C   UNL A   1      31.888  26.767  23.717  1.00  0.00     0.019 A 
ATOM     20  O   UNL A   1      33.655  26.647  22.050  1.00  0.00    -0.422 OA
ATOM     21  O   UNL A   1      32.952  25.560  20.124  1.00  0.00    -0.246 OA
ATOM     22  C   UNL A   1      31.409  27.214  24.944  1.00  0.00     0.027 A 
ATOM     23  C   UNL A   1      33.212  27.040  23.334  1.00  0.00     0.138 A 
ATOM     24  C   UNL A   1      32.298  27.849  25.815  1.00  0.00     0.018 A 
ATOM     25  C   UNL A   1      34.103  27.654  24.205  1.00  0.00     0.049 A 
ATOM     26  Br  UNL A   1      31.688  28.408  27.515  1.00  0.00    -0.051 Br
ATOM     27  C   UNL A   1      33.642  28.042  25.465  1.00  0.00     0.019 A 
ENDBRANCH  15  16
ENDBRANCH   9  10
ENDBRANCH   8   9
ENDBRANCH   6   8
ENDBRANCH   3   4
ENDBRANCH   2   3
ENDBRANCH   1   2
BRANCH   1  28
ATOM     28  C   UNL A   1      41.805  19.914  27.618  1.00  0.00     0.002 C 
BRANCH  28  29
ATOM     29  C   UNL A   1      42.674  18.940  26.819  1.00  0.00     0.021 C 
BRANCH  29  30
ATOM     30  C   UNL A   1      42.630  19.130  25.307  1.00  0.00     0.116 C 
BRANCH  30  31
ATOM     31  N   UNL A   1      43.880  18.763  24.662  1.00  0.00    -0.352 N 
ATOM     32  C   UNL A   1      44.957  19.547  24.327  1.00  0.00     0.251 C 
ATOM     33  H   UNL A   1      43.968  17.811  24.430  1.00  0.00     0.163 HD
ATOM     34  O   UNL A   1      45.858  19.093  23.633  1.00  0.00    -0.269 OA
BRANCH  32  35
ATOM     35  C   UNL A   1      45.022  20.954  24.785  1.00  0.00     0.039 A 
ATOM     36  C   UNL A   1      45.482  21.220  26.077  1.00  0.00     0.014 A 
ATOM     37  C   UNL A   1      44.614  22.005  23.959  1.00  0.00     0.014 A 
ATOM     38  C   UNL A   1      45.579  22.541  26.521  1.00  0.00     0.010 A 
ATOM     39  C   UNL A   1      44.788  23.323  24.372  1.00  0.00     0.010 A 
ATOM     40  C   UNL A   1      45.260  23.606  25.663  1.00  0.00    -0.014 A 
BRANCH  40  41
ATOM     41  C   UNL A   1      45.388  25.018  26.111  1.00  0.00     0.031 A 
ATOM     42  C   UNL A   1      46.724  25.709  26.056  1.00  0.00     0.074 A 
ATOM     43  C   UNL A   1      44.314  25.665  26.602  1.00  0.00     0.049 A 
ATOM     44  N   UNL A   1      47.050  26.916  26.448  1.00  0.00    -0.248 NA
ATOM     45  C   UNL A   1      47.849  24.933  25.511  1.00  0.00     0.031 C 
ATOM     46  C   UNL A   1      42.974  25.093  26.748  1.00  0.00     0.029 A 
ATOM     47  N   UNL A   1      44.179  26.947  27.077  1.00  0.00    -0.354 N 
ATOM     48  C   UNL A   1      48.411  27.040  26.196  1.00  0.00     0.074 A 
ATOM     49  C   UNL A   1      48.865  25.765  25.688  1.00  0.00     0.031 C 
ATOM     50  C   UNL A   1      42.151  26.024  27.257  1.00  0.00     0.029 A 
ATOM     51  C   UNL A   1      42.909  27.245  27.509  1.00  0.00     0.049 A 
ATOM     52  H   UNL A   1      44.923  27.591  27.104  1.00  0.00     0.167 HD
ATOM     53  C   UNL A   1      49.203  28.129  26.340  1.00  0.00     0.037 A 
ATOM     54  C   UNL A   1      42.416  28.373  28.056  1.00  0.00     0.037 A 
ATOM     55  C   UNL A   1      48.749  29.401  26.840  1.00  0.00     0.049 A 
ATOM     56  C   UNL A   1      43.328  29.560  28.230  1.00  0.00     0.074 A 
ATOM     57  C   UNL A   1      49.470  30.569  27.013  1.00  0.00     0.029 A 
ATOM     58  N   UNL A   1      47.450  29.670  27.246  1.00  0.00    -0.354 N 
ATOM     59  N   UNL A   1      44.599  29.681  27.937  1.00  0.00    -0.248 NA
ATOM     60  C   UNL A   1      42.728  30.775  28.799  1.00  0.00     0.031 C 
ATOM     61  C   UNL A   1      48.620  31.532  27.564  1.00  0.00     0.029 A 
ATOM     62  C   UNL A   1      47.352  30.984  27.676  1.00  0.00     0.049 A 
ATOM     63  H   UNL A   1      46.709  29.023  27.231  1.00  0.00     0.167 HD
ATOM     64  C   UNL A   1      44.940  30.993  28.245  1.00  0.00     0.074 A 
ATOM     65  C   UNL A   1      43.736  31.632  28.732  1.00  0.00     0.031 C 
ATOM     66  C   UNL A   1      46.141  31.612  28.136  1.00  0.00     0.037 A 
BRANCH  53  67
ATOM     67  C   UNL A   1      50.645  27.997  25.935  1.00  0.00     0.064 A 
ATOM     68  C   UNL A   1      51.039  28.107  24.592  1.00  0.00     0.173 A 
ATOM     69  C   UNL A   1      51.647  27.800  26.897  1.00  0.00     0.173 A 
ATOM     70  F   UNL A   1      50.121  28.283  23.630  1.00  0.00    -0.203 F 
ATOM     71  C   UNL A   1      52.378  27.997  24.225  1.00  0.00     0.198 A 
ATOM     72  C   UNL A   1      52.988  27.725  26.530  1.00  0.00     0.198 A 
ATOM     73  F   UNL A   1      51.327  27.694  28.196  1.00  0.00    -0.203 F 
ATOM     74  F   UNL A   1      52.724  28.053  22.932  1.00  0.00    -0.200 F 
ATOM     75  C   UNL A   1      53.352  27.815  25.195  1.00  0.00     0.200 A 
ATOM     76  F   UNL A   1      53.930  27.565  27.470  1.00  0.00    -0.200 F 
ATOM     77  F   UNL A   1      54.641  27.721  24.841  1.00  0.00    -0.200 F 
ENDBRANCH  53  67
BRANCH  54  78
ATOM     78  C   UNL A   1      40.990  28.447  28.471  1.00  0.00     0.064 A 
ATOM     79  C   UNL A   1      40.007  28.947  27.604  1.00  0.00     0.173 A 
ATOM     80  C   UNL A   1      40.584  28.057  29.756  1.00  0.00     0.173 A 
ATOM     81  F   UNL A   1      40.345  29.349  26.370  1.00  0.00    -0.203 F 
ATOM     82  C   UNL A   1      38.685  29.095  28.020  1.00  0.00     0.198 A 
ATOM     83  C   UNL A   1      39.256  28.173  30.159  1.00  0.00     0.198 A 
ATOM     84  F   UNL A   1      41.480  27.564  30.624  1.00  0.00    -0.203 F 
ATOM     85  F   UNL A   1      37.783  29.643  27.195  1.00  0.00    -0.200 F 
ATOM     86  C   UNL A   1      38.309  28.705  29.296  1.00  0.00     0.200 A 
ATOM     87  F   UNL A   1      38.894  27.777  31.387  1.00  0.00    -0.200 F 
ATOM     88  F   UNL A   1      37.040  28.854  29.699  1.00  0.00    -0.200 F 
ENDBRANCH  54  78
BRANCH  66  89
ATOM     89  C   UNL A   1      46.197  33.073  28.487  1.00  0.00     0.064 A 
ATOM     90  C   UNL A   1      46.500  33.517  29.782  1.00  0.00     0.173 A 
ATOM     91  C   UNL A   1      45.963  34.044  27.500  1.00  0.00     0.173 A 
ATOM     92  F   UNL A   1      46.720  32.631  30.766  1.00  0.00    -0.203 F 
ATOM     93  C   UNL A   1      46.525  34.876  30.087  1.00  0.00     0.198 A 
ATOM     94  C   UNL A   1      46.027  35.401  27.799  1.00  0.00     0.198 A 
ATOM     95  F   UNL A   1      45.679  33.676  26.241  1.00  0.00    -0.203 F 
ATOM     96  F   UNL A   1      46.753  35.274  31.346  1.00  0.00    -0.200 F 
ATOM     97  C   UNL A   1      46.296  35.816  29.094  1.00  0.00     0.200 A 
ATOM     98  F   UNL A   1      45.822  36.309  26.834  1.00  0.00    -0.200 F 
ATOM     99  F   UNL A   1      46.324  37.124  29.388  1.00  0.00    -0.200 F 
ENDBRANCH  66  89
ENDBRANCH  40  41
ENDBRANCH  32  35
ENDBRANCH  30  31
ENDBRANCH  29  30
ENDBRANCH  28  29
ENDBRANCH   1  28
TORSDOF 16
ENDMDL
MODEL 2
REMARK VINA RESULT:     -11.9      6.864     12.381
REMARK SMILES O=C(COc1ccc(-c2cc3cc(Br)ccc3oc2=O)cc1)NCCCCCCNC(=O)c1ccc(-c2c3nc(c(-c4c(F)c(F)c(F)c(F)c4F)c4ccc([nH]4)c(-c4c(F)c(F)c(F)c(F)c4F)c4nc(c(-c5c(F)c(F)c(F)c(F)c5F)c5ccc2[nH]5)C=C4)C=C3)cc1
REMARK SMILES IDX 26 1 25 2 24 3 23 4 1 5 2 6 3 8 4 9 5 10 6 11 22 12 7 13
REMARK SMILES IDX 21 14 8 15 9 16 10 17 19 18 11 19 18 20 20 21 12 22 17 23
REMARK SMILES IDX 13 24 16 25 14 26 15 27 27 28 28 29 29 30 30 31 31 32 32 34
REMARK SMILES IDX 33 35 34 36 95 37 35 38 94 39 36 40 37 41 38 42 88 43 39 44
REMARK SMILES IDX 93 45 87 46 89 47 40 48 92 49 86 50 85 51 41 53 73 54 53 55
REMARK SMILES IDX 72 56 54 57 57 58 71 59 90 60 55 61 56 62 70 64 91 65 58 66
REMARK SMILES IDX 42 67 43 68 51 69 44 70 45 71 49 72 52 73 46 74 47 75 50 76
REMARK SMILES IDX 48 77 74 78 75 79 83 80 76 81 77 82 81 83 84 84 78 85 79 86
REMARK SMILES IDX 82 87 80 88 59 89 60 90 68 91 61 92 62 93 66 94 69 95 63 96
REMARK SMILES IDX 64 97 67 98 65 99
REMARK H PARENT 23 7 30 33 89 52 57 63
REMARK Flexibility Score: inf
ROOT
ATOM      1  C   UNL A   1      35.013  34.683  28.463  1.00  0.00     0.002 C 
ENDROOT
BRANCH   1   2
ATOM      2  C   UNL A   1      35.509  33.265  28.767  1.00  0.00     0.021 C 
BRANCH   2   3
ATOM      3  C   UNL A   1      34.414  32.302  29.221  1.00  0.00     0.116 C 
BRANCH   3   4
ATOM      4  N   UNL A   1      34.582  30.968  28.679  1.00  0.00    -0.353 N 
ATOM      5  O   UNL A   1      32.880  31.138  27.153  1.00  0.00    -0.271 OA
ATOM      6  C   UNL A   1      33.816  30.504  27.633  1.00  0.00     0.257 C 
ATOM      7  H   UNL A   1      35.265  30.378  29.069  1.00  0.00     0.163 HD
BRANCH   6   8
ATOM      8  C   UNL A   1      34.219  29.124  27.090  1.00  0.00     0.329 C 
BRANCH   8   9
ATOM      9  O   UNL A   1      33.987  28.836  25.719  1.00  0.00    -0.484 OA
BRANCH   9  10
ATOM     10  C   UNL A   1      33.118  27.827  25.415  1.00  0.00     0.120 A 
ATOM     11  C   UNL A   1      32.270  27.438  26.452  1.00  0.00     0.047 A 
ATOM     12  C   UNL A   1      33.084  27.118  24.219  1.00  0.00     0.047 A 
ATOM     13  C   UNL A   1      31.492  26.281  26.343  1.00  0.00     0.013 A 
ATOM     14  C   UNL A   1      32.301  25.967  24.104  1.00  0.00     0.013 A 
ATOM     15  C   UNL A   1      31.567  25.480  25.194  1.00  0.00    -0.011 A 
BRANCH  15  16
ATOM     16  C   UNL A   1      31.055  24.074  25.287  1.00  0.00     0.068 A 
ATOM     17  C   UNL A   1      31.633  22.989  24.716  1.00  0.00     0.028 A 
ATOM     18  C   UNL A   1      30.766  23.686  26.720  1.00  0.00     0.344 A 
ATOM     19  C   UNL A   1      32.939  22.673  25.337  1.00  0.00     0.019 A 
ATOM     20  O   UNL A   1      31.932  23.370  27.438  1.00  0.00    -0.422 OA
ATOM     21  O   UNL A   1      29.653  23.744  27.222  1.00  0.00    -0.246 OA
ATOM     22  C   UNL A   1      34.036  22.224  24.610  1.00  0.00     0.027 A 
ATOM     23  C   UNL A   1      33.076  22.991  26.699  1.00  0.00     0.138 A 
ATOM     24  C   UNL A   1      35.283  22.191  25.238  1.00  0.00     0.018 A 
ATOM     25  C   UNL A   1      34.318  22.978  27.321  1.00  0.00     0.049 A 
ATOM     26  Br  UNL A   1      36.801  21.645  24.253  1.00  0.00    -0.051 Br
ATOM     27  C   UNL A   1      35.433  22.592  26.573  1.00  0.00     0.019 A 
ENDBRANCH  15  16
ENDBRANCH   9  10
ENDBRANCH   8   9
ENDBRANCH   6   8
ENDBRANCH   3   4
ENDBRANCH   2   3
ENDBRANCH   1   2
BRANCH   1  28
ATOM     28  C   UNL A   1      33.493  34.871  28.510  1.00  0.00     0.002 C 
BRANCH  28  29
ATOM     29  C   UNL A   1      33.018  36.298  28.795  1.00  0.00     0.021 C 
BRANCH  29  30
ATOM     30  C   UNL A   1      33.403  36.843  30.166  1.00  0.00     0.116 C 
BRANCH  30  31
ATOM     31  N   UNL A   1      32.409  36.546  31.184  1.00  0.00    -0.352 N 
ATOM     32  C   UNL A   1      32.439  35.615  32.193  1.00  0.00     0.251 C 
ATOM     33  H   UNL A   1      31.593  37.095  31.145  1.00  0.00     0.163 HD
ATOM     34  O   UNL A   1      31.433  35.393  32.857  1.00  0.00    -0.269 OA
BRANCH  32  35
ATOM     35  C   UNL A   1      33.681  34.857  32.468  1.00  0.00     0.039 A 
ATOM     36  C   UNL A   1      34.912  35.491  32.276  1.00  0.00     0.014 A 
ATOM     37  C   UNL A   1      33.640  33.527  32.892  1.00  0.00     0.014 A 
ATOM     38  C   UNL A   1      36.097  34.806  32.556  1.00  0.00     0.010 A 
ATOM     39  C   UNL A   1      34.817  32.873  33.249  1.00  0.00     0.010 A 
ATOM     40  C   UNL A   1      36.060  33.500  33.072  1.00  0.00    -0.014 A 
BRANCH  40  41
ATOM     41  C   UNL A   1      37.311  32.771  33.404  1.00  0.00     0.031 A 
ATOM     42  C   UNL A   1      38.058  33.090  34.672  1.00  0.00     0.074 A 
ATOM     43  C   UNL A   1      37.797  31.849  32.550  1.00  0.00     0.049 A 
ATOM     44  N   UNL A   1      39.192  32.603  35.112  1.00  0.00    -0.248 NA
ATOM     45  C   UNL A   1      37.466  34.112  35.549  1.00  0.00     0.031 C 
ATOM     46  C   UNL A   1      37.191  31.480  31.269  1.00  0.00     0.029 A 
ATOM     47  N   UNL A   1      38.917  31.059  32.626  1.00  0.00    -0.354 N 
ATOM     48  C   UNL A   1      39.442  33.256  36.313  1.00  0.00     0.074 A 
ATOM     49  C   UNL A   1      38.386  34.225  36.496  1.00  0.00     0.031 C 
ATOM     50  C   UNL A   1      37.934  30.523  30.691  1.00  0.00     0.029 A 
ATOM     51  C   UNL A   1      39.088  30.237  31.538  1.00  0.00     0.049 A 
ATOM     52  H   UNL A   1      39.539  31.079  33.389  1.00  0.00     0.167 HD
ATOM     53  C   UNL A   1      40.443  33.041  37.200  1.00  0.00     0.037 A 
ATOM     54  C   UNL A   1      40.070  29.360  31.252  1.00  0.00     0.037 A 
ATOM     55  C   UNL A   1      41.492  32.071  37.020  1.00  0.00     0.049 A 
ATOM     56  C   UNL A   1      41.186  29.163  32.246  1.00  0.00     0.074 A 
ATOM     57  C   UNL A   1      42.544  31.769  37.866  1.00  0.00     0.029 A 
ATOM     58  N   UNL A   1      41.618  31.242  35.916  1.00  0.00    -0.354 N 
ATOM     59  N   UNL A   1      41.382  29.748  33.402  1.00  0.00    -0.248 NA
ATOM     60  C   UNL A   1      42.210  28.168  31.898  1.00  0.00     0.031 C 
ATOM     61  C   UNL A   1      43.331  30.789  37.255  1.00  0.00     0.029 A 
ATOM     62  C   UNL A   1      42.735  30.434  36.055  1.00  0.00     0.049 A 
ATOM     63  H   UNL A   1      41.004  31.230  35.146  1.00  0.00     0.167 HD
ATOM     64  C   UNL A   1      42.524  29.164  33.937  1.00  0.00     0.074 A 
ATOM     65  C   UNL A   1      42.966  28.168  32.986  1.00  0.00     0.031 C 
ATOM     66  C   UNL A   1      43.150  29.430  35.110  1.00  0.00     0.037 A 
BRANCH  53  67
ATOM     67  C   UNL A   1      40.442  33.863  38.458  1.00  0.00     0.064 A 
ATOM     68  C   UNL A   1      41.146  35.076  38.540  1.00  0.00     0.173 A 
ATOM     69  C   UNL A   1      39.701  33.462  39.579  1.00  0.00     0.173 A 
ATOM     70  F   UNL A   1      41.881  35.501  37.501  1.00  0.00    -0.203 F 
ATOM     71  C   UNL A   1      41.130  35.839  39.704  1.00  0.00     0.198 A 
ATOM     72  C   UNL A   1      39.659  34.245  40.730  1.00  0.00     0.198 A 
ATOM     73  F   UNL A   1      39.004  32.315  39.555  1.00  0.00    -0.203 F 
ATOM     74  F   UNL A   1      41.852  36.966  39.775  1.00  0.00    -0.200 F 
ATOM     75  C   UNL A   1      40.379  35.427  40.796  1.00  0.00     0.200 A 
ATOM     76  F   UNL A   1      38.921  33.854  41.779  1.00  0.00    -0.200 F 
ATOM     77  F   UNL A   1      40.356  36.169  41.911  1.00  0.00    -0.200 F 
ENDBRANCH  53  67
BRANCH  54  78
ATOM     78  C   UNL A   1      40.045  28.592  29.979  1.00  0.00     0.064 A 
ATOM     79  C   UNL A   1      39.449  27.324  29.908  1.00  0.00     0.173 A 
ATOM     80  C   UNL A   1      40.653  29.089  28.816  1.00  0.00     0.173 A 
ATOM     81  F   UNL A   1      38.869  26.795  30.996  1.00  0.00    -0.203 F 
ATOM     82  C   UNL A   1      39.499  26.568  28.739  1.00  0.00     0.198 A 
ATOM     83  C   UNL A   1      40.671  28.347  27.638  1.00  0.00     0.198 A 
ATOM     84  F   UNL A   1      41.231  30.300  28.824  1.00  0.00    -0.203 F 
ATOM     85  F   UNL A   1      38.985  25.331  28.722  1.00  0.00    -0.200 F 
ATOM     86  C   UNL A   1      40.107  27.080  27.603  1.00  0.00     0.200 A 
ATOM     87  F   UNL A   1      41.243  28.855  26.538  1.00  0.00    -0.200 F 
ATOM     88  F   UNL A   1      40.161  26.350  26.481  1.00  0.00    -0.200 F 
ENDBRANCH  54  78
BRANCH  66  89
ATOM     89  C   UNL A   1      44.343  28.585  35.461  1.00  0.00     0.064 A 
ATOM     90  C   UNL A   1      44.223  27.398  36.196  1.00  0.00     0.173 A 
ATOM     91  C   UNL A   1      45.625  28.964  35.032  1.00  0.00     0.173 A 
ATOM     92  F   UNL A   1      43.023  26.995  36.641  1.00  0.00    -0.203 F 
ATOM     93  C   UNL A   1      45.347  26.643  36.526  1.00  0.00     0.198 A 
ATOM     94  C   UNL A   1      46.740  28.188  35.331  1.00  0.00     0.198 A 
ATOM     95  F   UNL A   1      45.796  30.086  34.316  1.00  0.00    -0.203 F 
ATOM     96  F   UNL A   1      45.216  25.547  37.285  1.00  0.00    -0.200 F 
ATOM     97  C   UNL A   1      46.603  27.035  36.088  1.00  0.00     0.200 A 
ATOM     98  F   UNL A   1      47.951  28.560  34.891  1.00  0.00    -0.200 F 
ATOM     99  F   UNL A   1      47.682  26.306  36.403  1.00  0.00    -0.200 F 
ENDBRANCH  66  89
ENDBRANCH  40  41
ENDBRANCH  32  35
ENDBRANCH  30  31
ENDBRANCH  29  30
ENDBRANCH  28  29
ENDBRANCH   1  28
TORSDOF 16
ENDMDL
MODEL 3
REMARK VINA RESULT:     -11.4      5.871     11.672
REMARK SMILES O=C(COc1ccc(-c2cc3cc(Br)ccc3oc2=O)cc1)NCCCCCCNC(=O)c1ccc(-c2c3nc(c(-c4c(F)c(F)c(F)c(F)c4F)c4ccc([nH]4)c(-c4c(F)c(F)c(F)c(F)c4F)c4nc(c(-c5c(F)c(F)c(F)c(F)c5F)c5ccc2[nH]5)C=C4)C=C3)cc1
REMARK SMILES IDX 26 1 25 2 24 3 23 4 1 5 2 6 3 8 4 9 5 10 6 11 22 12 7 13
REMARK SMILES IDX 21 14 8 15 9 16 10 17 19 18 11 19 18 20 20 21 12 22 17 23
REMARK SMILES IDX 13 24 16 25 14 26 15 27 27 28 28 29 29 30 30 31 31 32 32 34
REMARK SMILES IDX 33 35 34 36 95 37 35 38 94 39 36 40 37 41 38 42 88 43 39 44
REMARK SMILES IDX 93 45 87 46 89 47 40 48 92 49 86 50 85 51 41 53 73 54 53 55
REMARK SMILES IDX 72 56 54 57 57 58 71 59 90 60 55 61 56 62 70 64 91 65 58 66
REMARK SMILES IDX 42 67 43 68 51 69 44 70 45 71 49 72 52 73 46 74 47 75 50 76
REMARK SMILES IDX 48 77 74 78 75 79 83 80 76 81 77 82 81 83 84 84 78 85 79 86
REMARK SMILES IDX 82 87 80 88 59 89 60 90 68 91 61 92 62 93 66 94 69 95 63 96
REMARK SMILES IDX 64 97 67 98 65 99
REMARK H PARENT 23 7 30 33 89 52 57 63
REMARK Flexibility Score: inf
ROOT
ATOM      1  C   UNL A   1      34.205  35.854  28.414  1.00  0.00     0.002 C 
ENDROOT
BRANCH   1   2
ATOM      2  C   UNL A   1      32.958  36.367  29.144  1.00  0.00     0.021 C 
BRANCH   2   3
ATOM      3  C   UNL A   1      33.191  36.726  30.609  1.00  0.00     0.116 C 
BRANCH   3   4
ATOM      4  N   UNL A   1      33.694  35.610  31.385  1.00  0.00    -0.353 N 
ATOM      5  O   UNL A   1      34.402  36.879  33.159  1.00  0.00    -0.271 OA
ATOM      6  C   UNL A   1      34.226  35.777  32.645  1.00  0.00     0.257 C 
ATOM      7  H   UNL A   1      33.654  34.706  31.000  1.00  0.00     0.163 HD
BRANCH   6   8
ATOM      8  C   UNL A   1      34.581  34.477  33.382  1.00  0.00     0.329 C 
BRANCH   8   9
ATOM      9  O   UNL A   1      35.053  33.372  32.626  1.00  0.00    -0.484 OA
BRANCH   9  10
ATOM     10  C   UNL A   1      36.372  33.031  32.744  1.00  0.00     0.120 A 
ATOM     11  C   UNL A   1      36.620  31.673  32.942  1.00  0.00     0.047 A 
ATOM     12  C   UNL A   1      37.440  33.921  32.778  1.00  0.00     0.047 A 
ATOM     13  C   UNL A   1      37.898  31.225  33.296  1.00  0.00     0.013 A 
ATOM     14  C   UNL A   1      38.718  33.474  33.122  1.00  0.00     0.013 A 
ATOM     15  C   UNL A   1      38.946  32.138  33.477  1.00  0.00    -0.011 A 
BRANCH  15  16
ATOM     16  C   UNL A   1      40.151  31.677  34.240  1.00  0.00     0.068 A 
ATOM     17  C   UNL A   1      40.940  32.464  35.012  1.00  0.00     0.028 A 
ATOM     18  C   UNL A   1      39.841  30.453  35.073  1.00  0.00     0.344 A 
ATOM     19  C   UNL A   1      40.223  32.945  36.215  1.00  0.00     0.019 A 
ATOM     20  O   UNL A   1      39.143  30.766  36.252  1.00  0.00    -0.422 OA
ATOM     21  O   UNL A   1      40.080  29.311  34.707  1.00  0.00    -0.246 OA
ATOM     22  C   UNL A   1      40.386  34.225  36.734  1.00  0.00     0.027 A 
ATOM     23  C   UNL A   1      39.239  32.090  36.740  1.00  0.00     0.138 A 
ATOM     24  C   UNL A   1      39.492  34.665  37.712  1.00  0.00     0.018 A 
ATOM     25  C   UNL A   1      38.337  32.532  37.698  1.00  0.00     0.049 A 
ATOM     26  Br  UNL A   1      39.653  36.424  38.388  1.00  0.00    -0.051 Br
ATOM     27  C   UNL A   1      38.456  33.840  38.172  1.00  0.00     0.019 A 
ENDBRANCH  15  16
ENDBRANCH   9  10
ENDBRANCH   8   9
ENDBRANCH   6   8
ENDBRANCH   3   4
ENDBRANCH   2   3
ENDBRANCH   1   2
BRANCH   1  28
ATOM     28  C   UNL A   1      34.119  34.411  27.905  1.00  0.00     0.002 C 
BRANCH  28  29
ATOM     29  C   UNL A   1      35.275  33.499  28.321  1.00  0.00     0.021 C 
BRANCH  29  30
ATOM     30  C   UNL A   1      34.912  32.427  29.342  1.00  0.00     0.116 C 
BRANCH  30  31
ATOM     31  N   UNL A   1      34.265  31.275  28.736  1.00  0.00    -0.352 N 
ATOM     32  C   UNL A   1      34.816  30.117  28.244  1.00  0.00     0.251 C 
ATOM     33  H   UNL A   1      33.284  31.333  28.668  1.00  0.00     0.163 HD
ATOM     34  O   UNL A   1      34.125  29.325  27.614  1.00  0.00    -0.269 OA
BRANCH  32  35
ATOM     35  C   UNL A   1      36.254  29.833  28.453  1.00  0.00     0.039 A 
ATOM     36  C   UNL A   1      36.667  29.328  29.689  1.00  0.00     0.014 A 
ATOM     37  C   UNL A   1      37.195  30.079  27.450  1.00  0.00     0.014 A 
ATOM     38  C   UNL A   1      38.014  29.025  29.900  1.00  0.00     0.010 A 
ATOM     39  C   UNL A   1      38.522  29.700  27.633  1.00  0.00     0.010 A 
ATOM     40  C   UNL A   1      38.950  29.181  28.864  1.00  0.00    -0.014 A 
BRANCH  40  41
ATOM     41  C   UNL A   1      40.381  28.833  29.064  1.00  0.00     0.031 A 
ATOM     42  C   UNL A   1      41.302  29.797  29.761  1.00  0.00     0.074 A 
ATOM     43  C   UNL A   1      40.860  27.668  28.586  1.00  0.00     0.049 A 
ATOM     44  N   UNL A   1      42.590  29.700  29.985  1.00  0.00    -0.248 NA
ATOM     45  C   UNL A   1      40.704  31.050  30.250  1.00  0.00     0.031 C 
ATOM     46  C   UNL A   1      40.081  26.668  27.854  1.00  0.00     0.029 A 
ATOM     47  N   UNL A   1      42.123  27.130  28.637  1.00  0.00    -0.354 N 
ATOM     48  C   UNL A   1      42.948  30.873  30.639  1.00  0.00     0.074 A 
ATOM     49  C   UNL A   1      41.764  31.698  30.710  1.00  0.00     0.031 C 
ATOM     50  C   UNL A   1      40.876  25.631  27.544  1.00  0.00     0.029 A 
ATOM     51  C   UNL A   1      42.228  25.908  28.019  1.00  0.00     0.049 A 
ATOM     52  H   UNL A   1      42.881  27.578  29.077  1.00  0.00     0.167 HD
ATOM     53  C   UNL A   1      44.148  31.215  31.166  1.00  0.00     0.037 A 
ATOM     54  C   UNL A   1      43.297  25.107  27.845  1.00  0.00     0.037 A 
ATOM     55  C   UNL A   1      45.327  30.390  31.101  1.00  0.00     0.049 A 
ATOM     56  C   UNL A   1      44.626  25.527  28.418  1.00  0.00     0.074 A 
ATOM     57  C   UNL A   1      46.588  30.642  31.614  1.00  0.00     0.029 A 
ATOM     58  N   UNL A   1      45.388  29.149  30.486  1.00  0.00    -0.354 N 
ATOM     59  N   UNL A   1      44.939  26.613  29.081  1.00  0.00    -0.248 NA
ATOM     60  C   UNL A   1      45.749  24.597  28.230  1.00  0.00     0.031 C 
ATOM     61  C   UNL A   1      47.422  29.574  31.271  1.00  0.00     0.029 A 
ATOM     62  C   UNL A   1      46.666  28.626  30.599  1.00  0.00     0.049 A 
ATOM     63  H   UNL A   1      44.634  28.705  30.034  1.00  0.00     0.167 HD
ATOM     64  C   UNL A   1      46.279  26.479  29.424  1.00  0.00     0.074 A 
ATOM     65  C   UNL A   1      46.714  25.197  28.910  1.00  0.00     0.031 C 
ATOM     66  C   UNL A   1      47.078  27.339  30.102  1.00  0.00     0.037 A 
BRANCH  53  67
ATOM     67  C   UNL A   1      44.243  32.537  31.875  1.00  0.00     0.064 A 
ATOM     68  C   UNL A   1      44.428  33.735  31.166  1.00  0.00     0.173 A 
ATOM     69  C   UNL A   1      44.108  32.617  33.268  1.00  0.00     0.173 A 
ATOM     70  F   UNL A   1      44.576  33.715  29.832  1.00  0.00    -0.203 F 
ATOM     71  C   UNL A   1      44.502  34.958  31.828  1.00  0.00     0.198 A 
ATOM     72  C   UNL A   1      44.147  33.845  33.924  1.00  0.00     0.198 A 
ATOM     73  F   UNL A   1      43.923  31.504  33.996  1.00  0.00    -0.203 F 
ATOM     74  F   UNL A   1      44.730  36.081  31.134  1.00  0.00    -0.200 F 
ATOM     75  C   UNL A   1      44.352  35.013  33.206  1.00  0.00     0.200 A 
ATOM     76  F   UNL A   1      43.987  33.899  35.254  1.00  0.00    -0.200 F 
ATOM     77  F   UNL A   1      44.412  36.192  33.840  1.00  0.00    -0.200 F 
ENDBRANCH  53  67
BRANCH  54  78
ATOM     78  C   UNL A   1      43.162  23.822  27.109  1.00  0.00     0.064 A 
ATOM     79  C   UNL A   1      42.699  22.662  27.750  1.00  0.00     0.173 A 
ATOM     80  C   UNL A   1      43.531  23.713  25.759  1.00  0.00     0.173 A 
ATOM     81  F   UNL A   1      42.350  22.708  29.044  1.00  0.00    -0.203 F 
ATOM     82  C   UNL A   1      42.652  21.440  27.084  1.00  0.00     0.198 A 
ATOM     83  C   UNL A   1      43.449  22.497  25.085  1.00  0.00     0.198 A 
ATOM     84  F   UNL A   1      43.972  24.791  25.094  1.00  0.00    -0.203 F 
ATOM     85  F   UNL A   1      42.275  20.336  27.743  1.00  0.00    -0.200 F 
ATOM     86  C   UNL A   1      43.024  21.358  25.751  1.00  0.00     0.200 A 
ATOM     87  F   UNL A   1      43.792  22.427  23.792  1.00  0.00    -0.200 F 
ATOM     88  F   UNL A   1      42.986  20.180  25.113  1.00  0.00    -0.200 F 
ENDBRANCH  54  78
BRANCH  66  89
ATOM     89  C   UNL A   1      48.485  26.893  30.387  1.00  0.00     0.064 A 
ATOM     90  C   UNL A   1      49.559  27.245  29.557  1.00  0.00     0.173 A 
ATOM     91  C   UNL A   1      48.762  26.118  31.524  1.00  0.00     0.173 A 
ATOM     92  F   UNL A   1      49.348  27.974  28.450  1.00  0.00    -0.203 F 
ATOM     93  C   UNL A   1      50.851  26.802  29.831  1.00  0.00     0.198 A 
ATOM     94  C   UNL A   1      50.060  25.710  31.815  1.00  0.00     0.198 A 
ATOM     95  F   UNL A   1      47.774  25.762  32.358  1.00  0.00    -0.203 F 
ATOM     96  F   UNL A   1      51.851  27.096  28.988  1.00  0.00    -0.200 F 
ATOM     97  C   UNL A   1      51.102  26.041  30.963  1.00  0.00     0.200 A 
ATOM     98  F   UNL A   1      50.302  24.989  32.920  1.00  0.00    -0.200 F 
ATOM     99  F   UNL A   1      52.346  25.619  31.227  1.00  0.00    -0.200 F 
ENDBRANCH  66  89
ENDBRANCH  40  41
ENDBRANCH  32  35
ENDBRANCH  30  31
ENDBRANCH  29  30
ENDBRANCH  28  29
ENDBRANCH   1  28
TORSDOF 16
ENDMDL
