MODEL 1
REMARK VINA RESULT:     -12.1      0.000      0.000
REMARK SMILES CC[C@](C)(NC(=O)Cc1cccc(F)c1)C(=O)NCCCCCCNC(=O)c1ccc(-c2c3nc(c(-c4c(F)c(F)c(F)c(F)c4F)c4ccc([nH]4)c(-c4c(F)c(F)c(F)c(F)c4F)c4nc(c(-c5c(F)c(F)c(F)c(F)c5F)c5ccc2[nH]5)C=C4)C=C3)cc1
REMARK SMILES IDX 21 1 20 2 19 3 18 4 16 5 17 6 3 8 4 9 2 10 1 11 5 12 6 13
REMARK SMILES IDX 7 15 8 16 9 17 10 18 15 19 11 20 13 21 12 22 14 23 22 24
REMARK SMILES IDX 23 25 24 26 25 27 26 28 27 30 28 31 29 32 90 33 30 34 89 35
REMARK SMILES IDX 31 36 32 37 33 38 83 39 34 40 88 41 82 42 84 43 35 44 87 45
REMARK SMILES IDX 81 46 80 47 36 49 68 50 48 51 67 52 49 53 52 54 66 55 85 56
REMARK SMILES IDX 50 57 51 58 65 60 86 61 53 62 37 63 38 64 46 65 39 66 40 67
REMARK SMILES IDX 44 68 47 69 41 70 42 71 45 72 43 73 69 74 70 75 78 76 71 77
REMARK SMILES IDX 72 78 76 79 79 80 73 81 74 82 77 83 75 84 54 85 55 86 63 87
REMARK SMILES IDX 56 88 57 89 61 90 64 91 58 92 59 93 62 94 60 95
REMARK H PARENT 18 7 5 14 25 29 84 48 52 59
REMARK Flexibility Score: inf
ROOT
ATOM      1  C   UNL A   1      32.786  30.119  27.082  1.00  0.00     0.002 C 
ENDROOT
BRANCH   1   2
ATOM      2  C   UNL A   1      32.637  28.605  27.269  1.00  0.00     0.021 C 
BRANCH   2   3
ATOM      3  C   UNL A   1      33.604  27.753  26.448  1.00  0.00     0.116 C 
BRANCH   3   4
ATOM      4  N   UNL A   1      33.977  28.340  25.173  1.00  0.00    -0.354 N 
ATOM      5  C   UNL A   1      33.834  27.874  23.894  1.00  0.00     0.245 C 
ATOM      6  O   UNL A   1      33.977  28.704  22.992  1.00  0.00    -0.272 OA
ATOM      7  H   UNL A   1      34.405  29.223  25.239  1.00  0.00     0.163 HD
BRANCH   5   8
ATOM      8  C   UNL A   1      33.339  26.427  23.605  1.00  0.00     0.116 C 
ATOM      9  C   UNL A   1      34.295  25.374  24.191  1.00  0.00     0.045 C 
BRANCH   8  10
ATOM     10  C   UNL A   1      33.291  26.310  22.035  1.00  0.00     0.035 C 
ATOM     11  C   UNL A   1      32.750  25.004  21.462  1.00  0.00     0.007 C 
ENDBRANCH   8  10
BRANCH   8  12
ATOM     12  N   UNL A   1      31.973  26.162  24.141  1.00  0.00    -0.342 N 
ATOM     13  C   UNL A   1      30.799  26.848  24.014  1.00  0.00     0.225 C 
ATOM     14  H   UNL A   1      31.906  25.345  24.686  1.00  0.00     0.164 HD
ATOM     15  O   UNL A   1      29.961  26.678  24.906  1.00  0.00    -0.275 OA
BRANCH  13  16
ATOM     16  C   UNL A   1      30.446  27.668  22.780  1.00  0.00     0.135 C 
BRANCH  16  17
ATOM     17  C   UNL A   1      29.450  28.772  22.979  1.00  0.00    -0.036 A 
ATOM     18  C   UNL A   1      28.077  28.540  22.827  1.00  0.00     0.004 A 
ATOM     19  C   UNL A   1      29.891  30.057  23.331  1.00  0.00     0.043 A 
ATOM     20  C   UNL A   1      27.159  29.556  23.103  1.00  0.00     0.003 A 
ATOM     21  C   UNL A   1      28.969  31.052  23.620  1.00  0.00     0.123 A 
ATOM     22  C   UNL A   1      27.606  30.809  23.522  1.00  0.00     0.039 A 
ATOM     23  F   UNL A   1      29.401  32.256  24.016  1.00  0.00    -0.207 F 
ENDBRANCH  16  17
ENDBRANCH  13  16
ENDBRANCH   8  12
ENDBRANCH   5   8
ENDBRANCH   3   4
ENDBRANCH   2   3
ENDBRANCH   1   2
BRANCH   1  24
ATOM     24  C   UNL A   1      31.626  30.789  26.345  1.00  0.00     0.002 C 
BRANCH  24  25
ATOM     25  C   UNL A   1      31.377  32.243  26.742  1.00  0.00     0.021 C 
BRANCH  25  26
ATOM     26  C   UNL A   1      32.577  32.932  27.380  1.00  0.00     0.116 C 
BRANCH  26  27
ATOM     27  N   UNL A   1      32.317  34.336  27.649  1.00  0.00    -0.352 N 
ATOM     28  C   UNL A   1      32.908  35.143  28.591  1.00  0.00     0.251 C 
ATOM     29  H   UNL A   1      31.633  34.763  27.085  1.00  0.00     0.163 HD
ATOM     30  O   UNL A   1      32.456  36.247  28.852  1.00  0.00    -0.269 OA
BRANCH  28  31
ATOM     31  C   UNL A   1      34.098  34.635  29.308  1.00  0.00     0.039 A 
ATOM     32  C   UNL A   1      33.952  34.142  30.604  1.00  0.00     0.014 A 
ATOM     33  C   UNL A   1      35.342  34.609  28.671  1.00  0.00     0.014 A 
ATOM     34  C   UNL A   1      35.050  33.567  31.247  1.00  0.00     0.010 A 
ATOM     35  C   UNL A   1      36.414  33.969  29.284  1.00  0.00     0.010 A 
ATOM     36  C   UNL A   1      36.281  33.446  30.580  1.00  0.00    -0.014 A 
BRANCH  36  37
ATOM     37  C   UNL A   1      37.451  32.791  31.218  1.00  0.00     0.031 A 
ATOM     38  C   UNL A   1      38.116  31.630  30.532  1.00  0.00     0.074 A 
ATOM     39  C   UNL A   1      37.867  33.189  32.436  1.00  0.00     0.049 A 
ATOM     40  N   UNL A   1      39.066  30.845  30.974  1.00  0.00    -0.248 NA
ATOM     41  C   UNL A   1      37.637  31.288  29.182  1.00  0.00     0.031 C 
ATOM     42  C   UNL A   1      37.282  34.284  33.214  1.00  0.00     0.029 A 
ATOM     43  N   UNL A   1      38.870  32.711  33.243  1.00  0.00    -0.354 N 
ATOM     44  C   UNL A   1      39.282  29.912  29.967  1.00  0.00     0.074 A 
ATOM     45  C   UNL A   1      38.337  30.196  28.911  1.00  0.00     0.031 C 
ATOM     46  C   UNL A   1      37.944  34.400  34.376  1.00  0.00     0.029 A 
ATOM     47  C   UNL A   1      38.968  33.361  34.450  1.00  0.00     0.049 A 
ATOM     48  H   UNL A   1      39.463  31.969  32.981  1.00  0.00     0.167 HD
ATOM     49  C   UNL A   1      40.204  28.924  29.921  1.00  0.00     0.037 A 
ATOM     50  C   UNL A   1      39.778  33.135  35.503  1.00  0.00     0.037 A 
ATOM     51  C   UNL A   1      41.171  28.674  30.956  1.00  0.00     0.049 A 
ATOM     52  C   UNL A   1      40.785  32.017  35.428  1.00  0.00     0.074 A 
ATOM     53  C   UNL A   1      42.184  27.732  30.970  1.00  0.00     0.029 A 
ATOM     54  N   UNL A   1      41.251  29.370  32.151  1.00  0.00    -0.354 N 
ATOM     55  N   UNL A   1      41.014  31.176  34.448  1.00  0.00    -0.248 NA
ATOM     56  C   UNL A   1      41.652  31.816  36.599  1.00  0.00     0.031 C 
ATOM     57  C   UNL A   1      42.845  27.821  32.196  1.00  0.00     0.029 A 
ATOM     58  C   UNL A   1      42.285  28.862  32.918  1.00  0.00     0.049 A 
ATOM     59  H   UNL A   1      40.662  30.114  32.414  1.00  0.00     0.167 HD
ATOM     60  C   UNL A   1      42.066  30.374  34.870  1.00  0.00     0.074 A 
ATOM     61  C   UNL A   1      42.440  30.831  36.190  1.00  0.00     0.031 C 
ATOM     62  C   UNL A   1      42.666  29.349  34.219  1.00  0.00     0.037 A 
BRANCH  49  63
ATOM     63  C   UNL A   1      40.247  28.044  28.710  1.00  0.00     0.064 A 
ATOM     64  C   UNL A   1      39.607  26.795  28.718  1.00  0.00     0.173 A 
ATOM     65  C   UNL A   1      41.031  28.374  27.595  1.00  0.00     0.173 A 
ATOM     66  F   UNL A   1      38.851  26.429  29.764  1.00  0.00    -0.203 F 
ATOM     67  C   UNL A   1      39.777  25.897  27.669  1.00  0.00     0.198 A 
ATOM     68  C   UNL A   1      41.177  27.484  26.535  1.00  0.00     0.198 A 
ATOM     69  F   UNL A   1      41.654  29.560  27.536  1.00  0.00    -0.203 F 
ATOM     70  F   UNL A   1      39.198  24.689  27.722  1.00  0.00    -0.200 F 
ATOM     71  C   UNL A   1      40.563  26.241  26.579  1.00  0.00     0.200 A 
ATOM     72  F   UNL A   1      41.922  27.825  25.474  1.00  0.00    -0.200 F 
ATOM     73  F   UNL A   1      40.736  25.371  25.575  1.00  0.00    -0.200 F 
ENDBRANCH  49  63
BRANCH  50  74
ATOM     74  C   UNL A   1      39.674  33.985  36.720  1.00  0.00     0.064 A 
ATOM     75  C   UNL A   1      38.884  33.603  37.814  1.00  0.00     0.173 A 
ATOM     76  C   UNL A   1      40.372  35.196  36.816  1.00  0.00     0.173 A 
ATOM     77  F   UNL A   1      38.191  32.455  37.775  1.00  0.00    -0.203 F 
ATOM     78  C   UNL A   1      38.788  34.403  38.951  1.00  0.00     0.198 A 
ATOM     79  C   UNL A   1      40.303  35.981  37.967  1.00  0.00     0.198 A 
ATOM     80  F   UNL A   1      41.158  35.598  35.806  1.00  0.00    -0.203 F 
ATOM     81  F   UNL A   1      38.003  34.026  39.969  1.00  0.00    -0.200 F 
ATOM     82  C   UNL A   1      39.507  35.587  39.030  1.00  0.00     0.200 A 
ATOM     83  F   UNL A   1      41.022  37.108  38.050  1.00  0.00    -0.200 F 
ATOM     84  F   UNL A   1      39.435  36.343  40.134  1.00  0.00    -0.200 F 
ENDBRANCH  50  74
BRANCH  62  85
ATOM     85  C   UNL A   1      43.824  28.667  34.886  1.00  0.00     0.064 A 
ATOM     86  C   UNL A   1      45.139  29.060  34.591  1.00  0.00     0.173 A 
ATOM     87  C   UNL A   1      43.641  27.553  35.716  1.00  0.00     0.173 A 
ATOM     88  F   UNL A   1      45.366  30.114  33.791  1.00  0.00    -0.203 F 
ATOM     89  C   UNL A   1      46.227  28.346  35.080  1.00  0.00     0.198 A 
ATOM     90  C   UNL A   1      44.733  26.859  36.229  1.00  0.00     0.198 A 
ATOM     91  F   UNL A   1      42.404  27.145  36.035  1.00  0.00    -0.203 F 
ATOM     92  F   UNL A   1      47.473  28.709  34.742  1.00  0.00    -0.200 F 
ATOM     93  C   UNL A   1      46.023  27.246  35.899  1.00  0.00     0.200 A 
ATOM     94  F   UNL A   1      44.537  25.808  37.038  1.00  0.00    -0.200 F 
ATOM     95  F   UNL A   1      47.072  26.557  36.368  1.00  0.00    -0.200 F 
ENDBRANCH  62  85
ENDBRANCH  36  37
ENDBRANCH  28  31
ENDBRANCH  26  27
ENDBRANCH  25  26
ENDBRANCH  24  25
ENDBRANCH   1  24
TORSDOF 17
ENDMDL
MODEL 2
REMARK VINA RESULT:     -11.8      0.896      1.960
REMARK SMILES CC[C@](C)(NC(=O)Cc1cccc(F)c1)C(=O)NCCCCCCNC(=O)c1ccc(-c2c3nc(c(-c4c(F)c(F)c(F)c(F)c4F)c4ccc([nH]4)c(-c4c(F)c(F)c(F)c(F)c4F)c4nc(c(-c5c(F)c(F)c(F)c(F)c5F)c5ccc2[nH]5)C=C4)C=C3)cc1
REMARK SMILES IDX 21 1 20 2 19 3 18 4 16 5 17 6 3 8 4 9 2 10 1 11 5 12 6 13
REMARK SMILES IDX 7 15 8 16 9 17 10 18 15 19 11 20 13 21 12 22 14 23 22 24
REMARK SMILES IDX 23 25 24 26 25 27 26 28 27 30 28 31 29 32 90 33 30 34 89 35
REMARK SMILES IDX 31 36 32 37 33 38 83 39 34 40 88 41 82 42 84 43 35 44 87 45
REMARK SMILES IDX 81 46 80 47 36 49 68 50 48 51 67 52 49 53 52 54 66 55 85 56
REMARK SMILES IDX 50 57 51 58 65 60 86 61 53 62 37 63 38 64 46 65 39 66 40 67
REMARK SMILES IDX 44 68 47 69 41 70 42 71 45 72 43 73 69 74 70 75 78 76 71 77
REMARK SMILES IDX 72 78 76 79 79 80 73 81 74 82 77 83 75 84 54 85 55 86 63 87
REMARK SMILES IDX 56 88 57 89 61 90 64 91 58 92 59 93 62 94 60 95
REMARK H PARENT 18 7 5 14 25 29 84 48 52 59
REMARK Flexibility Score: inf
ROOT
ATOM      1  C   UNL A   1      32.386  29.787  27.172  1.00  0.00     0.002 C 
ENDROOT
BRANCH   1   2
ATOM      2  C   UNL A   1      33.697  29.132  26.724  1.00  0.00     0.021 C 
BRANCH   2   3
ATOM      3  C   UNL A   1      33.573  27.676  26.278  1.00  0.00     0.116 C 
BRANCH   3   4
ATOM      4  N   UNL A   1      33.769  27.472  24.853  1.00  0.00    -0.354 N 
ATOM      5  C   UNL A   1      33.645  26.348  24.082  1.00  0.00     0.245 C 
ATOM      6  O   UNL A   1      33.591  26.528  22.861  1.00  0.00    -0.272 OA
ATOM      7  H   UNL A   1      34.036  28.279  24.358  1.00  0.00     0.163 HD
BRANCH   5   8
ATOM      8  C   UNL A   1      33.401  24.948  24.715  1.00  0.00     0.116 C 
ATOM      9  C   UNL A   1      34.580  24.516  25.604  1.00  0.00     0.045 C 
BRANCH   8  10
ATOM     10  C   UNL A   1      33.244  23.962  23.496  1.00  0.00     0.035 C 
ATOM     11  C   UNL A   1      32.853  22.524  23.825  1.00  0.00     0.007 C 
ENDBRANCH   8  10
BRANCH   8  12
ATOM     12  N   UNL A   1      32.157  24.889  25.534  1.00  0.00    -0.342 N 
ATOM     13  C   UNL A   1      30.913  25.418  25.336  1.00  0.00     0.225 C 
ATOM     14  H   UNL A   1      32.249  24.377  26.370  1.00  0.00     0.164 HD
ATOM     15  O   UNL A   1      30.229  25.613  26.346  1.00  0.00    -0.275 OA
BRANCH  13  16
ATOM     16  C   UNL A   1      30.311  25.627  23.953  1.00  0.00     0.135 C 
BRANCH  16  17
ATOM     17  C   UNL A   1      29.697  26.970  23.692  1.00  0.00    -0.036 A 
ATOM     18  C   UNL A   1      30.497  28.095  23.452  1.00  0.00     0.004 A 
ATOM     19  C   UNL A   1      28.301  27.110  23.677  1.00  0.00     0.043 A 
ATOM     20  C   UNL A   1      29.908  29.317  23.122  1.00  0.00     0.003 A 
ATOM     21  C   UNL A   1      27.728  28.324  23.329  1.00  0.00     0.123 A 
ATOM     22  C   UNL A   1      28.520  29.426  23.039  1.00  0.00     0.039 A 
ATOM     23  F   UNL A   1      26.395  28.428  23.257  1.00  0.00    -0.207 F 
ENDBRANCH  16  17
ENDBRANCH  13  16
ENDBRANCH   8  12
ENDBRANCH   5   8
ENDBRANCH   3   4
ENDBRANCH   2   3
ENDBRANCH   1   2
BRANCH   1  24
ATOM     24  C   UNL A   1      31.741  30.705  26.133  1.00  0.00     0.002 C 
BRANCH  24  25
ATOM     25  C   UNL A   1      31.435  32.115  26.633  1.00  0.00     0.021 C 
BRANCH  25  26
ATOM     26  C   UNL A   1      32.598  32.793  27.346  1.00  0.00     0.116 C 
BRANCH  26  27
ATOM     27  N   UNL A   1      32.328  34.195  27.613  1.00  0.00    -0.352 N 
ATOM     28  C   UNL A   1      32.912  35.007  28.556  1.00  0.00     0.251 C 
ATOM     29  H   UNL A   1      31.643  34.617  27.046  1.00  0.00     0.163 HD
ATOM     30  O   UNL A   1      32.452  36.108  28.814  1.00  0.00    -0.269 OA
BRANCH  28  31
ATOM     31  C   UNL A   1      34.103  34.508  29.276  1.00  0.00     0.039 A 
ATOM     32  C   UNL A   1      33.939  33.890  30.516  1.00  0.00     0.014 A 
ATOM     33  C   UNL A   1      35.370  34.614  28.695  1.00  0.00     0.014 A 
ATOM     34  C   UNL A   1      35.046  33.325  31.153  1.00  0.00     0.010 A 
ATOM     35  C   UNL A   1      36.456  33.986  29.294  1.00  0.00     0.010 A 
ATOM     36  C   UNL A   1      36.307  33.339  30.532  1.00  0.00    -0.014 A 
BRANCH  36  37
ATOM     37  C   UNL A   1      37.491  32.699  31.160  1.00  0.00     0.031 A 
ATOM     38  C   UNL A   1      38.164  31.546  30.470  1.00  0.00     0.074 A 
ATOM     39  C   UNL A   1      37.912  33.105  32.374  1.00  0.00     0.049 A 
ATOM     40  N   UNL A   1      39.127  30.773  30.903  1.00  0.00    -0.248 NA
ATOM     41  C   UNL A   1      37.677  31.197  29.124  1.00  0.00     0.031 C 
ATOM     42  C   UNL A   1      37.321  34.192  33.155  1.00  0.00     0.029 A 
ATOM     43  N   UNL A   1      38.929  32.639  33.172  1.00  0.00    -0.354 N 
ATOM     44  C   UNL A   1      39.346  29.842  29.896  1.00  0.00     0.074 A 
ATOM     45  C   UNL A   1      38.388  30.113  28.848  1.00  0.00     0.031 C 
ATOM     46  C   UNL A   1      37.992  34.318  34.312  1.00  0.00     0.029 A 
ATOM     47  C   UNL A   1      39.030  33.292  34.378  1.00  0.00     0.049 A 
ATOM     48  H   UNL A   1      39.529  31.905  32.906  1.00  0.00     0.167 HD
ATOM     49  C   UNL A   1      40.280  28.866  29.843  1.00  0.00     0.037 A 
ATOM     50  C   UNL A   1      39.852  33.077  35.424  1.00  0.00     0.037 A 
ATOM     51  C   UNL A   1      41.259  28.628  30.869  1.00  0.00     0.049 A 
ATOM     52  C   UNL A   1      40.873  31.972  35.340  1.00  0.00     0.074 A 
ATOM     53  C   UNL A   1      42.284  27.699  30.874  1.00  0.00     0.029 A 
ATOM     54  N   UNL A   1      41.341  29.327  32.062  1.00  0.00    -0.354 N 
ATOM     55  N   UNL A   1      41.102  31.132  34.360  1.00  0.00    -0.248 NA
ATOM     56  C   UNL A   1      41.752  31.783  36.504  1.00  0.00     0.031 C 
ATOM     57  C   UNL A   1      42.954  27.798  32.094  1.00  0.00     0.029 A 
ATOM     58  C   UNL A   1      42.388  28.832  32.820  1.00  0.00     0.049 A 
ATOM     59  H   UNL A   1      40.746  30.064  32.330  1.00  0.00     0.167 HD
ATOM     60  C   UNL A   1      42.168  30.344  34.773  1.00  0.00     0.074 A 
ATOM     61  C   UNL A   1      42.548  30.808  36.088  1.00  0.00     0.031 C 
ATOM     62  C   UNL A   1      42.775  29.326  34.117  1.00  0.00     0.037 A 
BRANCH  49  63
ATOM     63  C   UNL A   1      40.323  27.984  28.631  1.00  0.00     0.064 A 
ATOM     64  C   UNL A   1      39.710  26.721  28.652  1.00  0.00     0.173 A 
ATOM     65  C   UNL A   1      41.080  28.330  27.504  1.00  0.00     0.173 A 
ATOM     66  F   UNL A   1      38.980  26.341  29.711  1.00  0.00    -0.203 F 
ATOM     67  C   UNL A   1      39.883  25.825  27.601  1.00  0.00     0.198 A 
ATOM     68  C   UNL A   1      41.229  27.442  26.442  1.00  0.00     0.198 A 
ATOM     69  F   UNL A   1      41.676  29.530  27.433  1.00  0.00    -0.203 F 
ATOM     70  F   UNL A   1      39.333  24.606  27.665  1.00  0.00    -0.200 F 
ATOM     71  C   UNL A   1      40.644  26.185  26.498  1.00  0.00     0.200 A 
ATOM     72  F   UNL A   1      41.949  27.797  25.369  1.00  0.00    -0.200 F 
ATOM     73  F   UNL A   1      40.819  25.318  25.492  1.00  0.00    -0.200 F 
ENDBRANCH  49  63
BRANCH  50  74
ATOM     74  C   UNL A   1      39.749  33.927  36.640  1.00  0.00     0.064 A 
ATOM     75  C   UNL A   1      40.433  35.148  36.740  1.00  0.00     0.173 A 
ATOM     76  C   UNL A   1      38.954  33.539  37.728  1.00  0.00     0.173 A 
ATOM     77  F   UNL A   1      41.212  35.566  35.731  1.00  0.00    -0.203 F 
ATOM     78  C   UNL A   1      40.335  35.940  37.882  1.00  0.00     0.198 A 
ATOM     79  C   UNL A   1      38.829  34.347  38.856  1.00  0.00     0.198 A 
ATOM     80  F   UNL A   1      38.262  32.391  37.675  1.00  0.00    -0.203 F 
ATOM     81  F   UNL A   1      41.023  37.087  37.961  1.00  0.00    -0.200 F 
ATOM     82  C   UNL A   1      39.524  35.543  38.936  1.00  0.00     0.200 A 
ATOM     83  F   UNL A   1      38.021  33.975  39.858  1.00  0.00    -0.200 F 
ATOM     84  F   UNL A   1      39.409  36.319  40.023  1.00  0.00    -0.200 F 
ENDBRANCH  50  74
BRANCH  62  85
ATOM     85  C   UNL A   1      43.947  28.659  34.775  1.00  0.00     0.064 A 
ATOM     86  C   UNL A   1      43.744  27.572  35.640  1.00  0.00     0.173 A 
ATOM     87  C   UNL A   1      45.247  29.166  34.650  1.00  0.00     0.173 A 
ATOM     88  F   UNL A   1      42.515  27.057  35.803  1.00  0.00    -0.203 F 
ATOM     89  C   UNL A   1      44.796  27.036  36.376  1.00  0.00     0.198 A 
ATOM     90  C   UNL A   1      46.303  28.608  35.365  1.00  0.00     0.198 A 
ATOM     91  F   UNL A   1      45.493  30.198  33.828  1.00  0.00    -0.203 F 
ATOM     92  F   UNL A   1      44.568  26.032  37.235  1.00  0.00    -0.200 F 
ATOM     93  C   UNL A   1      46.074  27.555  36.238  1.00  0.00     0.200 A 
ATOM     94  F   UNL A   1      47.542  29.095  35.215  1.00  0.00    -0.200 F 
ATOM     95  F   UNL A   1      47.087  27.040  36.948  1.00  0.00    -0.200 F 
ENDBRANCH  62  85
ENDBRANCH  36  37
ENDBRANCH  28  31
ENDBRANCH  26  27
ENDBRANCH  25  26
ENDBRANCH  24  25
ENDBRANCH   1  24
TORSDOF 17
ENDMDL
MODEL 3
REMARK VINA RESULT:     -11.8      0.570      7.286
REMARK SMILES CC[C@](C)(NC(=O)Cc1cccc(F)c1)C(=O)NCCCCCCNC(=O)c1ccc(-c2c3nc(c(-c4c(F)c(F)c(F)c(F)c4F)c4ccc([nH]4)c(-c4c(F)c(F)c(F)c(F)c4F)c4nc(c(-c5c(F)c(F)c(F)c(F)c5F)c5ccc2[nH]5)C=C4)C=C3)cc1
REMARK SMILES IDX 21 1 20 2 19 3 18 4 16 5 17 6 3 8 4 9 2 10 1 11 5 12 6 13
REMARK SMILES IDX 7 15 8 16 9 17 10 18 15 19 11 20 13 21 12 22 14 23 22 24
REMARK SMILES IDX 23 25 24 26 25 27 26 28 27 30 28 31 29 32 90 33 30 34 89 35
REMARK SMILES IDX 31 36 32 37 33 38 83 39 34 40 88 41 82 42 84 43 35 44 87 45
REMARK SMILES IDX 81 46 80 47 36 49 68 50 48 51 67 52 49 53 52 54 66 55 85 56
REMARK SMILES IDX 50 57 51 58 65 60 86 61 53 62 37 63 38 64 46 65 39 66 40 67
REMARK SMILES IDX 44 68 47 69 41 70 42 71 45 72 43 73 69 74 70 75 78 76 71 77
REMARK SMILES IDX 72 78 76 79 79 80 73 81 74 82 77 83 75 84 54 85 55 86 63 87
REMARK SMILES IDX 56 88 57 89 61 90 64 91 58 92 59 93 62 94 60 95
REMARK H PARENT 18 7 5 14 25 29 84 48 52 59
REMARK Flexibility Score: inf
ROOT
ATOM      1  C   UNL A   1      32.783  30.274  26.691  1.00  0.00     0.002 C 
ENDROOT
BRANCH   1   2
ATOM      2  C   UNL A   1      32.618  28.914  27.379  1.00  0.00     0.021 C 
BRANCH   2   3
ATOM      3  C   UNL A   1      33.362  27.758  26.714  1.00  0.00     0.116 C 
BRANCH   3   4
ATOM      4  N   UNL A   1      33.812  28.040  25.362  1.00  0.00    -0.354 N 
ATOM      5  C   UNL A   1      33.730  27.297  24.215  1.00  0.00     0.245 C 
ATOM      6  O   UNL A   1      33.934  27.902  23.158  1.00  0.00    -0.272 OA
ATOM      7  H   UNL A   1      34.251  28.914  25.251  1.00  0.00     0.163 HD
BRANCH   5   8
ATOM      8  C   UNL A   1      33.227  25.825  24.233  1.00  0.00     0.116 C 
ATOM      9  C   UNL A   1      34.112  24.935  25.122  1.00  0.00     0.045 C 
BRANCH   8  10
ATOM     10  C   UNL A   1      33.297  25.344  22.734  1.00  0.00     0.035 C 
ATOM     11  C   UNL A   1      33.689  23.888  22.499  1.00  0.00     0.007 C 
ENDBRANCH   8  10
BRANCH   8  12
ATOM     12  N   UNL A   1      31.819  25.697  24.704  1.00  0.00    -0.342 N 
ATOM     13  C   UNL A   1      30.703  26.444  24.449  1.00  0.00     0.225 C 
ATOM     14  H   UNL A   1      31.665  24.937  25.311  1.00  0.00     0.164 HD
ATOM     15  O   UNL A   1      29.808  26.407  25.299  1.00  0.00    -0.275 OA
BRANCH  13  16
ATOM     16  C   UNL A   1      30.477  27.173  23.132  1.00  0.00     0.135 C 
BRANCH  16  17
ATOM     17  C   UNL A   1      29.491  28.303  23.159  1.00  0.00    -0.036 A 
ATOM     18  C   UNL A   1      28.122  28.071  22.982  1.00  0.00     0.004 A 
ATOM     19  C   UNL A   1      29.939  29.616  23.372  1.00  0.00     0.043 A 
ATOM     20  C   UNL A   1      27.211  29.122  23.101  1.00  0.00     0.003 A 
ATOM     21  C   UNL A   1      29.023  30.649  23.506  1.00  0.00     0.123 A 
ATOM     22  C   UNL A   1      27.661  30.411  23.384  1.00  0.00     0.039 A 
ATOM     23  F   UNL A   1      29.460  31.887  23.773  1.00  0.00    -0.207 F 
ENDBRANCH  16  17
ENDBRANCH  13  16
ENDBRANCH   8  12
ENDBRANCH   5   8
ENDBRANCH   3   4
ENDBRANCH   2   3
ENDBRANCH   1   2
BRANCH   1  24
ATOM     24  C   UNL A   1      31.472  30.947  26.282  1.00  0.00     0.002 C 
BRANCH  24  25
ATOM     25  C   UNL A   1      31.405  32.443  26.583  1.00  0.00     0.021 C 
BRANCH  25  26
ATOM     26  C   UNL A   1      32.607  32.982  27.348  1.00  0.00     0.116 C 
BRANCH  26  27
ATOM     27  N   UNL A   1      32.433  34.375  27.722  1.00  0.00    -0.352 N 
ATOM     28  C   UNL A   1      33.049  35.063  28.740  1.00  0.00     0.251 C 
ATOM     29  H   UNL A   1      31.794  34.890  27.179  1.00  0.00     0.163 HD
ATOM     30  O   UNL A   1      32.663  36.171  29.078  1.00  0.00    -0.269 OA
BRANCH  28  31
ATOM     31  C   UNL A   1      34.182  34.422  29.440  1.00  0.00     0.039 A 
ATOM     32  C   UNL A   1      33.928  33.611  30.546  1.00  0.00     0.014 A 
ATOM     33  C   UNL A   1      35.486  34.592  28.966  1.00  0.00     0.014 A 
ATOM     34  C   UNL A   1      34.982  32.921  31.148  1.00  0.00     0.010 A 
ATOM     35  C   UNL A   1      36.521  33.846  29.519  1.00  0.00     0.010 A 
ATOM     36  C   UNL A   1      36.281  33.006  30.619  1.00  0.00    -0.014 A 
BRANCH  36  37
ATOM     37  C   UNL A   1      37.412  32.242  31.204  1.00  0.00     0.031 A 
ATOM     38  C   UNL A   1      37.935  32.617  32.563  1.00  0.00     0.074 A 
ATOM     39  C   UNL A   1      38.009  31.267  30.491  1.00  0.00     0.049 A 
ATOM     40  N   UNL A   1      38.986  32.161  33.197  1.00  0.00    -0.248 NA
ATOM     41  C   UNL A   1      37.197  33.656  33.300  1.00  0.00     0.031 C 
ATOM     42  C   UNL A   1      37.611  30.835  29.150  1.00  0.00     0.029 A 
ATOM     43  N   UNL A   1      39.090  30.472  30.787  1.00  0.00    -0.354 N 
ATOM     44  C   UNL A   1      39.042  32.869  34.390  1.00  0.00     0.074 A 
ATOM     45  C   UNL A   1      37.950  33.816  34.378  1.00  0.00     0.031 C 
ATOM     46  C   UNL A   1      38.426  29.846  28.747  1.00  0.00     0.029 A 
ATOM     47  C   UNL A   1      39.434  29.606  29.777  1.00  0.00     0.049 A 
ATOM     48  H   UNL A   1      39.574  30.520  31.643  1.00  0.00     0.167 HD
ATOM     49  C   UNL A   1      39.913  32.722  35.414  1.00  0.00     0.037 A 
ATOM     50  C   UNL A   1      40.455  28.731  29.683  1.00  0.00     0.037 A 
ATOM     51  C   UNL A   1      40.971  31.748  35.441  1.00  0.00     0.049 A 
ATOM     52  C   UNL A   1      41.418  28.601  30.835  1.00  0.00     0.074 A 
ATOM     53  C   UNL A   1      41.866  31.486  36.462  1.00  0.00     0.029 A 
ATOM     54  N   UNL A   1      41.270  30.875  34.407  1.00  0.00    -0.354 N 
ATOM     55  N   UNL A   1      41.428  29.240  31.979  1.00  0.00    -0.248 NA
ATOM     56  C   UNL A   1      42.510  27.626  30.688  1.00  0.00     0.031 C 
ATOM     57  C   UNL A   1      42.742  30.490  36.028  1.00  0.00     0.029 A 
ATOM     58  C   UNL A   1      42.352  30.088  34.761  1.00  0.00     0.049 A 
ATOM     59  H   UNL A   1      40.786  30.822  33.552  1.00  0.00     0.167 HD
ATOM     60  C   UNL A   1      42.499  28.724  32.696  1.00  0.00     0.074 A 
ATOM     61  C   UNL A   1      43.112  27.712  31.866  1.00  0.00     0.031 C 
ATOM     62  C   UNL A   1      42.932  29.061  33.935  1.00  0.00     0.037 A 
BRANCH  49  63
ATOM     63  C   UNL A   1      39.761  33.608  36.614  1.00  0.00     0.064 A 
ATOM     64  C   UNL A   1      38.913  33.234  37.668  1.00  0.00     0.173 A 
ATOM     65  C   UNL A   1      40.346  34.880  36.660  1.00  0.00     0.173 A 
ATOM     66  F   UNL A   1      38.324  32.028  37.667  1.00  0.00    -0.203 F 
ATOM     67  C   UNL A   1      38.632  34.116  38.707  1.00  0.00     0.198 A 
ATOM     68  C   UNL A   1      40.084  35.750  37.714  1.00  0.00     0.198 A 
ATOM     69  F   UNL A   1      41.172  35.279  35.681  1.00  0.00    -0.203 F 
ATOM     70  F   UNL A   1      37.778  33.757  39.675  1.00  0.00    -0.200 F 
ATOM     71  C   UNL A   1      39.215  35.374  38.729  1.00  0.00     0.200 A 
ATOM     72  F   UNL A   1      40.662  36.959  37.744  1.00  0.00    -0.200 F 
ATOM     73  F   UNL A   1      38.934  36.226  39.723  1.00  0.00    -0.200 F 
ENDBRANCH  49  63
BRANCH  50  74
ATOM     74  C   UNL A   1      40.620  27.906  28.456  1.00  0.00     0.064 A 
ATOM     75  C   UNL A   1      41.368  28.364  27.362  1.00  0.00     0.173 A 
ATOM     76  C   UNL A   1      40.037  26.635  28.356  1.00  0.00     0.173 A 
ATOM     77  F   UNL A   1      41.945  29.575  27.401  1.00  0.00    -0.203 F 
ATOM     78  C   UNL A   1      41.519  27.589  26.214  1.00  0.00     0.198 A 
ATOM     79  C   UNL A   1      40.215  25.846  27.221  1.00  0.00     0.198 A 
ATOM     80  F   UNL A   1      39.328  26.142  29.382  1.00  0.00    -0.203 F 
ATOM     81  F   UNL A   1      42.216  28.064  25.173  1.00  0.00    -0.200 F 
ATOM     82  C   UNL A   1      40.949  26.325  26.149  1.00  0.00     0.200 A 
ATOM     83  F   UNL A   1      39.689  24.614  27.176  1.00  0.00    -0.200 F 
ATOM     84  F   UNL A   1      41.117  25.569  25.055  1.00  0.00    -0.200 F 
ENDBRANCH  50  74
BRANCH  62  85
ATOM     85  C   UNL A   1      44.100  28.310  34.505  1.00  0.00     0.064 A 
ATOM     86  C   UNL A   1      45.409  28.754  34.260  1.00  0.00     0.173 A 
ATOM     87  C   UNL A   1      43.932  27.095  35.181  1.00  0.00     0.173 A 
ATOM     88  F   UNL A   1      45.623  29.906  33.605  1.00  0.00    -0.203 F 
ATOM     89  C   UNL A   1      46.507  27.993  34.649  1.00  0.00     0.198 A 
ATOM     90  C   UNL A   1      45.033  26.351  35.596  1.00  0.00     0.198 A 
ATOM     91  F   UNL A   1      42.700  26.635  35.447  1.00  0.00    -0.203 F 
ATOM     92  F   UNL A   1      47.748  28.412  34.358  1.00  0.00    -0.200 F 
ATOM     93  C   UNL A   1      46.318  26.793  35.317  1.00  0.00     0.200 A 
ATOM     94  F   UNL A   1      44.851  25.202  36.260  1.00  0.00    -0.200 F 
ATOM     95  F   UNL A   1      47.376  26.060  35.689  1.00  0.00    -0.200 F 
ENDBRANCH  62  85
ENDBRANCH  36  37
ENDBRANCH  28  31
ENDBRANCH  26  27
ENDBRANCH  25  26
ENDBRANCH  24  25
ENDBRANCH   1  24
TORSDOF 17
ENDMDL
