MODEL 1
REMARK VINA RESULT:     -12.8      0.000      0.000
REMARK SMILES COc1cccc(-c2c(C(=O)NCCCCCCNC(=O)c3ccc(-c4c5nc(c(-c6c(F)c(F)c(F)c(F)c6F)c6ccc([nH]6)c(-c6c(F)c(F)c(F)c(F)c6F)c6nc(c(-c7c(F)c(F)c(F)c(F)c7F)c7ccc4[nH]7)C=C6)C=C5)cc3)nnn2-c2ccc(OC(F)(F)F)cc2)c1
REMARK SMILES IDX 15 1 14 2 13 3 12 4 10 5 11 6 9 8 8 9 87 10 85 11 86 12 7 13
REMARK SMILES IDX 3 14 4 15 99 16 5 17 6 18 2 19 1 20 88 21 89 22 98 23 90 24
REMARK SMILES IDX 97 25 91 26 92 27 93 28 94 29 95 30 96 31 16 32 17 33 18 34
REMARK SMILES IDX 19 35 20 36 21 38 22 39 23 40 84 41 24 42 83 43 25 44 26 45
REMARK SMILES IDX 27 46 77 47 28 48 82 49 76 50 78 51 29 52 81 53 75 54 74 55
REMARK SMILES IDX 30 57 62 58 42 59 61 60 43 61 46 62 60 63 79 64 44 65 45 66
REMARK SMILES IDX 59 68 80 69 47 70 31 71 32 72 40 73 33 74 34 75 38 76 41 77
REMARK SMILES IDX 35 78 36 79 39 80 37 81 63 82 64 83 72 84 65 85 66 86 70 87
REMARK SMILES IDX 73 88 67 89 68 90 71 91 69 92 48 93 49 94 57 95 50 96 51 97
REMARK SMILES IDX 55 98 58 99 52 100 53 101 56 102 54 103
REMARK H PARENT 12 7 19 37 78 56 46 67
REMARK Flexibility Score: inf
ROOT
ATOM      1  C   UNL A   1      31.772  29.466  26.857  1.00  0.00     0.002 C 
ENDROOT
BRANCH   1   2
ATOM      2  C   UNL A   1      32.174  28.109  27.422  1.00  0.00     0.021 C 
BRANCH   2   3
ATOM      3  C   UNL A   1      32.613  27.040  26.438  1.00  0.00     0.116 C 
BRANCH   3   4
ATOM      4  N   UNL A   1      32.705  27.397  25.054  1.00  0.00    -0.351 N 
ATOM      5  C   UNL A   1      32.539  26.606  23.934  1.00  0.00     0.274 C 
ATOM      6  O   UNL A   1      32.629  27.202  22.857  1.00  0.00    -0.267 OA
ATOM      7  H   UNL A   1      32.916  28.342  24.875  1.00  0.00     0.163 HD
BRANCH   5   8
ATOM      8  C   UNL A   1      32.315  25.146  23.960  1.00  0.00     0.178 A 
ATOM      9  C   UNL A   1      33.113  24.008  24.130  1.00  0.00     0.108 A 
ATOM     10  N   UNL A   1      32.199  22.951  24.070  1.00  0.00    -0.212 N 
ATOM     11  N   UNL A   1      31.014  24.714  23.740  1.00  0.00    -0.124 NA
ATOM     12  N   UNL A   1      30.990  23.393  23.693  1.00  0.00    -0.061 NA
BRANCH   9  13
ATOM     13  C   UNL A   1      34.556  23.751  24.163  1.00  0.00     0.006 A 
ATOM     14  C   UNL A   1      36.640  23.800  25.441  1.00  0.00     0.119 A 
ATOM     15  C   UNL A   1      37.289  23.211  24.355  1.00  0.00     0.046 A 
ATOM     16  C   UNL A   1      35.278  24.075  25.337  1.00  0.00     0.056 A 
ATOM     17  C   UNL A   1      36.591  22.905  23.182  1.00  0.00     0.005 A 
ATOM     18  C   UNL A   1      35.226  23.177  23.080  1.00  0.00     0.011 A 
BRANCH  14  19
ATOM     19  O   UNL A   1      37.441  24.054  26.519  1.00  0.00    -0.497 OA
ATOM     20  C   UNL A   1      38.791  23.603  26.468  1.00  0.00     0.278 C 
ENDBRANCH  14  19
ENDBRANCH   9  13
BRANCH  10  21
ATOM     21  C   UNL A   1      32.461  21.572  24.252  1.00  0.00     0.067 A 
ATOM     22  C   UNL A   1      32.763  21.081  25.523  1.00  0.00     0.032 A 
ATOM     23  C   UNL A   1      32.333  20.690  23.173  1.00  0.00     0.032 A 
ATOM     24  C   UNL A   1      32.831  19.698  25.719  1.00  0.00     0.049 A 
ATOM     25  C   UNL A   1      32.433  19.314  23.372  1.00  0.00     0.049 A 
ATOM     26  C   UNL A   1      32.652  18.807  24.652  1.00  0.00     0.129 A 
BRANCH  26  27
ATOM     27  O   UNL A   1      32.710  17.484  24.989  1.00  0.00    -0.406 OA
BRANCH  27  28
ATOM     28  C   UNL A   1      33.879  16.768  24.623  1.00  0.00     0.573 C 
ATOM     29  F   UNL A   1      34.891  17.607  24.312  1.00  0.00    -0.132 F 
ATOM     30  F   UNL A   1      34.271  15.940  25.615  1.00  0.00    -0.132 F 
ATOM     31  F   UNL A   1      33.608  16.020  23.532  1.00  0.00    -0.132 F 
ENDBRANCH  27  28
ENDBRANCH  26  27
ENDBRANCH  10  21
ENDBRANCH   5   8
ENDBRANCH   3   4
ENDBRANCH   2   3
ENDBRANCH   1   2
BRANCH   1  32
ATOM     32  C   UNL A   1      32.855  30.545  26.715  1.00  0.00     0.002 C 
BRANCH  32  33
ATOM     33  C   UNL A   1      34.016  30.572  27.719  1.00  0.00     0.021 C 
BRANCH  33  34
ATOM     34  C   UNL A   1      34.659  31.928  27.950  1.00  0.00     0.116 C 
BRANCH  34  35
ATOM     35  N   UNL A   1      34.591  32.393  29.337  1.00  0.00    -0.352 N 
ATOM     36  C   UNL A   1      35.350  31.966  30.418  1.00  0.00     0.251 C 
ATOM     37  H   UNL A   1      33.926  33.095  29.525  1.00  0.00     0.163 HD
ATOM     38  O   UNL A   1      34.983  32.145  31.565  1.00  0.00    -0.269 OA
BRANCH  36  39
ATOM     39  C   UNL A   1      36.626  31.278  30.141  1.00  0.00     0.039 A 
ATOM     40  C   UNL A   1      37.818  31.974  29.931  1.00  0.00     0.014 A 
ATOM     41  C   UNL A   1      36.612  29.889  30.156  1.00  0.00     0.014 A 
ATOM     42  C   UNL A   1      39.005  31.248  29.829  1.00  0.00     0.010 A 
ATOM     43  C   UNL A   1      37.789  29.205  30.288  1.00  0.00     0.010 A 
ATOM     44  C   UNL A   1      38.986  29.858  30.036  1.00  0.00    -0.014 A 
BRANCH  44  45
ATOM     45  C   UNL A   1      40.214  29.070  30.051  1.00  0.00     0.031 A 
ATOM     46  C   UNL A   1      40.835  28.892  31.391  1.00  0.00     0.074 A 
ATOM     47  C   UNL A   1      40.673  28.401  28.968  1.00  0.00     0.049 A 
ATOM     48  N   UNL A   1      41.975  29.349  31.794  1.00  0.00    -0.248 NA
ATOM     49  C   UNL A   1      40.054  28.228  32.446  1.00  0.00     0.031 C 
ATOM     50  C   UNL A   1      40.045  28.216  27.652  1.00  0.00     0.029 A 
ATOM     51  N   UNL A   1      41.803  27.653  28.854  1.00  0.00    -0.354 N 
ATOM     52  C   UNL A   1      42.139  28.901  33.102  1.00  0.00     0.074 A 
ATOM     53  C   UNL A   1      40.872  28.338  33.496  1.00  0.00     0.031 C 
ATOM     54  C   UNL A   1      40.674  27.230  26.976  1.00  0.00     0.029 A 
ATOM     55  C   UNL A   1      41.862  26.860  27.717  1.00  0.00     0.049 A 
ATOM     56  H   UNL A   1      42.524  27.674  29.526  1.00  0.00     0.167 HD
ATOM     57  C   UNL A   1      43.373  28.852  33.677  1.00  0.00     0.037 A 
ATOM     58  C   UNL A   1      42.821  25.956  27.408  1.00  0.00     0.037 A 
ATOM     59  C   UNL A   1      44.316  29.656  32.944  1.00  0.00     0.049 A 
ATOM     60  C   UNL A   1      44.020  26.307  28.207  1.00  0.00     0.074 A 
ATOM     61  C   UNL A   1      44.420  31.003  32.653  1.00  0.00     0.029 A 
ATOM     62  N   UNL A   1      45.151  29.022  32.058  1.00  0.00    -0.354 N 
ATOM     63  N   UNL A   1      44.713  27.398  28.027  1.00  0.00    -0.248 NA
ATOM     64  C   UNL A   1      44.165  25.677  29.509  1.00  0.00     0.031 C 
ATOM     65  C   UNL A   1      44.900  31.052  31.311  1.00  0.00     0.029 A 
ATOM     66  C   UNL A   1      45.130  29.741  30.891  1.00  0.00     0.049 A 
ATOM     67  H   UNL A   1      45.667  28.201  32.229  1.00  0.00     0.167 HD
ATOM     68  C   UNL A   1      45.035  27.824  29.307  1.00  0.00     0.074 A 
ATOM     69  C   UNL A   1      44.741  26.683  30.173  1.00  0.00     0.031 C 
ATOM     70  C   UNL A   1      45.238  29.145  29.580  1.00  0.00     0.037 A 
BRANCH  57  71
ATOM     71  C   UNL A   1      43.823  27.814  34.676  1.00  0.00     0.064 A 
ATOM     72  C   UNL A   1      44.525  28.230  35.828  1.00  0.00     0.173 A 
ATOM     73  C   UNL A   1      43.877  26.433  34.398  1.00  0.00     0.173 A 
ATOM     74  F   UNL A   1      44.550  29.523  36.185  1.00  0.00    -0.203 F 
ATOM     75  C   UNL A   1      45.298  27.344  36.582  1.00  0.00     0.198 A 
ATOM     76  C   UNL A   1      44.608  25.543  35.184  1.00  0.00     0.198 A 
ATOM     77  F   UNL A   1      43.327  25.905  33.299  1.00  0.00    -0.203 F 
ATOM     78  F   UNL A   1      46.055  27.809  37.585  1.00  0.00    -0.200 F 
ATOM     79  C   UNL A   1      45.347  26.003  36.253  1.00  0.00     0.200 A 
ATOM     80  F   UNL A   1      44.657  24.249  34.838  1.00  0.00    -0.200 F 
ATOM     81  F   UNL A   1      46.142  25.163  36.929  1.00  0.00    -0.200 F 
ENDBRANCH  57  71
BRANCH  58  82
ATOM     82  C   UNL A   1      42.657  24.641  26.746  1.00  0.00     0.064 A 
ATOM     83  C   UNL A   1      43.235  24.385  25.493  1.00  0.00     0.173 A 
ATOM     84  C   UNL A   1      42.183  23.524  27.460  1.00  0.00     0.173 A 
ATOM     85  F   UNL A   1      43.751  25.391  24.772  1.00  0.00    -0.203 F 
ATOM     86  C   UNL A   1      43.361  23.082  24.997  1.00  0.00     0.198 A 
ATOM     87  C   UNL A   1      42.306  22.225  26.963  1.00  0.00     0.198 A 
ATOM     88  F   UNL A   1      41.685  23.661  28.699  1.00  0.00    -0.203 F 
ATOM     89  F   UNL A   1      43.979  22.869  23.827  1.00  0.00    -0.200 F 
ATOM     90  C   UNL A   1      42.908  22.003  25.738  1.00  0.00     0.200 A 
ATOM     91  F   UNL A   1      41.903  21.188  27.711  1.00  0.00    -0.200 F 
ATOM     92  F   UNL A   1      43.091  20.751  25.296  1.00  0.00    -0.200 F 
ENDBRANCH  58  82
BRANCH  70  93
ATOM     93  C   UNL A   1      45.355  30.098  28.422  1.00  0.00     0.064 A 
ATOM     94  C   UNL A   1      44.268  30.782  27.849  1.00  0.00     0.173 A 
ATOM     95  C   UNL A   1      46.640  30.461  27.999  1.00  0.00     0.173 A 
ATOM     96  F   UNL A   1      43.015  30.557  28.261  1.00  0.00    -0.203 F 
ATOM     97  C   UNL A   1      44.464  31.768  26.882  1.00  0.00     0.198 A 
ATOM     98  C   UNL A   1      46.834  31.469  27.059  1.00  0.00     0.198 A 
ATOM     99  F   UNL A   1      47.717  29.876  28.548  1.00  0.00    -0.203 F 
ATOM    100  F   UNL A   1      43.411  32.409  26.352  1.00  0.00    -0.200 F 
ATOM    101  C   UNL A   1      45.747  32.118  26.497  1.00  0.00     0.200 A 
ATOM    102  F   UNL A   1      48.079  31.836  26.725  1.00  0.00    -0.200 F 
ATOM    103  F   UNL A   1      45.939  33.100  25.604  1.00  0.00    -0.200 F 
ENDBRANCH  70  93
ENDBRANCH  44  45
ENDBRANCH  36  39
ENDBRANCH  34  35
ENDBRANCH  33  34
ENDBRANCH  32  33
ENDBRANCH   1  32
TORSDOF 18
ENDMDL
MODEL 2
REMARK VINA RESULT:     -12.7      2.593      7.332
REMARK SMILES COc1cccc(-c2c(C(=O)NCCCCCCNC(=O)c3ccc(-c4c5nc(c(-c6c(F)c(F)c(F)c(F)c6F)c6ccc([nH]6)c(-c6c(F)c(F)c(F)c(F)c6F)c6nc(c(-c7c(F)c(F)c(F)c(F)c7F)c7ccc4[nH]7)C=C6)C=C5)cc3)nnn2-c2ccc(OC(F)(F)F)cc2)c1
REMARK SMILES IDX 15 1 14 2 13 3 12 4 10 5 11 6 9 8 8 9 87 10 85 11 86 12 7 13
REMARK SMILES IDX 3 14 4 15 99 16 5 17 6 18 2 19 1 20 88 21 89 22 98 23 90 24
REMARK SMILES IDX 97 25 91 26 92 27 93 28 94 29 95 30 96 31 16 32 17 33 18 34
REMARK SMILES IDX 19 35 20 36 21 38 22 39 23 40 84 41 24 42 83 43 25 44 26 45
REMARK SMILES IDX 27 46 77 47 28 48 82 49 76 50 78 51 29 52 81 53 75 54 74 55
REMARK SMILES IDX 30 57 62 58 42 59 61 60 43 61 46 62 60 63 79 64 44 65 45 66
REMARK SMILES IDX 59 68 80 69 47 70 31 71 32 72 40 73 33 74 34 75 38 76 41 77
REMARK SMILES IDX 35 78 36 79 39 80 37 81 63 82 64 83 72 84 65 85 66 86 70 87
REMARK SMILES IDX 73 88 67 89 68 90 71 91 69 92 48 93 49 94 57 95 50 96 51 97
REMARK SMILES IDX 55 98 58 99 52 100 53 101 56 102 54 103
REMARK H PARENT 12 7 19 37 78 56 46 67
REMARK Flexibility Score: inf
ROOT
ATOM      1  C   UNL A   1      31.716  28.135  26.579  1.00  0.00     0.002 C 
ENDROOT
BRANCH   1   2
ATOM      2  C   UNL A   1      31.698  26.612  26.528  1.00  0.00     0.021 C 
BRANCH   2   3
ATOM      3  C   UNL A   1      30.599  25.949  25.719  1.00  0.00     0.116 C 
BRANCH   3   4
ATOM      4  N   UNL A   1      29.857  24.889  26.334  1.00  0.00    -0.351 N 
ATOM      5  C   UNL A   1      30.315  23.705  26.882  1.00  0.00     0.274 C 
ATOM      6  O   UNL A   1      29.442  22.997  27.391  1.00  0.00    -0.267 OA
ATOM      7  H   UNL A   1      28.883  25.023  26.374  1.00  0.00     0.163 HD
BRANCH   5   8
ATOM      8  C   UNL A   1      31.719  23.249  26.848  1.00  0.00     0.178 A 
ATOM      9  C   UNL A   1      32.705  23.098  25.866  1.00  0.00     0.108 A 
ATOM     10  N   UNL A   1      33.818  22.645  26.580  1.00  0.00    -0.212 N 
ATOM     11  N   UNL A   1      32.261  22.819  28.052  1.00  0.00    -0.124 NA
ATOM     12  N   UNL A   1      33.479  22.352  27.845  1.00  0.00    -0.061 NA
BRANCH   9  13
ATOM     13  C   UNL A   1      32.721  23.139  24.400  1.00  0.00     0.006 A 
ATOM     14  C   UNL A   1      33.137  24.436  22.369  1.00  0.00     0.119 A 
ATOM     15  C   UNL A   1      32.870  23.292  21.616  1.00  0.00     0.046 A 
ATOM     16  C   UNL A   1      33.052  24.357  23.758  1.00  0.00     0.056 A 
ATOM     17  C   UNL A   1      32.521  22.088  22.237  1.00  0.00     0.005 A 
ATOM     18  C   UNL A   1      32.442  22.008  23.628  1.00  0.00     0.011 A 
BRANCH  14  19
ATOM     19  O   UNL A   1      33.456  25.544  21.636  1.00  0.00    -0.497 OA
ATOM     20  C   UNL A   1      33.674  26.766  22.335  1.00  0.00     0.278 C 
ENDBRANCH  14  19
ENDBRANCH   9  13
BRANCH  10  21
ATOM     21  C   UNL A   1      35.119  22.392  26.083  1.00  0.00     0.067 A 
ATOM     22  C   UNL A   1      36.054  23.426  26.022  1.00  0.00     0.032 A 
ATOM     23  C   UNL A   1      35.492  21.089  25.735  1.00  0.00     0.032 A 
ATOM     24  C   UNL A   1      37.384  23.122  25.710  1.00  0.00     0.049 A 
ATOM     25  C   UNL A   1      36.813  20.801  25.397  1.00  0.00     0.049 A 
ATOM     26  C   UNL A   1      37.774  21.810  25.412  1.00  0.00     0.129 A 
BRANCH  26  27
ATOM     27  O   UNL A   1      39.108  21.649  25.159  1.00  0.00    -0.406 OA
BRANCH  27  28
ATOM     28  C   UNL A   1      39.995  21.736  26.263  1.00  0.00     0.573 C 
ATOM     29  F   UNL A   1      39.438  22.417  27.289  1.00  0.00    -0.132 F 
ATOM     30  F   UNL A   1      40.365  20.509  26.687  1.00  0.00    -0.132 F 
ATOM     31  F   UNL A   1      41.106  22.401  25.877  1.00  0.00    -0.132 F 
ENDBRANCH  27  28
ENDBRANCH  26  27
ENDBRANCH  10  21
ENDBRANCH   5   8
ENDBRANCH   3   4
ENDBRANCH   2   3
ENDBRANCH   1   2
BRANCH   1  32
ATOM     32  C   UNL A   1      32.847  28.824  27.355  1.00  0.00     0.002 C 
BRANCH  32  33
ATOM     33  C   UNL A   1      34.085  29.315  26.590  1.00  0.00     0.021 C 
BRANCH  33  34
ATOM     34  C   UNL A   1      35.412  29.162  27.311  1.00  0.00     0.116 C 
BRANCH  34  35
ATOM     35  N   UNL A   1      35.411  29.683  28.679  1.00  0.00    -0.352 N 
ATOM     36  C   UNL A   1      36.365  29.483  29.669  1.00  0.00     0.251 C 
ATOM     37  H   UNL A   1      34.641  30.243  28.928  1.00  0.00     0.163 HD
ATOM     38  O   UNL A   1      36.106  29.650  30.846  1.00  0.00    -0.269 OA
BRANCH  36  39
ATOM     39  C   UNL A   1      37.716  29.056  29.254  1.00  0.00     0.039 A 
ATOM     40  C   UNL A   1      38.412  29.685  28.221  1.00  0.00     0.014 A 
ATOM     41  C   UNL A   1      38.304  28.028  29.980  1.00  0.00     0.014 A 
ATOM     42  C   UNL A   1      39.740  29.323  27.994  1.00  0.00     0.010 A 
ATOM     43  C   UNL A   1      39.657  27.843  29.908  1.00  0.00     0.010 A 
ATOM     44  C   UNL A   1      40.367  28.415  28.864  1.00  0.00    -0.014 A 
BRANCH  44  45
ATOM     45  C   UNL A   1      41.784  28.089  28.737  1.00  0.00     0.031 A 
ATOM     46  C   UNL A   1      42.081  26.842  27.981  1.00  0.00     0.074 A 
ATOM     47  C   UNL A   1      42.771  28.931  29.120  1.00  0.00     0.049 A 
ATOM     48  N   UNL A   1      42.610  25.755  28.438  1.00  0.00    -0.248 NA
ATOM     49  C   UNL A   1      41.636  26.745  26.582  1.00  0.00     0.031 C 
ATOM     50  C   UNL A   1      42.678  30.315  29.608  1.00  0.00     0.029 A 
ATOM     51  N   UNL A   1      44.116  28.735  29.069  1.00  0.00    -0.354 N 
ATOM     52  C   UNL A   1      42.718  24.885  27.356  1.00  0.00     0.074 A 
ATOM     53  C   UNL A   1      41.979  25.491  26.277  1.00  0.00     0.031 C 
ATOM     54  C   UNL A   1      43.896  30.898  29.574  1.00  0.00     0.029 A 
ATOM     55  C   UNL A   1      44.876  29.880  29.261  1.00  0.00     0.049 A 
ATOM     56  H   UNL A   1      44.518  27.850  28.909  1.00  0.00     0.167 HD
ATOM     57  C   UNL A   1      43.581  23.831  27.387  1.00  0.00     0.037 A 
ATOM     58  C   UNL A   1      46.223  29.984  29.165  1.00  0.00     0.037 A 
ATOM     59  C   UNL A   1      43.999  23.546  28.736  1.00  0.00     0.049 A 
ATOM     60  C   UNL A   1      46.774  28.616  29.320  1.00  0.00     0.074 A 
ATOM     61  C   UNL A   1      43.348  23.146  29.887  1.00  0.00     0.029 A 
ATOM     62  N   UNL A   1      45.214  24.031  29.149  1.00  0.00    -0.354 N 
ATOM     63  N   UNL A   1      46.708  27.931  30.428  1.00  0.00    -0.248 NA
ATOM     64  C   UNL A   1      46.976  27.835  28.109  1.00  0.00     0.031 C 
ATOM     65  C   UNL A   1      43.984  23.870  30.938  1.00  0.00     0.029 A 
ATOM     66  C   UNL A   1      45.028  24.608  30.378  1.00  0.00     0.049 A 
ATOM     67  H   UNL A   1      46.064  23.976  28.653  1.00  0.00     0.167 HD
ATOM     68  C   UNL A   1      46.429  26.634  30.023  1.00  0.00     0.074 A 
ATOM     69  C   UNL A   1      46.686  26.621  28.584  1.00  0.00     0.031 C 
ATOM     70  C   UNL A   1      45.748  25.774  30.834  1.00  0.00     0.037 A 
BRANCH  57  71
ATOM     71  C   UNL A   1      44.326  23.286  26.193  1.00  0.00     0.064 A 
ATOM     72  C   UNL A   1      44.290  21.899  25.937  1.00  0.00     0.173 A 
ATOM     73  C   UNL A   1      45.316  24.008  25.494  1.00  0.00     0.173 A 
ATOM     74  F   UNL A   1      43.395  21.112  26.553  1.00  0.00    -0.203 F 
ATOM     75  C   UNL A   1      45.234  21.274  25.119  1.00  0.00     0.198 A 
ATOM     76  C   UNL A   1      46.223  23.387  24.638  1.00  0.00     0.198 A 
ATOM     77  F   UNL A   1      45.521  25.314  25.694  1.00  0.00    -0.203 F 
ATOM     78  F   UNL A   1      45.244  19.938  25.014  1.00  0.00    -0.200 F 
ATOM     79  C   UNL A   1      46.206  22.018  24.478  1.00  0.00     0.200 A 
ATOM     80  F   UNL A   1      47.171  24.123  24.039  1.00  0.00    -0.200 F 
ATOM     81  F   UNL A   1      47.156  21.415  23.751  1.00  0.00    -0.200 F 
ENDBRANCH  57  71
BRANCH  58  82
ATOM     82  C   UNL A   1      47.015  31.110  28.620  1.00  0.00     0.064 A 
ATOM     83  C   UNL A   1      46.654  31.732  27.415  1.00  0.00     0.173 A 
ATOM     84  C   UNL A   1      47.961  31.783  29.417  1.00  0.00     0.173 A 
ATOM     85  F   UNL A   1      45.725  31.178  26.623  1.00  0.00    -0.203 F 
ATOM     86  C   UNL A   1      47.185  32.973  27.044  1.00  0.00     0.198 A 
ATOM     87  C   UNL A   1      48.493  33.018  29.044  1.00  0.00     0.198 A 
ATOM     88  F   UNL A   1      48.311  31.304  30.622  1.00  0.00    -0.203 F 
ATOM     89  F   UNL A   1      46.767  33.570  25.919  1.00  0.00    -0.200 F 
ATOM     90  C   UNL A   1      48.094  33.620  27.865  1.00  0.00     0.200 A 
ATOM     91  F   UNL A   1      49.338  33.654  29.870  1.00  0.00    -0.200 F 
ATOM     92  F   UNL A   1      48.549  34.840  27.545  1.00  0.00    -0.200 F 
ENDBRANCH  58  82
BRANCH  70  93
ATOM     93  C   UNL A   1      45.528  26.175  32.267  1.00  0.00     0.064 A 
ATOM     94  C   UNL A   1      44.376  26.831  32.736  1.00  0.00     0.173 A 
ATOM     95  C   UNL A   1      46.443  25.717  33.223  1.00  0.00     0.173 A 
ATOM     96  F   UNL A   1      43.412  27.221  31.894  1.00  0.00    -0.203 F 
ATOM     97  C   UNL A   1      44.165  27.035  34.099  1.00  0.00     0.198 A 
ATOM     98  C   UNL A   1      46.214  25.891  34.586  1.00  0.00     0.198 A 
ATOM     99  F   UNL A   1      47.536  25.041  32.836  1.00  0.00    -0.203 F 
ATOM    100  F   UNL A   1      43.057  27.661  34.523  1.00  0.00    -0.200 F 
ATOM    101  C   UNL A   1      45.078  26.555  35.023  1.00  0.00     0.200 A 
ATOM    102  F   UNL A   1      47.077  25.383  35.476  1.00  0.00    -0.200 F 
ATOM    103  F   UNL A   1      44.853  26.706  36.336  1.00  0.00    -0.200 F 
ENDBRANCH  70  93
ENDBRANCH  44  45
ENDBRANCH  36  39
ENDBRANCH  34  35
ENDBRANCH  33  34
ENDBRANCH  32  33
ENDBRANCH   1  32
TORSDOF 18
ENDMDL
MODEL 3
REMARK VINA RESULT:     -12.7      2.588      3.689
REMARK SMILES COc1cccc(-c2c(C(=O)NCCCCCCNC(=O)c3ccc(-c4c5nc(c(-c6c(F)c(F)c(F)c(F)c6F)c6ccc([nH]6)c(-c6c(F)c(F)c(F)c(F)c6F)c6nc(c(-c7c(F)c(F)c(F)c(F)c7F)c7ccc4[nH]7)C=C6)C=C5)cc3)nnn2-c2ccc(OC(F)(F)F)cc2)c1
REMARK SMILES IDX 15 1 14 2 13 3 12 4 10 5 11 6 9 8 8 9 87 10 85 11 86 12 7 13
REMARK SMILES IDX 3 14 4 15 99 16 5 17 6 18 2 19 1 20 88 21 89 22 98 23 90 24
REMARK SMILES IDX 97 25 91 26 92 27 93 28 94 29 95 30 96 31 16 32 17 33 18 34
REMARK SMILES IDX 19 35 20 36 21 38 22 39 23 40 84 41 24 42 83 43 25 44 26 45
REMARK SMILES IDX 27 46 77 47 28 48 82 49 76 50 78 51 29 52 81 53 75 54 74 55
REMARK SMILES IDX 30 57 62 58 42 59 61 60 43 61 46 62 60 63 79 64 44 65 45 66
REMARK SMILES IDX 59 68 80 69 47 70 31 71 32 72 40 73 33 74 34 75 38 76 41 77
REMARK SMILES IDX 35 78 36 79 39 80 37 81 63 82 64 83 72 84 65 85 66 86 70 87
REMARK SMILES IDX 73 88 67 89 68 90 71 91 69 92 48 93 49 94 57 95 50 96 51 97
REMARK SMILES IDX 55 98 58 99 52 100 53 101 56 102 54 103
REMARK H PARENT 12 7 19 37 78 56 46 67
REMARK Flexibility Score: inf
ROOT
ATOM      1  C   UNL A   1      31.229  28.199  25.196  1.00  0.00     0.002 C 
ENDROOT
BRANCH   1   2
ATOM      2  C   UNL A   1      31.165  26.911  26.007  1.00  0.00     0.021 C 
BRANCH   2   3
ATOM      3  C   UNL A   1      30.571  25.687  25.337  1.00  0.00     0.116 C 
BRANCH   3   4
ATOM      4  N   UNL A   1      29.895  24.730  26.161  1.00  0.00    -0.351 N 
ATOM      5  C   UNL A   1      30.417  23.676  26.886  1.00  0.00     0.274 C 
ATOM      6  O   UNL A   1      29.592  23.043  27.551  1.00  0.00    -0.267 OA
ATOM      7  H   UNL A   1      28.918  24.839  26.221  1.00  0.00     0.163 HD
BRANCH   5   8
ATOM      8  C   UNL A   1      31.835  23.264  26.870  1.00  0.00     0.178 A 
ATOM      9  C   UNL A   1      32.851  23.190  25.909  1.00  0.00     0.108 A 
ATOM     10  N   UNL A   1      33.958  22.736  26.632  1.00  0.00    -0.212 N 
ATOM     11  N   UNL A   1      32.358  22.792  28.066  1.00  0.00    -0.124 NA
ATOM     12  N   UNL A   1      33.596  22.372  27.872  1.00  0.00    -0.061 NA
BRANCH   9  13
ATOM     13  C   UNL A   1      32.904  23.303  24.448  1.00  0.00     0.006 A 
ATOM     14  C   UNL A   1      33.444  24.672  22.496  1.00  0.00     0.119 A 
ATOM     15  C   UNL A   1      33.128  23.584  21.679  1.00  0.00     0.046 A 
ATOM     16  C   UNL A   1      33.322  24.529  23.876  1.00  0.00     0.056 A 
ATOM     17  C   UNL A   1      32.695  22.375  22.231  1.00  0.00     0.005 A 
ATOM     18  C   UNL A   1      32.578  22.231  23.614  1.00  0.00     0.011 A 
BRANCH  14  19
ATOM     19  O   UNL A   1      33.845  25.794  21.826  1.00  0.00    -0.497 OA
ATOM     20  C   UNL A   1      33.493  27.060  22.377  1.00  0.00     0.278 C 
ENDBRANCH  14  19
ENDBRANCH   9  13
BRANCH  10  21
ATOM     21  C   UNL A   1      35.280  22.547  26.160  1.00  0.00     0.067 A 
ATOM     22  C   UNL A   1      36.181  23.612  26.169  1.00  0.00     0.032 A 
ATOM     23  C   UNL A   1      35.703  21.273  25.766  1.00  0.00     0.032 A 
ATOM     24  C   UNL A   1      37.528  23.364  25.880  1.00  0.00     0.049 A 
ATOM     25  C   UNL A   1      37.041  21.041  25.452  1.00  0.00     0.049 A 
ATOM     26  C   UNL A   1      37.968  22.079  25.536  1.00  0.00     0.129 A 
BRANCH  26  27
ATOM     27  O   UNL A   1      39.312  21.971  25.313  1.00  0.00    -0.406 OA
BRANCH  27  28
ATOM     28  C   UNL A   1      40.135  21.660  26.427  1.00  0.00     0.573 C 
ATOM     29  F   UNL A   1      39.701  22.279  27.546  1.00  0.00    -0.132 F 
ATOM     30  F   UNL A   1      40.181  20.327  26.639  1.00  0.00    -0.132 F 
ATOM     31  F   UNL A   1      41.391  22.089  26.174  1.00  0.00    -0.132 F 
ENDBRANCH  27  28
ENDBRANCH  26  27
ENDBRANCH  10  21
ENDBRANCH   5   8
ENDBRANCH   3   4
ENDBRANCH   2   3
ENDBRANCH   1   2
BRANCH   1  32
ATOM     32  C   UNL A   1      32.357  29.195  25.499  1.00  0.00     0.002 C 
BRANCH  32  33
ATOM     33  C   UNL A   1      33.545  28.737  26.358  1.00  0.00     0.021 C 
BRANCH  33  34
ATOM     34  C   UNL A   1      33.864  29.604  27.563  1.00  0.00     0.116 C 
BRANCH  34  35
ATOM     35  N   UNL A   1      34.212  30.986  27.228  1.00  0.00    -0.352 N 
ATOM     36  C   UNL A   1      35.331  31.705  27.628  1.00  0.00     0.251 C 
ATOM     37  H   UNL A   1      33.576  31.463  26.648  1.00  0.00     0.163 HD
ATOM     38  O   UNL A   1      35.350  32.922  27.598  1.00  0.00    -0.269 OA
BRANCH  36  39
ATOM     39  C   UNL A   1      36.508  30.950  28.098  1.00  0.00     0.039 A 
ATOM     40  C   UNL A   1      36.854  29.703  27.572  1.00  0.00     0.014 A 
ATOM     41  C   UNL A   1      37.309  31.559  29.056  1.00  0.00     0.014 A 
ATOM     42  C   UNL A   1      38.064  29.128  27.961  1.00  0.00     0.010 A 
ATOM     43  C   UNL A   1      38.584  31.108  29.253  1.00  0.00     0.010 A 
ATOM     44  C   UNL A   1      38.941  29.853  28.786  1.00  0.00    -0.014 A 
BRANCH  44  45
ATOM     45  C   UNL A   1      40.265  29.343  29.129  1.00  0.00     0.031 A 
ATOM     46  C   UNL A   1      40.454  28.987  30.561  1.00  0.00     0.074 A 
ATOM     47  C   UNL A   1      41.204  29.046  28.201  1.00  0.00     0.049 A 
ATOM     48  N   UNL A   1      41.242  29.555  31.412  1.00  0.00    -0.248 NA
ATOM     49  C   UNL A   1      39.585  27.955  31.150  1.00  0.00     0.031 C 
ATOM     50  C   UNL A   1      41.097  29.049  26.734  1.00  0.00     0.029 A 
ATOM     51  N   UNL A   1      42.468  28.585  28.396  1.00  0.00    -0.354 N 
ATOM     52  C   UNL A   1      41.097  28.859  32.610  1.00  0.00     0.074 A 
ATOM     53  C   UNL A   1      39.969  27.980  32.430  1.00  0.00     0.031 C 
ATOM     54  C   UNL A   1      42.147  28.391  26.195  1.00  0.00     0.029 A 
ATOM     55  C   UNL A   1      43.092  28.103  27.254  1.00  0.00     0.049 A 
ATOM     56  H   UNL A   1      42.906  28.592  29.278  1.00  0.00     0.167 HD
ATOM     57  C   UNL A   1      42.051  28.924  33.580  1.00  0.00     0.037 A 
ATOM     58  C   UNL A   1      44.304  27.503  27.184  1.00  0.00     0.037 A 
ATOM     59  C   UNL A   1      42.928  30.047  33.366  1.00  0.00     0.049 A 
ATOM     60  C   UNL A   1      45.049  27.892  28.406  1.00  0.00     0.074 A 
ATOM     61  C   UNL A   1      42.756  31.417  33.334  1.00  0.00     0.029 A 
ATOM     62  N   UNL A   1      44.137  29.812  32.760  1.00  0.00    -0.354 N 
ATOM     63  N   UNL A   1      45.447  29.109  28.653  1.00  0.00    -0.248 NA
ATOM     64  C   UNL A   1      44.937  27.019  29.564  1.00  0.00     0.031 C 
ATOM     65  C   UNL A   1      43.605  31.869  32.281  1.00  0.00     0.029 A 
ATOM     66  C   UNL A   1      44.296  30.763  31.785  1.00  0.00     0.049 A 
ATOM     67  H   UNL A   1      44.772  29.093  32.984  1.00  0.00     0.167 HD
ATOM     68  C   UNL A   1      45.221  29.283  30.010  1.00  0.00     0.074 A 
ATOM     69  C   UNL A   1      44.983  27.939  30.532  1.00  0.00     0.031 C 
ATOM     70  C   UNL A   1      44.968  30.519  30.530  1.00  0.00     0.037 A 
BRANCH  57  71
ATOM     71  C   UNL A   1      42.422  27.794  34.509  1.00  0.00     0.064 A 
ATOM     72  C   UNL A   1      43.068  26.655  33.981  1.00  0.00     0.173 A 
ATOM     73  C   UNL A   1      41.893  27.645  35.808  1.00  0.00     0.173 A 
ATOM     74  F   UNL A   1      43.601  26.680  32.750  1.00  0.00    -0.203 F 
ATOM     75  C   UNL A   1      43.094  25.438  34.665  1.00  0.00     0.198 A 
ATOM     76  C   UNL A   1      41.968  26.442  36.508  1.00  0.00     0.198 A 
ATOM     77  F   UNL A   1      41.186  28.611  36.405  1.00  0.00    -0.203 F 
ATOM     78  F   UNL A   1      43.599  24.349  34.067  1.00  0.00    -0.200 F 
ATOM     79  C   UNL A   1      42.535  25.330  35.924  1.00  0.00     0.200 A 
ATOM     80  F   UNL A   1      41.403  26.352  37.721  1.00  0.00    -0.200 F 
ATOM     81  F   UNL A   1      42.494  24.147  36.552  1.00  0.00    -0.200 F 
ENDBRANCH  57  71
BRANCH  58  82
ATOM     82  C   UNL A   1      44.714  26.372  26.321  1.00  0.00     0.064 A 
ATOM     83  C   UNL A   1      45.868  26.449  25.527  1.00  0.00     0.173 A 
ATOM     84  C   UNL A   1      44.148  25.093  26.486  1.00  0.00     0.173 A 
ATOM     85  F   UNL A   1      46.493  27.623  25.360  1.00  0.00    -0.203 F 
ATOM     86  C   UNL A   1      46.442  25.307  24.956  1.00  0.00     0.198 A 
ATOM     87  C   UNL A   1      44.719  23.955  25.912  1.00  0.00     0.198 A 
ATOM     88  F   UNL A   1      43.089  24.907  27.290  1.00  0.00    -0.203 F 
ATOM     89  F   UNL A   1      47.582  25.409  24.259  1.00  0.00    -0.200 F 
ATOM     90  C   UNL A   1      45.874  24.060  25.160  1.00  0.00     0.200 A 
ATOM     91  F   UNL A   1      44.183  22.750  26.155  1.00  0.00    -0.200 F 
ATOM     92  F   UNL A   1      46.461  22.958  24.672  1.00  0.00    -0.200 F 
ENDBRANCH  58  82
BRANCH  70  93
ATOM     93  C   UNL A   1      45.187  31.717  29.647  1.00  0.00     0.064 A 
ATOM     94  C   UNL A   1      44.193  32.293  28.836  1.00  0.00     0.173 A 
ATOM     95  C   UNL A   1      46.400  32.408  29.769  1.00  0.00     0.173 A 
ATOM     96  F   UNL A   1      42.978  31.743  28.737  1.00  0.00    -0.203 F 
ATOM     97  C   UNL A   1      44.417  33.494  28.162  1.00  0.00     0.198 A 
ATOM     98  C   UNL A   1      46.608  33.624  29.123  1.00  0.00     0.198 A 
ATOM     99  F   UNL A   1      47.366  31.930  30.569  1.00  0.00    -0.203 F 
ATOM    100  F   UNL A   1      43.452  34.025  27.396  1.00  0.00    -0.200 F 
ATOM    101  C   UNL A   1      45.619  34.163  28.316  1.00  0.00     0.200 A 
ATOM    102  F   UNL A   1      47.755  34.289  29.313  1.00  0.00    -0.200 F 
ATOM    103  F   UNL A   1      45.817  35.342  27.710  1.00  0.00    -0.200 F 
ENDBRANCH  70  93
ENDBRANCH  44  45
ENDBRANCH  36  39
ENDBRANCH  34  35
ENDBRANCH  33  34
ENDBRANCH  32  33
ENDBRANCH   1  32
TORSDOF 18
ENDMDL
