MODEL 1
REMARK VINA RESULT:     -12.9      0.000      0.000
REMARK SMILES CC(C)(O)C#Cc1ccc(C(=O)N[C@@H](CC2=c3ccccc3=NC2)C(=O)NCCCCCCNC(=O)c2ccc(-c3c4nc(c(-c5c(F)c(F)c(F)c(F)c5F)c5ccc([nH]5)c(-c5c(F)c(F)c(F)c(F)c5F)c5nc(c(-c6c(F)c(F)c(F)c(F)c6F)c6ccc3[nH]6)C=C5)C=C4)cc2)s1
REMARK SMILES IDX 29 1 28 2 27 3 25 4 26 5 14 7 13 8 11 9 12 10 10 12 7 13
REMARK SMILES IDX 8 14 100 15 9 16 6 17 5 18 2 19 1 20 3 21 4 22 15 24 16 25
REMARK SMILES IDX 17 26 24 27 18 28 22 29 23 30 19 31 21 32 20 33 30 34 31 35
REMARK SMILES IDX 32 36 33 37 34 38 35 39 36 41 37 42 38 43 99 44 39 45 98 46
REMARK SMILES IDX 40 47 41 48 42 49 92 50 43 51 97 52 91 53 93 54 44 55 96 56
REMARK SMILES IDX 90 57 89 58 45 60 77 61 57 62 76 63 58 64 61 65 75 66 94 67
REMARK SMILES IDX 59 68 60 69 74 71 95 72 62 73 46 74 47 75 55 76 48 77 49 78
REMARK SMILES IDX 53 79 56 80 50 81 51 82 54 83 52 84 78 85 79 86 87 87 80 88
REMARK SMILES IDX 81 89 85 90 88 91 82 92 83 93 86 94 84 95 63 96 64 97 72 98
REMARK SMILES IDX 65 99 66 100 70 101 73 102 67 103 68 104 71 105 69 106
REMARK H PARENT 27 6 13 11 4 23 34 40 93 59 61 70
REMARK Flexibility Score: inf
ROOT
ATOM      1  C   UNL A   1      33.642  27.778  25.501  1.00  0.00     0.021 C 
ENDROOT
BRANCH   1   2
ATOM      2  C   UNL A   1      33.675  26.272  25.360  1.00  0.00     0.116 C 
BRANCH   2   3
ATOM      3  N   UNL A   1      32.585  25.589  26.002  1.00  0.00    -0.354 N 
ATOM      4  C   UNL A   1      32.564  24.339  26.537  1.00  0.00     0.242 C 
ATOM      5  O   UNL A   1      31.666  24.099  27.352  1.00  0.00    -0.273 OA
ATOM      6  H   UNL A   1      31.742  26.094  26.062  1.00  0.00     0.163 HD
BRANCH   4   7
ATOM      7  C   UNL A   1      33.639  23.268  26.225  1.00  0.00     0.175 C 
BRANCH   7   8
ATOM      8  N   UNL A   1      33.087  22.001  25.703  1.00  0.00    -0.339 N 
ATOM      9  C   UNL A   1      32.444  21.671  24.537  1.00  0.00     0.262 C 
ATOM     10  O   UNL A   1      32.121  20.480  24.415  1.00  0.00    -0.268 OA
ATOM     11  H   UNL A   1      33.204  21.240  26.316  1.00  0.00     0.164 HD
BRANCH   9  12
ATOM     12  C   UNL A   1      32.261  22.624  23.474  1.00  0.00     0.093 A 
ATOM     13  C   UNL A   1      31.736  24.766  22.562  1.00  0.00     0.078 A 
ATOM     14  C   UNL A   1      32.855  24.255  21.944  1.00  0.00     0.030 A 
ATOM     15  S   UNL A   1      30.813  23.493  23.211  1.00  0.00    -0.121 S 
ATOM     16  C   UNL A   1      33.149  22.953  22.460  1.00  0.00     0.027 A 
BRANCH  13  17
ATOM     17  C   UNL A   1      31.310  26.108  22.615  1.00  0.00    -0.053 C 
ATOM     18  C   UNL A   1      30.747  27.282  22.698  1.00  0.00    -0.063 C 
BRANCH  18  19
ATOM     19  C   UNL A   1      30.093  28.650  22.796  1.00  0.00     0.120 C 
ATOM     20  C   UNL A   1      30.724  29.443  23.937  1.00  0.00     0.056 C 
ATOM     21  C   UNL A   1      28.588  28.489  22.997  1.00  0.00     0.056 C 
BRANCH  19  22
ATOM     22  O   UNL A   1      30.324  29.338  21.572  1.00  0.00    -0.378 OA
ATOM     23  H   UNL A   1      31.277  29.367  21.392  1.00  0.00     0.212 HD
ENDBRANCH  19  22
ENDBRANCH  18  19
ENDBRANCH  13  17
ENDBRANCH   9  12
ENDBRANCH   7   8
BRANCH   7  24
ATOM     24  C   UNL A   1      34.879  23.790  25.432  1.00  0.00     0.068 C 
BRANCH  24  25
ATOM     25  C   UNL A   1      36.056  22.876  25.233  1.00  0.00    -0.037 C 
ATOM     26  C   UNL A   1      37.328  23.043  25.597  1.00  0.00     0.001 A 
ATOM     27  C   UNL A   1      35.864  21.507  24.640  1.00  0.00     0.174 C 
ATOM     28  C   UNL A   1      38.074  24.088  26.219  1.00  0.00     0.010 A 
ATOM     29  C   UNL A   1      37.876  21.680  25.472  1.00  0.00     0.065 A 
ATOM     30  N   UNL A   1      37.124  20.775  24.926  1.00  0.00    -0.280 NA
ATOM     31  C   UNL A   1      39.240  23.789  26.815  1.00  0.00     0.001 A 
ATOM     32  C   UNL A   1      39.191  21.438  26.109  1.00  0.00     0.028 A 
ATOM     33  C   UNL A   1      39.782  22.441  26.779  1.00  0.00     0.002 A 
ENDBRANCH  24  25
ENDBRANCH   7  24
ENDBRANCH   4   7
ENDBRANCH   2   3
ENDBRANCH   1   2
BRANCH   1  34
ATOM     34  C   UNL A   1      33.544  28.266  26.942  1.00  0.00     0.002 C 
BRANCH  34  35
ATOM     35  C   UNL A   1      32.298  29.097  27.282  1.00  0.00     0.002 C 
BRANCH  35  36
ATOM     36  C   UNL A   1      32.463  30.624  27.247  1.00  0.00     0.021 C 
BRANCH  36  37
ATOM     37  C   UNL A   1      33.903  31.128  27.330  1.00  0.00     0.116 C 
BRANCH  37  38
ATOM     38  N   UNL A   1      34.215  31.772  28.586  1.00  0.00    -0.352 N 
ATOM     39  C   UNL A   1      35.289  31.819  29.423  1.00  0.00     0.251 C 
ATOM     40  H   UNL A   1      33.464  32.314  28.920  1.00  0.00     0.163 HD
ATOM     41  O   UNL A   1      35.181  32.577  30.390  1.00  0.00    -0.269 OA
BRANCH  39  42
ATOM     42  C   UNL A   1      36.528  31.003  29.298  1.00  0.00     0.039 A 
ATOM     43  C   UNL A   1      36.589  29.636  29.039  1.00  0.00     0.014 A 
ATOM     44  C   UNL A   1      37.735  31.694  29.533  1.00  0.00     0.014 A 
ATOM     45  C   UNL A   1      37.808  28.964  29.124  1.00  0.00     0.010 A 
ATOM     46  C   UNL A   1      38.956  31.031  29.602  1.00  0.00     0.010 A 
ATOM     47  C   UNL A   1      38.984  29.652  29.452  1.00  0.00    -0.014 A 
BRANCH  47  48
ATOM     48  C   UNL A   1      40.229  28.887  29.539  1.00  0.00     0.031 A 
ATOM     49  C   UNL A   1      40.753  28.733  30.924  1.00  0.00     0.074 A 
ATOM     50  C   UNL A   1      40.868  28.324  28.492  1.00  0.00     0.049 A 
ATOM     51  N   UNL A   1      41.821  29.265  31.420  1.00  0.00    -0.248 NA
ATOM     52  C   UNL A   1      39.928  28.018  31.908  1.00  0.00     0.031 C 
ATOM     53  C   UNL A   1      40.404  28.158  27.113  1.00  0.00     0.029 A 
ATOM     54  N   UNL A   1      42.094  27.720  28.470  1.00  0.00    -0.354 N 
ATOM     55  C   UNL A   1      41.898  28.830  32.741  1.00  0.00     0.074 A 
ATOM     56  C   UNL A   1      40.649  28.168  33.021  1.00  0.00     0.031 C 
ATOM     57  C   UNL A   1      41.238  27.320  26.451  1.00  0.00     0.029 A 
ATOM     58  C   UNL A   1      42.375  27.018  27.303  1.00  0.00     0.049 A 
ATOM     59  H   UNL A   1      42.729  27.778  29.222  1.00  0.00     0.167 HD
ATOM     60  C   UNL A   1      43.074  28.885  33.425  1.00  0.00     0.037 A 
ATOM     61  C   UNL A   1      43.458  26.235  27.065  1.00  0.00     0.037 A 
ATOM     62  C   UNL A   1      43.992  29.805  32.804  1.00  0.00     0.049 A 
ATOM     63  C   UNL A   1      44.527  26.667  27.994  1.00  0.00     0.074 A 
ATOM     64  C   UNL A   1      44.013  31.167  32.574  1.00  0.00     0.029 A 
ATOM     65  N   UNL A   1      44.966  29.279  31.998  1.00  0.00    -0.354 N 
ATOM     66  N   UNL A   1      45.140  27.813  27.916  1.00  0.00    -0.248 NA
ATOM     67  C   UNL A   1      44.627  25.985  29.273  1.00  0.00     0.031 C 
ATOM     68  C   UNL A   1      44.660  31.321  31.313  1.00  0.00     0.029 A 
ATOM     69  C   UNL A   1      45.044  30.053  30.872  1.00  0.00     0.049 A 
ATOM     70  H   UNL A   1      45.514  28.484  32.193  1.00  0.00     0.167 HD
ATOM     71  C   UNL A   1      45.311  28.203  29.234  1.00  0.00     0.074 A 
ATOM     72  C   UNL A   1      45.068  26.997  30.023  1.00  0.00     0.031 C 
ATOM     73  C   UNL A   1      45.357  29.525  29.567  1.00  0.00     0.037 A 
BRANCH  60  74
ATOM     74  C   UNL A   1      43.551  27.827  34.397  1.00  0.00     0.064 A 
ATOM     75  C   UNL A   1      43.694  26.499  33.940  1.00  0.00     0.173 A 
ATOM     76  C   UNL A   1      43.539  27.985  35.799  1.00  0.00     0.173 A 
ATOM     77  F   UNL A   1      43.722  26.225  32.626  1.00  0.00    -0.203 F 
ATOM     78  C   UNL A   1      43.701  25.410  34.816  1.00  0.00     0.198 A 
ATOM     79  C   UNL A   1      43.593  26.898  36.671  1.00  0.00     0.198 A 
ATOM     80  F   UNL A   1      43.359  29.174  36.383  1.00  0.00    -0.203 F 
ATOM     81  F   UNL A   1      43.688  24.162  34.328  1.00  0.00    -0.200 F 
ATOM     82  C   UNL A   1      43.634  25.611  36.181  1.00  0.00     0.200 A 
ATOM     83  F   UNL A   1      43.514  27.113  37.992  1.00  0.00    -0.200 F 
ATOM     84  F   UNL A   1      43.562  24.570  37.020  1.00  0.00    -0.200 F 
ENDBRANCH  60  74
BRANCH  61  85
ATOM     85  C   UNL A   1      43.535  24.931  26.358  1.00  0.00     0.064 A 
ATOM     86  C   UNL A   1      44.374  24.764  25.239  1.00  0.00     0.173 A 
ATOM     87  C   UNL A   1      43.054  23.752  26.957  1.00  0.00     0.173 A 
ATOM     88  F   UNL A   1      44.910  25.832  24.632  1.00  0.00    -0.203 F 
ATOM     89  C   UNL A   1      44.747  23.494  24.782  1.00  0.00     0.198 A 
ATOM     90  C   UNL A   1      43.425  22.486  26.496  1.00  0.00     0.198 A 
ATOM     91  F   UNL A   1      42.302  23.805  28.065  1.00  0.00    -0.203 F 
ATOM     92  F   UNL A   1      45.612  23.378  23.763  1.00  0.00    -0.200 F 
ATOM     93  C   UNL A   1      44.285  22.358  25.421  1.00  0.00     0.200 A 
ATOM     94  F   UNL A   1      43.002  21.393  27.147  1.00  0.00    -0.200 F 
ATOM     95  F   UNL A   1      44.702  21.145  25.033  1.00  0.00    -0.200 F 
ENDBRANCH  61  85
BRANCH  73  96
ATOM     96  C   UNL A   1      45.527  30.521  28.456  1.00  0.00     0.064 A 
ATOM     97  C   UNL A   1      44.469  31.042  27.690  1.00  0.00     0.173 A 
ATOM     98  C   UNL A   1      46.801  31.073  28.260  1.00  0.00     0.173 A 
ATOM     99  F   UNL A   1      43.210  30.630  27.880  1.00  0.00    -0.203 F 
ATOM    100  C   UNL A   1      44.689  32.046  26.748  1.00  0.00     0.198 A 
ATOM    101  C   UNL A   1      47.010  32.100  27.346  1.00  0.00     0.198 A 
ATOM    102  F   UNL A   1      47.838  30.646  28.997  1.00  0.00    -0.203 F 
ATOM    103  F   UNL A   1      43.668  32.523  26.021  1.00  0.00    -0.200 F 
ATOM    104  C   UNL A   1      45.957  32.581  26.585  1.00  0.00     0.200 A 
ATOM    105  F   UNL A   1      48.228  32.646  27.227  1.00  0.00    -0.200 F 
ATOM    106  F   UNL A   1      46.161  33.579  25.712  1.00  0.00    -0.200 F 
ENDBRANCH  73  96
ENDBRANCH  47  48
ENDBRANCH  39  42
ENDBRANCH  37  38
ENDBRANCH  36  37
ENDBRANCH  35  36
ENDBRANCH  34  35
ENDBRANCH   1  34
TORSDOF 20
ENDMDL
MODEL 2
REMARK VINA RESULT:     -12.8      1.641      3.419
REMARK SMILES CC(C)(O)C#Cc1ccc(C(=O)N[C@@H](CC2=c3ccccc3=NC2)C(=O)NCCCCCCNC(=O)c2ccc(-c3c4nc(c(-c5c(F)c(F)c(F)c(F)c5F)c5ccc([nH]5)c(-c5c(F)c(F)c(F)c(F)c5F)c5nc(c(-c6c(F)c(F)c(F)c(F)c6F)c6ccc3[nH]6)C=C5)C=C4)cc2)s1
REMARK SMILES IDX 29 1 28 2 27 3 25 4 26 5 14 7 13 8 11 9 12 10 10 12 7 13
REMARK SMILES IDX 8 14 100 15 9 16 6 17 5 18 2 19 1 20 3 21 4 22 15 24 16 25
REMARK SMILES IDX 17 26 24 27 18 28 22 29 23 30 19 31 21 32 20 33 30 34 31 35
REMARK SMILES IDX 32 36 33 37 34 38 35 39 36 41 37 42 38 43 99 44 39 45 98 46
REMARK SMILES IDX 40 47 41 48 42 49 92 50 43 51 97 52 91 53 93 54 44 55 96 56
REMARK SMILES IDX 90 57 89 58 45 60 77 61 57 62 76 63 58 64 61 65 75 66 94 67
REMARK SMILES IDX 59 68 60 69 74 71 95 72 62 73 46 74 47 75 55 76 48 77 49 78
REMARK SMILES IDX 53 79 56 80 50 81 51 82 54 83 52 84 78 85 79 86 87 87 80 88
REMARK SMILES IDX 81 89 85 90 88 91 82 92 83 93 86 94 84 95 63 96 64 97 72 98
REMARK SMILES IDX 65 99 66 100 70 101 73 102 67 103 68 104 71 105 69 106
REMARK H PARENT 27 6 13 11 4 23 34 40 93 59 61 70
REMARK Flexibility Score: inf
ROOT
ATOM      1  C   UNL A   1      31.867  28.522  27.381  1.00  0.00     0.021 C 
ENDROOT
BRANCH   1   2
ATOM      2  C   UNL A   1      31.363  27.978  26.062  1.00  0.00     0.116 C 
BRANCH   2   3
ATOM      3  N   UNL A   1      31.823  28.698  24.906  1.00  0.00    -0.354 N 
ATOM      4  C   UNL A   1      32.347  28.204  23.752  1.00  0.00     0.242 C 
ATOM      5  O   UNL A   1      32.325  28.952  22.767  1.00  0.00    -0.273 OA
ATOM      6  H   UNL A   1      31.749  29.678  24.957  1.00  0.00     0.163 HD
BRANCH   4   7
ATOM      7  C   UNL A   1      32.882  26.756  23.618  1.00  0.00     0.175 C 
BRANCH   7   8
ATOM      8  N   UNL A   1      33.145  26.343  22.224  1.00  0.00    -0.339 N 
ATOM      9  C   UNL A   1      32.942  25.170  21.543  1.00  0.00     0.262 C 
ATOM     10  O   UNL A   1      33.271  25.174  20.347  1.00  0.00    -0.268 OA
ATOM     11  H   UNL A   1      33.546  27.052  21.673  1.00  0.00     0.164 HD
BRANCH   9  12
ATOM     12  C   UNL A   1      32.280  24.044  22.148  1.00  0.00     0.093 A 
ATOM     13  C   UNL A   1      32.192  21.931  23.254  1.00  0.00     0.078 A 
ATOM     14  C   UNL A   1      31.293  22.799  23.831  1.00  0.00     0.030 A 
ATOM     15  S   UNL A   1      32.515  22.423  21.658  1.00  0.00    -0.121 S 
ATOM     16  C   UNL A   1      31.315  24.054  23.144  1.00  0.00     0.027 A 
BRANCH  13  17
ATOM     17  C   UNL A   1      32.734  20.751  23.802  1.00  0.00    -0.053 C 
ATOM     18  C   UNL A   1      33.171  19.575  24.159  1.00  0.00    -0.063 C 
BRANCH  18  19
ATOM     19  C   UNL A   1      33.681  18.205  24.575  1.00  0.00     0.120 C 
ATOM     20  C   UNL A   1      33.634  17.253  23.383  1.00  0.00     0.056 C 
ATOM     21  C   UNL A   1      32.849  17.678  25.741  1.00  0.00     0.056 C 
BRANCH  19  22
ATOM     22  O   UNL A   1      35.033  18.348  24.999  1.00  0.00    -0.378 OA
ATOM     23  H   UNL A   1      35.247  17.648  25.636  1.00  0.00     0.212 HD
ENDBRANCH  19  22
ENDBRANCH  18  19
ENDBRANCH  13  17
ENDBRANCH   9  12
ENDBRANCH   7   8
BRANCH   7  24
ATOM     24  C   UNL A   1      34.025  26.382  24.614  1.00  0.00     0.068 C 
BRANCH  24  25
ATOM     25  C   UNL A   1      34.099  24.976  25.145  1.00  0.00    -0.037 C 
ATOM     26  C   UNL A   1      34.801  23.937  24.693  1.00  0.00     0.001 A 
ATOM     27  C   UNL A   1      33.400  24.610  26.426  1.00  0.00     0.174 C 
ATOM     28  C   UNL A   1      35.659  23.703  23.577  1.00  0.00     0.010 A 
ATOM     29  C   UNL A   1      34.751  23.001  25.831  1.00  0.00     0.065 A 
ATOM     30  N   UNL A   1      33.973  23.300  26.825  1.00  0.00    -0.280 NA
ATOM     31  C   UNL A   1      36.529  22.681  23.629  1.00  0.00     0.001 A 
ATOM     32  C   UNL A   1      35.705  21.868  25.793  1.00  0.00     0.028 A 
ATOM     33  C   UNL A   1      36.564  21.777  24.765  1.00  0.00     0.002 A 
ENDBRANCH  24  25
ENDBRANCH   7  24
ENDBRANCH   4   7
ENDBRANCH   2   3
ENDBRANCH   1   2
BRANCH   1  34
ATOM     34  C   UNL A   1      32.867  29.665  27.242  1.00  0.00     0.002 C 
BRANCH  34  35
ATOM     35  C   UNL A   1      34.347  29.259  27.235  1.00  0.00     0.002 C 
BRANCH  35  36
ATOM     36  C   UNL A   1      35.321  30.207  27.950  1.00  0.00     0.021 C 
BRANCH  36  37
ATOM     37  C   UNL A   1      34.819  31.638  28.138  1.00  0.00     0.116 C 
BRANCH  37  38
ATOM     38  N   UNL A   1      34.766  32.051  29.523  1.00  0.00    -0.352 N 
ATOM     39  C   UNL A   1      35.589  31.957  30.605  1.00  0.00     0.251 C 
ATOM     40  H   UNL A   1      33.927  32.517  29.738  1.00  0.00     0.163 HD
ATOM     41  O   UNL A   1      35.198  32.530  31.625  1.00  0.00    -0.269 OA
BRANCH  39  42
ATOM     42  C   UNL A   1      36.863  31.189  30.669  1.00  0.00     0.039 A 
ATOM     43  C   UNL A   1      38.129  31.669  30.343  1.00  0.00     0.014 A 
ATOM     44  C   UNL A   1      36.736  29.833  31.034  1.00  0.00     0.014 A 
ATOM     45  C   UNL A   1      39.211  30.793  30.278  1.00  0.00     0.010 A 
ATOM     46  C   UNL A   1      37.816  28.958  30.987  1.00  0.00     0.010 A 
ATOM     47  C   UNL A   1      39.046  29.429  30.553  1.00  0.00    -0.014 A 
BRANCH  47  48
ATOM     48  C   UNL A   1      40.219  28.559  30.453  1.00  0.00     0.031 A 
ATOM     49  C   UNL A   1      40.945  28.367  31.739  1.00  0.00     0.074 A 
ATOM     50  C   UNL A   1      40.632  27.937  29.328  1.00  0.00     0.049 A 
ATOM     51  N   UNL A   1      42.120  28.807  32.048  1.00  0.00    -0.248 NA
ATOM     52  C   UNL A   1      40.232  27.731  32.856  1.00  0.00     0.031 C 
ATOM     53  C   UNL A   1      39.939  27.806  28.045  1.00  0.00     0.029 A 
ATOM     54  N   UNL A   1      41.783  27.230  29.121  1.00  0.00    -0.354 N 
ATOM     55  C   UNL A   1      42.373  28.374  33.347  1.00  0.00     0.074 A 
ATOM     56  C   UNL A   1      41.134  27.824  33.835  1.00  0.00     0.031 C 
ATOM     57  C   UNL A   1      40.581  26.896  27.274  1.00  0.00     0.029 A 
ATOM     58  C   UNL A   1      41.811  26.501  27.938  1.00  0.00     0.049 A 
ATOM     59  H   UNL A   1      42.533  27.236  29.760  1.00  0.00     0.167 HD
ATOM     60  C   UNL A   1      43.644  28.330  33.832  1.00  0.00     0.037 A 
ATOM     61  C   UNL A   1      42.772  25.626  27.543  1.00  0.00     0.037 A 
ATOM     62  C   UNL A   1      44.524  29.165  33.055  1.00  0.00     0.049 A 
ATOM     63  C   UNL A   1      44.009  25.969  28.281  1.00  0.00     0.074 A 
ATOM     64  C   UNL A   1      44.623  30.518  32.799  1.00  0.00     0.029 A 
ATOM     65  N   UNL A   1      45.308  28.552  32.113  1.00  0.00    -0.354 N 
ATOM     66  N   UNL A   1      44.696  27.057  28.084  1.00  0.00    -0.248 NA
ATOM     67  C   UNL A   1      44.256  25.287  29.540  1.00  0.00     0.031 C 
ATOM     68  C   UNL A   1      45.068  30.610  31.448  1.00  0.00     0.029 A 
ATOM     69  C   UNL A   1      45.268  29.311  30.975  1.00  0.00     0.049 A 
ATOM     70  H   UNL A   1      45.810  27.714  32.233  1.00  0.00     0.167 HD
ATOM     71  C   UNL A   1      45.110  27.437  29.350  1.00  0.00     0.074 A 
ATOM     72  C   UNL A   1      44.896  26.261  30.190  1.00  0.00     0.031 C 
ATOM     73  C   UNL A   1      45.321  28.752  29.647  1.00  0.00     0.037 A 
BRANCH  60  74
ATOM     74  C   UNL A   1      44.180  27.240  34.735  1.00  0.00     0.064 A 
ATOM     75  C   UNL A   1      44.071  25.896  34.316  1.00  0.00     0.173 A 
ATOM     76  C   UNL A   1      44.471  27.424  36.103  1.00  0.00     0.173 A 
ATOM     77  F   UNL A   1      43.800  25.596  33.036  1.00  0.00    -0.203 F 
ATOM     78  C   UNL A   1      44.127  24.831  35.220  1.00  0.00     0.198 A 
ATOM     79  C   UNL A   1      44.574  26.356  36.993  1.00  0.00     0.198 A 
ATOM     80  F   UNL A   1      44.555  28.637  36.659  1.00  0.00    -0.203 F 
ATOM     81  F   UNL A   1      43.869  23.586  34.798  1.00  0.00    -0.200 F 
ATOM     82  C   UNL A   1      44.363  25.064  36.561  1.00  0.00     0.200 A 
ATOM     83  F   UNL A   1      44.790  26.603  38.293  1.00  0.00    -0.200 F 
ATOM     84  F   UNL A   1      44.340  24.057  37.442  1.00  0.00    -0.200 F 
ENDBRANCH  60  74
BRANCH  61  85
ATOM     85  C   UNL A   1      42.622  24.317  26.858  1.00  0.00     0.064 A 
ATOM     86  C   UNL A   1      43.193  24.096  25.589  1.00  0.00     0.173 A 
ATOM     87  C   UNL A   1      42.215  23.170  27.565  1.00  0.00     0.173 A 
ATOM     88  F   UNL A   1      43.648  25.129  24.865  1.00  0.00    -0.203 F 
ATOM     89  C   UNL A   1      43.389  22.805  25.084  1.00  0.00     0.198 A 
ATOM     90  C   UNL A   1      42.408  21.883  27.057  1.00  0.00     0.198 A 
ATOM     91  F   UNL A   1      41.721  23.272  28.806  1.00  0.00    -0.203 F 
ATOM     92  F   UNL A   1      44.010  22.634  23.908  1.00  0.00    -0.200 F 
ATOM     93  C   UNL A   1      43.011  21.701  25.826  1.00  0.00     0.200 A 
ATOM     94  F   UNL A   1      42.072  20.820  27.801  1.00  0.00    -0.200 F 
ATOM     95  F   UNL A   1      43.267  20.464  25.378  1.00  0.00    -0.200 F 
ENDBRANCH  61  85
BRANCH  73  96
ATOM     96  C   UNL A   1      45.392  29.724  28.504  1.00  0.00     0.064 A 
ATOM     97  C   UNL A   1      44.273  30.327  27.906  1.00  0.00     0.173 A 
ATOM     98  C   UNL A   1      46.659  30.167  28.100  1.00  0.00     0.173 A 
ATOM     99  F   UNL A   1      43.030  30.023  28.299  1.00  0.00    -0.203 F 
ATOM    100  C   UNL A   1      44.421  31.305  26.921  1.00  0.00     0.198 A 
ATOM    101  C   UNL A   1      46.804  31.168  27.145  1.00  0.00     0.198 A 
ATOM    102  F   UNL A   1      47.762  29.659  28.672  1.00  0.00    -0.203 F 
ATOM    103  F   UNL A   1      43.340  31.861  26.356  1.00  0.00    -0.200 F 
ATOM    104  C   UNL A   1      45.686  31.731  26.551  1.00  0.00     0.200 A 
ATOM    105  F   UNL A   1      48.028  31.609  26.825  1.00  0.00    -0.200 F 
ATOM    106  F   UNL A   1      45.829  32.703  25.638  1.00  0.00    -0.200 F 
ENDBRANCH  73  96
ENDBRANCH  47  48
ENDBRANCH  39  42
ENDBRANCH  37  38
ENDBRANCH  36  37
ENDBRANCH  35  36
ENDBRANCH  34  35
ENDBRANCH   1  34
TORSDOF 20
ENDMDL
MODEL 3
REMARK VINA RESULT:     -12.8      3.163      9.140
REMARK SMILES CC(C)(O)C#Cc1ccc(C(=O)N[C@@H](CC2=c3ccccc3=NC2)C(=O)NCCCCCCNC(=O)c2ccc(-c3c4nc(c(-c5c(F)c(F)c(F)c(F)c5F)c5ccc([nH]5)c(-c5c(F)c(F)c(F)c(F)c5F)c5nc(c(-c6c(F)c(F)c(F)c(F)c6F)c6ccc3[nH]6)C=C5)C=C4)cc2)s1
REMARK SMILES IDX 29 1 28 2 27 3 25 4 26 5 14 7 13 8 11 9 12 10 10 12 7 13
REMARK SMILES IDX 8 14 100 15 9 16 6 17 5 18 2 19 1 20 3 21 4 22 15 24 16 25
REMARK SMILES IDX 17 26 24 27 18 28 22 29 23 30 19 31 21 32 20 33 30 34 31 35
REMARK SMILES IDX 32 36 33 37 34 38 35 39 36 41 37 42 38 43 99 44 39 45 98 46
REMARK SMILES IDX 40 47 41 48 42 49 92 50 43 51 97 52 91 53 93 54 44 55 96 56
REMARK SMILES IDX 90 57 89 58 45 60 77 61 57 62 76 63 58 64 61 65 75 66 94 67
REMARK SMILES IDX 59 68 60 69 74 71 95 72 62 73 46 74 47 75 55 76 48 77 49 78
REMARK SMILES IDX 53 79 56 80 50 81 51 82 54 83 52 84 78 85 79 86 87 87 80 88
REMARK SMILES IDX 81 89 85 90 88 91 82 92 83 93 86 94 84 95 63 96 64 97 72 98
REMARK SMILES IDX 65 99 66 100 70 101 73 102 67 103 68 104 71 105 69 106
REMARK H PARENT 27 6 13 11 4 23 34 40 93 59 61 70
REMARK Flexibility Score: inf
ROOT
ATOM      1  C   UNL A   1      36.383  22.897  23.898  1.00  0.00     0.021 C 
ENDROOT
BRANCH   1   2
ATOM      2  C   UNL A   1      35.955  24.049  24.781  1.00  0.00     0.116 C 
BRANCH   2   3
ATOM      3  N   UNL A   1      34.842  23.758  25.642  1.00  0.00    -0.354 N 
ATOM      4  C   UNL A   1      33.714  24.490  25.849  1.00  0.00     0.242 C 
ATOM      5  O   UNL A   1      32.743  23.891  26.326  1.00  0.00    -0.273 OA
ATOM      6  H   UNL A   1      34.905  22.917  26.151  1.00  0.00     0.163 HD
BRANCH   4   7
ATOM      7  C   UNL A   1      33.589  25.981  25.447  1.00  0.00     0.175 C 
BRANCH   7   8
ATOM      8  N   UNL A   1      33.852  26.238  24.016  1.00  0.00    -0.339 N 
ATOM      9  C   UNL A   1      33.497  25.578  22.867  1.00  0.00     0.262 C 
ATOM     10  O   UNL A   1      33.883  26.093  21.806  1.00  0.00    -0.268 OA
ATOM     11  H   UNL A   1      34.389  27.046  23.855  1.00  0.00     0.164 HD
BRANCH   9  12
ATOM     12  C   UNL A   1      32.632  24.427  22.887  1.00  0.00     0.093 A 
ATOM     13  C   UNL A   1      32.034  22.188  23.451  1.00  0.00     0.078 A 
ATOM     14  C   UNL A   1      30.962  23.026  23.661  1.00  0.00     0.030 A 
ATOM     15  S   UNL A   1      33.087  22.883  22.311  1.00  0.00    -0.121 S 
ATOM     16  C   UNL A   1      31.305  24.363  23.286  1.00  0.00     0.027 A 
BRANCH  13  17
ATOM     17  C   UNL A   1      32.251  20.903  23.990  1.00  0.00    -0.053 C 
ATOM     18  C   UNL A   1      32.631  19.758  24.484  1.00  0.00    -0.063 C 
BRANCH  18  19
ATOM     19  C   UNL A   1      33.073  18.422  25.060  1.00  0.00     0.120 C 
ATOM     20  C   UNL A   1      34.505  18.121  24.624  1.00  0.00     0.056 C 
ATOM     21  C   UNL A   1      32.113  17.324  24.611  1.00  0.00     0.056 C 
BRANCH  19  22
ATOM     22  O   UNL A   1      33.033  18.519  26.480  1.00  0.00    -0.378 OA
ATOM     23  H   UNL A   1      33.813  19.005  26.793  1.00  0.00     0.212 HD
ENDBRANCH  19  22
ENDBRANCH  18  19
ENDBRANCH  13  17
ENDBRANCH   9  12
ENDBRANCH   7   8
BRANCH   7  24
ATOM     24  C   UNL A   1      32.321  26.707  25.997  1.00  0.00     0.068 C 
BRANCH  24  25
ATOM     25  C   UNL A   1      31.982  28.078  25.478  1.00  0.00    -0.037 C 
ATOM     26  C   UNL A   1      31.193  28.425  24.461  1.00  0.00     0.001 A 
ATOM     27  C   UNL A   1      32.465  29.305  26.200  1.00  0.00     0.174 C 
ATOM     28  C   UNL A   1      30.447  27.718  23.471  1.00  0.00     0.010 A 
ATOM     29  C   UNL A   1      30.973  29.861  24.706  1.00  0.00     0.065 A 
ATOM     30  N   UNL A   1      31.665  30.426  25.646  1.00  0.00    -0.280 NA
ATOM     31  C   UNL A   1      29.437  28.346  22.846  1.00  0.00     0.001 A 
ATOM     32  C   UNL A   1      29.876  30.498  23.942  1.00  0.00     0.028 A 
ATOM     33  C   UNL A   1      29.138  29.743  23.111  1.00  0.00     0.002 A 
ENDBRANCH  24  25
ENDBRANCH   7  24
ENDBRANCH   4   7
ENDBRANCH   2   3
ENDBRANCH   1   2
BRANCH   1  34
ATOM     34  C   UNL A   1      37.010  21.731  24.656  1.00  0.00     0.002 C 
BRANCH  34  35
ATOM     35  C   UNL A   1      38.090  22.105  25.680  1.00  0.00     0.002 C 
BRANCH  35  36
ATOM     36  C   UNL A   1      39.290  21.152  25.789  1.00  0.00     0.021 C 
BRANCH  36  37
ATOM     37  C   UNL A   1      40.365  21.568  26.791  1.00  0.00     0.116 C 
BRANCH  37  38
ATOM     38  N   UNL A   1      41.585  22.031  26.167  1.00  0.00    -0.352 N 
ATOM     39  C   UNL A   1      42.289  23.197  26.139  1.00  0.00     0.251 C 
ATOM     40  H   UNL A   1      42.014  21.328  25.627  1.00  0.00     0.163 HD
ATOM     41  O   UNL A   1      43.362  23.159  25.531  1.00  0.00    -0.269 OA
BRANCH  39  42
ATOM     42  C   UNL A   1      41.850  24.496  26.719  1.00  0.00     0.039 A 
ATOM     43  C   UNL A   1      41.018  25.430  26.107  1.00  0.00     0.014 A 
ATOM     44  C   UNL A   1      42.396  24.812  27.981  1.00  0.00     0.014 A 
ATOM     45  C   UNL A   1      40.830  26.683  26.688  1.00  0.00     0.010 A 
ATOM     46  C   UNL A   1      42.198  26.055  28.573  1.00  0.00     0.010 A 
ATOM     47  C   UNL A   1      41.458  27.014  27.898  1.00  0.00    -0.014 A 
BRANCH  47  48
ATOM     48  C   UNL A   1      41.231  28.350  28.448  1.00  0.00     0.031 A 
ATOM     49  C   UNL A   1      42.295  29.335  28.112  1.00  0.00     0.074 A 
ATOM     50  C   UNL A   1      40.155  28.718  29.176  1.00  0.00     0.049 A 
ATOM     51  N   UNL A   1      43.151  29.869  28.921  1.00  0.00    -0.248 NA
ATOM     52  C   UNL A   1      42.524  29.662  26.698  1.00  0.00     0.031 C 
ATOM     53  C   UNL A   1      38.910  27.983  29.411  1.00  0.00     0.029 A 
ATOM     54  N   UNL A   1      39.938  29.894  29.839  1.00  0.00    -0.354 N 
ATOM     55  C   UNL A   1      43.935  30.725  28.152  1.00  0.00     0.074 A 
ATOM     56  C   UNL A   1      43.586  30.467  26.778  1.00  0.00     0.031 C 
ATOM     57  C   UNL A   1      37.996  28.808  29.976  1.00  0.00     0.029 A 
ATOM     58  C   UNL A   1      38.635  30.074  30.290  1.00  0.00     0.049 A 
ATOM     59  H   UNL A   1      40.648  30.561  29.984  1.00  0.00     0.167 HD
ATOM     60  C   UNL A   1      44.664  31.716  28.736  1.00  0.00     0.037 A 
ATOM     61  C   UNL A   1      38.121  31.190  30.867  1.00  0.00     0.037 A 
ATOM     62  C   UNL A   1      44.857  31.457  30.140  1.00  0.00     0.049 A 
ATOM     63  C   UNL A   1      39.257  31.961  31.424  1.00  0.00     0.074 A 
ATOM     64  C   UNL A   1      45.503  30.487  30.880  1.00  0.00     0.029 A 
ATOM     65  N   UNL A   1      44.037  32.111  31.022  1.00  0.00    -0.354 N 
ATOM     66  N   UNL A   1      39.970  31.573  32.440  1.00  0.00    -0.248 NA
ATOM     67  C   UNL A   1      39.861  32.978  30.580  1.00  0.00     0.031 C 
ATOM     68  C   UNL A   1      44.693  30.304  32.040  1.00  0.00     0.029 A 
ATOM     69  C   UNL A   1      43.633  31.209  31.967  1.00  0.00     0.049 A 
ATOM     70  H   UNL A   1      43.783  33.062  30.982  1.00  0.00     0.167 HD
ATOM     71  C   UNL A   1      41.264  31.947  32.116  1.00  0.00     0.074 A 
ATOM     72  C   UNL A   1      41.121  32.893  31.012  1.00  0.00     0.031 C 
ATOM     73  C   UNL A   1      42.331  31.241  32.588  1.00  0.00     0.037 A 
BRANCH  60  74
ATOM     74  C   UNL A   1      44.851  33.101  28.154  1.00  0.00     0.064 A 
ATOM     75  C   UNL A   1      46.155  33.528  27.824  1.00  0.00     0.173 A 
ATOM     76  C   UNL A   1      43.881  34.122  28.228  1.00  0.00     0.173 A 
ATOM     77  F   UNL A   1      47.161  32.646  27.720  1.00  0.00    -0.203 F 
ATOM     78  C   UNL A   1      46.482  34.882  27.700  1.00  0.00     0.198 A 
ATOM     79  C   UNL A   1      44.204  35.468  28.058  1.00  0.00     0.198 A 
ATOM     80  F   UNL A   1      42.614  33.881  28.580  1.00  0.00    -0.203 F 
ATOM     81  F   UNL A   1      47.762  35.245  27.534  1.00  0.00    -0.200 F 
ATOM     82  C   UNL A   1      45.508  35.851  27.834  1.00  0.00     0.200 A 
ATOM     83  F   UNL A   1      43.246  36.396  28.204  1.00  0.00    -0.200 F 
ATOM     84  F   UNL A   1      45.830  37.150  27.794  1.00  0.00    -0.200 F 
ENDBRANCH  60  74
BRANCH  61  85
ATOM     85  C   UNL A   1      36.788  31.815  30.674  1.00  0.00     0.064 A 
ATOM     86  C   UNL A   1      35.889  31.949  31.750  1.00  0.00     0.173 A 
ATOM     87  C   UNL A   1      36.507  32.584  29.528  1.00  0.00     0.173 A 
ATOM     88  F   UNL A   1      36.104  31.286  32.895  1.00  0.00    -0.203 F 
ATOM     89  C   UNL A   1      34.807  32.836  31.700  1.00  0.00     0.198 A 
ATOM     90  C   UNL A   1      35.424  33.465  29.480  1.00  0.00     0.198 A 
ATOM     91  F   UNL A   1      37.338  32.575  28.478  1.00  0.00    -0.203 F 
ATOM     92  F   UNL A   1      34.022  32.995  32.776  1.00  0.00    -0.200 F 
ATOM     93  C   UNL A   1      34.586  33.604  30.571  1.00  0.00     0.200 A 
ATOM     94  F   UNL A   1      35.241  34.232  28.395  1.00  0.00    -0.200 F 
ATOM     95  F   UNL A   1      33.597  34.509  30.550  1.00  0.00    -0.200 F 
ENDBRANCH  61  85
BRANCH  73  96
ATOM     96  C   UNL A   1      42.085  30.258  33.697  1.00  0.00     0.064 A 
ATOM     97  C   UNL A   1      41.714  28.917  33.498  1.00  0.00     0.173 A 
ATOM     98  C   UNL A   1      42.377  30.662  35.007  1.00  0.00     0.173 A 
ATOM     99  F   UNL A   1      41.504  28.432  32.268  1.00  0.00    -0.203 F 
ATOM    100  C   UNL A   1      41.609  28.032  34.572  1.00  0.00     0.198 A 
ATOM    101  C   UNL A   1      42.308  29.768  36.070  1.00  0.00     0.198 A 
ATOM    102  F   UNL A   1      42.781  31.919  35.249  1.00  0.00    -0.203 F 
ATOM    103  F   UNL A   1      41.245  26.759  34.362  1.00  0.00    -0.200 F 
ATOM    104  C   UNL A   1      41.916  28.457  35.854  1.00  0.00     0.200 A 
ATOM    105  F   UNL A   1      42.651  30.171  37.301  1.00  0.00    -0.200 F 
ATOM    106  F   UNL A   1      41.861  27.595  36.881  1.00  0.00    -0.200 F 
ENDBRANCH  73  96
ENDBRANCH  47  48
ENDBRANCH  39  42
ENDBRANCH  37  38
ENDBRANCH  36  37
ENDBRANCH  35  36
ENDBRANCH  34  35
ENDBRANCH   1  34
TORSDOF 20
ENDMDL
