MODEL 1
REMARK VINA RESULT:     -11.3      0.000      0.000
REMARK SMILES O=C(CSCc1ccc(C(=O)NCCCCCCNC(=O)c2ccc(-c3c4nc(c(-c5c(F)c(F)c(F)c(F)c5F)c5ccc([nH]5)c(-c5c(F)c(F)c(F)c(F)c5F)c5nc(c(-c6c(F)c(F)c(F)c(F)c6F)c6ccc3[nH]6)C=C5)C=C4)cc2)cc1)Nc1ccc(Cl)cc1
REMARK SMILES IDX 14 1 13 2 12 3 10 4 11 5 9 7 6 8 7 9 86 10 8 11 85 12 5 13
REMARK SMILES IDX 4 14 3 15 2 16 1 17 87 18 88 20 89 21 94 22 90 23 93 24
REMARK SMILES IDX 91 25 92 26 15 27 16 28 17 29 18 30 19 31 20 32 21 34 22 35
REMARK SMILES IDX 23 36 84 37 24 38 83 39 25 40 26 41 27 42 77 43 28 44 82 45
REMARK SMILES IDX 76 46 78 47 29 48 81 49 75 50 74 51 30 53 62 54 42 55 61 56
REMARK SMILES IDX 43 57 46 58 60 59 79 60 44 61 45 62 59 64 80 65 47 66 31 67
REMARK SMILES IDX 32 68 40 69 33 70 34 71 38 72 41 73 35 74 36 75 39 76 37 77
REMARK SMILES IDX 63 78 64 79 72 80 65 81 66 82 70 83 73 84 67 85 68 86 71 87
REMARK SMILES IDX 69 88 48 89 49 90 57 91 50 92 51 93 55 94 58 95 52 96 53 97
REMARK SMILES IDX 56 98 54 99
REMARK H PARENT 12 6 87 19 19 33 78 52 46 63
REMARK Flexibility Score: inf
ROOT
ATOM      1  C   UNL A   1      35.584  32.585  28.216  1.00  0.00     0.021 C 
ENDROOT
BRANCH   1   2
ATOM      2  C   UNL A   1      34.818  31.273  28.029  1.00  0.00     0.116 C 
BRANCH   2   3
ATOM      3  N   UNL A   1      33.497  31.554  27.511  1.00  0.00    -0.352 N 
ATOM      4  C   UNL A   1      32.548  30.790  26.889  1.00  0.00     0.251 C 
ATOM      5  O   UNL A   1      31.551  31.381  26.467  1.00  0.00    -0.269 OA
ATOM      6  H   UNL A   1      33.223  32.493  27.630  1.00  0.00     0.163 HD
BRANCH   4   7
ATOM      7  C   UNL A   1      32.611  29.305  26.767  1.00  0.00     0.039 A 
ATOM      8  C   UNL A   1      32.794  26.528  26.162  1.00  0.00    -0.038 A 
ATOM      9  C   UNL A   1      33.739  27.433  25.678  1.00  0.00     0.005 A 
ATOM     10  C   UNL A   1      31.819  27.027  27.045  1.00  0.00     0.005 A 
ATOM     11  C   UNL A   1      33.635  28.799  25.956  1.00  0.00     0.014 A 
ATOM     12  C   UNL A   1      31.753  28.390  27.374  1.00  0.00     0.014 A 
BRANCH   8  13
ATOM     13  C   UNL A   1      32.687  25.080  25.741  1.00  0.00     0.105 C 
BRANCH  13  14
ATOM     14  S   UNL A   1      33.221  24.591  24.074  1.00  0.00    -0.147 SA
BRANCH  14  15
ATOM     15  C   UNL A   1      31.675  24.724  23.117  1.00  0.00     0.170 C 
BRANCH  15  16
ATOM     16  C   UNL A   1      31.272  26.139  22.758  1.00  0.00     0.234 C 
ATOM     17  O   UNL A   1      31.633  26.637  21.694  1.00  0.00    -0.274 OA
ATOM     18  N   UNL A   1      30.449  26.742  23.691  1.00  0.00    -0.325 N 
ATOM     19  H   UNL A   1      30.366  26.297  24.565  1.00  0.00     0.169 HD
BRANCH  18  20
ATOM     20  C   UNL A   1      29.720  27.932  23.509  1.00  0.00     0.041 A 
ATOM     21  C   UNL A   1      30.372  29.144  23.763  1.00  0.00     0.027 A 
ATOM     22  C   UNL A   1      28.374  27.951  23.129  1.00  0.00     0.027 A 
ATOM     23  C   UNL A   1      29.696  30.358  23.602  1.00  0.00     0.022 A 
ATOM     24  C   UNL A   1      27.692  29.163  22.987  1.00  0.00     0.022 A 
ATOM     25  C   UNL A   1      28.357  30.362  23.215  1.00  0.00     0.041 A 
ATOM     26  Cl  UNL A   1      27.525  31.855  23.023  1.00  0.00    -0.084 Cl
ENDBRANCH  18  20
ENDBRANCH  15  16
ENDBRANCH  14  15
ENDBRANCH  13  14
ENDBRANCH   8  13
ENDBRANCH   4   7
ENDBRANCH   2   3
ENDBRANCH   1   2
BRANCH   1  27
ATOM     27  C   UNL A   1      34.775  33.645  28.979  1.00  0.00     0.002 C 
BRANCH  27  28
ATOM     28  C   UNL A   1      34.809  35.048  28.361  1.00  0.00     0.002 C 
BRANCH  28  29
ATOM     29  C   UNL A   1      33.655  35.962  28.777  1.00  0.00     0.021 C 
BRANCH  29  30
ATOM     30  C   UNL A   1      32.636  35.298  29.699  1.00  0.00     0.116 C 
BRANCH  30  31
ATOM     31  N   UNL A   1      32.338  36.129  30.855  1.00  0.00    -0.352 N 
ATOM     32  C   UNL A   1      32.840  36.055  32.130  1.00  0.00     0.251 C 
ATOM     33  H   UNL A   1      31.681  36.847  30.701  1.00  0.00     0.163 HD
ATOM     34  O   UNL A   1      32.312  36.676  33.044  1.00  0.00    -0.269 OA
BRANCH  32  35
ATOM     35  C   UNL A   1      34.021  35.209  32.400  1.00  0.00     0.039 A 
ATOM     36  C   UNL A   1      35.294  35.714  32.124  1.00  0.00     0.014 A 
ATOM     37  C   UNL A   1      33.868  33.918  32.912  1.00  0.00     0.014 A 
ATOM     38  C   UNL A   1      36.420  34.943  32.416  1.00  0.00     0.010 A 
ATOM     39  C   UNL A   1      34.992  33.176  33.262  1.00  0.00     0.010 A 
ATOM     40  C   UNL A   1      36.278  33.681  33.016  1.00  0.00    -0.014 A 
BRANCH  40  41
ATOM     41  C   UNL A   1      37.462  32.876  33.406  1.00  0.00     0.031 A 
ATOM     42  C   UNL A   1      38.186  33.171  34.687  1.00  0.00     0.074 A 
ATOM     43  C   UNL A   1      37.925  31.931  32.566  1.00  0.00     0.049 A 
ATOM     44  N   UNL A   1      39.287  32.640  35.158  1.00  0.00    -0.248 NA
ATOM     45  C   UNL A   1      37.612  34.221  35.542  1.00  0.00     0.031 C 
ATOM     46  C   UNL A   1      37.331  31.583  31.275  1.00  0.00     0.029 A 
ATOM     47  N   UNL A   1      39.012  31.099  32.668  1.00  0.00    -0.354 N 
ATOM     48  C   UNL A   1      39.542  33.299  36.353  1.00  0.00     0.074 A 
ATOM     49  C   UNL A   1      38.511  34.303  36.512  1.00  0.00     0.031 C 
ATOM     50  C   UNL A   1      38.050  30.600  30.712  1.00  0.00     0.029 A 
ATOM     51  C   UNL A   1      39.176  30.275  31.582  1.00  0.00     0.049 A 
ATOM     52  H   UNL A   1      39.617  31.094  33.445  1.00  0.00     0.167 HD
ATOM     53  C   UNL A   1      40.535  33.072  37.246  1.00  0.00     0.037 A 
ATOM     54  C   UNL A   1      40.134  29.369  31.313  1.00  0.00     0.037 A 
ATOM     55  C   UNL A   1      41.545  32.058  37.093  1.00  0.00     0.049 A 
ATOM     56  C   UNL A   1      41.236  29.149  32.313  1.00  0.00     0.074 A 
ATOM     57  C   UNL A   1      42.553  31.702  37.971  1.00  0.00     0.029 A 
ATOM     58  N   UNL A   1      41.678  31.239  35.980  1.00  0.00    -0.354 N 
ATOM     59  N   UNL A   1      41.431  29.730  33.471  1.00  0.00    -0.248 NA
ATOM     60  C   UNL A   1      42.252  28.146  31.966  1.00  0.00     0.031 C 
ATOM     61  C   UNL A   1      43.325  30.702  37.371  1.00  0.00     0.029 A 
ATOM     62  C   UNL A   1      42.770  30.400  36.138  1.00  0.00     0.049 A 
ATOM     63  H   UNL A   1      41.084  31.252  35.195  1.00  0.00     0.167 HD
ATOM     64  C   UNL A   1      42.577  29.153  34.001  1.00  0.00     0.074 A 
ATOM     65  C   UNL A   1      43.023  28.161  33.045  1.00  0.00     0.031 C 
ATOM     66  C   UNL A   1      43.204  29.422  35.173  1.00  0.00     0.037 A 
BRANCH  53  67
ATOM     67  C   UNL A   1      40.577  33.941  38.470  1.00  0.00     0.064 A 
ATOM     68  C   UNL A   1      39.849  33.619  39.626  1.00  0.00     0.173 A 
ATOM     69  C   UNL A   1      41.377  35.093  38.499  1.00  0.00     0.173 A 
ATOM     70  F   UNL A   1      39.059  32.534  39.647  1.00  0.00    -0.203 F 
ATOM     71  C   UNL A   1      39.895  34.436  40.753  1.00  0.00     0.198 A 
ATOM     72  C   UNL A   1      41.444  35.891  39.639  1.00  0.00     0.198 A 
ATOM     73  F   UNL A   1      42.098  35.443  37.424  1.00  0.00    -0.203 F 
ATOM     74  F   UNL A   1      39.149  34.137  41.826  1.00  0.00    -0.200 F 
ATOM     75  C   UNL A   1      40.697  35.567  40.761  1.00  0.00     0.200 A 
ATOM     76  F   UNL A   1      42.230  36.977  39.649  1.00  0.00    -0.200 F 
ATOM     77  F   UNL A   1      40.743  36.349  41.847  1.00  0.00    -0.200 F 
ENDBRANCH  53  67
BRANCH  54  78
ATOM     78  C   UNL A   1      40.081  28.589  30.050  1.00  0.00     0.064 A 
ATOM     79  C   UNL A   1      40.675  29.077  28.879  1.00  0.00     0.173 A 
ATOM     80  C   UNL A   1      39.446  27.340  29.989  1.00  0.00     0.173 A 
ATOM     81  F   UNL A   1      41.276  30.276  28.884  1.00  0.00    -0.203 F 
ATOM     82  C   UNL A   1      40.624  28.354  27.689  1.00  0.00     0.198 A 
ATOM     83  C   UNL A   1      39.418  26.606  28.805  1.00  0.00     0.198 A 
ATOM     84  F   UNL A   1      38.866  26.826  31.083  1.00  0.00    -0.203 F 
ATOM     85  F   UNL A   1      41.165  28.862  26.575  1.00  0.00    -0.200 F 
ATOM     86  C   UNL A   1      40.000  27.116  27.655  1.00  0.00     0.200 A 
ATOM     87  F   UNL A   1      38.827  25.403  28.780  1.00  0.00    -0.200 F 
ATOM     88  F   UNL A   1      39.957  26.417  26.513  1.00  0.00    -0.200 F 
ENDBRANCH  54  78
BRANCH  66  89
ATOM     89  C   UNL A   1      44.433  28.621  35.490  1.00  0.00     0.064 A 
ATOM     90  C   UNL A   1      45.711  29.062  35.119  1.00  0.00     0.173 A 
ATOM     91  C   UNL A   1      44.333  27.417  36.205  1.00  0.00     0.173 A 
ATOM     92  F   UNL A   1      45.857  30.198  34.420  1.00  0.00    -0.203 F 
ATOM     93  C   UNL A   1      46.844  28.315  35.432  1.00  0.00     0.198 A 
ATOM     94  C   UNL A   1      45.470  26.689  36.541  1.00  0.00     0.198 A 
ATOM     95  F   UNL A   1      43.134  26.954  36.587  1.00  0.00    -0.203 F 
ATOM     96  F   UNL A   1      48.052  28.733  35.027  1.00  0.00    -0.200 F 
ATOM     97  C   UNL A   1      46.724  27.134  36.148  1.00  0.00     0.200 A 
ATOM     98  F   UNL A   1      45.354  25.554  37.243  1.00  0.00    -0.200 F 
ATOM     99  F   UNL A   1      47.816  26.420  36.453  1.00  0.00    -0.200 F 
ENDBRANCH  66  89
ENDBRANCH  40  41
ENDBRANCH  32  35
ENDBRANCH  30  31
ENDBRANCH  29  30
ENDBRANCH  28  29
ENDBRANCH  27  28
ENDBRANCH   1  27
TORSDOF 18
ENDMDL
MODEL 2
REMARK VINA RESULT:     -10.9      2.442      3.586
REMARK SMILES O=C(CSCc1ccc(C(=O)NCCCCCCNC(=O)c2ccc(-c3c4nc(c(-c5c(F)c(F)c(F)c(F)c5F)c5ccc([nH]5)c(-c5c(F)c(F)c(F)c(F)c5F)c5nc(c(-c6c(F)c(F)c(F)c(F)c6F)c6ccc3[nH]6)C=C5)C=C4)cc2)cc1)Nc1ccc(Cl)cc1
REMARK SMILES IDX 14 1 13 2 12 3 10 4 11 5 9 7 6 8 7 9 86 10 8 11 85 12 5 13
REMARK SMILES IDX 4 14 3 15 2 16 1 17 87 18 88 20 89 21 94 22 90 23 93 24
REMARK SMILES IDX 91 25 92 26 15 27 16 28 17 29 18 30 19 31 20 32 21 34 22 35
REMARK SMILES IDX 23 36 84 37 24 38 83 39 25 40 26 41 27 42 77 43 28 44 82 45
REMARK SMILES IDX 76 46 78 47 29 48 81 49 75 50 74 51 30 53 62 54 42 55 61 56
REMARK SMILES IDX 43 57 46 58 60 59 79 60 44 61 45 62 59 64 80 65 47 66 31 67
REMARK SMILES IDX 32 68 40 69 33 70 34 71 38 72 41 73 35 74 36 75 39 76 37 77
REMARK SMILES IDX 63 78 64 79 72 80 65 81 66 82 70 83 73 84 67 85 68 86 71 87
REMARK SMILES IDX 69 88 48 89 49 90 57 91 50 92 51 93 55 94 58 95 52 96 53 97
REMARK SMILES IDX 56 98 54 99
REMARK H PARENT 12 6 87 19 19 33 78 52 46 63
REMARK Flexibility Score: inf
ROOT
ATOM      1  C   UNL A   1      35.701  31.545  28.006  1.00  0.00     0.021 C 
ENDROOT
BRANCH   1   2
ATOM      2  C   UNL A   1      34.635  30.527  27.593  1.00  0.00     0.116 C 
BRANCH   2   3
ATOM      3  N   UNL A   1      33.389  31.213  27.330  1.00  0.00    -0.352 N 
ATOM      4  C   UNL A   1      32.212  30.835  26.742  1.00  0.00     0.251 C 
ATOM      5  O   UNL A   1      31.369  31.718  26.573  1.00  0.00    -0.269 OA
ATOM      6  H   UNL A   1      33.387  32.149  27.637  1.00  0.00     0.163 HD
BRANCH   4   7
ATOM      7  C   UNL A   1      31.869  29.430  26.377  1.00  0.00     0.039 A 
ATOM      8  C   UNL A   1      30.930  26.898  25.475  1.00  0.00    -0.038 A 
ATOM      9  C   UNL A   1      31.111  27.957  24.583  1.00  0.00     0.005 A 
ATOM     10  C   UNL A   1      31.332  27.102  26.806  1.00  0.00     0.005 A 
ATOM     11  C   UNL A   1      31.551  29.206  25.032  1.00  0.00     0.014 A 
ATOM     12  C   UNL A   1      31.832  28.338  27.243  1.00  0.00     0.014 A 
BRANCH   8  13
ATOM     13  C   UNL A   1      30.253  25.589  25.136  1.00  0.00     0.105 C 
BRANCH  13  14
ATOM     14  S   UNL A   1      30.684  24.731  23.593  1.00  0.00    -0.147 SA
BRANCH  14  15
ATOM     15  C   UNL A   1      32.476  24.456  23.790  1.00  0.00     0.170 C 
BRANCH  15  16
ATOM     16  C   UNL A   1      32.935  23.043  23.497  1.00  0.00     0.234 C 
ATOM     17  O   UNL A   1      34.053  22.837  23.029  1.00  0.00    -0.274 OA
ATOM     18  N   UNL A   1      32.021  22.070  23.858  1.00  0.00    -0.325 N 
ATOM     19  H   UNL A   1      31.110  22.374  24.073  1.00  0.00     0.169 HD
BRANCH  18  20
ATOM     20  C   UNL A   1      32.270  20.688  23.945  1.00  0.00     0.041 A 
ATOM     21  C   UNL A   1      32.638  20.168  25.191  1.00  0.00     0.027 A 
ATOM     22  C   UNL A   1      32.205  19.830  22.842  1.00  0.00     0.027 A 
ATOM     23  C   UNL A   1      32.900  18.801  25.338  1.00  0.00     0.022 A 
ATOM     24  C   UNL A   1      32.487  18.468  22.983  1.00  0.00     0.022 A 
ATOM     25  C   UNL A   1      32.824  17.957  24.231  1.00  0.00     0.041 A 
ATOM     26  Cl  UNL A   1      33.153  16.278  24.410  1.00  0.00    -0.084 Cl
ENDBRANCH  18  20
ENDBRANCH  15  16
ENDBRANCH  14  15
ENDBRANCH  13  14
ENDBRANCH   8  13
ENDBRANCH   4   7
ENDBRANCH   2   3
ENDBRANCH   1   2
BRANCH   1  27
ATOM     27  C   UNL A   1      35.142  32.671  28.891  1.00  0.00     0.002 C 
BRANCH  27  28
ATOM     28  C   UNL A   1      35.485  34.089  28.420  1.00  0.00     0.002 C 
BRANCH  28  29
ATOM     29  C   UNL A   1      34.355  35.109  28.575  1.00  0.00     0.021 C 
BRANCH  29  30
ATOM     30  C   UNL A   1      33.114  34.562  29.276  1.00  0.00     0.116 C 
BRANCH  30  31
ATOM     31  N   UNL A   1      32.630  35.475  30.300  1.00  0.00    -0.352 N 
ATOM     32  C   UNL A   1      32.981  35.559  31.624  1.00  0.00     0.251 C 
ATOM     33  H   UNL A   1      31.954  36.125  29.999  1.00  0.00     0.163 HD
ATOM     34  O   UNL A   1      32.310  36.224  32.404  1.00  0.00    -0.269 OA
BRANCH  32  35
ATOM     35  C   UNL A   1      34.170  34.830  32.111  1.00  0.00     0.039 A 
ATOM     36  C   UNL A   1      34.009  33.545  32.636  1.00  0.00     0.014 A 
ATOM     37  C   UNL A   1      35.436  35.420  32.061  1.00  0.00     0.014 A 
ATOM     38  C   UNL A   1      35.129  32.828  33.059  1.00  0.00     0.010 A 
ATOM     39  C   UNL A   1      36.557  34.681  32.423  1.00  0.00     0.010 A 
ATOM     40  C   UNL A   1      36.414  33.378  32.926  1.00  0.00    -0.014 A 
BRANCH  40  41
ATOM     41  C   UNL A   1      37.625  32.606  33.297  1.00  0.00     0.031 A 
ATOM     42  C   UNL A   1      38.352  32.910  34.575  1.00  0.00     0.074 A 
ATOM     43  C   UNL A   1      38.109  31.683  32.445  1.00  0.00     0.049 A 
ATOM     44  N   UNL A   1      39.472  32.408  35.032  1.00  0.00    -0.248 NA
ATOM     45  C   UNL A   1      37.754  33.935  35.445  1.00  0.00     0.031 C 
ATOM     46  C   UNL A   1      37.514  31.329  31.156  1.00  0.00     0.029 A 
ATOM     47  N   UNL A   1      39.221  30.883  32.530  1.00  0.00    -0.354 N 
ATOM     48  C   UNL A   1      39.718  33.064  36.230  1.00  0.00     0.074 A 
ATOM     49  C   UNL A   1      38.659  34.035  36.408  1.00  0.00     0.031 C 
ATOM     50  C   UNL A   1      38.257  30.373  30.578  1.00  0.00     0.029 A 
ATOM     51  C   UNL A   1      39.400  30.074  31.434  1.00  0.00     0.049 A 
ATOM     52  H   UNL A   1      39.833  30.889  33.301  1.00  0.00     0.167 HD
ATOM     53  C   UNL A   1      40.724  32.859  37.113  1.00  0.00     0.037 A 
ATOM     54  C   UNL A   1      40.383  29.200  31.149  1.00  0.00     0.037 A 
ATOM     55  C   UNL A   1      41.764  31.878  36.941  1.00  0.00     0.049 A 
ATOM     56  C   UNL A   1      41.500  29.005  32.137  1.00  0.00     0.074 A 
ATOM     57  C   UNL A   1      42.789  31.544  37.808  1.00  0.00     0.029 A 
ATOM     58  N   UNL A   1      41.912  31.073  35.820  1.00  0.00    -0.354 N 
ATOM     59  N   UNL A   1      41.688  29.581  33.298  1.00  0.00    -0.248 NA
ATOM     60  C   UNL A   1      42.543  28.036  31.772  1.00  0.00     0.031 C 
ATOM     61  C   UNL A   1      43.586  30.574  37.191  1.00  0.00     0.029 A 
ATOM     62  C   UNL A   1      43.030  30.266  35.960  1.00  0.00     0.049 A 
ATOM     63  H   UNL A   1      41.310  31.075  35.040  1.00  0.00     0.167 HD
ATOM     64  C   UNL A   1      42.855  29.033  33.813  1.00  0.00     0.074 A 
ATOM     65  C   UNL A   1      43.323  28.064  32.844  1.00  0.00     0.031 C 
ATOM     66  C   UNL A   1      43.484  29.311  34.982  1.00  0.00     0.037 A 
BRANCH  53  67
ATOM     67  C   UNL A   1      40.752  33.717  38.345  1.00  0.00     0.064 A 
ATOM     68  C   UNL A   1      41.546  34.872  38.419  1.00  0.00     0.173 A 
ATOM     69  C   UNL A   1      39.954  33.398  39.454  1.00  0.00     0.173 A 
ATOM     70  F   UNL A   1      42.336  35.215  37.391  1.00  0.00    -0.203 F 
ATOM     71  C   UNL A   1      41.565  35.657  39.570  1.00  0.00     0.198 A 
ATOM     72  C   UNL A   1      39.952  34.203  40.591  1.00  0.00     0.198 A 
ATOM     73  F   UNL A   1      39.172  32.309  39.434  1.00  0.00    -0.203 F 
ATOM     74  F   UNL A   1      42.371  36.726  39.637  1.00  0.00    -0.200 F 
ATOM     75  C   UNL A   1      40.763  35.325  40.652  1.00  0.00     0.200 A 
ATOM     76  F   UNL A   1      39.168  33.888  41.631  1.00  0.00    -0.200 F 
ATOM     77  F   UNL A   1      40.780  36.084  41.756  1.00  0.00    -0.200 F 
ENDBRANCH  53  67
BRANCH  54  78
ATOM     78  C   UNL A   1      40.343  28.431  29.879  1.00  0.00     0.064 A 
ATOM     79  C   UNL A   1      41.039  28.876  28.748  1.00  0.00     0.173 A 
ATOM     80  C   UNL A   1      39.618  27.236  29.772  1.00  0.00     0.173 A 
ATOM     81  F   UNL A   1      41.730  30.024  28.796  1.00  0.00    -0.203 F 
ATOM     82  C   UNL A   1      41.000  28.162  27.551  1.00  0.00     0.198 A 
ATOM     83  C   UNL A   1      39.600  26.509  28.583  1.00  0.00     0.198 A 
ATOM     84  F   UNL A   1      38.937  26.765  30.827  1.00  0.00    -0.203 F 
ATOM     85  F   UNL A   1      41.643  28.630  26.474  1.00  0.00    -0.200 F 
ATOM     86  C   UNL A   1      40.285  26.976  27.472  1.00  0.00     0.200 A 
ATOM     87  F   UNL A   1      38.921  25.356  28.515  1.00  0.00    -0.200 F 
ATOM     88  F   UNL A   1      40.254  26.287  26.324  1.00  0.00    -0.200 F 
ENDBRANCH  54  78
BRANCH  66  89
ATOM     89  C   UNL A   1      44.739  28.544  35.282  1.00  0.00     0.064 A 
ATOM     90  C   UNL A   1      45.994  28.996  34.849  1.00  0.00     0.173 A 
ATOM     91  C   UNL A   1      44.690  27.365  36.040  1.00  0.00     0.173 A 
ATOM     92  F   UNL A   1      46.092  30.110  34.107  1.00  0.00    -0.203 F 
ATOM     93  C   UNL A   1      47.152  28.282  35.145  1.00  0.00     0.198 A 
ATOM     94  C   UNL A   1      45.853  26.670  36.358  1.00  0.00     0.198 A 
ATOM     95  F   UNL A   1      43.515  26.892  36.481  1.00  0.00    -0.203 F 
ATOM     96  F   UNL A   1      48.336  28.708  34.682  1.00  0.00    -0.200 F 
ATOM     97  C   UNL A   1      47.082  27.124  35.904  1.00  0.00     0.200 A 
ATOM     98  F   UNL A   1      45.784  25.558  37.103  1.00  0.00    -0.200 F 
ATOM     99  F   UNL A   1      48.198  26.442  36.194  1.00  0.00    -0.200 F 
ENDBRANCH  66  89
ENDBRANCH  40  41
ENDBRANCH  32  35
ENDBRANCH  30  31
ENDBRANCH  29  30
ENDBRANCH  28  29
ENDBRANCH  27  28
ENDBRANCH   1  27
TORSDOF 18
ENDMDL
MODEL 3
REMARK VINA RESULT:     -10.9      5.948     11.745
REMARK SMILES O=C(CSCc1ccc(C(=O)NCCCCCCNC(=O)c2ccc(-c3c4nc(c(-c5c(F)c(F)c(F)c(F)c5F)c5ccc([nH]5)c(-c5c(F)c(F)c(F)c(F)c5F)c5nc(c(-c6c(F)c(F)c(F)c(F)c6F)c6ccc3[nH]6)C=C5)C=C4)cc2)cc1)Nc1ccc(Cl)cc1
REMARK SMILES IDX 14 1 13 2 12 3 10 4 11 5 9 7 6 8 7 9 86 10 8 11 85 12 5 13
REMARK SMILES IDX 4 14 3 15 2 16 1 17 87 18 88 20 89 21 94 22 90 23 93 24
REMARK SMILES IDX 91 25 92 26 15 27 16 28 17 29 18 30 19 31 20 32 21 34 22 35
REMARK SMILES IDX 23 36 84 37 24 38 83 39 25 40 26 41 27 42 77 43 28 44 82 45
REMARK SMILES IDX 76 46 78 47 29 48 81 49 75 50 74 51 30 53 62 54 42 55 61 56
REMARK SMILES IDX 43 57 46 58 60 59 79 60 44 61 45 62 59 64 80 65 47 66 31 67
REMARK SMILES IDX 32 68 40 69 33 70 34 71 38 72 41 73 35 74 36 75 39 76 37 77
REMARK SMILES IDX 63 78 64 79 72 80 65 81 66 82 70 83 73 84 67 85 68 86 71 87
REMARK SMILES IDX 69 88 48 89 49 90 57 91 50 92 51 93 55 94 58 95 52 96 53 97
REMARK SMILES IDX 56 98 54 99
REMARK H PARENT 12 6 87 19 19 33 78 52 46 63
REMARK Flexibility Score: inf
ROOT
ATOM      1  C   UNL A   1      43.599  18.059  26.620  1.00  0.00     0.021 C 
ENDROOT
BRANCH   1   2
ATOM      2  C   UNL A   1      43.722  18.827  25.302  1.00  0.00     0.116 C 
BRANCH   2   3
ATOM      3  N   UNL A   1      45.113  19.136  25.051  1.00  0.00    -0.352 N 
ATOM      4  C   UNL A   1      45.813  20.307  24.943  1.00  0.00     0.251 C 
ATOM      5  O   UNL A   1      46.996  20.216  24.608  1.00  0.00    -0.269 OA
ATOM      6  H   UNL A   1      45.675  18.335  24.934  1.00  0.00     0.163 HD
BRANCH   4   7
ATOM      7  C   UNL A   1      45.260  21.651  25.279  1.00  0.00     0.039 A 
ATOM      8  C   UNL A   1      44.392  24.342  25.613  1.00  0.00    -0.038 A 
ATOM      9  C   UNL A   1      44.327  23.715  24.368  1.00  0.00     0.005 A 
ATOM     10  C   UNL A   1      44.797  23.558  26.708  1.00  0.00     0.005 A 
ATOM     11  C   UNL A   1      44.775  22.401  24.201  1.00  0.00     0.014 A 
ATOM     12  C   UNL A   1      45.187  22.219  26.549  1.00  0.00     0.014 A 
BRANCH   8  13
ATOM     13  C   UNL A   1      44.147  25.814  25.855  1.00  0.00     0.105 C 
BRANCH  13  14
ATOM     14  S   UNL A   1      45.308  27.037  25.180  1.00  0.00    -0.147 SA
BRANCH  14  15
ATOM     15  C   UNL A   1      45.486  28.210  26.565  1.00  0.00     0.170 C 
BRANCH  15  16
ATOM     16  C   UNL A   1      44.590  29.428  26.482  1.00  0.00     0.234 C 
ATOM     17  O   UNL A   1      43.379  29.299  26.316  1.00  0.00    -0.274 OA
ATOM     18  N   UNL A   1      45.255  30.627  26.666  1.00  0.00    -0.325 N 
ATOM     19  H   UNL A   1      46.238  30.600  26.632  1.00  0.00     0.169 HD
BRANCH  18  20
ATOM     20  C   UNL A   1      44.658  31.880  26.896  1.00  0.00     0.041 A 
ATOM     21  C   UNL A   1      44.401  32.695  25.788  1.00  0.00     0.027 A 
ATOM     22  C   UNL A   1      44.352  32.355  28.176  1.00  0.00     0.027 A 
ATOM     23  C   UNL A   1      43.812  33.953  25.956  1.00  0.00     0.022 A 
ATOM     24  C   UNL A   1      43.782  33.620  28.347  1.00  0.00     0.022 A 
ATOM     25  C   UNL A   1      43.506  34.410  27.237  1.00  0.00     0.041 A 
ATOM     26  Cl  UNL A   1      42.787  35.960  27.444  1.00  0.00    -0.084 Cl
ENDBRANCH  18  20
ENDBRANCH  15  16
ENDBRANCH  14  15
ENDBRANCH  13  14
ENDBRANCH   8  13
ENDBRANCH   4   7
ENDBRANCH   2   3
ENDBRANCH   1   2
BRANCH   1  27
ATOM     27  C   UNL A   1      42.630  18.724  27.611  1.00  0.00     0.002 C 
BRANCH  27  28
ATOM     28  C   UNL A   1      41.583  19.641  26.968  1.00  0.00     0.002 C 
BRANCH  28  29
ATOM     29  C   UNL A   1      41.525  21.056  27.549  1.00  0.00     0.021 C 
BRANCH  29  30
ATOM     30  C   UNL A   1      41.390  22.155  26.499  1.00  0.00     0.116 C 
BRANCH  30  31
ATOM     31  N   UNL A   1      40.049  22.199  25.938  1.00  0.00    -0.352 N 
ATOM     32  C   UNL A   1      39.058  23.129  26.130  1.00  0.00     0.251 C 
ATOM     33  H   UNL A   1      39.820  21.455  25.335  1.00  0.00     0.163 HD
ATOM     34  O   UNL A   1      37.909  22.896  25.773  1.00  0.00    -0.269 OA
BRANCH  32  35
ATOM     35  C   UNL A   1      39.380  24.414  26.784  1.00  0.00     0.039 A 
ATOM     36  C   UNL A   1      38.951  24.633  28.096  1.00  0.00     0.014 A 
ATOM     37  C   UNL A   1      40.091  25.402  26.098  1.00  0.00     0.014 A 
ATOM     38  C   UNL A   1      39.286  25.824  28.740  1.00  0.00     0.010 A 
ATOM     39  C   UNL A   1      40.478  26.561  26.763  1.00  0.00     0.010 A 
ATOM     40  C   UNL A   1      40.079  26.784  28.090  1.00  0.00    -0.014 A 
BRANCH  40  41
ATOM     41  C   UNL A   1      40.512  28.022  28.781  1.00  0.00     0.031 A 
ATOM     42  C   UNL A   1      41.913  28.143  29.306  1.00  0.00     0.074 A 
ATOM     43  C   UNL A   1      39.618  29.005  29.000  1.00  0.00     0.049 A 
ATOM     44  N   UNL A   1      42.454  29.106  30.011  1.00  0.00    -0.248 NA
ATOM     45  C   UNL A   1      42.821  27.021  29.024  1.00  0.00     0.031 C 
ATOM     46  C   UNL A   1      38.219  28.985  28.573  1.00  0.00     0.029 A 
ATOM     47  N   UNL A   1      39.752  30.208  29.647  1.00  0.00    -0.354 N 
ATOM     48  C   UNL A   1      43.757  28.699  30.267  1.00  0.00     0.074 A 
ATOM     49  C   UNL A   1      43.911  27.382  29.685  1.00  0.00     0.031 C 
ATOM     50  C   UNL A   1      37.627  30.126  28.957  1.00  0.00     0.029 A 
ATOM     51  C   UNL A   1      38.591  30.942  29.687  1.00  0.00     0.049 A 
ATOM     52  H   UNL A   1      40.598  30.516  30.046  1.00  0.00     0.167 HD
ATOM     53  C   UNL A   1      44.740  29.373  30.909  1.00  0.00     0.037 A 
ATOM     54  C   UNL A   1      38.333  32.132  30.261  1.00  0.00     0.037 A 
ATOM     55  C   UNL A   1      44.586  30.691  31.467  1.00  0.00     0.049 A 
ATOM     56  C   UNL A   1      39.437  32.851  30.986  1.00  0.00     0.074 A 
ATOM     57  C   UNL A   1      45.538  31.488  32.077  1.00  0.00     0.029 A 
ATOM     58  N   UNL A   1      43.396  31.406  31.487  1.00  0.00    -0.354 N 
ATOM     59  N   UNL A   1      40.684  32.489  31.164  1.00  0.00    -0.248 NA
ATOM     60  C   UNL A   1      39.097  34.147  31.589  1.00  0.00     0.031 C 
ATOM     61  C   UNL A   1      44.915  32.664  32.510  1.00  0.00     0.029 A 
ATOM     62  C   UNL A   1      43.584  32.621  32.125  1.00  0.00     0.049 A 
ATOM     63  H   UNL A   1      42.544  31.095  31.102  1.00  0.00     0.167 HD
ATOM     64  C   UNL A   1      41.282  33.516  31.881  1.00  0.00     0.074 A 
ATOM     65  C   UNL A   1      40.266  34.526  32.089  1.00  0.00     0.031 C 
ATOM     66  C   UNL A   1      42.558  33.613  32.329  1.00  0.00     0.037 A 
BRANCH  53  67
ATOM     67  C   UNL A   1      46.071  28.692  31.047  1.00  0.00     0.064 A 
ATOM     68  C   UNL A   1      47.122  28.944  30.151  1.00  0.00     0.173 A 
ATOM     69  C   UNL A   1      46.310  27.800  32.102  1.00  0.00     0.173 A 
ATOM     70  F   UNL A   1      46.942  29.780  29.117  1.00  0.00    -0.203 F 
ATOM     71  C   UNL A   1      48.350  28.302  30.287  1.00  0.00     0.198 A 
ATOM     72  C   UNL A   1      47.550  27.184  32.254  1.00  0.00     0.198 A 
ATOM     73  F   UNL A   1      45.343  27.528  32.990  1.00  0.00    -0.203 F 
ATOM     74  F   UNL A   1      49.321  28.518  29.389  1.00  0.00    -0.200 F 
ATOM     75  C   UNL A   1      48.565  27.428  31.342  1.00  0.00     0.200 A 
ATOM     76  F   UNL A   1      47.761  26.348  33.281  1.00  0.00    -0.200 F 
ATOM     77  F   UNL A   1      49.749  26.815  31.475  1.00  0.00    -0.200 F 
ENDBRANCH  53  67
BRANCH  54  78
ATOM     78  C   UNL A   1      36.975  32.724  30.156  1.00  0.00     0.064 A 
ATOM     79  C   UNL A   1      36.068  32.632  31.219  1.00  0.00     0.173 A 
ATOM     80  C   UNL A   1      36.561  33.399  28.999  1.00  0.00     0.173 A 
ATOM     81  F   UNL A   1      36.412  31.978  32.338  1.00  0.00    -0.203 F 
ATOM     82  C   UNL A   1      34.789  33.180  31.124  1.00  0.00     0.198 A 
ATOM     83  C   UNL A   1      35.292  33.970  28.915  1.00  0.00     0.198 A 
ATOM     84  F   UNL A   1      37.394  33.518  27.954  1.00  0.00    -0.203 F 
ATOM     85  F   UNL A   1      33.928  33.043  32.140  1.00  0.00    -0.200 F 
ATOM     86  C   UNL A   1      34.406  33.853  29.974  1.00  0.00     0.200 A 
ATOM     87  F   UNL A   1      34.930  34.632  27.808  1.00  0.00    -0.200 F 
ATOM     88  F   UNL A   1      33.179  34.386  29.886  1.00  0.00    -0.200 F 
ENDBRANCH  54  78
BRANCH  66  89
ATOM     89  C   UNL A   1      42.928  34.860  33.076  1.00  0.00     0.064 A 
ATOM     90  C   UNL A   1      42.849  34.927  34.475  1.00  0.00     0.173 A 
ATOM     91  C   UNL A   1      43.400  35.989  32.389  1.00  0.00     0.173 A 
ATOM     92  F   UNL A   1      42.388  33.881  35.176  1.00  0.00    -0.203 F 
ATOM     93  C   UNL A   1      43.208  36.087  35.156  1.00  0.00     0.198 A 
ATOM     94  C   UNL A   1      43.785  37.136  33.076  1.00  0.00     0.198 A 
ATOM     95  F   UNL A   1      43.499  35.975  31.051  1.00  0.00    -0.203 F 
ATOM     96  F   UNL A   1      43.081  36.145  36.490  1.00  0.00    -0.200 F 
ATOM     97  C   UNL A   1      43.682  37.188  34.458  1.00  0.00     0.200 A 
ATOM     98  F   UNL A   1      44.255  38.194  32.401  1.00  0.00    -0.200 F 
ATOM     99  F   UNL A   1      44.033  38.301  35.116  1.00  0.00    -0.200 F 
ENDBRANCH  66  89
ENDBRANCH  40  41
ENDBRANCH  32  35
ENDBRANCH  30  31
ENDBRANCH  29  30
ENDBRANCH  28  29
ENDBRANCH  27  28
ENDBRANCH   1  27
TORSDOF 18
ENDMDL
