MODEL 1
REMARK VINA RESULT:     -12.3      0.000      0.000
REMARK SMILES CCOc1ccc(N2C[C@H](C(=O)NCCCCCCNC(=O)c3ccc(-c4c5nc(c(-c6c(F)c(F)c(F)c(F)c6F)c6ccc([nH]6)c(-c6c(F)c(F)c(F)c(F)c6F)c6nc(c(-c7c(F)c(F)c(F)c(F)c7F)c7ccc4[nH]7)C=C6)C=C5)cc3)CC2=O)cc1C(F)(F)F
REMARK SMILES IDX 16 1 15 2 14 3 13 4 11 5 12 6 10 8 8 9 9 10 87 11 86 12
REMARK SMILES IDX 88 13 7 14 4 15 5 16 90 17 6 18 89 19 3 20 2 21 1 22 91 23
REMARK SMILES IDX 92 24 93 25 94 26 17 27 18 28 19 29 20 30 21 31 22 33 23 34
REMARK SMILES IDX 24 35 85 36 25 37 84 38 26 39 27 40 28 41 78 42 29 43 83 44
REMARK SMILES IDX 77 45 79 46 30 47 82 48 76 49 75 50 31 52 63 53 43 54 62 55
REMARK SMILES IDX 44 56 47 57 61 58 80 59 45 60 46 61 60 63 81 64 48 65 32 66
REMARK SMILES IDX 33 67 41 68 34 69 35 70 39 71 42 72 36 73 37 74 40 75 38 76
REMARK SMILES IDX 64 77 65 78 73 79 66 80 67 81 71 82 74 83 68 84 69 85 72 86
REMARK SMILES IDX 70 87 49 88 50 89 58 90 51 91 52 92 56 93 59 94 53 95 54 96
REMARK SMILES IDX 57 97 55 98
REMARK H PARENT 13 7 20 32 79 51 47 62
REMARK Flexibility Score: inf
ROOT
ATOM      1  C   UNL A   1      30.745  30.588  24.942  1.00  0.00     0.002 C 
ENDROOT
BRANCH   1   2
ATOM      2  C   UNL A   1      31.185  29.246  24.349  1.00  0.00     0.021 C 
BRANCH   2   3
ATOM      3  C   UNL A   1      30.359  28.818  23.136  1.00  0.00     0.116 C 
BRANCH   3   4
ATOM      4  N   UNL A   1      29.884  27.458  23.276  1.00  0.00    -0.356 N 
ATOM      5  C   UNL A   1      30.520  26.263  23.327  1.00  0.00     0.225 C 
ATOM      6  O   UNL A   1      29.801  25.262  23.425  1.00  0.00    -0.275 OA
ATOM      7  H   UNL A   1      28.904  27.388  23.350  1.00  0.00     0.163 HD
BRANCH   5   8
ATOM      8  C   UNL A   1      32.032  26.089  23.331  1.00  0.00     0.107 C 
ATOM      9  N   UNL A   1      33.082  23.976  23.449  1.00  0.00    -0.312 N 
ATOM     10  C   UNL A   1      32.597  25.055  24.283  1.00  0.00     0.139 C 
ATOM     11  C   UNL A   1      33.088  24.340  22.093  1.00  0.00     0.227 C 
ATOM     12  C   UNL A   1      32.588  25.749  21.962  1.00  0.00     0.116 C 
ATOM     13  O   UNL A   1      33.379  23.658  21.119  1.00  0.00    -0.274 OA
BRANCH   9  14
ATOM     14  C   UNL A   1      33.358  22.663  23.928  1.00  0.00     0.044 A 
ATOM     15  C   UNL A   1      34.029  19.990  24.545  1.00  0.00     0.131 A 
ATOM     16  C   UNL A   1      32.711  20.337  24.236  1.00  0.00     0.049 A 
ATOM     17  C   UNL A   1      35.020  20.969  24.584  1.00  0.00     0.100 A 
ATOM     18  C   UNL A   1      32.374  21.668  23.961  1.00  0.00     0.030 A 
ATOM     19  C   UNL A   1      34.660  22.299  24.293  1.00  0.00     0.043 A 
BRANCH  15  20
ATOM     20  O   UNL A   1      34.368  18.673  24.656  1.00  0.00    -0.493 OA
BRANCH  20  21
ATOM     21  C   UNL A   1      33.599  17.803  23.818  1.00  0.00     0.226 C 
ATOM     22  C   UNL A   1      34.132  16.386  23.920  1.00  0.00     0.049 C 
ENDBRANCH  20  21
ENDBRANCH  15  20
BRANCH  17  23
ATOM     23  C   UNL A   1      36.448  20.674  24.967  1.00  0.00     0.420 C 
ATOM     24  F   UNL A   1      37.352  21.237  24.114  1.00  0.00    -0.166 F 
ATOM     25  F   UNL A   1      36.754  21.179  26.197  1.00  0.00    -0.166 F 
ATOM     26  F   UNL A   1      36.773  19.355  25.011  1.00  0.00    -0.166 F 
ENDBRANCH  17  23
ENDBRANCH   9  14
ENDBRANCH   5   8
ENDBRANCH   3   4
ENDBRANCH   2   3
ENDBRANCH   1   2
BRANCH   1  27
ATOM     27  C   UNL A   1      31.452  30.973  26.249  1.00  0.00     0.002 C 
BRANCH  27  28
ATOM     28  C   UNL A   1      31.386  32.459  26.613  1.00  0.00     0.021 C 
BRANCH  28  29
ATOM     29  C   UNL A   1      32.655  33.010  27.257  1.00  0.00     0.116 C 
BRANCH  29  30
ATOM     30  N   UNL A   1      32.478  34.382  27.705  1.00  0.00    -0.352 N 
ATOM     31  C   UNL A   1      33.046  35.037  28.767  1.00  0.00     0.251 C 
ATOM     32  H   UNL A   1      31.858  34.922  27.164  1.00  0.00     0.163 HD
ATOM     33  O   UNL A   1      32.591  36.113  29.141  1.00  0.00    -0.269 OA
BRANCH  31  34
ATOM     34  C   UNL A   1      34.207  34.448  29.463  1.00  0.00     0.039 A 
ATOM     35  C   UNL A   1      33.994  33.719  30.636  1.00  0.00     0.014 A 
ATOM     36  C   UNL A   1      35.505  34.641  28.981  1.00  0.00     0.014 A 
ATOM     37  C   UNL A   1      35.079  33.143  31.298  1.00  0.00     0.010 A 
ATOM     38  C   UNL A   1      36.576  34.004  29.600  1.00  0.00     0.010 A 
ATOM     39  C   UNL A   1      36.375  33.257  30.769  1.00  0.00    -0.014 A 
BRANCH  39  40
ATOM     40  C   UNL A   1      37.534  32.607  31.433  1.00  0.00     0.031 A 
ATOM     41  C   UNL A   1      38.253  31.473  30.756  1.00  0.00     0.074 A 
ATOM     42  C   UNL A   1      37.905  33.008  32.663  1.00  0.00     0.049 A 
ATOM     43  N   UNL A   1      39.239  30.735  31.199  1.00  0.00    -0.248 NA
ATOM     44  C   UNL A   1      37.787  31.104  29.409  1.00  0.00     0.031 C 
ATOM     45  C   UNL A   1      37.264  34.073  33.435  1.00  0.00     0.029 A 
ATOM     46  N   UNL A   1      38.909  32.560  33.487  1.00  0.00    -0.354 N 
ATOM     47  C   UNL A   1      39.508  29.818  30.191  1.00  0.00     0.074 A 
ATOM     48  C   UNL A   1      38.542  30.049  29.139  1.00  0.00     0.031 C 
ATOM     49  C   UNL A   1      37.905  34.214  34.607  1.00  0.00     0.029 A 
ATOM     50  C   UNL A   1      38.969  33.219  34.689  1.00  0.00     0.049 A 
ATOM     51  H   UNL A   1      39.527  31.834  33.238  1.00  0.00     0.167 HD
ATOM     52  C   UNL A   1      40.490  28.887  30.137  1.00  0.00     0.037 A 
ATOM     53  C   UNL A   1      39.785  33.033  35.745  1.00  0.00     0.037 A 
ATOM     54  C   UNL A   1      41.456  28.669  31.181  1.00  0.00     0.049 A 
ATOM     55  C   UNL A   1      40.838  31.958  35.673  1.00  0.00     0.074 A 
ATOM     56  C   UNL A   1      42.508  27.770  31.210  1.00  0.00     0.029 A 
ATOM     57  N   UNL A   1      41.487  29.357  32.385  1.00  0.00    -0.354 N 
ATOM     58  N   UNL A   1      41.120  31.135  34.691  1.00  0.00    -0.248 NA
ATOM     59  C   UNL A   1      41.691  31.789  36.857  1.00  0.00     0.031 C 
ATOM     60  C   UNL A   1      43.144  27.879  32.451  1.00  0.00     0.029 A 
ATOM     61  C   UNL A   1      42.527  28.888  33.172  1.00  0.00     0.049 A 
ATOM     62  H   UNL A   1      40.862  30.074  32.643  1.00  0.00     0.167 HD
ATOM     63  C   UNL A   1      42.204  30.382  35.124  1.00  0.00     0.074 A 
ATOM     64  C   UNL A   1      42.539  30.857  36.450  1.00  0.00     0.031 C 
ATOM     65  C   UNL A   1      42.862  29.386  34.481  1.00  0.00     0.037 A 
BRANCH  52  66
ATOM     66  C   UNL A   1      40.578  28.037  28.901  1.00  0.00     0.064 A 
ATOM     67  C   UNL A   1      39.859  26.837  28.783  1.00  0.00     0.173 A 
ATOM     68  C   UNL A   1      41.347  28.450  27.803  1.00  0.00     0.173 A 
ATOM     69  F   UNL A   1      39.116  26.391  29.808  1.00  0.00    -0.203 F 
ATOM     70  C   UNL A   1      39.926  26.072  27.622  1.00  0.00     0.198 A 
ATOM     71  C   UNL A   1      41.386  27.699  26.631  1.00  0.00     0.198 A 
ATOM     72  F   UNL A   1      42.052  29.590  27.859  1.00  0.00    -0.203 F 
ATOM     73  F   UNL A   1      39.268  24.907  27.550  1.00  0.00    -0.200 F 
ATOM     74  C   UNL A   1      40.681  26.507  26.544  1.00  0.00     0.200 A 
ATOM     75  F   UNL A   1      42.105  28.128  25.585  1.00  0.00    -0.200 F 
ATOM     76  F   UNL A   1      40.736  25.776  25.423  1.00  0.00    -0.200 F 
ENDBRANCH  52  66
BRANCH  53  77
ATOM     77  C   UNL A   1      39.656  33.886  36.957  1.00  0.00     0.064 A 
ATOM     78  C   UNL A   1      38.885  33.469  38.052  1.00  0.00     0.173 A 
ATOM     79  C   UNL A   1      40.266  35.147  37.034  1.00  0.00     0.173 A 
ATOM     80  F   UNL A   1      38.265  32.279  38.019  1.00  0.00    -0.203 F 
ATOM     81  C   UNL A   1      38.696  34.294  39.157  1.00  0.00     0.198 A 
ATOM     82  C   UNL A   1      40.106  35.957  38.156  1.00  0.00     0.198 A 
ATOM     83  F   UNL A   1      41.017  35.593  36.017  1.00  0.00    -0.203 F 
ATOM     84  F   UNL A   1      37.898  33.898  40.158  1.00  0.00    -0.200 F 
ATOM     85  C   UNL A   1      39.310  35.537  39.211  1.00  0.00     0.200 A 
ATOM     86  F   UNL A   1      40.712  37.151  38.210  1.00  0.00    -0.200 F 
ATOM     87  F   UNL A   1      39.123  36.333  40.271  1.00  0.00    -0.200 F 
ENDBRANCH  53  77
BRANCH  65  88
ATOM     88  C   UNL A   1      44.046  28.779  35.179  1.00  0.00     0.064 A 
ATOM     89  C   UNL A   1      45.343  29.286  35.016  1.00  0.00     0.173 A 
ATOM     90  C   UNL A   1      43.870  27.695  36.055  1.00  0.00     0.173 A 
ATOM     91  F   UNL A   1      45.567  30.312  34.181  1.00  0.00    -0.203 F 
ATOM     92  C   UNL A   1      46.425  28.710  35.678  1.00  0.00     0.198 A 
ATOM     93  C   UNL A   1      44.948  27.146  36.742  1.00  0.00     0.198 A 
ATOM     94  F   UNL A   1      42.648  27.177  36.254  1.00  0.00    -0.203 F 
ATOM     95  F   UNL A   1      47.663  29.177  35.463  1.00  0.00    -0.200 F 
ATOM     96  C   UNL A   1      46.225  27.648  36.546  1.00  0.00     0.200 A 
ATOM     97  F   UNL A   1      44.751  26.131  37.595  1.00  0.00    -0.200 F 
ATOM     98  F   UNL A   1      47.267  27.102  37.189  1.00  0.00    -0.200 F 
ENDBRANCH  65  88
ENDBRANCH  39  40
ENDBRANCH  31  34
ENDBRANCH  29  30
ENDBRANCH  28  29
ENDBRANCH  27  28
ENDBRANCH   1  27
TORSDOF 17
ENDMDL
MODEL 2
REMARK VINA RESULT:     -12.3      5.055     11.406
REMARK SMILES CCOc1ccc(N2C[C@H](C(=O)NCCCCCCNC(=O)c3ccc(-c4c5nc(c(-c6c(F)c(F)c(F)c(F)c6F)c6ccc([nH]6)c(-c6c(F)c(F)c(F)c(F)c6F)c6nc(c(-c7c(F)c(F)c(F)c(F)c7F)c7ccc4[nH]7)C=C6)C=C5)cc3)CC2=O)cc1C(F)(F)F
REMARK SMILES IDX 16 1 15 2 14 3 13 4 11 5 12 6 10 8 8 9 9 10 87 11 86 12
REMARK SMILES IDX 88 13 7 14 4 15 5 16 90 17 6 18 89 19 3 20 2 21 1 22 91 23
REMARK SMILES IDX 92 24 93 25 94 26 17 27 18 28 19 29 20 30 21 31 22 33 23 34
REMARK SMILES IDX 24 35 85 36 25 37 84 38 26 39 27 40 28 41 78 42 29 43 83 44
REMARK SMILES IDX 77 45 79 46 30 47 82 48 76 49 75 50 31 52 63 53 43 54 62 55
REMARK SMILES IDX 44 56 47 57 61 58 80 59 45 60 46 61 60 63 81 64 48 65 32 66
REMARK SMILES IDX 33 67 41 68 34 69 35 70 39 71 42 72 36 73 37 74 40 75 38 76
REMARK SMILES IDX 64 77 65 78 73 79 66 80 67 81 71 82 74 83 68 84 69 85 72 86
REMARK SMILES IDX 70 87 49 88 50 89 58 90 51 91 52 92 56 93 59 94 53 95 54 96
REMARK SMILES IDX 57 97 55 98
REMARK H PARENT 13 7 20 32 79 51 47 62
REMARK Flexibility Score: inf
ROOT
ATOM      1  C   UNL A   1      37.755  32.823  29.861  1.00  0.00     0.002 C 
ENDROOT
BRANCH   1   2
ATOM      2  C   UNL A   1      37.798  33.494  31.237  1.00  0.00     0.021 C 
BRANCH   2   3
ATOM      3  C   UNL A   1      38.186  32.539  32.366  1.00  0.00     0.116 C 
BRANCH   3   4
ATOM      4  N   UNL A   1      39.476  32.884  32.926  1.00  0.00    -0.356 N 
ATOM      5  C   UNL A   1      40.198  32.375  33.953  1.00  0.00     0.225 C 
ATOM      6  O   UNL A   1      41.275  32.931  34.196  1.00  0.00    -0.275 OA
ATOM      7  H   UNL A   1      39.915  33.639  32.471  1.00  0.00     0.163 HD
BRANCH   5   8
ATOM      8  C   UNL A   1      39.800  31.150  34.764  1.00  0.00     0.107 C 
ATOM      9  N   UNL A   1      41.139  29.207  34.898  1.00  0.00    -0.312 N 
ATOM     10  C   UNL A   1      40.063  29.798  34.131  1.00  0.00     0.139 C 
ATOM     11  C   UNL A   1      41.399  29.943  36.065  1.00  0.00     0.227 C 
ATOM     12  C   UNL A   1      40.457  31.110  36.129  1.00  0.00     0.116 C 
ATOM     13  O   UNL A   1      42.272  29.762  36.905  1.00  0.00    -0.274 OA
BRANCH   9  14
ATOM     14  C   UNL A   1      41.935  28.118  34.442  1.00  0.00     0.044 A 
ATOM     15  C   UNL A   1      43.724  26.022  33.826  1.00  0.00     0.131 A 
ATOM     16  C   UNL A   1      43.835  27.258  33.186  1.00  0.00     0.049 A 
ATOM     17  C   UNL A   1      42.708  25.801  34.753  1.00  0.00     0.100 A 
ATOM     18  C   UNL A   1      42.927  28.287  33.469  1.00  0.00     0.030 A 
ATOM     19  C   UNL A   1      41.813  26.853  35.030  1.00  0.00     0.043 A 
BRANCH  15  20
ATOM     20  O   UNL A   1      44.705  25.088  33.656  1.00  0.00    -0.493 OA
BRANCH  20  21
ATOM     21  C   UNL A   1      45.020  24.819  32.286  1.00  0.00     0.226 C 
ATOM     22  C   UNL A   1      44.085  23.755  31.742  1.00  0.00     0.049 C 
ENDBRANCH  20  21
ENDBRANCH  15  20
BRANCH  17  23
ATOM     23  C   UNL A   1      42.495  24.475  35.437  1.00  0.00     0.420 C 
ATOM     24  F   UNL A   1      41.361  24.444  36.194  1.00  0.00    -0.166 F 
ATOM     25  F   UNL A   1      42.352  23.460  34.535  1.00  0.00    -0.166 F 
ATOM     26  F   UNL A   1      43.494  24.091  36.276  1.00  0.00    -0.166 F 
ENDBRANCH  17  23
ENDBRANCH   9  14
ENDBRANCH   5   8
ENDBRANCH   3   4
ENDBRANCH   2   3
ENDBRANCH   1   2
BRANCH   1  27
ATOM     27  C   UNL A   1      37.096  33.664  28.759  1.00  0.00     0.002 C 
BRANCH  27  28
ATOM     28  C   UNL A   1      35.621  33.349  28.491  1.00  0.00     0.021 C 
BRANCH  28  29
ATOM     29  C   UNL A   1      35.005  32.338  29.454  1.00  0.00     0.116 C 
BRANCH  29  30
ATOM     30  N   UNL A   1      34.385  31.230  28.745  1.00  0.00    -0.352 N 
ATOM     31  C   UNL A   1      34.963  30.153  28.125  1.00  0.00     0.251 C 
ATOM     32  H   UNL A   1      33.402  31.257  28.705  1.00  0.00     0.163 HD
ATOM     33  O   UNL A   1      34.302  29.453  27.364  1.00  0.00    -0.269 OA
BRANCH  31  34
ATOM     34  C   UNL A   1      36.384  29.833  28.371  1.00  0.00     0.039 A 
ATOM     35  C   UNL A   1      36.752  29.300  29.608  1.00  0.00     0.014 A 
ATOM     36  C   UNL A   1      37.354  30.091  27.398  1.00  0.00     0.014 A 
ATOM     37  C   UNL A   1      38.088  28.978  29.851  1.00  0.00     0.010 A 
ATOM     38  C   UNL A   1      38.672  29.701  27.614  1.00  0.00     0.010 A 
ATOM     39  C   UNL A   1      39.054  29.150  28.845  1.00  0.00    -0.014 A 
BRANCH  39  40
ATOM     40  C   UNL A   1      40.471  28.766  29.069  1.00  0.00     0.031 A 
ATOM     41  C   UNL A   1      41.411  29.718  29.756  1.00  0.00     0.074 A 
ATOM     42  C   UNL A   1      40.919  27.581  28.611  1.00  0.00     0.049 A 
ATOM     43  N   UNL A   1      42.694  29.595  29.983  1.00  0.00    -0.248 NA
ATOM     44  C   UNL A   1      40.837  30.986  30.232  1.00  0.00     0.031 C 
ATOM     45  C   UNL A   1      40.111  26.590  27.900  1.00  0.00     0.029 A 
ATOM     46  N   UNL A   1      42.168  27.014  28.668  1.00  0.00    -0.354 N 
ATOM     47  C   UNL A   1      43.079  30.766  30.623  1.00  0.00     0.074 A 
ATOM     48  C   UNL A   1      41.909  31.614  30.693  1.00  0.00     0.031 C 
ATOM     49  C   UNL A   1      40.877  25.526  27.609  1.00  0.00     0.029 A 
ATOM     50  C   UNL A   1      42.238  25.780  28.070  1.00  0.00     0.049 A 
ATOM     51  H   UNL A   1      42.939  27.450  29.096  1.00  0.00     0.167 HD
ATOM     52  C   UNL A   1      44.291  31.092  31.131  1.00  0.00     0.037 A 
ATOM     53  C   UNL A   1      43.287  24.952  27.902  1.00  0.00     0.037 A 
ATOM     54  C   UNL A   1      45.449  30.239  31.070  1.00  0.00     0.049 A 
ATOM     55  C   UNL A   1      44.634  25.362  28.437  1.00  0.00     0.074 A 
ATOM     56  C   UNL A   1      46.715  30.465  31.580  1.00  0.00     0.029 A 
ATOM     57  N   UNL A   1      45.483  28.995  30.457  1.00  0.00    -0.354 N 
ATOM     58  N   UNL A   1      44.973  26.447  29.092  1.00  0.00    -0.248 NA
ATOM     59  C   UNL A   1      45.746  24.428  28.214  1.00  0.00     0.031 C 
ATOM     60  C   UNL A   1      47.528  29.381  31.232  1.00  0.00     0.029 A 
ATOM     61  C   UNL A   1      46.753  28.451  30.559  1.00  0.00     0.049 A 
ATOM     62  H   UNL A   1      44.716  28.562  30.015  1.00  0.00     0.167 HD
ATOM     63  C   UNL A   1      46.321  26.307  29.392  1.00  0.00     0.074 A 
ATOM     64  C   UNL A   1      46.735  25.025  28.862  1.00  0.00     0.031 C 
ATOM     65  C   UNL A   1      47.144  27.164  30.045  1.00  0.00     0.037 A 
BRANCH  52  66
ATOM     66  C   UNL A   1      44.428  32.425  31.810  1.00  0.00     0.064 A 
ATOM     67  C   UNL A   1      44.360  32.548  33.206  1.00  0.00     0.173 A 
ATOM     68  C   UNL A   1      44.682  33.585  31.063  1.00  0.00     0.173 A 
ATOM     69  F   UNL A   1      44.109  31.472  33.968  1.00  0.00    -0.203 F 
ATOM     70  C   UNL A   1      44.517  33.784  33.826  1.00  0.00     0.198 A 
ATOM     71  C   UNL A   1      44.870  34.815  31.688  1.00  0.00     0.198 A 
ATOM     72  F   UNL A   1      44.761  33.525  29.725  1.00  0.00    -0.203 F 
ATOM     73  F   UNL A   1      44.401  33.884  35.158  1.00  0.00    -0.200 F 
ATOM     74  C   UNL A   1      44.781  34.914  33.068  1.00  0.00     0.200 A 
ATOM     75  F   UNL A   1      45.141  35.903  30.955  1.00  0.00    -0.200 F 
ATOM     76  F   UNL A   1      44.944  36.102  33.667  1.00  0.00    -0.200 F 
ENDBRANCH  52  66
BRANCH  53  77
ATOM     77  C   UNL A   1      43.115  23.646  27.210  1.00  0.00     0.064 A 
ATOM     78  C   UNL A   1      42.537  22.552  27.870  1.00  0.00     0.173 A 
ATOM     79  C   UNL A   1      43.558  23.451  25.893  1.00  0.00     0.173 A 
ATOM     80  F   UNL A   1      42.116  22.682  29.137  1.00  0.00    -0.203 F 
ATOM     81  C   UNL A   1      42.442  21.306  27.255  1.00  0.00     0.198 A 
ATOM     82  C   UNL A   1      43.430  22.213  25.266  1.00  0.00     0.198 A 
ATOM     83  F   UNL A   1      44.114  24.464  25.214  1.00  0.00    -0.203 F 
ATOM     84  F   UNL A   1      41.949  20.262  27.935  1.00  0.00    -0.200 F 
ATOM     85  C   UNL A   1      42.886  21.138  25.952  1.00  0.00     0.200 A 
ATOM     86  F   UNL A   1      43.847  22.058  24.002  1.00  0.00    -0.200 F 
ATOM     87  F   UNL A   1      42.802  19.938  25.363  1.00  0.00    -0.200 F 
ENDBRANCH  53  77
BRANCH  65  88
ATOM     88  C   UNL A   1      48.561  26.719  30.275  1.00  0.00     0.064 A 
ATOM     89  C   UNL A   1      49.589  27.022  29.371  1.00  0.00     0.173 A 
ATOM     90  C   UNL A   1      48.898  26.010  31.439  1.00  0.00     0.173 A 
ATOM     91  F   UNL A   1      49.317  27.686  28.237  1.00  0.00    -0.203 F 
ATOM     92  C   UNL A   1      50.897  26.604  29.607  1.00  0.00     0.198 A 
ATOM     93  C   UNL A   1      50.212  25.625  31.689  1.00  0.00     0.198 A 
ATOM     94  F   UNL A   1      47.954  25.701  32.341  1.00  0.00    -0.203 F 
ATOM     95  F   UNL A   1      51.851  26.857  28.702  1.00  0.00    -0.200 F 
ATOM     96  C   UNL A   1      51.208  25.914  30.769  1.00  0.00     0.200 A 
ATOM     97  F   UNL A   1      50.515  24.975  32.821  1.00  0.00    -0.200 F 
ATOM     98  F   UNL A   1      52.469  25.522  30.999  1.00  0.00    -0.200 F 
ENDBRANCH  65  88
ENDBRANCH  39  40
ENDBRANCH  31  34
ENDBRANCH  29  30
ENDBRANCH  28  29
ENDBRANCH  27  28
ENDBRANCH   1  27
TORSDOF 17
ENDMDL
MODEL 3
REMARK VINA RESULT:     -12.1      0.734      7.327
REMARK SMILES CCOc1ccc(N2C[C@H](C(=O)NCCCCCCNC(=O)c3ccc(-c4c5nc(c(-c6c(F)c(F)c(F)c(F)c6F)c6ccc([nH]6)c(-c6c(F)c(F)c(F)c(F)c6F)c6nc(c(-c7c(F)c(F)c(F)c(F)c7F)c7ccc4[nH]7)C=C6)C=C5)cc3)CC2=O)cc1C(F)(F)F
REMARK SMILES IDX 16 1 15 2 14 3 13 4 11 5 12 6 10 8 8 9 9 10 87 11 86 12
REMARK SMILES IDX 88 13 7 14 4 15 5 16 90 17 6 18 89 19 3 20 2 21 1 22 91 23
REMARK SMILES IDX 92 24 93 25 94 26 17 27 18 28 19 29 20 30 21 31 22 33 23 34
REMARK SMILES IDX 24 35 85 36 25 37 84 38 26 39 27 40 28 41 78 42 29 43 83 44
REMARK SMILES IDX 77 45 79 46 30 47 82 48 76 49 75 50 31 52 63 53 43 54 62 55
REMARK SMILES IDX 44 56 47 57 61 58 80 59 45 60 46 61 60 63 81 64 48 65 32 66
REMARK SMILES IDX 33 67 41 68 34 69 35 70 39 71 42 72 36 73 37 74 40 75 38 76
REMARK SMILES IDX 64 77 65 78 73 79 66 80 67 81 71 82 74 83 68 84 69 85 72 86
REMARK SMILES IDX 70 87 49 88 50 89 58 90 51 91 52 92 56 93 59 94 53 95 54 96
REMARK SMILES IDX 57 97 55 98
REMARK H PARENT 13 7 20 32 79 51 47 62
REMARK Flexibility Score: inf
ROOT
ATOM      1  C   UNL A   1      31.543  29.851  24.862  1.00  0.00     0.002 C 
ENDROOT
BRANCH   1   2
ATOM      2  C   UNL A   1      30.255  29.951  24.041  1.00  0.00     0.021 C 
BRANCH   2   3
ATOM      3  C   UNL A   1      30.232  29.017  22.831  1.00  0.00     0.116 C 
BRANCH   3   4
ATOM      4  N   UNL A   1      29.750  27.700  23.191  1.00  0.00    -0.356 N 
ATOM      5  C   UNL A   1      30.379  26.526  23.436  1.00  0.00     0.225 C 
ATOM      6  O   UNL A   1      29.656  25.559  23.696  1.00  0.00    -0.275 OA
ATOM      7  H   UNL A   1      28.770  27.648  23.274  1.00  0.00     0.163 HD
BRANCH   5   8
ATOM      8  C   UNL A   1      31.891  26.348  23.469  1.00  0.00     0.107 C 
ATOM      9  N   UNL A   1      32.932  24.229  23.571  1.00  0.00    -0.312 N 
ATOM     10  C   UNL A   1      32.432  25.294  24.414  1.00  0.00     0.139 C 
ATOM     11  C   UNL A   1      32.968  24.618  22.223  1.00  0.00     0.227 C 
ATOM     12  C   UNL A   1      32.474  26.031  22.106  1.00  0.00     0.116 C 
ATOM     13  O   UNL A   1      33.278  23.952  21.242  1.00  0.00    -0.274 OA
BRANCH   9  14
ATOM     14  C   UNL A   1      33.194  22.907  24.031  1.00  0.00     0.044 A 
ATOM     15  C   UNL A   1      33.820  20.214  24.606  1.00  0.00     0.131 A 
ATOM     16  C   UNL A   1      32.501  20.595  24.353  1.00  0.00     0.049 A 
ATOM     17  C   UNL A   1      34.837  21.167  24.610  1.00  0.00     0.100 A 
ATOM     18  C   UNL A   1      32.187  21.937  24.099  1.00  0.00     0.030 A 
ATOM     19  C   UNL A   1      34.500  22.507  24.341  1.00  0.00     0.043 A 
BRANCH  15  20
ATOM     20  O   UNL A   1      34.130  18.888  24.696  1.00  0.00    -0.493 OA
BRANCH  20  21
ATOM     21  C   UNL A   1      33.554  18.085  23.659  1.00  0.00     0.226 C 
ATOM     22  C   UNL A   1      33.536  16.629  24.086  1.00  0.00     0.049 C 
ENDBRANCH  20  21
ENDBRANCH  15  20
BRANCH  17  23
ATOM     23  C   UNL A   1      36.271  20.834  24.933  1.00  0.00     0.420 C 
ATOM     24  F   UNL A   1      36.507  19.491  24.978  1.00  0.00    -0.166 F 
ATOM     25  F   UNL A   1      37.126  21.316  23.984  1.00  0.00    -0.166 F 
ATOM     26  F   UNL A   1      36.721  21.315  26.122  1.00  0.00    -0.166 F 
ENDBRANCH  17  23
ENDBRANCH   9  14
ENDBRANCH   5   8
ENDBRANCH   3   4
ENDBRANCH   2   3
ENDBRANCH   1   2
BRANCH   1  27
ATOM     27  C   UNL A   1      31.410  30.313  26.320  1.00  0.00     0.002 C 
BRANCH  27  28
ATOM     28  C   UNL A   1      31.351  31.830  26.522  1.00  0.00     0.021 C 
BRANCH  28  29
ATOM     29  C   UNL A   1      32.683  32.470  26.899  1.00  0.00     0.116 C 
BRANCH  29  30
ATOM     30  N   UNL A   1      32.508  33.831  27.382  1.00  0.00    -0.352 N 
ATOM     31  C   UNL A   1      33.091  34.463  28.450  1.00  0.00     0.251 C 
ATOM     32  H   UNL A   1      31.876  34.380  26.865  1.00  0.00     0.163 HD
ATOM     33  O   UNL A   1      32.638  35.528  28.857  1.00  0.00    -0.269 OA
BRANCH  31  34
ATOM     34  C   UNL A   1      34.267  33.863  29.112  1.00  0.00     0.039 A 
ATOM     35  C   UNL A   1      34.068  32.855  30.058  1.00  0.00     0.014 A 
ATOM     36  C   UNL A   1      35.558  34.316  28.826  1.00  0.00     0.014 A 
ATOM     37  C   UNL A   1      35.170  32.267  30.683  1.00  0.00     0.010 A 
ATOM     38  C   UNL A   1      36.657  33.679  29.393  1.00  0.00     0.010 A 
ATOM     39  C   UNL A   1      36.474  32.655  30.333  1.00  0.00    -0.014 A 
BRANCH  39  40
ATOM     40  C   UNL A   1      37.658  32.005  30.950  1.00  0.00     0.031 A 
ATOM     41  C   UNL A   1      38.132  32.436  32.310  1.00  0.00     0.074 A 
ATOM     42  C   UNL A   1      38.332  31.062  30.263  1.00  0.00     0.049 A 
ATOM     43  N   UNL A   1      39.181  32.039  32.986  1.00  0.00    -0.248 NA
ATOM     44  C   UNL A   1      37.334  33.466  32.994  1.00  0.00     0.031 C 
ATOM     45  C   UNL A   1      37.989  30.586  28.923  1.00  0.00     0.029 A 
ATOM     46  N   UNL A   1      39.452  30.341  30.596  1.00  0.00    -0.354 N 
ATOM     47  C   UNL A   1      39.168  32.770  34.167  1.00  0.00     0.074 A 
ATOM     48  C   UNL A   1      38.045  33.679  34.091  1.00  0.00     0.031 C 
ATOM     49  C   UNL A   1      38.864  29.635  28.557  1.00  0.00     0.029 A 
ATOM     50  C   UNL A   1      39.855  29.468  29.615  1.00  0.00     0.049 A 
ATOM     51  H   UNL A   1      39.922  30.440  31.455  1.00  0.00     0.167 HD
ATOM     52  C   UNL A   1      40.001  32.671  35.230  1.00  0.00     0.037 A 
ATOM     53  C   UNL A   1      40.913  28.636  29.571  1.00  0.00     0.037 A 
ATOM     54  C   UNL A   1      41.111  31.756  35.306  1.00  0.00     0.049 A 
ATOM     55  C   UNL A   1      41.849  28.582  30.750  1.00  0.00     0.074 A 
ATOM     56  C   UNL A   1      41.996  31.558  36.351  1.00  0.00     0.029 A 
ATOM     57  N   UNL A   1      41.487  30.886  34.294  1.00  0.00    -0.354 N 
ATOM     58  N   UNL A   1      41.794  29.236  31.886  1.00  0.00    -0.248 NA
ATOM     59  C   UNL A   1      42.994  27.668  30.643  1.00  0.00     0.031 C 
ATOM     60  C   UNL A   1      42.939  30.606  35.952  1.00  0.00     0.029 A 
ATOM     61  C   UNL A   1      42.605  30.165  34.682  1.00  0.00     0.049 A 
ATOM     62  H   UNL A   1      41.028  30.794  33.427  1.00  0.00     0.167 HD
ATOM     63  C   UNL A   1      42.869  28.784  32.639  1.00  0.00     0.074 A 
ATOM     64  C   UNL A   1      43.550  27.788  31.839  1.00  0.00     0.031 C 
ATOM     65  C   UNL A   1      43.259  29.160  33.882  1.00  0.00     0.037 A 
BRANCH  52  66
ATOM     66  C   UNL A   1      39.741  33.568  36.407  1.00  0.00     0.064 A 
ATOM     67  C   UNL A   1      40.307  34.849  36.492  1.00  0.00     0.173 A 
ATOM     68  C   UNL A   1      38.876  33.165  37.435  1.00  0.00     0.173 A 
ATOM     69  F   UNL A   1      41.150  35.280  35.541  1.00  0.00    -0.203 F 
ATOM     70  C   UNL A   1      40.036  35.683  37.573  1.00  0.00     0.198 A 
ATOM     71  C   UNL A   1      38.581  34.014  38.499  1.00  0.00     0.198 A 
ATOM     72  F   UNL A   1      38.304  31.952  37.403  1.00  0.00    -0.203 F 
ATOM     73  F   UNL A   1      40.625  36.884  37.656  1.00  0.00    -0.200 F 
ATOM     74  C   UNL A   1      39.167  35.269  38.571  1.00  0.00     0.200 A 
ATOM     75  F   UNL A   1      37.730  33.618  39.454  1.00  0.00    -0.200 F 
ATOM     76  F   UNL A   1      38.897  36.077  39.605  1.00  0.00    -0.200 F 
ENDBRANCH  52  66
BRANCH  53  77
ATOM     77  C   UNL A   1      41.146  27.774  28.381  1.00  0.00     0.064 A 
ATOM     78  C   UNL A   1      41.976  28.200  27.335  1.00  0.00     0.173 A 
ATOM     79  C   UNL A   1      40.515  26.529  28.244  1.00  0.00     0.173 A 
ATOM     80  F   UNL A   1      42.586  29.393  27.409  1.00  0.00    -0.203 F 
ATOM     81  C   UNL A   1      42.138  27.434  26.183  1.00  0.00     0.198 A 
ATOM     82  C   UNL A   1      40.705  25.746  27.107  1.00  0.00     0.198 A 
ATOM     83  F   UNL A   1      39.713  26.071  29.216  1.00  0.00    -0.203 F 
ATOM     84  F   UNL A   1      42.882  27.899  25.171  1.00  0.00    -0.200 F 
ATOM     85  C   UNL A   1      41.505  26.205  26.071  1.00  0.00     0.200 A 
ATOM     86  F   UNL A   1      40.103  24.553  27.009  1.00  0.00    -0.200 F 
ATOM     87  F   UNL A   1      41.654  25.471  24.961  1.00  0.00    -0.200 F 
ENDBRANCH  53  77
BRANCH  65  88
ATOM     88  C   UNL A   1      44.444  28.454  34.477  1.00  0.00     0.064 A 
ATOM     89  C   UNL A   1      44.314  27.238  35.164  1.00  0.00     0.173 A 
ATOM     90  C   UNL A   1      45.734  28.987  34.323  1.00  0.00     0.173 A 
ATOM     91  F   UNL A   1      43.102  26.694  35.351  1.00  0.00    -0.203 F 
ATOM     92  C   UNL A   1      45.428  26.598  35.703  1.00  0.00     0.198 A 
ATOM     93  C   UNL A   1      46.848  28.326  34.831  1.00  0.00     0.198 A 
ATOM     94  F   UNL A   1      45.915  30.143  33.667  1.00  0.00    -0.203 F 
ATOM     95  F   UNL A   1      45.273  25.466  36.402  1.00  0.00    -0.200 F 
ATOM     96  C   UNL A   1      46.694  27.138  35.528  1.00  0.00     0.200 A 
ATOM     97  F   UNL A   1      48.072  28.839  34.645  1.00  0.00    -0.200 F 
ATOM     98  F   UNL A   1      47.765  26.515  36.039  1.00  0.00    -0.200 F 
ENDBRANCH  65  88
ENDBRANCH  39  40
ENDBRANCH  31  34
ENDBRANCH  29  30
ENDBRANCH  28  29
ENDBRANCH  27  28
ENDBRANCH   1  27
TORSDOF 17
ENDMDL
