MODEL 1
REMARK VINA RESULT:     -13.0      0.000      0.000
REMARK SMILES O=C(NCCCCCCNC(=O)[C@]12C[NH2+]C[C@H]1CN(C(=O)c1ccccc1-n1cncn1)C2)c1ccc(-c2c3nc(c(-c4c(F)c(F)c(F)c(F)c4F)c4ccc([nH]4)c(-c4c(F)c(F)c(F)c(F)c4F)c4nc(c(-c5c(F)c(F)c(F)c(F)c5F)c5ccc2[nH]5)C=C4)C=C3)cc1
REMARK SMILES IDX 7 1 6 2 5 3 4 4 3 5 1 6 2 7 34 9 35 10 96 11 36 12 95 13
REMARK SMILES IDX 37 14 38 15 39 16 89 17 40 18 94 19 88 20 90 21 41 22 93 23
REMARK SMILES IDX 87 24 86 25 42 27 74 28 54 29 73 30 55 31 58 32 72 33 91 34
REMARK SMILES IDX 56 35 57 36 71 38 92 39 59 40 43 41 44 42 52 43 45 44 46 45
REMARK SMILES IDX 50 46 53 47 47 48 48 49 51 50 49 51 75 52 76 53 84 54 77 55
REMARK SMILES IDX 78 56 82 57 85 58 79 59 80 60 83 61 81 62 60 63 61 64 69 65
REMARK SMILES IDX 62 66 63 67 67 68 70 69 64 70 65 71 68 72 66 73 8 74 9 75
REMARK SMILES IDX 10 76 11 77 12 79 13 80 14 81 17 82 33 83 15 84 16 85 18 86
REMARK SMILES IDX 19 87 20 90 21 91 22 92 23 93 27 94 24 95 26 96 25 97 28 98
REMARK SMILES IDX 29 99 32 100 30 101 31 102
REMARK H PARENT 3 8 90 26 58 37 10 78 15 88 15 89
REMARK Flexibility Score: inf
ROOT
ATOM      1  C   UNL A   1      40.254  21.827  27.328  1.00  0.00     0.002 C 
ENDROOT
BRANCH   1   2
ATOM      2  C   UNL A   1      41.276  20.688  27.404  1.00  0.00     0.002 C 
BRANCH   2   3
ATOM      3  C   UNL A   1      41.400  19.834  26.140  1.00  0.00     0.021 C 
BRANCH   3   4
ATOM      4  C   UNL A   1      42.735  19.103  26.001  1.00  0.00     0.116 C 
BRANCH   4   5
ATOM      5  N   UNL A   1      43.564  19.581  24.915  1.00  0.00    -0.352 N 
ATOM      6  O   UNL A   1      44.883  20.804  23.622  1.00  0.00    -0.269 OA
ATOM      7  C   UNL A   1      44.178  20.770  24.633  1.00  0.00     0.251 C 
ATOM      8  H   UNL A   1      43.721  18.897  24.224  1.00  0.00     0.163 HD
BRANCH   7   9
ATOM      9  C   UNL A   1      44.007  22.016  25.426  1.00  0.00     0.039 A 
ATOM     10  C   UNL A   1      44.735  22.353  26.568  1.00  0.00     0.014 A 
ATOM     11  C   UNL A   1      43.040  22.920  24.951  1.00  0.00     0.014 A 
ATOM     12  C   UNL A   1      44.458  23.526  27.263  1.00  0.00     0.010 A 
ATOM     13  C   UNL A   1      42.778  24.109  25.625  1.00  0.00     0.010 A 
ATOM     14  C   UNL A   1      43.475  24.399  26.796  1.00  0.00    -0.014 A 
BRANCH  14  15
ATOM     15  C   UNL A   1      43.310  25.670  27.494  1.00  0.00     0.031 A 
ATOM     16  C   UNL A   1      44.325  26.722  27.183  1.00  0.00     0.074 A 
ATOM     17  C   UNL A   1      42.230  25.962  28.242  1.00  0.00     0.049 A 
ATOM     18  N   UNL A   1      45.063  27.403  28.003  1.00  0.00    -0.248 NA
ATOM     19  C   UNL A   1      44.579  27.021  25.765  1.00  0.00     0.031 C 
ATOM     20  C   UNL A   1      41.004  25.177  28.395  1.00  0.00     0.029 A 
ATOM     21  N   UNL A   1      41.961  27.103  28.939  1.00  0.00    -0.354 N 
ATOM     22  C   UNL A   1      45.776  28.313  27.221  1.00  0.00     0.074 A 
ATOM     23  C   UNL A   1      45.508  27.974  25.848  1.00  0.00     0.031 C 
ATOM     24  C   UNL A   1      40.048  25.957  28.946  1.00  0.00     0.029 A 
ATOM     25  C   UNL A   1      40.629  27.244  29.294  1.00  0.00     0.049 A 
ATOM     26  H   UNL A   1      42.651  27.768  29.167  1.00  0.00     0.167 HD
ATOM     27  C   UNL A   1      46.412  29.393  27.753  1.00  0.00     0.037 A 
ATOM     28  C   UNL A   1      40.032  28.365  29.762  1.00  0.00     0.037 A 
ATOM     29  C   UNL A   1      46.637  29.247  29.163  1.00  0.00     0.049 A 
ATOM     30  C   UNL A   1      41.088  29.273  30.271  1.00  0.00     0.074 A 
ATOM     31  C   UNL A   1      47.355  28.370  29.951  1.00  0.00     0.029 A 
ATOM     32  N   UNL A   1      45.831  29.941  30.029  1.00  0.00    -0.354 N 
ATOM     33  N   UNL A   1      41.791  29.058  31.346  1.00  0.00    -0.248 NA
ATOM     34  C   UNL A   1      41.633  30.266  29.357  1.00  0.00     0.031 C 
ATOM     35  C   UNL A   1      46.596  28.240  31.150  1.00  0.00     0.029 A 
ATOM     36  C   UNL A   1      45.479  29.066  31.023  1.00  0.00     0.049 A 
ATOM     37  H   UNL A   1      45.559  30.883  29.952  1.00  0.00     0.167 HD
ATOM     38  C   UNL A   1      43.049  29.556  31.049  1.00  0.00     0.074 A 
ATOM     39  C   UNL A   1      42.861  30.388  29.865  1.00  0.00     0.031 C 
ATOM     40  C   UNL A   1      44.168  29.027  31.622  1.00  0.00     0.037 A 
BRANCH  27  41
ATOM     41  C   UNL A   1      46.566  30.725  27.061  1.00  0.00     0.064 A 
ATOM     42  C   UNL A   1      47.832  31.345  27.017  1.00  0.00     0.173 A 
ATOM     43  C   UNL A   1      45.471  31.547  26.721  1.00  0.00     0.173 A 
ATOM     44  F   UNL A   1      48.941  30.663  27.342  1.00  0.00    -0.203 F 
ATOM     45  C   UNL A   1      47.977  32.705  26.730  1.00  0.00     0.198 A 
ATOM     46  C   UNL A   1      45.626  32.891  26.383  1.00  0.00     0.198 A 
ATOM     47  F   UNL A   1      44.208  31.113  26.813  1.00  0.00    -0.203 F 
ATOM     48  F   UNL A   1      49.184  33.281  26.824  1.00  0.00    -0.200 F 
ATOM     49  C   UNL A   1      46.873  33.478  26.420  1.00  0.00     0.200 A 
ATOM     50  F   UNL A   1      44.542  33.629  26.104  1.00  0.00    -0.200 F 
ATOM     51  F   UNL A   1      47.002  34.795  26.208  1.00  0.00    -0.200 F 
ENDBRANCH  27  41
BRANCH  28  52
ATOM     52  C   UNL A   1      38.640  28.818  29.542  1.00  0.00     0.064 A 
ATOM     53  C   UNL A   1      37.807  29.154  30.619  1.00  0.00     0.173 A 
ATOM     54  C   UNL A   1      38.185  29.183  28.259  1.00  0.00     0.173 A 
ATOM     55  F   UNL A   1      38.190  28.888  31.877  1.00  0.00    -0.203 F 
ATOM     56  C   UNL A   1      36.599  29.832  30.427  1.00  0.00     0.198 A 
ATOM     57  C   UNL A   1      36.974  29.846  28.066  1.00  0.00     0.198 A 
ATOM     58  F   UNL A   1      38.950  28.987  27.175  1.00  0.00    -0.203 F 
ATOM     59  F   UNL A   1      35.859  30.192  31.485  1.00  0.00    -0.200 F 
ATOM     60  C   UNL A   1      36.187  30.183  29.152  1.00  0.00     0.200 A 
ATOM     61  F   UNL A   1      36.606  30.212  26.831  1.00  0.00    -0.200 F 
ATOM     62  F   UNL A   1      35.058  30.881  28.972  1.00  0.00    -0.200 F 
ENDBRANCH  28  52
BRANCH  40  63
ATOM     63  C   UNL A   1      43.986  28.107  32.793  1.00  0.00     0.064 A 
ATOM     64  C   UNL A   1      43.829  26.715  32.676  1.00  0.00     0.173 A 
ATOM     65  C   UNL A   1      44.120  28.638  34.083  1.00  0.00     0.173 A 
ATOM     66  F   UNL A   1      43.805  26.123  31.476  1.00  0.00    -0.203 F 
ATOM     67  C   UNL A   1      43.754  25.901  33.804  1.00  0.00     0.198 A 
ATOM     68  C   UNL A   1      44.084  27.818  35.206  1.00  0.00     0.198 A 
ATOM     69  F   UNL A   1      44.336  29.952  34.251  1.00  0.00    -0.203 F 
ATOM     70  F   UNL A   1      43.590  24.578  33.667  1.00  0.00    -0.200 F 
ATOM     71  C   UNL A   1      43.889  26.452  35.067  1.00  0.00     0.200 A 
ATOM     72  F   UNL A   1      44.269  28.347  36.424  1.00  0.00    -0.200 F 
ATOM     73  F   UNL A   1      43.862  25.664  36.152  1.00  0.00    -0.200 F 
ENDBRANCH  40  63
ENDBRANCH  14  15
ENDBRANCH   7   9
ENDBRANCH   4   5
ENDBRANCH   3   4
ENDBRANCH   2   3
ENDBRANCH   1   2
BRANCH   1  74
ATOM     74  C   UNL A   1      39.367  21.863  26.067  1.00  0.00     0.021 C 
BRANCH  74  75
ATOM     75  C   UNL A   1      38.262  22.930  26.050  1.00  0.00     0.116 C 
BRANCH  75  76
ATOM     76  N   UNL A   1      37.761  23.112  24.712  1.00  0.00    -0.355 N 
ATOM     77  C   UNL A   1      36.591  22.943  24.089  1.00  0.00     0.234 C 
ATOM     78  H   UNL A   1      38.458  23.445  24.101  1.00  0.00     0.163 HD
ATOM     79  O   UNL A   1      36.659  23.110  22.858  1.00  0.00    -0.274 OA
BRANCH  77  80
ATOM     80  C   UNL A   1      35.224  22.660  24.699  1.00  0.00     0.125 C 
ATOM     81  C   UNL A   1      35.503  21.924  26.011  1.00  0.00     0.280 C 
ATOM     82  C   UNL A   1      34.062  21.831  24.134  1.00  0.00     0.087 C 
ATOM     83  C   UNL A   1      34.618  24.067  24.816  1.00  0.00     0.143 C 
ATOM     84  N   UNL A   1      35.364  20.510  25.621  1.00  0.00    -0.345 N 
ATOM     85  C   UNL A   1      34.208  20.432  24.730  1.00  0.00     0.267 C 
ATOM     86  C   UNL A   1      32.807  22.519  24.721  1.00  0.00     0.130 C 
ATOM     87  N   UNL A   1      33.177  23.907  24.849  1.00  0.00    -0.337 N 
ATOM     88  H   UNL A   1      35.211  19.932  26.447  1.00  0.00     0.346 HD
ATOM     89  H   UNL A   1      36.208  20.173  25.158  1.00  0.00     0.346 HD
BRANCH  87  90
ATOM     90  C   UNL A   1      32.246  24.917  24.994  1.00  0.00     0.256 C 
ATOM     91  O   UNL A   1      31.037  24.766  24.922  1.00  0.00    -0.269 OA
BRANCH  90  92
ATOM     92  C   UNL A   1      32.787  26.292  25.090  1.00  0.00     0.065 A 
ATOM     93  C   UNL A   1      33.156  26.767  26.354  1.00  0.00     0.016 A 
ATOM     94  C   UNL A   1      33.071  27.047  23.935  1.00  0.00     0.079 A 
ATOM     95  C   UNL A   1      33.832  27.983  26.465  1.00  0.00     0.001 A 
ATOM     96  C   UNL A   1      33.791  28.244  24.058  1.00  0.00     0.029 A 
ATOM     97  C   UNL A   1      34.158  28.713  25.321  1.00  0.00     0.002 A 
BRANCH  94  98
ATOM     98  N   UNL A   1      32.695  26.610  22.641  1.00  0.00    -0.220 N 
ATOM     99  C   UNL A   1      31.482  26.700  21.998  1.00  0.00     0.225 A 
ATOM    100  N   UNL A   1      33.574  25.967  21.829  1.00  0.00    -0.155 NA
ATOM    101  N   UNL A   1      31.505  26.020  20.874  1.00  0.00    -0.223 NA
ATOM    102  C   UNL A   1      32.793  25.587  20.818  1.00  0.00     0.246 A 
ENDBRANCH  94  98
ENDBRANCH  90  92
ENDBRANCH  87  90
ENDBRANCH  77  80
ENDBRANCH  75  76
ENDBRANCH  74  75
ENDBRANCH   1  74
TORSDOF 16
ENDMDL
MODEL 2
REMARK VINA RESULT:     -12.8      2.068      2.900
REMARK SMILES O=C(NCCCCCCNC(=O)[C@]12C[NH2+]C[C@H]1CN(C(=O)c1ccccc1-n1cncn1)C2)c1ccc(-c2c3nc(c(-c4c(F)c(F)c(F)c(F)c4F)c4ccc([nH]4)c(-c4c(F)c(F)c(F)c(F)c4F)c4nc(c(-c5c(F)c(F)c(F)c(F)c5F)c5ccc2[nH]5)C=C4)C=C3)cc1
REMARK SMILES IDX 7 1 6 2 5 3 4 4 3 5 1 6 2 7 34 9 35 10 96 11 36 12 95 13
REMARK SMILES IDX 37 14 38 15 39 16 89 17 40 18 94 19 88 20 90 21 41 22 93 23
REMARK SMILES IDX 87 24 86 25 42 27 74 28 54 29 73 30 55 31 58 32 72 33 91 34
REMARK SMILES IDX 56 35 57 36 71 38 92 39 59 40 43 41 44 42 52 43 45 44 46 45
REMARK SMILES IDX 50 46 53 47 47 48 48 49 51 50 49 51 75 52 76 53 84 54 77 55
REMARK SMILES IDX 78 56 82 57 85 58 79 59 80 60 83 61 81 62 60 63 61 64 69 65
REMARK SMILES IDX 62 66 63 67 67 68 70 69 64 70 65 71 68 72 66 73 8 74 9 75
REMARK SMILES IDX 10 76 11 77 12 79 13 80 14 81 17 82 33 83 15 84 16 85 18 86
REMARK SMILES IDX 19 87 20 90 21 91 22 92 23 93 27 94 24 95 26 96 25 97 28 98
REMARK SMILES IDX 29 99 32 100 30 101 31 102
REMARK H PARENT 3 8 90 26 58 37 10 78 15 88 15 89
REMARK Flexibility Score: inf
ROOT
ATOM      1  C   UNL A   1      38.309  23.331  26.362  1.00  0.00     0.002 C 
ENDROOT
BRANCH   1   2
ATOM      2  C   UNL A   1      39.258  22.150  26.127  1.00  0.00     0.002 C 
BRANCH   2   3
ATOM      3  C   UNL A   1      40.260  21.883  27.253  1.00  0.00     0.021 C 
BRANCH   3   4
ATOM      4  C   UNL A   1      41.463  21.036  26.838  1.00  0.00     0.116 C 
BRANCH   4   5
ATOM      5  N   UNL A   1      42.200  21.564  25.710  1.00  0.00    -0.352 N 
ATOM      6  O   UNL A   1      43.384  22.859  24.357  1.00  0.00    -0.269 OA
ATOM      7  C   UNL A   1      42.749  22.780  25.411  1.00  0.00     0.251 C 
ATOM      8  H   UNL A   1      42.337  20.899  24.997  1.00  0.00     0.163 HD
BRANCH   7   9
ATOM      9  C   UNL A   1      42.585  24.005  26.238  1.00  0.00     0.039 A 
ATOM     10  C   UNL A   1      43.225  24.252  27.453  1.00  0.00     0.014 A 
ATOM     11  C   UNL A   1      41.724  24.988  25.718  1.00  0.00     0.014 A 
ATOM     12  C   UNL A   1      42.960  25.414  28.170  1.00  0.00     0.010 A 
ATOM     13  C   UNL A   1      41.477  26.167  26.415  1.00  0.00     0.010 A 
ATOM     14  C   UNL A   1      42.080  26.366  27.655  1.00  0.00    -0.014 A 
BRANCH  14  15
ATOM     15  C   UNL A   1      41.931  27.620  28.387  1.00  0.00     0.031 A 
ATOM     16  C   UNL A   1      43.005  28.637  28.167  1.00  0.00     0.074 A 
ATOM     17  C   UNL A   1      40.827  27.933  29.090  1.00  0.00     0.049 A 
ATOM     18  N   UNL A   1      43.726  29.257  29.047  1.00  0.00    -0.248 NA
ATOM     19  C   UNL A   1      43.344  28.972  26.775  1.00  0.00     0.031 C 
ATOM     20  C   UNL A   1      39.563  27.198  29.152  1.00  0.00     0.029 A 
ATOM     21  N   UNL A   1      40.570  29.061  29.812  1.00  0.00    -0.354 N 
ATOM     22  C   UNL A   1      44.517  30.161  28.336  1.00  0.00     0.074 A 
ATOM     23  C   UNL A   1      44.307  29.879  26.939  1.00  0.00     0.031 C 
ATOM     24  C   UNL A   1      38.613  28.000  29.682  1.00  0.00     0.029 A 
ATOM     25  C   UNL A   1      39.228  29.248  30.104  1.00  0.00     0.049 A 
ATOM     26  H   UNL A   1      41.273  29.687  30.099  1.00  0.00     0.167 HD
ATOM     27  C   UNL A   1      45.168  31.194  28.937  1.00  0.00     0.037 A 
ATOM     28  C   UNL A   1      38.655  30.378  30.580  1.00  0.00     0.037 A 
ATOM     29  C   UNL A   1      45.312  30.991  30.351  1.00  0.00     0.049 A 
ATOM     30  C   UNL A   1      39.719  31.221  31.175  1.00  0.00     0.074 A 
ATOM     31  C   UNL A   1      45.951  30.058  31.143  1.00  0.00     0.029 A 
ATOM     32  N   UNL A   1      44.492  31.690  31.199  1.00  0.00    -0.354 N 
ATOM     33  N   UNL A   1      40.355  30.940  32.276  1.00  0.00    -0.248 NA
ATOM     34  C   UNL A   1      40.352  32.219  30.326  1.00  0.00     0.031 C 
ATOM     35  C   UNL A   1      45.125  29.921  32.296  1.00  0.00     0.029 A 
ATOM     36  C   UNL A   1      44.052  30.798  32.142  1.00  0.00     0.049 A 
ATOM     37  H   UNL A   1      44.264  32.645  31.142  1.00  0.00     0.167 HD
ATOM     38  C   UNL A   1      41.647  31.393  32.061  1.00  0.00     0.074 A 
ATOM     39  C   UNL A   1      41.556  32.271  30.900  1.00  0.00     0.031 C 
ATOM     40  C   UNL A   1      42.712  30.796  32.671  1.00  0.00     0.037 A 
BRANCH  27  41
ATOM     41  C   UNL A   1      45.414  32.540  28.301  1.00  0.00     0.064 A 
ATOM     42  C   UNL A   1      44.320  33.370  27.981  1.00  0.00     0.173 A 
ATOM     43  C   UNL A   1      46.646  32.901  27.717  1.00  0.00     0.173 A 
ATOM     44  F   UNL A   1      43.096  33.106  28.465  1.00  0.00    -0.203 F 
ATOM     45  C   UNL A   1      44.438  34.433  27.082  1.00  0.00     0.198 A 
ATOM     46  C   UNL A   1      46.771  33.996  26.861  1.00  0.00     0.198 A 
ATOM     47  F   UNL A   1      47.743  32.148  27.860  1.00  0.00    -0.203 F 
ATOM     48  F   UNL A   1      43.346  35.114  26.709  1.00  0.00    -0.200 F 
ATOM     49  C   UNL A   1      45.663  34.741  26.518  1.00  0.00     0.200 A 
ATOM     50  F   UNL A   1      47.962  34.267  26.309  1.00  0.00    -0.200 F 
ATOM     51  F   UNL A   1      45.766  35.718  25.607  1.00  0.00    -0.200 F 
ENDBRANCH  27  41
BRANCH  28  52
ATOM     52  C   UNL A   1      37.296  30.897  30.306  1.00  0.00     0.064 A 
ATOM     53  C   UNL A   1      36.446  31.294  31.349  1.00  0.00     0.173 A 
ATOM     54  C   UNL A   1      36.903  31.264  29.003  1.00  0.00     0.173 A 
ATOM     55  F   UNL A   1      36.772  31.030  32.623  1.00  0.00    -0.203 F 
ATOM     56  C   UNL A   1      35.281  32.030  31.106  1.00  0.00     0.198 A 
ATOM     57  C   UNL A   1      35.736  31.985  28.759  1.00  0.00     0.198 A 
ATOM     58  F   UNL A   1      37.694  31.010  27.949  1.00  0.00    -0.203 F 
ATOM     59  F   UNL A   1      34.527  32.445  32.132  1.00  0.00    -0.200 F 
ATOM     60  C   UNL A   1      34.932  32.380  29.812  1.00  0.00     0.200 A 
ATOM     61  F   UNL A   1      35.429  32.348  27.506  1.00  0.00    -0.200 F 
ATOM     62  F   UNL A   1      33.847  33.132  29.583  1.00  0.00    -0.200 F 
ENDBRANCH  28  52
BRANCH  40  63
ATOM     63  C   UNL A   1      42.430  29.847  33.798  1.00  0.00     0.064 A 
ATOM     64  C   UNL A   1      42.051  28.506  33.613  1.00  0.00     0.173 A 
ATOM     65  C   UNL A   1      42.693  30.271  35.107  1.00  0.00     0.173 A 
ATOM     66  F   UNL A   1      41.889  27.998  32.385  1.00  0.00    -0.203 F 
ATOM     67  C   UNL A   1      41.890  27.647  34.698  1.00  0.00     0.198 A 
ATOM     68  C   UNL A   1      42.571  29.400  36.185  1.00  0.00     0.198 A 
ATOM     69  F   UNL A   1      43.121  31.523  35.336  1.00  0.00    -0.203 F 
ATOM     70  F   UNL A   1      41.514  26.376  34.497  1.00  0.00    -0.200 F 
ATOM     71  C   UNL A   1      42.157  28.092  35.981  1.00  0.00     0.200 A 
ATOM     72  F   UNL A   1      42.881  29.819  37.419  1.00  0.00    -0.200 F 
ATOM     73  F   UNL A   1      42.046  27.254  37.022  1.00  0.00    -0.200 F 
ENDBRANCH  40  63
ENDBRANCH  14  15
ENDBRANCH   7   9
ENDBRANCH   4   5
ENDBRANCH   3   4
ENDBRANCH   2   3
ENDBRANCH   1   2
BRANCH   1  74
ATOM     74  C   UNL A   1      37.117  23.451  25.391  1.00  0.00     0.021 C 
BRANCH  74  75
ATOM     75  C   UNL A   1      36.169  22.244  25.334  1.00  0.00     0.116 C 
BRANCH  75  76
ATOM     76  N   UNL A   1      35.370  22.178  26.532  1.00  0.00    -0.355 N 
ATOM     77  C   UNL A   1      34.223  22.715  26.957  1.00  0.00     0.234 C 
ATOM     78  H   UNL A   1      35.773  21.586  27.209  1.00  0.00     0.163 HD
ATOM     79  O   UNL A   1      33.975  22.466  28.150  1.00  0.00    -0.274 OA
BRANCH  77  80
ATOM     80  C   UNL A   1      33.188  23.496  26.157  1.00  0.00     0.125 C 
ATOM     81  C   UNL A   1      31.891  23.406  26.965  1.00  0.00     0.280 C 
ATOM     82  C   UNL A   1      32.670  23.245  24.735  1.00  0.00     0.087 C 
ATOM     83  C   UNL A   1      33.835  24.885  26.049  1.00  0.00     0.143 C 
ATOM     84  N   UNL A   1      31.193  22.277  26.326  1.00  0.00    -0.345 N 
ATOM     85  C   UNL A   1      31.392  22.421  24.886  1.00  0.00     0.267 C 
ATOM     86  C   UNL A   1      32.319  24.661  24.222  1.00  0.00     0.130 C 
ATOM     87  N   UNL A   1      33.253  25.534  24.890  1.00  0.00    -0.337 N 
ATOM     88  H   UNL A   1      30.198  22.308  26.548  1.00  0.00     0.346 HD
ATOM     89  H   UNL A   1      31.558  21.384  26.660  1.00  0.00     0.346 HD
BRANCH  87  90
ATOM     90  C   UNL A   1      33.520  26.817  24.453  1.00  0.00     0.256 C 
ATOM     91  O   UNL A   1      34.152  27.092  23.446  1.00  0.00    -0.269 OA
BRANCH  90  92
ATOM     92  C   UNL A   1      33.131  27.912  25.372  1.00  0.00     0.065 A 
ATOM     93  C   UNL A   1      33.979  28.199  26.447  1.00  0.00     0.016 A 
ATOM     94  C   UNL A   1      32.028  28.742  25.092  1.00  0.00     0.079 A 
ATOM     95  C   UNL A   1      33.744  29.331  27.230  1.00  0.00     0.001 A 
ATOM     96  C   UNL A   1      31.830  29.900  25.858  1.00  0.00     0.029 A 
ATOM     97  C   UNL A   1      32.679  30.183  26.930  1.00  0.00     0.002 A 
BRANCH  94  98
ATOM     98  N   UNL A   1      31.135  28.470  24.027  1.00  0.00    -0.220 N 
ATOM     99  C   UNL A   1      31.082  29.008  22.762  1.00  0.00     0.225 A 
ATOM    100  N   UNL A   1      30.118  27.581  24.168  1.00  0.00    -0.155 NA
ATOM    101  N   UNL A   1      29.996  28.611  22.138  1.00  0.00    -0.223 NA
ATOM    102  C   UNL A   1      29.439  27.752  23.033  1.00  0.00     0.246 A 
ENDBRANCH  94  98
ENDBRANCH  90  92
ENDBRANCH  87  90
ENDBRANCH  77  80
ENDBRANCH  75  76
ENDBRANCH  74  75
ENDBRANCH   1  74
TORSDOF 16
ENDMDL
MODEL 3
REMARK VINA RESULT:     -12.6      2.808      8.543
REMARK SMILES O=C(NCCCCCCNC(=O)[C@]12C[NH2+]C[C@H]1CN(C(=O)c1ccccc1-n1cncn1)C2)c1ccc(-c2c3nc(c(-c4c(F)c(F)c(F)c(F)c4F)c4ccc([nH]4)c(-c4c(F)c(F)c(F)c(F)c4F)c4nc(c(-c5c(F)c(F)c(F)c(F)c5F)c5ccc2[nH]5)C=C4)C=C3)cc1
REMARK SMILES IDX 7 1 6 2 5 3 4 4 3 5 1 6 2 7 34 9 35 10 96 11 36 12 95 13
REMARK SMILES IDX 37 14 38 15 39 16 89 17 40 18 94 19 88 20 90 21 41 22 93 23
REMARK SMILES IDX 87 24 86 25 42 27 74 28 54 29 73 30 55 31 58 32 72 33 91 34
REMARK SMILES IDX 56 35 57 36 71 38 92 39 59 40 43 41 44 42 52 43 45 44 46 45
REMARK SMILES IDX 50 46 53 47 47 48 48 49 51 50 49 51 75 52 76 53 84 54 77 55
REMARK SMILES IDX 78 56 82 57 85 58 79 59 80 60 83 61 81 62 60 63 61 64 69 65
REMARK SMILES IDX 62 66 63 67 67 68 70 69 64 70 65 71 68 72 66 73 8 74 9 75
REMARK SMILES IDX 10 76 11 77 12 79 13 80 14 81 17 82 33 83 15 84 16 85 18 86
REMARK SMILES IDX 19 87 20 90 21 91 22 92 23 93 27 94 24 95 26 96 25 97 28 98
REMARK SMILES IDX 29 99 32 100 30 101 31 102
REMARK H PARENT 3 8 90 26 58 37 10 78 15 88 15 89
REMARK Flexibility Score: inf
ROOT
ATOM      1  C   UNL A   1      33.349  29.122  25.069  1.00  0.00     0.002 C 
ENDROOT
BRANCH   1   2
ATOM      2  C   UNL A   1      34.246  28.864  26.285  1.00  0.00     0.002 C 
BRANCH   2   3
ATOM      3  C   UNL A   1      33.877  29.646  27.548  1.00  0.00     0.021 C 
BRANCH   3   4
ATOM      4  C   UNL A   1      34.312  31.111  27.533  1.00  0.00     0.116 C 
BRANCH   4   5
ATOM      5  N   UNL A   1      34.336  31.738  28.837  1.00  0.00    -0.352 N 
ATOM      6  O   UNL A   1      34.956  32.501  30.822  1.00  0.00    -0.269 OA
ATOM      7  C   UNL A   1      35.251  31.801  29.851  1.00  0.00     0.251 C 
ATOM      8  H   UNL A   1      33.506  32.228  29.040  1.00  0.00     0.163 HD
BRANCH   7   9
ATOM      9  C   UNL A   1      36.534  31.050  29.877  1.00  0.00     0.039 A 
ATOM     10  C   UNL A   1      37.799  31.603  29.681  1.00  0.00     0.014 A 
ATOM     11  C   UNL A   1      36.435  29.672  30.144  1.00  0.00     0.014 A 
ATOM     12  C   UNL A   1      38.932  30.797  29.678  1.00  0.00     0.010 A 
ATOM     13  C   UNL A   1      37.566  28.864  30.171  1.00  0.00     0.010 A 
ATOM     14  C   UNL A   1      38.815  29.427  29.914  1.00  0.00    -0.014 A 
BRANCH  14  15
ATOM     15  C   UNL A   1      40.044  28.648  30.020  1.00  0.00     0.031 A 
ATOM     16  C   UNL A   1      40.581  28.459  31.402  1.00  0.00     0.074 A 
ATOM     17  C   UNL A   1      40.589  27.990  28.979  1.00  0.00     0.049 A 
ATOM     18  N   UNL A   1      41.771  28.710  31.851  1.00  0.00    -0.248 NA
ATOM     19  C   UNL A   1      39.650  27.963  32.428  1.00  0.00     0.031 C 
ATOM     20  C   UNL A   1      40.029  27.807  27.640  1.00  0.00     0.029 A 
ATOM     21  N   UNL A   1      41.726  27.237  28.950  1.00  0.00    -0.354 N 
ATOM     22  C   UNL A   1      41.785  28.279  33.179  1.00  0.00     0.074 A 
ATOM     23  C   UNL A   1      40.432  27.914  33.507  1.00  0.00     0.031 C 
ATOM     24  C   UNL A   1      40.708  26.823  27.010  1.00  0.00     0.029 A 
ATOM     25  C   UNL A   1      41.817  26.400  27.850  1.00  0.00     0.049 A 
ATOM     26  H   UNL A   1      42.418  27.282  29.649  1.00  0.00     0.167 HD
ATOM     27  C   UNL A   1      42.941  28.094  33.875  1.00  0.00     0.037 A 
ATOM     28  C   UNL A   1      42.690  25.379  27.681  1.00  0.00     0.037 A 
ATOM     29  C   UNL A   1      44.048  28.785  33.277  1.00  0.00     0.049 A 
ATOM     30  C   UNL A   1      43.818  25.575  28.622  1.00  0.00     0.074 A 
ATOM     31  C   UNL A   1      44.351  30.108  33.023  1.00  0.00     0.029 A 
ATOM     32  N   UNL A   1      44.965  28.057  32.563  1.00  0.00    -0.354 N 
ATOM     33  N   UNL A   1      44.715  26.515  28.514  1.00  0.00    -0.248 NA
ATOM     34  C   UNL A   1      43.736  24.938  29.928  1.00  0.00     0.031 C 
ATOM     35  C   UNL A   1      45.094  30.093  31.807  1.00  0.00     0.029 A 
ATOM     36  C   UNL A   1      45.216  28.760  31.414  1.00  0.00     0.049 A 
ATOM     37  H   UNL A   1      45.365  27.197  32.825  1.00  0.00     0.167 HD
ATOM     38  C   UNL A   1      45.006  26.873  29.820  1.00  0.00     0.074 A 
ATOM     39  C   UNL A   1      44.467  25.796  30.642  1.00  0.00     0.031 C 
ATOM     40  C   UNL A   1      45.409  28.140  30.128  1.00  0.00     0.037 A 
BRANCH  27  41
ATOM     41  C   UNL A   1      43.144  27.039  34.933  1.00  0.00     0.064 A 
ATOM     42  C   UNL A   1      43.414  27.427  36.262  1.00  0.00     0.173 A 
ATOM     43  C   UNL A   1      43.393  25.683  34.631  1.00  0.00     0.173 A 
ATOM     44  F   UNL A   1      43.234  28.697  36.654  1.00  0.00    -0.203 F 
ATOM     45  C   UNL A   1      43.965  26.541  37.192  1.00  0.00     0.198 A 
ATOM     46  C   UNL A   1      43.893  24.789  35.577  1.00  0.00     0.198 A 
ATOM     47  F   UNL A   1      43.271  25.204  33.387  1.00  0.00    -0.203 F 
ATOM     48  F   UNL A   1      44.323  26.986  38.404  1.00  0.00    -0.200 F 
ATOM     49  C   UNL A   1      44.209  25.224  36.847  1.00  0.00     0.200 A 
ATOM     50  F   UNL A   1      44.141  23.522  35.219  1.00  0.00    -0.200 F 
ATOM     51  F   UNL A   1      44.796  24.391  37.716  1.00  0.00    -0.200 F 
ENDBRANCH  27  41
BRANCH  28  52
ATOM     52  C   UNL A   1      42.474  24.103  26.961  1.00  0.00     0.064 A 
ATOM     53  C   UNL A   1      43.472  23.556  26.141  1.00  0.00     0.173 A 
ATOM     54  C   UNL A   1      41.387  23.263  27.274  1.00  0.00     0.173 A 
ATOM     55  F   UNL A   1      44.565  24.271  25.838  1.00  0.00    -0.203 F 
ATOM     56  C   UNL A   1      43.395  22.239  25.674  1.00  0.00     0.198 A 
ATOM     57  C   UNL A   1      41.304  21.956  26.798  1.00  0.00     0.198 A 
ATOM     58  F   UNL A   1      40.429  23.663  28.124  1.00  0.00    -0.203 F 
ATOM     59  F   UNL A   1      44.396  21.730  24.944  1.00  0.00    -0.200 F 
ATOM     60  C   UNL A   1      42.315  21.439  26.009  1.00  0.00     0.200 A 
ATOM     61  F   UNL A   1      40.272  21.181  27.159  1.00  0.00    -0.200 F 
ATOM     62  F   UNL A   1      42.269  20.161  25.610  1.00  0.00    -0.200 F 
ENDBRANCH  28  52
BRANCH  40  63
ATOM     63  C   UNL A   1      45.814  29.039  28.997  1.00  0.00     0.064 A 
ATOM     64  C   UNL A   1      44.906  29.805  28.245  1.00  0.00     0.173 A 
ATOM     65  C   UNL A   1      47.180  29.241  28.763  1.00  0.00     0.173 A 
ATOM     66  F   UNL A   1      43.590  29.749  28.487  1.00  0.00    -0.203 F 
ATOM     67  C   UNL A   1      45.349  30.691  27.265  1.00  0.00     0.198 A 
ATOM     68  C   UNL A   1      47.621  30.155  27.812  1.00  0.00     0.198 A 
ATOM     69  F   UNL A   1      48.093  28.584  29.497  1.00  0.00    -0.203 F 
ATOM     70  F   UNL A   1      44.464  31.400  26.551  1.00  0.00    -0.200 F 
ATOM     71  C   UNL A   1      46.706  30.871  27.055  1.00  0.00     0.200 A 
ATOM     72  F   UNL A   1      48.934  30.366  27.648  1.00  0.00    -0.200 F 
ATOM     73  F   UNL A   1      47.134  31.755  26.144  1.00  0.00    -0.200 F 
ENDBRANCH  40  63
ENDBRANCH  14  15
ENDBRANCH   7   9
ENDBRANCH   4   5
ENDBRANCH   3   4
ENDBRANCH   2   3
ENDBRANCH   1   2
BRANCH   1  74
ATOM     74  C   UNL A   1      33.865  28.591  23.717  1.00  0.00     0.021 C 
BRANCH  74  75
ATOM     75  C   UNL A   1      32.799  28.339  22.640  1.00  0.00     0.116 C 
BRANCH  75  76
ATOM     76  N   UNL A   1      32.988  27.042  22.041  1.00  0.00    -0.355 N 
ATOM     77  C   UNL A   1      32.858  25.771  22.431  1.00  0.00     0.234 C 
ATOM     78  H   UNL A   1      33.289  27.111  21.105  1.00  0.00     0.163 HD
ATOM     79  O   UNL A   1      33.268  24.952  21.589  1.00  0.00    -0.274 OA
BRANCH  77  80
ATOM     80  C   UNL A   1      32.218  25.230  23.703  1.00  0.00     0.125 C 
ATOM     81  C   UNL A   1      30.836  24.722  23.284  1.00  0.00     0.280 C 
ATOM     82  C   UNL A   1      31.882  25.964  25.008  1.00  0.00     0.087 C 
ATOM     83  C   UNL A   1      33.231  24.168  24.156  1.00  0.00     0.143 C 
ATOM     84  N   UNL A   1      29.964  25.865  23.607  1.00  0.00    -0.345 N 
ATOM     85  C   UNL A   1      30.419  26.391  24.892  1.00  0.00     0.267 C 
ATOM     86  C   UNL A   1      32.021  24.866  26.088  1.00  0.00     0.130 C 
ATOM     87  N   UNL A   1      33.042  23.983  25.582  1.00  0.00    -0.337 N 
ATOM     88  H   UNL A   1      28.994  25.557  23.677  1.00  0.00     0.346 HD
ATOM     89  H   UNL A   1      30.011  26.579  22.880  1.00  0.00     0.346 HD
BRANCH  87  90
ATOM     90  C   UNL A   1      33.717  23.084  26.385  1.00  0.00     0.256 C 
ATOM     91  O   UNL A   1      33.409  22.809  27.533  1.00  0.00    -0.269 OA
BRANCH  90  92
ATOM     92  C   UNL A   1      34.987  22.551  25.841  1.00  0.00     0.065 A 
ATOM     93  C   UNL A   1      36.151  23.305  26.031  1.00  0.00     0.016 A 
ATOM     94  C   UNL A   1      35.058  21.259  25.286  1.00  0.00     0.079 A 
ATOM     95  C   UNL A   1      37.391  22.759  25.692  1.00  0.00     0.001 A 
ATOM     96  C   UNL A   1      36.313  20.706  24.994  1.00  0.00     0.029 A 
ATOM     97  C   UNL A   1      37.472  21.461  25.186  1.00  0.00     0.002 A 
BRANCH  94  98
ATOM     98  N   UNL A   1      33.900  20.475  25.058  1.00  0.00    -0.220 N 
ATOM     99  C   UNL A   1      33.320  19.508  25.846  1.00  0.00     0.225 A 
ATOM    100  N   UNL A   1      33.186  20.589  23.909  1.00  0.00    -0.155 NA
ATOM    101  N   UNL A   1      32.355  18.899  25.194  1.00  0.00    -0.223 NA
ATOM    102  C   UNL A   1      32.315  19.586  24.021  1.00  0.00     0.246 A 
ENDBRANCH  94  98
ENDBRANCH  90  92
ENDBRANCH  87  90
ENDBRANCH  77  80
ENDBRANCH  75  76
ENDBRANCH  74  75
ENDBRANCH   1  74
TORSDOF 16
ENDMDL
