MODEL 1
REMARK VINA RESULT:     -10.5      0.000      0.000
REMARK SMILES C[C@H]1[NH2+]CC[C@H]1C(=O)N[C@H]1C=C[C@@H](C(=O)NCCCCCCNC(=O)c2ccc(-c3c4nc(c(-c5c(F)c(F)c(F)c(F)c5F)c5ccc([nH]5)c(-c5c(F)c(F)c(F)c(F)c5F)c5nc(c(-c6c(F)c(F)c(F)c(F)c6F)c6ccc3[nH]6)C=C5)C=C4)cc2)C1
REMARK SMILES IDX 19 1 18 2 17 3 16 4 14 5 15 6 13 8 10 9 11 10 89 11 12 12
REMARK SMILES IDX 9 13 7 14 8 15 6 17 1 18 2 19 3 20 4 21 5 24 20 25 21 26
REMARK SMILES IDX 22 27 23 28 24 29 25 31 26 32 27 33 88 34 28 35 87 36 29 37
REMARK SMILES IDX 30 38 31 39 81 40 32 41 86 42 80 43 82 44 33 45 85 46 79 47
REMARK SMILES IDX 78 48 34 50 66 51 46 52 65 53 47 54 50 55 64 56 83 57 48 58
REMARK SMILES IDX 49 59 63 61 84 62 51 63 35 64 36 65 44 66 37 67 38 68 42 69
REMARK SMILES IDX 45 70 39 71 40 72 43 73 41 74 67 75 68 76 76 77 69 78 70 79
REMARK SMILES IDX 74 80 77 81 71 82 72 83 75 84 73 85 52 86 53 87 61 88 54 89
REMARK SMILES IDX 55 90 59 91 62 92 56 93 57 94 60 95 58 96
REMARK H PARENT 16 7 9 16 3 22 3 23 23 30 82 49 50 60
REMARK Flexibility Score: inf
ROOT
ATOM      1  C   UNL A   1      34.098  36.006  28.750  1.00  0.00     0.002 C 
ENDROOT
BRANCH   1   2
ATOM      2  C   UNL A   1      32.857  36.062  29.647  1.00  0.00     0.021 C 
BRANCH   2   3
ATOM      3  C   UNL A   1      33.145  36.145  31.158  1.00  0.00     0.116 C 
BRANCH   3   4
ATOM      4  N   UNL A   1      34.422  35.499  31.469  1.00  0.00    -0.356 N 
ATOM      5  C   UNL A   1      34.541  34.500  32.413  1.00  0.00     0.227 C 
ATOM      6  O   UNL A   1      33.609  33.733  32.651  1.00  0.00    -0.274 OA
ATOM      7  H   UNL A   1      35.228  35.789  30.984  1.00  0.00     0.163 HD
BRANCH   5   8
ATOM      8  C   UNL A   1      35.908  34.404  33.153  1.00  0.00     0.103 C 
ATOM      9  C   UNL A   1      37.331  32.407  33.636  1.00  0.00     0.106 C 
ATOM     10  C   UNL A   1      37.751  33.072  32.388  1.00  0.00    -0.006 C 
ATOM     11  C   UNL A   1      36.078  33.186  34.098  1.00  0.00     0.047 C 
ATOM     12  C   UNL A   1      37.024  34.174  32.154  1.00  0.00    -0.016 C 
BRANCH   9  13
ATOM     13  N   UNL A   1      37.206  30.947  33.625  1.00  0.00    -0.349 N 
ATOM     14  C   UNL A   1      37.815  29.794  33.281  1.00  0.00     0.229 C 
ATOM     15  O   UNL A   1      37.031  28.828  33.250  1.00  0.00    -0.275 OA
ATOM     16  H   UNL A   1      36.338  30.718  34.026  1.00  0.00     0.164 HD
BRANCH  14  17
ATOM     17  C   UNL A   1      39.283  29.504  32.967  1.00  0.00     0.142 C 
ATOM     18  C   UNL A   1      39.955  30.300  35.270  1.00  0.00     0.076 C 
ATOM     19  C   UNL A   1      40.367  30.098  33.849  1.00  0.00     0.192 C 
ATOM     20  N   UNL A   1      41.500  29.166  33.776  1.00  0.00    -0.343 N 
ATOM     21  C   UNL A   1      40.944  27.838  33.530  1.00  0.00     0.261 C 
ATOM     22  H   UNL A   1      42.016  29.173  34.656  1.00  0.00     0.346 HD
ATOM     23  H   UNL A   1      42.146  29.435  33.034  1.00  0.00     0.346 HD
ATOM     24  C   UNL A   1      39.685  28.062  32.711  1.00  0.00     0.081 C 
ENDBRANCH  14  17
ENDBRANCH   9  13
ENDBRANCH   5   8
ENDBRANCH   3   4
ENDBRANCH   2   3
ENDBRANCH   1   2
BRANCH   1  25
ATOM     25  C   UNL A   1      34.313  34.706  27.965  1.00  0.00     0.002 C 
BRANCH  25  26
ATOM     26  C   UNL A   1      35.346  33.726  28.535  1.00  0.00     0.021 C 
BRANCH  26  27
ATOM     27  C   UNL A   1      34.808  32.560  29.366  1.00  0.00     0.116 C 
BRANCH  27  28
ATOM     28  N   UNL A   1      34.126  31.549  28.573  1.00  0.00    -0.352 N 
ATOM     29  C   UNL A   1      34.599  30.395  27.996  1.00  0.00     0.251 C 
ATOM     30  H   UNL A   1      33.167  31.720  28.425  1.00  0.00     0.163 HD
ATOM     31  O   UNL A   1      33.878  29.746  27.250  1.00  0.00    -0.269 OA
BRANCH  29  32
ATOM     32  C   UNL A   1      35.983  29.936  28.256  1.00  0.00     0.039 A 
ATOM     33  C   UNL A   1      36.942  30.094  27.250  1.00  0.00     0.014 A 
ATOM     34  C   UNL A   1      36.332  29.329  29.464  1.00  0.00     0.014 A 
ATOM     35  C   UNL A   1      38.262  29.701  27.480  1.00  0.00     0.010 A 
ATOM     36  C   UNL A   1      37.662  29.010  29.721  1.00  0.00     0.010 A 
ATOM     37  C   UNL A   1      38.641  29.189  28.731  1.00  0.00    -0.014 A 
BRANCH  37  38
ATOM     38  C   UNL A   1      40.054  28.836  29.022  1.00  0.00     0.031 A 
ATOM     39  C   UNL A   1      40.949  29.812  29.736  1.00  0.00     0.074 A 
ATOM     40  C   UNL A   1      40.547  27.659  28.589  1.00  0.00     0.049 A 
ATOM     41  N   UNL A   1      42.222  29.712  30.024  1.00  0.00    -0.248 NA
ATOM     42  C   UNL A   1      40.338  31.082  30.156  1.00  0.00     0.031 C 
ATOM     43  C   UNL A   1      39.791  26.650  27.845  1.00  0.00     0.029 A 
ATOM     44  N   UNL A   1      41.803  27.116  28.702  1.00  0.00    -0.354 N 
ATOM     45  C   UNL A   1      42.563  30.907  30.646  1.00  0.00     0.074 A 
ATOM     46  C   UNL A   1      41.381  31.739  30.641  1.00  0.00     0.031 C 
ATOM     47  C   UNL A   1      40.589  25.602  27.589  1.00  0.00     0.029 A 
ATOM     48  C   UNL A   1      41.923  25.882  28.111  1.00  0.00     0.049 A 
ATOM     49  H   UNL A   1      42.545  27.568  29.163  1.00  0.00     0.167 HD
ATOM     50  C   UNL A   1      43.750  31.265  31.192  1.00  0.00     0.037 A 
ATOM     51  C   UNL A   1      42.993  25.072  27.994  1.00  0.00     0.037 A 
ATOM     52  C   UNL A   1      44.918  30.424  31.207  1.00  0.00     0.049 A 
ATOM     53  C   UNL A   1      44.305  25.503  28.594  1.00  0.00     0.074 A 
ATOM     54  C   UNL A   1      46.152  30.669  31.785  1.00  0.00     0.029 A 
ATOM     55  N   UNL A   1      45.000  29.174  30.608  1.00  0.00    -0.354 N 
ATOM     56  N   UNL A   1      44.597  26.602  29.246  1.00  0.00    -0.248 NA
ATOM     57  C   UNL A   1      45.435  24.575  28.449  1.00  0.00     0.031 C 
ATOM     58  C   UNL A   1      46.996  29.596  31.485  1.00  0.00     0.029 A 
ATOM     59  C   UNL A   1      46.271  28.650  30.779  1.00  0.00     0.049 A 
ATOM     60  H   UNL A   1      44.263  28.727  30.132  1.00  0.00     0.167 HD
ATOM     61  C   UNL A   1      45.930  26.485  29.615  1.00  0.00     0.074 A 
ATOM     62  C   UNL A   1      46.385  25.200  29.129  1.00  0.00     0.031 C 
ATOM     63  C   UNL A   1      46.707  27.364  30.294  1.00  0.00     0.037 A 
BRANCH  50  64
ATOM     64  C   UNL A   1      43.846  32.628  31.817  1.00  0.00     0.064 A 
ATOM     65  C   UNL A   1      44.166  33.767  31.061  1.00  0.00     0.173 A 
ATOM     66  C   UNL A   1      43.578  32.806  33.183  1.00  0.00     0.173 A 
ATOM     67  F   UNL A   1      44.441  33.654  29.752  1.00  0.00    -0.203 F 
ATOM     68  C   UNL A   1      44.246  35.025  31.653  1.00  0.00     0.198 A 
ATOM     69  C   UNL A   1      43.625  34.071  33.766  1.00  0.00     0.198 A 
ATOM     70  F   UNL A   1      43.261  31.755  33.953  1.00  0.00    -0.203 F 
ATOM     71  F   UNL A   1      44.607  36.088  30.922  1.00  0.00    -0.200 F 
ATOM     72  C   UNL A   1      43.968  35.177  33.004  1.00  0.00     0.200 A 
ATOM     73  F   UNL A   1      43.339  34.218  35.067  1.00  0.00    -0.200 F 
ATOM     74  F   UNL A   1      44.036  36.389  33.571  1.00  0.00    -0.200 F 
ENDBRANCH  50  64
BRANCH  51  75
ATOM     75  C   UNL A   1      42.865  23.765  27.295  1.00  0.00     0.064 A 
ATOM     76  C   UNL A   1      42.368  22.637  27.964  1.00  0.00     0.173 A 
ATOM     77  C   UNL A   1      43.241  23.613  25.953  1.00  0.00     0.173 A 
ATOM     78  F   UNL A   1      42.013  22.725  29.253  1.00  0.00    -0.203 F 
ATOM     79  C   UNL A   1      42.277  21.402  27.323  1.00  0.00     0.198 A 
ATOM     80  C   UNL A   1      43.119  22.385  25.304  1.00  0.00     0.198 A 
ATOM     81  F   UNL A   1      43.719  24.661  25.266  1.00  0.00    -0.203 F 
ATOM     82  F   UNL A   1      41.849  20.329  28.002  1.00  0.00    -0.200 F 
ATOM     83  C   UNL A   1      42.646  21.278  25.993  1.00  0.00     0.200 A 
ATOM     84  F   UNL A   1      43.463  22.274  24.014  1.00  0.00    -0.200 F 
ATOM     85  F   UNL A   1      42.556  20.092  25.377  1.00  0.00    -0.200 F 
ENDBRANCH  51  75
BRANCH  63  86
ATOM     86  C   UNL A   1      48.120  26.948  30.592  1.00  0.00     0.064 A 
ATOM     87  C   UNL A   1      48.443  26.178  31.719  1.00  0.00     0.173 A 
ATOM     88  C   UNL A   1      49.159  27.294  29.714  1.00  0.00     0.173 A 
ATOM     89  F   UNL A   1      47.489  25.832  32.597  1.00  0.00    -0.203 F 
ATOM     90  C   UNL A   1      49.758  25.795  31.971  1.00  0.00     0.198 A 
ATOM     91  C   UNL A   1      50.466  26.879  29.950  1.00  0.00     0.198 A 
ATOM     92  F   UNL A   1      48.904  28.024  28.617  1.00  0.00    -0.203 F 
ATOM     93  F   UNL A   1      50.051  25.105  33.082  1.00  0.00    -0.200 F 
ATOM     94  C   UNL A   1      50.766  26.138  31.083  1.00  0.00     0.200 A 
ATOM     95  F   UNL A   1      51.436  27.197  29.081  1.00  0.00    -0.200 F 
ATOM     96  F   UNL A   1      52.029  25.760  31.322  1.00  0.00    -0.200 F 
ENDBRANCH  63  86
ENDBRANCH  37  38
ENDBRANCH  29  32
ENDBRANCH  27  28
ENDBRANCH  26  27
ENDBRANCH  25  26
ENDBRANCH   1  25
TORSDOF 15
ENDMDL
MODEL 2
REMARK VINA RESULT:     -10.5      4.330     10.531
REMARK SMILES C[C@H]1[NH2+]CC[C@H]1C(=O)N[C@H]1C=C[C@@H](C(=O)NCCCCCCNC(=O)c2ccc(-c3c4nc(c(-c5c(F)c(F)c(F)c(F)c5F)c5ccc([nH]5)c(-c5c(F)c(F)c(F)c(F)c5F)c5nc(c(-c6c(F)c(F)c(F)c(F)c6F)c6ccc3[nH]6)C=C5)C=C4)cc2)C1
REMARK SMILES IDX 19 1 18 2 17 3 16 4 14 5 15 6 13 8 10 9 11 10 89 11 12 12
REMARK SMILES IDX 9 13 7 14 8 15 6 17 1 18 2 19 3 20 4 21 5 24 20 25 21 26
REMARK SMILES IDX 22 27 23 28 24 29 25 31 26 32 27 33 88 34 28 35 87 36 29 37
REMARK SMILES IDX 30 38 31 39 81 40 32 41 86 42 80 43 82 44 33 45 85 46 79 47
REMARK SMILES IDX 78 48 34 50 66 51 46 52 65 53 47 54 50 55 64 56 83 57 48 58
REMARK SMILES IDX 49 59 63 61 84 62 51 63 35 64 36 65 44 66 37 67 38 68 42 69
REMARK SMILES IDX 45 70 39 71 40 72 43 73 41 74 67 75 68 76 76 77 69 78 70 79
REMARK SMILES IDX 74 80 77 81 71 82 72 83 75 84 73 85 52 86 53 87 61 88 54 89
REMARK SMILES IDX 55 90 59 91 62 92 56 93 57 94 60 95 58 96
REMARK H PARENT 16 7 9 16 3 22 3 23 23 30 82 49 50 60
REMARK Flexibility Score: inf
ROOT
ATOM      1  C   UNL A   1      32.219  29.708  27.012  1.00  0.00     0.002 C 
ENDROOT
BRANCH   1   2
ATOM      2  C   UNL A   1      33.748  29.754  27.112  1.00  0.00     0.021 C 
BRANCH   2   3
ATOM      3  C   UNL A   1      34.493  28.732  26.232  1.00  0.00     0.116 C 
BRANCH   3   4
ATOM      4  N   UNL A   1      34.052  27.372  26.548  1.00  0.00    -0.356 N 
ATOM      5  C   UNL A   1      33.647  26.476  25.579  1.00  0.00     0.227 C 
ATOM      6  O   UNL A   1      34.108  26.519  24.438  1.00  0.00    -0.274 OA
ATOM      7  H   UNL A   1      34.043  27.084  27.489  1.00  0.00     0.163 HD
BRANCH   5   8
ATOM      8  C   UNL A   1      32.584  25.424  26.008  1.00  0.00     0.103 C 
ATOM      9  C   UNL A   1      30.246  25.084  25.191  1.00  0.00     0.106 C 
ATOM     10  C   UNL A   1      31.195  24.220  24.465  1.00  0.00    -0.006 C 
ATOM     11  C   UNL A   1      31.128  25.946  26.124  1.00  0.00     0.047 C 
ATOM     12  C   UNL A   1      32.443  24.361  24.937  1.00  0.00    -0.016 C 
BRANCH   9  13
ATOM     13  N   UNL A   1      29.245  25.813  24.407  1.00  0.00    -0.349 N 
ATOM     14  C   UNL A   1      28.916  27.013  23.890  1.00  0.00     0.229 C 
ATOM     15  O   UNL A   1      27.720  27.079  23.553  1.00  0.00    -0.275 OA
ATOM     16  H   UNL A   1      28.535  25.177  24.163  1.00  0.00     0.164 HD
BRANCH  14  17
ATOM     17  C   UNL A   1      29.775  28.252  23.634  1.00  0.00     0.142 C 
ATOM     18  C   UNL A   1      31.241  26.933  22.051  1.00  0.00     0.076 C 
ATOM     19  C   UNL A   1      31.140  28.093  22.987  1.00  0.00     0.192 C 
ATOM     20  N   UNL A   1      31.393  29.348  22.268  1.00  0.00    -0.343 N 
ATOM     21  C   UNL A   1      30.092  29.885  21.878  1.00  0.00     0.261 C 
ATOM     22  H   UNL A   1      31.961  29.169  21.440  1.00  0.00     0.346 HD
ATOM     23  H   UNL A   1      31.900  30.010  22.857  1.00  0.00     0.346 HD
ATOM     24  C   UNL A   1      29.122  29.446  22.961  1.00  0.00     0.081 C 
ENDBRANCH  14  17
ENDBRANCH   9  13
ENDBRANCH   5   8
ENDBRANCH   3   4
ENDBRANCH   2   3
ENDBRANCH   1   2
BRANCH   1  25
ATOM     25  C   UNL A   1      31.563  30.767  26.119  1.00  0.00     0.002 C 
BRANCH  25  26
ATOM     26  C   UNL A   1      31.381  32.161  26.731  1.00  0.00     0.021 C 
BRANCH  26  27
ATOM     27  C   UNL A   1      32.652  32.921  27.111  1.00  0.00     0.116 C 
BRANCH  27  28
ATOM     28  N   UNL A   1      32.400  34.268  27.597  1.00  0.00    -0.352 N 
ATOM     29  C   UNL A   1      32.985  34.975  28.620  1.00  0.00     0.251 C 
ATOM     30  H   UNL A   1      31.692  34.754  27.114  1.00  0.00     0.163 HD
ATOM     31  O   UNL A   1      32.527  36.061  28.952  1.00  0.00    -0.269 OA
BRANCH  29  32
ATOM     32  C   UNL A   1      34.159  34.428  29.337  1.00  0.00     0.039 A 
ATOM     33  C   UNL A   1      33.946  33.683  30.502  1.00  0.00     0.014 A 
ATOM     34  C   UNL A   1      35.460  34.666  28.889  1.00  0.00     0.014 A 
ATOM     35  C   UNL A   1      35.033  33.128  31.180  1.00  0.00     0.010 A 
ATOM     36  C   UNL A   1      36.535  34.047  29.520  1.00  0.00     0.010 A 
ATOM     37  C   UNL A   1      36.334  33.274  30.674  1.00  0.00    -0.014 A 
BRANCH  37  38
ATOM     38  C   UNL A   1      37.495  32.628  31.338  1.00  0.00     0.031 A 
ATOM     39  C   UNL A   1      38.219  31.494  30.664  1.00  0.00     0.074 A 
ATOM     40  C   UNL A   1      37.859  33.023  32.573  1.00  0.00     0.049 A 
ATOM     41  N   UNL A   1      39.212  30.764  31.107  1.00  0.00    -0.248 NA
ATOM     42  C   UNL A   1      37.746  31.110  29.325  1.00  0.00     0.031 C 
ATOM     43  C   UNL A   1      37.205  34.078  33.348  1.00  0.00     0.029 A 
ATOM     44  N   UNL A   1      38.860  32.577  33.400  1.00  0.00    -0.354 N 
ATOM     45  C   UNL A   1      39.470  29.832  30.110  1.00  0.00     0.074 A 
ATOM     46  C   UNL A   1      38.495  30.049  29.065  1.00  0.00     0.031 C 
ATOM     47  C   UNL A   1      37.835  34.215  34.525  1.00  0.00     0.029 A 
ATOM     48  C   UNL A   1      38.908  33.229  34.607  1.00  0.00     0.049 A 
ATOM     49  H   UNL A   1      39.484  31.858  33.150  1.00  0.00     0.167 HD
ATOM     50  C   UNL A   1      40.449  28.896  30.062  1.00  0.00     0.037 A 
ATOM     51  C   UNL A   1      39.720  33.046  35.666  1.00  0.00     0.037 A 
ATOM     52  C   UNL A   1      41.426  28.697  31.100  1.00  0.00     0.049 A 
ATOM     53  C   UNL A   1      40.787  31.986  35.594  1.00  0.00     0.074 A 
ATOM     54  C   UNL A   1      42.494  27.816  31.123  1.00  0.00     0.029 A 
ATOM     55  N   UNL A   1      41.450  29.386  32.305  1.00  0.00    -0.354 N 
ATOM     56  N   UNL A   1      41.071  31.161  34.615  1.00  0.00    -0.248 NA
ATOM     57  C   UNL A   1      41.653  31.838  36.772  1.00  0.00     0.031 C 
ATOM     58  C   UNL A   1      43.127  27.929  32.365  1.00  0.00     0.029 A 
ATOM     59  C   UNL A   1      42.498  28.928  33.089  1.00  0.00     0.049 A 
ATOM     60  H   UNL A   1      40.818  30.094  32.564  1.00  0.00     0.167 HD
ATOM     61  C   UNL A   1      42.164  30.421  35.044  1.00  0.00     0.074 A 
ATOM     62  C   UNL A   1      42.503  30.906  36.365  1.00  0.00     0.031 C 
ATOM     63  C   UNL A   1      42.826  29.427  34.402  1.00  0.00     0.037 A 
BRANCH  50  64
ATOM     64  C   UNL A   1      40.510  28.014  28.848  1.00  0.00     0.064 A 
ATOM     65  C   UNL A   1      39.794  26.808  28.773  1.00  0.00     0.173 A 
ATOM     66  C   UNL A   1      41.264  28.395  27.727  1.00  0.00     0.173 A 
ATOM     67  F   UNL A   1      39.064  26.390  29.819  1.00  0.00    -0.203 F 
ATOM     68  C   UNL A   1      39.856  26.003  27.639  1.00  0.00     0.198 A 
ATOM     69  C   UNL A   1      41.296  27.605  26.580  1.00  0.00     0.198 A 
ATOM     70  F   UNL A   1      41.962  29.539  27.738  1.00  0.00    -0.203 F 
ATOM     71  F   UNL A   1      39.208  24.831  27.613  1.00  0.00    -0.200 F 
ATOM     72  C   UNL A   1      40.601  26.406  26.540  1.00  0.00     0.200 A 
ATOM     73  F   UNL A   1      42.002  28.003  25.513  1.00  0.00    -0.200 F 
ATOM     74  F   UNL A   1      40.653  25.636  25.445  1.00  0.00    -0.200 F 
ENDBRANCH  50  64
BRANCH  51  75
ATOM     75  C   UNL A   1      39.567  33.895  36.878  1.00  0.00     0.064 A 
ATOM     76  C   UNL A   1      38.791  33.467  37.965  1.00  0.00     0.173 A 
ATOM     77  C   UNL A   1      40.184  35.151  36.973  1.00  0.00     0.173 A 
ATOM     78  F   UNL A   1      38.165  32.282  37.915  1.00  0.00    -0.203 F 
ATOM     79  C   UNL A   1      38.619  34.273  39.089  1.00  0.00     0.198 A 
ATOM     80  C   UNL A   1      40.037  35.942  38.112  1.00  0.00     0.198 A 
ATOM     81  F   UNL A   1      40.940  35.607  35.964  1.00  0.00    -0.203 F 
ATOM     82  F   UNL A   1      37.829  33.861  40.090  1.00  0.00    -0.200 F 
ATOM     83  C   UNL A   1      39.246  35.506  39.164  1.00  0.00     0.200 A 
ATOM     84  F   UNL A   1      40.658  37.127  38.187  1.00  0.00    -0.200 F 
ATOM     85  F   UNL A   1      39.082  36.279  40.246  1.00  0.00    -0.200 F 
ENDBRANCH  51  75
BRANCH  63  86
ATOM     86  C   UNL A   1      44.013  28.826  35.100  1.00  0.00     0.064 A 
ATOM     87  C   UNL A   1      43.895  27.695  35.922  1.00  0.00     0.173 A 
ATOM     88  C   UNL A   1      45.294  29.368  34.911  1.00  0.00     0.173 A 
ATOM     89  F   UNL A   1      42.690  27.147  36.146  1.00  0.00    -0.203 F 
ATOM     90  C   UNL A   1      45.009  27.148  36.552  1.00  0.00     0.198 A 
ATOM     91  C   UNL A   1      46.411  28.796  35.513  1.00  0.00     0.198 A 
ATOM     92  F   UNL A   1      45.466  30.445  34.129  1.00  0.00    -0.203 F 
ATOM     93  F   UNL A   1      44.863  26.100  37.375  1.00  0.00    -0.200 F 
ATOM     94  C   UNL A   1      46.266  27.693  36.340  1.00  0.00     0.200 A 
ATOM     95  F   UNL A   1      47.628  29.314  35.294  1.00  0.00    -0.200 F 
ATOM     96  F   UNL A   1      47.339  27.158  36.940  1.00  0.00    -0.200 F 
ENDBRANCH  63  86
ENDBRANCH  37  38
ENDBRANCH  29  32
ENDBRANCH  27  28
ENDBRANCH  26  27
ENDBRANCH  25  26
ENDBRANCH   1  25
TORSDOF 15
ENDMDL
MODEL 3
REMARK VINA RESULT:     -10.5      4.558     10.830
REMARK SMILES C[C@H]1[NH2+]CC[C@H]1C(=O)N[C@H]1C=C[C@@H](C(=O)NCCCCCCNC(=O)c2ccc(-c3c4nc(c(-c5c(F)c(F)c(F)c(F)c5F)c5ccc([nH]5)c(-c5c(F)c(F)c(F)c(F)c5F)c5nc(c(-c6c(F)c(F)c(F)c(F)c6F)c6ccc3[nH]6)C=C5)C=C4)cc2)C1
REMARK SMILES IDX 19 1 18 2 17 3 16 4 14 5 15 6 13 8 10 9 11 10 89 11 12 12
REMARK SMILES IDX 9 13 7 14 8 15 6 17 1 18 2 19 3 20 4 21 5 24 20 25 21 26
REMARK SMILES IDX 22 27 23 28 24 29 25 31 26 32 27 33 88 34 28 35 87 36 29 37
REMARK SMILES IDX 30 38 31 39 81 40 32 41 86 42 80 43 82 44 33 45 85 46 79 47
REMARK SMILES IDX 78 48 34 50 66 51 46 52 65 53 47 54 50 55 64 56 83 57 48 58
REMARK SMILES IDX 49 59 63 61 84 62 51 63 35 64 36 65 44 66 37 67 38 68 42 69
REMARK SMILES IDX 45 70 39 71 40 72 43 73 41 74 67 75 68 76 76 77 69 78 70 79
REMARK SMILES IDX 74 80 77 81 71 82 72 83 75 84 73 85 52 86 53 87 61 88 54 89
REMARK SMILES IDX 55 90 59 91 62 92 56 93 57 94 60 95 58 96
REMARK H PARENT 16 7 9 16 3 22 3 23 23 30 82 49 50 60
REMARK Flexibility Score: inf
ROOT
ATOM      1  C   UNL A   1      31.954  29.886  27.228  1.00  0.00     0.002 C 
ENDROOT
BRANCH   1   2
ATOM      2  C   UNL A   1      33.406  29.396  27.185  1.00  0.00     0.021 C 
BRANCH   2   3
ATOM      3  C   UNL A   1      33.611  28.018  26.529  1.00  0.00     0.116 C 
BRANCH   3   4
ATOM      4  N   UNL A   1      32.478  27.694  25.659  1.00  0.00    -0.356 N 
ATOM      5  C   UNL A   1      31.618  26.645  25.915  1.00  0.00     0.227 C 
ATOM      6  O   UNL A   1      31.390  26.274  27.066  1.00  0.00    -0.274 OA
ATOM      7  H   UNL A   1      32.322  28.247  24.860  1.00  0.00     0.163 HD
BRANCH   5   8
ATOM      8  C   UNL A   1      30.965  25.965  24.676  1.00  0.00     0.103 C 
ATOM      9  C   UNL A   1      29.127  26.775  23.188  1.00  0.00     0.106 C 
ATOM     10  C   UNL A   1      30.451  27.119  22.636  1.00  0.00    -0.006 C 
ATOM     11  C   UNL A   1      29.427  26.120  24.557  1.00  0.00     0.047 C 
ATOM     12  C   UNL A   1      31.440  26.639  23.405  1.00  0.00    -0.016 C 
BRANCH   9  13
ATOM     13  N   UNL A   1      28.096  27.817  23.192  1.00  0.00    -0.349 N 
ATOM     14  C   UNL A   1      27.874  29.143  23.284  1.00  0.00     0.229 C 
ATOM     15  O   UNL A   1      26.687  29.416  23.536  1.00  0.00    -0.275 OA
ATOM     16  H   UNL A   1      27.224  27.374  23.088  1.00  0.00     0.164 HD
BRANCH  14  17
ATOM     17  C   UNL A   1      28.829  30.323  23.095  1.00  0.00     0.142 C 
ATOM     18  C   UNL A   1      27.978  30.663  20.739  1.00  0.00     0.076 C 
ATOM     19  C   UNL A   1      29.111  30.839  21.695  1.00  0.00     0.192 C 
ATOM     20  N   UNL A   1      29.430  32.264  21.849  1.00  0.00    -0.343 N 
ATOM     21  C   UNL A   1      28.707  32.738  23.026  1.00  0.00     0.261 C 
ATOM     22  H   UNL A   1      29.130  32.781  21.022  1.00  0.00     0.346 HD
ATOM     23  H   UNL A   1      30.434  32.404  21.956  1.00  0.00     0.346 HD
ATOM     24  C   UNL A   1      28.627  31.549  23.968  1.00  0.00     0.081 C 
ENDBRANCH  14  17
ENDBRANCH   9  13
ENDBRANCH   5   8
ENDBRANCH   3   4
ENDBRANCH   2   3
ENDBRANCH   1   2
BRANCH   1  25
ATOM     25  C   UNL A   1      31.542  30.890  26.145  1.00  0.00     0.002 C 
BRANCH  25  26
ATOM     26  C   UNL A   1      31.406  32.353  26.583  1.00  0.00     0.021 C 
BRANCH  26  27
ATOM     27  C   UNL A   1      32.639  33.003  27.212  1.00  0.00     0.116 C 
BRANCH  27  28
ATOM     28  N   UNL A   1      32.400  34.355  27.695  1.00  0.00    -0.352 N 
ATOM     29  C   UNL A   1      32.996  35.060  28.712  1.00  0.00     0.251 C 
ATOM     30  H   UNL A   1      31.694  34.844  27.213  1.00  0.00     0.163 HD
ATOM     31  O   UNL A   1      32.549  36.151  29.042  1.00  0.00    -0.269 OA
BRANCH  29  32
ATOM     32  C   UNL A   1      34.169  34.506  29.426  1.00  0.00     0.039 A 
ATOM     33  C   UNL A   1      33.971  33.892  30.667  1.00  0.00     0.014 A 
ATOM     34  C   UNL A   1      35.457  34.612  28.898  1.00  0.00     0.014 A 
ATOM     35  C   UNL A   1      35.054  33.331  31.346  1.00  0.00     0.010 A 
ATOM     36  C   UNL A   1      36.523  33.984  29.537  1.00  0.00     0.010 A 
ATOM     37  C   UNL A   1      36.334  33.341  30.770  1.00  0.00    -0.014 A 
BRANCH  37  38
ATOM     38  C   UNL A   1      37.485  32.683  31.440  1.00  0.00     0.031 A 
ATOM     39  C   UNL A   1      38.186  31.526  30.784  1.00  0.00     0.074 A 
ATOM     40  C   UNL A   1      37.860  33.092  32.668  1.00  0.00     0.049 A 
ATOM     41  N   UNL A   1      39.166  30.784  31.236  1.00  0.00    -0.248 NA
ATOM     42  C   UNL A   1      37.701  31.129  29.452  1.00  0.00     0.031 C 
ATOM     43  C   UNL A   1      37.228  34.172  33.428  1.00  0.00     0.029 A 
ATOM     44  N   UNL A   1      38.855  32.641  33.499  1.00  0.00    -0.354 N 
ATOM     45  C   UNL A   1      39.403  29.832  30.253  1.00  0.00     0.074 A 
ATOM     46  C   UNL A   1      38.429  30.050  29.207  1.00  0.00     0.031 C 
ATOM     47  C   UNL A   1      37.864  34.316  34.600  1.00  0.00     0.029 A 
ATOM     48  C   UNL A   1      38.919  33.312  34.695  1.00  0.00     0.049 A 
ATOM     49  H   UNL A   1      39.465  31.906  33.260  1.00  0.00     0.167 HD
ATOM     50  C   UNL A   1      40.364  28.877  30.218  1.00  0.00     0.037 A 
ATOM     51  C   UNL A   1      39.730  33.131  35.755  1.00  0.00     0.037 A 
ATOM     52  C   UNL A   1      41.341  28.677  31.256  1.00  0.00     0.049 A 
ATOM     53  C   UNL A   1      40.778  32.050  35.697  1.00  0.00     0.074 A 
ATOM     54  C   UNL A   1      42.392  27.776  31.290  1.00  0.00     0.029 A 
ATOM     55  N   UNL A   1      41.382  29.384  32.449  1.00  0.00    -0.354 N 
ATOM     56  N   UNL A   1      41.043  31.204  34.731  1.00  0.00    -0.248 NA
ATOM     57  C   UNL A   1      41.645  31.905  36.874  1.00  0.00     0.031 C 
ATOM     58  C   UNL A   1      43.031  27.898  32.528  1.00  0.00     0.029 A 
ATOM     59  C   UNL A   1      42.423  28.920  33.238  1.00  0.00     0.049 A 
ATOM     60  H   UNL A   1      40.763  30.109  32.698  1.00  0.00     0.167 HD
ATOM     61  C   UNL A   1      42.123  30.451  35.169  1.00  0.00     0.074 A 
ATOM     62  C   UNL A   1      42.475  30.950  36.481  1.00  0.00     0.031 C 
ATOM     63  C   UNL A   1      42.765  29.435  34.541  1.00  0.00     0.037 A 
BRANCH  50  64
ATOM     64  C   UNL A   1      40.405  27.974  29.017  1.00  0.00     0.064 A 
ATOM     65  C   UNL A   1      41.180  28.281  27.887  1.00  0.00     0.173 A 
ATOM     66  C   UNL A   1      39.690  26.767  29.009  1.00  0.00     0.173 A 
ATOM     67  F   UNL A   1      41.877  29.427  27.837  1.00  0.00    -0.203 F 
ATOM     68  C   UNL A   1      41.212  27.431  26.785  1.00  0.00     0.198 A 
ATOM     69  C   UNL A   1      39.751  25.901  27.919  1.00  0.00     0.198 A 
ATOM     70  F   UNL A   1      38.938  26.418  30.064  1.00  0.00    -0.203 F 
ATOM     71  F   UNL A   1      41.915  27.773  25.697  1.00  0.00    -0.200 F 
ATOM     72  C   UNL A   1      40.503  26.239  26.804  1.00  0.00     0.200 A 
ATOM     73  F   UNL A   1      39.080  24.742  27.947  1.00  0.00    -0.200 F 
ATOM     74  F   UNL A   1      40.542  25.417  25.747  1.00  0.00    -0.200 F 
ENDBRANCH  50  64
BRANCH  51  75
ATOM     75  C   UNL A   1      39.598  34.002  36.953  1.00  0.00     0.064 A 
ATOM     76  C   UNL A   1      38.830  33.600  38.055  1.00  0.00     0.173 A 
ATOM     77  C   UNL A   1      40.226  35.254  37.020  1.00  0.00     0.173 A 
ATOM     78  F   UNL A   1      38.193  32.420  38.032  1.00  0.00    -0.203 F 
ATOM     79  C   UNL A   1      38.675  34.427  39.166  1.00  0.00     0.198 A 
ATOM     80  C   UNL A   1      40.098  36.066  38.146  1.00  0.00     0.198 A 
ATOM     81  F   UNL A   1      40.975  35.686  35.995  1.00  0.00    -0.203 F 
ATOM     82  F   UNL A   1      37.893  34.039  40.183  1.00  0.00    -0.200 F 
ATOM     83  C   UNL A   1      39.314  35.656  39.214  1.00  0.00     0.200 A 
ATOM     84  F   UNL A   1      40.729  37.247  38.193  1.00  0.00    -0.200 F 
ATOM     85  F   UNL A   1      39.168  36.449  40.283  1.00  0.00    -0.200 F 
ENDBRANCH  51  75
BRANCH  63  86
ATOM     86  C   UNL A   1      43.942  28.823  35.245  1.00  0.00     0.064 A 
ATOM     87  C   UNL A   1      45.249  29.299  35.055  1.00  0.00     0.173 A 
ATOM     88  C   UNL A   1      43.755  27.770  36.154  1.00  0.00     0.173 A 
ATOM     89  F   UNL A   1      45.484  30.294  34.186  1.00  0.00    -0.203 F 
ATOM     90  C   UNL A   1      46.325  28.724  35.725  1.00  0.00     0.198 A 
ATOM     91  C   UNL A   1      44.828  27.222  36.849  1.00  0.00     0.198 A 
ATOM     92  F   UNL A   1      42.525  27.281  36.379  1.00  0.00    -0.203 F 
ATOM     93  F   UNL A   1      47.570  29.159  35.487  1.00  0.00    -0.200 F 
ATOM     94  C   UNL A   1      46.113  27.693  36.628  1.00  0.00     0.200 A 
ATOM     95  F   UNL A   1      44.619  26.237  37.734  1.00  0.00    -0.200 F 
ATOM     96  F   UNL A   1      47.150  27.147  37.279  1.00  0.00    -0.200 F 
ENDBRANCH  63  86
ENDBRANCH  37  38
ENDBRANCH  29  32
ENDBRANCH  27  28
ENDBRANCH  26  27
ENDBRANCH  25  26
ENDBRANCH   1  25
TORSDOF 15
ENDMDL
