MODEL 1
REMARK VINA RESULT:     -12.3      0.000      0.000
REMARK SMILES O=C(NCCCCCCNC(=O)[C@@H]1C=C[C@H](NC(=O)c2ccc(Br)cc2)C1)c1ccc(-c2c3nc(c(-c4c(F)c(F)c(F)c(F)c4F)c4ccc([nH]4)c(-c4c(F)c(F)c(F)c(F)c4F)c4nc(c(-c5c(F)c(F)c(F)c(F)c5F)c5ccc2[nH]5)C=C4)C=C3)cc1
REMARK SMILES IDX 6 1 5 2 4 3 3 4 1 5 2 6 28 8 29 9 90 10 30 11 89 12 31 13
REMARK SMILES IDX 32 14 33 15 83 16 34 17 88 18 82 19 84 20 35 21 87 22 81 23
REMARK SMILES IDX 80 24 36 26 68 27 48 28 67 29 49 30 52 31 66 32 85 33 50 34
REMARK SMILES IDX 51 35 65 37 86 38 53 39 37 40 38 41 46 42 39 43 40 44 44 45
REMARK SMILES IDX 47 46 41 47 42 48 45 49 43 50 69 51 70 52 78 53 71 54 72 55
REMARK SMILES IDX 76 56 79 57 73 58 74 59 77 60 75 61 54 62 55 63 63 64 56 65
REMARK SMILES IDX 57 66 61 67 64 68 58 69 59 70 62 71 60 72 7 73 8 74 9 75
REMARK SMILES IDX 10 76 11 77 12 79 13 80 14 81 27 82 15 83 16 84 17 85 18 86
REMARK SMILES IDX 19 88 20 89 21 90 26 91 22 92 25 93 23 94 24 95
REMARK H PARENT 3 7 84 25 52 36 10 78 17 87
REMARK Flexibility Score: inf
ROOT
ATOM      1  C   UNL A   1      31.346  30.912  26.134  1.00  0.00     0.002 C 
ENDROOT
BRANCH   1   2
ATOM      2  C   UNL A   1      31.301  32.391  26.529  1.00  0.00     0.021 C 
BRANCH   2   3
ATOM      3  C   UNL A   1      32.569  32.937  27.174  1.00  0.00     0.116 C 
BRANCH   3   4
ATOM      4  N   UNL A   1      32.406  34.302  27.644  1.00  0.00    -0.352 N 
ATOM      5  O   UNL A   1      32.623  36.075  29.012  1.00  0.00    -0.269 OA
ATOM      6  C   UNL A   1      33.026  34.958  28.673  1.00  0.00     0.251 C 
ATOM      7  H   UNL A   1      31.748  34.838  27.145  1.00  0.00     0.163 HD
BRANCH   6   8
ATOM      8  C   UNL A   1      34.166  34.350  29.393  1.00  0.00     0.039 A 
ATOM      9  C   UNL A   1      33.970  33.525  30.503  1.00  0.00     0.014 A 
ATOM     10  C   UNL A   1      35.459  34.555  28.899  1.00  0.00     0.014 A 
ATOM     11  C   UNL A   1      35.066  32.984  31.172  1.00  0.00     0.010 A 
ATOM     12  C   UNL A   1      36.554  33.957  29.529  1.00  0.00     0.010 A 
ATOM     13  C   UNL A   1      36.366  33.177  30.679  1.00  0.00    -0.014 A 
BRANCH  13  14
ATOM     14  C   UNL A   1      37.506  32.485  31.330  1.00  0.00     0.031 A 
ATOM     15  C   UNL A   1      38.248  31.382  30.634  1.00  0.00     0.074 A 
ATOM     16  C   UNL A   1      37.871  32.871  32.568  1.00  0.00     0.049 A 
ATOM     17  N   UNL A   1      39.269  30.680  31.059  1.00  0.00    -0.248 NA
ATOM     18  C   UNL A   1      37.782  31.013  29.290  1.00  0.00     0.031 C 
ATOM     19  C   UNL A   1      37.209  33.916  33.351  1.00  0.00     0.029 A 
ATOM     20  N   UNL A   1      38.890  32.443  33.380  1.00  0.00    -0.354 N 
ATOM     21  C   UNL A   1      39.558  29.778  30.044  1.00  0.00     0.074 A 
ATOM     22  C   UNL A   1      38.591  30.005  28.991  1.00  0.00     0.031 C 
ATOM     23  C   UNL A   1      37.860  34.074  34.513  1.00  0.00     0.029 A 
ATOM     24  C   UNL A   1      38.952  33.110  34.578  1.00  0.00     0.049 A 
ATOM     25  H   UNL A   1      39.516  31.726  33.129  1.00  0.00     0.167 HD
ATOM     26  C   UNL A   1      40.548  28.854  29.995  1.00  0.00     0.037 A 
ATOM     27  C   UNL A   1      39.791  32.956  35.619  1.00  0.00     0.037 A 
ATOM     28  C   UNL A   1      41.517  28.643  31.041  1.00  0.00     0.049 A 
ATOM     29  C   UNL A   1      40.871  31.917  35.541  1.00  0.00     0.074 A 
ATOM     30  C   UNL A   1      42.580  27.756  31.067  1.00  0.00     0.029 A 
ATOM     31  N   UNL A   1      41.539  29.328  32.246  1.00  0.00    -0.354 N 
ATOM     32  N   UNL A   1      41.158  31.097  34.560  1.00  0.00    -0.248 NA
ATOM     33  C   UNL A   1      41.743  31.782  36.714  1.00  0.00     0.031 C 
ATOM     34  C   UNL A   1      43.223  27.878  32.304  1.00  0.00     0.029 A 
ATOM     35  C   UNL A   1      42.586  28.869  33.033  1.00  0.00     0.049 A 
ATOM     36  H   UNL A   1      40.906  30.035  32.506  1.00  0.00     0.167 HD
ATOM     37  C   UNL A   1      42.247  30.355  34.990  1.00  0.00     0.074 A 
ATOM     38  C   UNL A   1      42.585  30.839  36.314  1.00  0.00     0.031 C 
ATOM     39  C   UNL A   1      42.905  29.360  34.348  1.00  0.00     0.037 A 
BRANCH  26  40
ATOM     40  C   UNL A   1      40.630  27.986  28.774  1.00  0.00     0.064 A 
ATOM     41  C   UNL A   1      39.914  26.785  28.676  1.00  0.00     0.173 A 
ATOM     42  C   UNL A   1      41.394  28.388  27.667  1.00  0.00     0.173 A 
ATOM     43  F   UNL A   1      39.175  26.354  29.709  1.00  0.00    -0.203 F 
ATOM     44  C   UNL A   1      39.974  26.008  27.522  1.00  0.00     0.198 A 
ATOM     45  C   UNL A   1      41.434  27.619  26.506  1.00  0.00     0.198 A 
ATOM     46  F   UNL A   1      42.092  29.533  27.707  1.00  0.00    -0.203 F 
ATOM     47  F   UNL A   1      39.307  24.846  27.463  1.00  0.00    -0.200 F 
ATOM     48  C   UNL A   1      40.727  26.428  26.436  1.00  0.00     0.200 A 
ATOM     49  F   UNL A   1      42.152  28.034  25.454  1.00  0.00    -0.200 F 
ATOM     50  F   UNL A   1      40.776  25.683  25.323  1.00  0.00    -0.200 F 
ENDBRANCH  26  40
BRANCH  27  51
ATOM     51  C   UNL A   1      39.637  33.818  36.819  1.00  0.00     0.064 A 
ATOM     52  C   UNL A   1      40.257  35.072  36.887  1.00  0.00     0.173 A 
ATOM     53  C   UNL A   1      38.851  33.415  37.907  1.00  0.00     0.173 A 
ATOM     54  F   UNL A   1      41.035  35.491  35.878  1.00  0.00    -0.203 F 
ATOM     55  C   UNL A   1      40.105  35.888  38.006  1.00  0.00     0.198 A 
ATOM     56  C   UNL A   1      38.676  34.243  39.014  1.00  0.00     0.198 A 
ATOM     57  F   UNL A   1      38.232  32.225  37.885  1.00  0.00    -0.203 F 
ATOM     58  F   UNL A   1      40.735  37.069  38.063  1.00  0.00    -0.200 F 
ATOM     59  C   UNL A   1      39.308  35.477  39.065  1.00  0.00     0.200 A 
ATOM     60  F   UNL A   1      37.894  33.849  40.027  1.00  0.00    -0.200 F 
ATOM     61  F   UNL A   1      39.153  36.267  40.136  1.00  0.00    -0.200 F 
ENDBRANCH  27  51
BRANCH  39  62
ATOM     62  C   UNL A   1      44.067  28.741  35.066  1.00  0.00     0.064 A 
ATOM     63  C   UNL A   1      45.364  29.262  34.942  1.00  0.00     0.173 A 
ATOM     64  C   UNL A   1      43.879  27.632  35.902  1.00  0.00     0.173 A 
ATOM     65  F   UNL A   1      45.596  30.311  34.138  1.00  0.00    -0.203 F 
ATOM     66  C   UNL A   1      46.435  28.679  35.614  1.00  0.00     0.198 A 
ATOM     67  C   UNL A   1      44.947  27.066  36.591  1.00  0.00     0.198 A 
ATOM     68  F   UNL A   1      42.657  27.100  36.054  1.00  0.00    -0.203 F 
ATOM     69  F   UNL A   1      47.672  29.165  35.446  1.00  0.00    -0.200 F 
ATOM     70  C   UNL A   1      46.225  27.586  36.442  1.00  0.00     0.200 A 
ATOM     71  F   UNL A   1      44.743  26.016  37.397  1.00  0.00    -0.200 F 
ATOM     72  F   UNL A   1      47.257  27.027  37.088  1.00  0.00    -0.200 F 
ENDBRANCH  39  62
ENDBRANCH  13  14
ENDBRANCH   6   8
ENDBRANCH   3   4
ENDBRANCH   2   3
ENDBRANCH   1   2
BRANCH   1  73
ATOM     73  C   UNL A   1      32.159  29.987  27.053  1.00  0.00     0.002 C 
BRANCH  73  74
ATOM     74  C   UNL A   1      31.704  28.523  27.120  1.00  0.00     0.021 C 
BRANCH  74  75
ATOM     75  C   UNL A   1      32.642  27.546  26.423  1.00  0.00     0.116 C 
BRANCH  75  76
ATOM     76  N   UNL A   1      33.234  28.057  25.215  1.00  0.00    -0.356 N 
ATOM     77  C   UNL A   1      32.703  28.168  23.971  1.00  0.00     0.227 C 
ATOM     78  H   UNL A   1      34.162  28.373  25.303  1.00  0.00     0.163 HD
ATOM     79  O   UNL A   1      33.174  29.070  23.263  1.00  0.00    -0.274 OA
BRANCH  77  80
ATOM     80  C   UNL A   1      31.612  27.255  23.388  1.00  0.00     0.103 C 
ATOM     81  C   UNL A   1      30.224  27.679  23.763  1.00  0.00    -0.016 C 
ATOM     82  C   UNL A   1      31.584  25.734  23.584  1.00  0.00     0.047 C 
ATOM     83  C   UNL A   1      29.478  26.653  24.186  1.00  0.00    -0.006 C 
ATOM     84  C   UNL A   1      30.245  25.389  24.277  1.00  0.00     0.106 C 
BRANCH  84  85
ATOM     85  N   UNL A   1      30.379  24.840  25.629  1.00  0.00    -0.346 N 
ATOM     86  C   UNL A   1      31.211  23.949  26.261  1.00  0.00     0.251 C 
ATOM     87  H   UNL A   1      29.697  25.201  26.240  1.00  0.00     0.164 HD
ATOM     88  O   UNL A   1      30.826  23.413  27.300  1.00  0.00    -0.269 OA
BRANCH  86  89
ATOM     89  C   UNL A   1      32.541  23.583  25.735  1.00  0.00     0.039 A 
ATOM     90  C   UNL A   1      33.698  24.223  26.179  1.00  0.00     0.015 A 
ATOM     91  C   UNL A   1      32.646  22.516  24.837  1.00  0.00     0.015 A 
ATOM     92  C   UNL A   1      34.931  23.916  25.596  1.00  0.00     0.016 A 
ATOM     93  C   UNL A   1      33.872  22.210  24.246  1.00  0.00     0.016 A 
ATOM     94  C   UNL A   1      35.006  22.933  24.609  1.00  0.00     0.018 A 
ATOM     95  Br  UNL A   1      36.656  22.571  23.764  1.00  0.00    -0.051 Br
ENDBRANCH  86  89
ENDBRANCH  84  85
ENDBRANCH  77  80
ENDBRANCH  75  76
ENDBRANCH  74  75
ENDBRANCH  73  74
ENDBRANCH   1  73
TORSDOF 15
ENDMDL
MODEL 2
REMARK VINA RESULT:     -12.3      0.472      7.367
REMARK SMILES O=C(NCCCCCCNC(=O)[C@@H]1C=C[C@H](NC(=O)c2ccc(Br)cc2)C1)c1ccc(-c2c3nc(c(-c4c(F)c(F)c(F)c(F)c4F)c4ccc([nH]4)c(-c4c(F)c(F)c(F)c(F)c4F)c4nc(c(-c5c(F)c(F)c(F)c(F)c5F)c5ccc2[nH]5)C=C4)C=C3)cc1
REMARK SMILES IDX 6 1 5 2 4 3 3 4 1 5 2 6 28 8 29 9 90 10 30 11 89 12 31 13
REMARK SMILES IDX 32 14 33 15 83 16 34 17 88 18 82 19 84 20 35 21 87 22 81 23
REMARK SMILES IDX 80 24 36 26 68 27 48 28 67 29 49 30 52 31 66 32 85 33 50 34
REMARK SMILES IDX 51 35 65 37 86 38 53 39 37 40 38 41 46 42 39 43 40 44 44 45
REMARK SMILES IDX 47 46 41 47 42 48 45 49 43 50 69 51 70 52 78 53 71 54 72 55
REMARK SMILES IDX 76 56 79 57 73 58 74 59 77 60 75 61 54 62 55 63 63 64 56 65
REMARK SMILES IDX 57 66 61 67 64 68 58 69 59 70 62 71 60 72 7 73 8 74 9 75
REMARK SMILES IDX 10 76 11 77 12 79 13 80 14 81 27 82 15 83 16 84 17 85 18 86
REMARK SMILES IDX 19 88 20 89 21 90 26 91 22 92 25 93 23 94 24 95
REMARK H PARENT 3 7 84 25 52 36 10 78 17 87
REMARK Flexibility Score: inf
ROOT
ATOM      1  C   UNL A   1      31.410  30.831  25.996  1.00  0.00     0.002 C 
ENDROOT
BRANCH   1   2
ATOM      2  C   UNL A   1      31.328  32.275  26.501  1.00  0.00     0.021 C 
BRANCH   2   3
ATOM      3  C   UNL A   1      32.611  32.832  27.104  1.00  0.00     0.116 C 
BRANCH   3   4
ATOM      4  N   UNL A   1      32.438  34.176  27.627  1.00  0.00    -0.352 N 
ATOM      5  O   UNL A   1      32.645  35.897  29.062  1.00  0.00    -0.269 OA
ATOM      6  C   UNL A   1      33.057  34.799  28.676  1.00  0.00     0.251 C 
ATOM      7  H   UNL A   1      31.770  34.724  27.154  1.00  0.00     0.163 HD
BRANCH   6   8
ATOM      8  C   UNL A   1      34.210  34.176  29.365  1.00  0.00     0.039 A 
ATOM      9  C   UNL A   1      34.029  33.269  30.412  1.00  0.00     0.014 A 
ATOM     10  C   UNL A   1      35.500  34.454  28.900  1.00  0.00     0.014 A 
ATOM     11  C   UNL A   1      35.136  32.716  31.053  1.00  0.00     0.010 A 
ATOM     12  C   UNL A   1      36.607  33.847  29.499  1.00  0.00     0.010 A 
ATOM     13  C   UNL A   1      36.434  32.982  30.589  1.00  0.00    -0.014 A 
BRANCH  13  14
ATOM     14  C   UNL A   1      37.589  32.280  31.203  1.00  0.00     0.031 A 
ATOM     15  C   UNL A   1      38.058  32.618  32.587  1.00  0.00     0.074 A 
ATOM     16  C   UNL A   1      38.212  31.322  30.490  1.00  0.00     0.049 A 
ATOM     17  N   UNL A   1      39.046  32.097  33.272  1.00  0.00    -0.248 NA
ATOM     18  C   UNL A   1      37.332  33.682  33.294  1.00  0.00     0.031 C 
ATOM     19  C   UNL A   1      37.857  30.926  29.126  1.00  0.00     0.029 A 
ATOM     20  N   UNL A   1      39.262  30.502  30.813  1.00  0.00    -0.354 N 
ATOM     21  C   UNL A   1      39.070  32.777  34.482  1.00  0.00     0.074 A 
ATOM     22  C   UNL A   1      38.013  33.765  34.430  1.00  0.00     0.031 C 
ATOM     23  C   UNL A   1      38.650  29.913  28.742  1.00  0.00     0.029 A 
ATOM     24  C   UNL A   1      39.598  29.624  29.812  1.00  0.00     0.049 A 
ATOM     25  H   UNL A   1      39.730  30.538  31.678  1.00  0.00     0.167 HD
ATOM     26  C   UNL A   1      39.894  32.584  35.541  1.00  0.00     0.037 A 
ATOM     27  C   UNL A   1      40.570  28.694  29.757  1.00  0.00     0.037 A 
ATOM     28  C   UNL A   1      40.934  31.588  35.591  1.00  0.00     0.049 A 
ATOM     29  C   UNL A   1      41.473  28.510  30.941  1.00  0.00     0.074 A 
ATOM     30  C   UNL A   1      41.795  31.292  36.634  1.00  0.00     0.029 A 
ATOM     31  N   UNL A   1      41.255  30.728  34.553  1.00  0.00    -0.354 N 
ATOM     32  N   UNL A   1      41.461  29.133  32.094  1.00  0.00    -0.248 NA
ATOM     33  C   UNL A   1      42.527  27.495  30.816  1.00  0.00     0.031 C 
ATOM     34  C   UNL A   1      42.662  30.278  36.213  1.00  0.00     0.029 A 
ATOM     35  C   UNL A   1      42.315  29.913  34.922  1.00  0.00     0.049 A 
ATOM     36  H   UNL A   1      40.798  30.699  33.681  1.00  0.00     0.167 HD
ATOM     37  C   UNL A   1      42.494  28.582  32.836  1.00  0.00     0.074 A 
ATOM     38  C   UNL A   1      43.099  27.556  32.011  1.00  0.00     0.031 C 
ATOM     39  C   UNL A   1      42.906  28.900  34.087  1.00  0.00     0.037 A 
BRANCH  26  40
ATOM     40  C   UNL A   1      39.714  33.476  36.733  1.00  0.00     0.064 A 
ATOM     41  C   UNL A   1      40.379  34.706  36.838  1.00  0.00     0.173 A 
ATOM     42  C   UNL A   1      38.825  33.120  37.759  1.00  0.00     0.173 A 
ATOM     43  F   UNL A   1      41.244  35.089  35.887  1.00  0.00    -0.203 F 
ATOM     44  C   UNL A   1      40.175  35.539  37.936  1.00  0.00     0.198 A 
ATOM     45  C   UNL A   1      38.607  33.966  38.844  1.00  0.00     0.198 A 
ATOM     46  F   UNL A   1      38.158  31.957  37.704  1.00  0.00    -0.203 F 
ATOM     47  F   UNL A   1      40.847  36.695  38.031  1.00  0.00    -0.200 F 
ATOM     48  C   UNL A   1      39.285  35.172  38.934  1.00  0.00     0.200 A 
ATOM     49  F   UNL A   1      37.737  33.615  39.801  1.00  0.00    -0.200 F 
ATOM     50  F   UNL A   1      39.083  35.979  39.985  1.00  0.00    -0.200 F 
ENDBRANCH  26  40
BRANCH  27  51
ATOM     51  C   UNL A   1      40.725  27.866  28.534  1.00  0.00     0.064 A 
ATOM     52  C   UNL A   1      40.065  26.637  28.411  1.00  0.00     0.173 A 
ATOM     53  C   UNL A   1      41.515  28.298  27.460  1.00  0.00     0.173 A 
ATOM     54  F   UNL A   1      39.314  26.174  29.420  1.00  0.00    -0.203 F 
ATOM     55  C   UNL A   1      40.200  25.864  27.259  1.00  0.00     0.198 A 
ATOM     56  C   UNL A   1      41.626  27.538  26.298  1.00  0.00     0.198 A 
ATOM     57  F   UNL A   1      42.161  29.471  27.530  1.00  0.00    -0.203 F 
ATOM     58  F   UNL A   1      39.586  24.675  27.177  1.00  0.00    -0.200 F 
ATOM     59  C   UNL A   1      40.973  26.317  26.201  1.00  0.00     0.200 A 
ATOM     60  F   UNL A   1      42.362  27.987  25.273  1.00  0.00    -0.200 F 
ATOM     61  F   UNL A   1      41.092  25.579  25.090  1.00  0.00    -0.200 F 
ENDBRANCH  27  51
BRANCH  39  62
ATOM     62  C   UNL A   1      44.057  28.116  34.642  1.00  0.00     0.064 A 
ATOM     63  C   UNL A   1      45.380  28.562  34.503  1.00  0.00     0.173 A 
ATOM     64  C   UNL A   1      43.834  26.919  35.338  1.00  0.00     0.173 A 
ATOM     65  F   UNL A   1      45.644  29.692  33.829  1.00  0.00    -0.203 F 
ATOM     66  C   UNL A   1      46.441  27.825  35.024  1.00  0.00     0.198 A 
ATOM     67  C   UNL A   1      44.895  26.197  35.878  1.00  0.00     0.198 A 
ATOM     68  F   UNL A   1      42.586  26.453  35.498  1.00  0.00    -0.203 F 
ATOM     69  F   UNL A   1      47.699  28.247  34.841  1.00  0.00    -0.200 F 
ATOM     70  C   UNL A   1      46.197  26.647  35.715  1.00  0.00     0.200 A 
ATOM     71  F   UNL A   1      44.658  25.065  36.552  1.00  0.00    -0.200 F 
ATOM     72  F   UNL A   1      47.218  25.940  36.215  1.00  0.00    -0.200 F 
ENDBRANCH  39  62
ENDBRANCH  13  14
ENDBRANCH   6   8
ENDBRANCH   3   4
ENDBRANCH   2   3
ENDBRANCH   1   2
BRANCH   1  73
ATOM     73  C   UNL A   1      32.072  29.816  26.941  1.00  0.00     0.002 C 
BRANCH  73  74
ATOM     74  C   UNL A   1      31.775  28.336  26.665  1.00  0.00     0.021 C 
BRANCH  74  75
ATOM     75  C   UNL A   1      32.921  27.583  26.002  1.00  0.00     0.116 C 
BRANCH  75  76
ATOM     76  N   UNL A   1      33.350  28.146  24.749  1.00  0.00    -0.356 N 
ATOM     77  C   UNL A   1      32.681  28.250  23.573  1.00  0.00     0.227 C 
ATOM     78  H   UNL A   1      34.264  28.511  24.744  1.00  0.00     0.163 HD
ATOM     79  O   UNL A   1      33.025  29.188  22.839  1.00  0.00    -0.274 OA
BRANCH  77  80
ATOM     80  C   UNL A   1      31.583  27.289  23.091  1.00  0.00     0.103 C 
ATOM     81  C   UNL A   1      30.204  27.715  23.495  1.00  0.00    -0.016 C 
ATOM     82  C   UNL A   1      31.587  25.782  23.377  1.00  0.00     0.047 C 
ATOM     83  C   UNL A   1      29.493  26.706  24.009  1.00  0.00    -0.006 C 
ATOM     84  C   UNL A   1      30.283  25.461  24.144  1.00  0.00     0.106 C 
BRANCH  84  85
ATOM     85  N   UNL A   1      30.479  24.995  25.519  1.00  0.00    -0.346 N 
ATOM     86  C   UNL A   1      31.336  24.138  26.164  1.00  0.00     0.251 C 
ATOM     87  H   UNL A   1      29.831  25.400  26.138  1.00  0.00     0.164 HD
ATOM     88  O   UNL A   1      30.999  23.671  27.252  1.00  0.00    -0.269 OA
BRANCH  86  89
ATOM     89  C   UNL A   1      32.637  23.728  25.599  1.00  0.00     0.039 A 
ATOM     90  C   UNL A   1      33.826  24.340  25.996  1.00  0.00     0.015 A 
ATOM     91  C   UNL A   1      32.681  22.649  24.711  1.00  0.00     0.015 A 
ATOM     92  C   UNL A   1      35.029  23.992  25.375  1.00  0.00     0.016 A 
ATOM     93  C   UNL A   1      33.878  22.301  24.083  1.00  0.00     0.016 A 
ATOM     94  C   UNL A   1      35.043  22.996  24.398  1.00  0.00     0.018 A 
ATOM     95  Br  UNL A   1      36.653  22.577  23.503  1.00  0.00    -0.051 Br
ENDBRANCH  86  89
ENDBRANCH  84  85
ENDBRANCH  77  80
ENDBRANCH  75  76
ENDBRANCH  74  75
ENDBRANCH  73  74
ENDBRANCH   1  73
TORSDOF 15
ENDMDL
MODEL 3
REMARK VINA RESULT:     -12.2      1.320      2.238
REMARK SMILES O=C(NCCCCCCNC(=O)[C@@H]1C=C[C@H](NC(=O)c2ccc(Br)cc2)C1)c1ccc(-c2c3nc(c(-c4c(F)c(F)c(F)c(F)c4F)c4ccc([nH]4)c(-c4c(F)c(F)c(F)c(F)c4F)c4nc(c(-c5c(F)c(F)c(F)c(F)c5F)c5ccc2[nH]5)C=C4)C=C3)cc1
REMARK SMILES IDX 6 1 5 2 4 3 3 4 1 5 2 6 28 8 29 9 90 10 30 11 89 12 31 13
REMARK SMILES IDX 32 14 33 15 83 16 34 17 88 18 82 19 84 20 35 21 87 22 81 23
REMARK SMILES IDX 80 24 36 26 68 27 48 28 67 29 49 30 52 31 66 32 85 33 50 34
REMARK SMILES IDX 51 35 65 37 86 38 53 39 37 40 38 41 46 42 39 43 40 44 44 45
REMARK SMILES IDX 47 46 41 47 42 48 45 49 43 50 69 51 70 52 78 53 71 54 72 55
REMARK SMILES IDX 76 56 79 57 73 58 74 59 77 60 75 61 54 62 55 63 63 64 56 65
REMARK SMILES IDX 57 66 61 67 64 68 58 69 59 70 62 71 60 72 7 73 8 74 9 75
REMARK SMILES IDX 10 76 11 77 12 79 13 80 14 81 27 82 15 83 16 84 17 85 18 86
REMARK SMILES IDX 19 88 20 89 21 90 26 91 22 92 25 93 23 94 24 95
REMARK H PARENT 3 7 84 25 52 36 10 78 17 87
REMARK Flexibility Score: inf
ROOT
ATOM      1  C   UNL A   1      31.341  30.858  26.021  1.00  0.00     0.002 C 
ENDROOT
BRANCH   1   2
ATOM      2  C   UNL A   1      31.262  32.305  26.516  1.00  0.00     0.021 C 
BRANCH   2   3
ATOM      3  C   UNL A   1      32.528  32.843  27.173  1.00  0.00     0.116 C 
BRANCH   3   4
ATOM      4  N   UNL A   1      32.382  34.221  27.609  1.00  0.00    -0.352 N 
ATOM      5  O   UNL A   1      32.628  36.026  28.929  1.00  0.00    -0.269 OA
ATOM      6  C   UNL A   1      33.018  34.898  28.614  1.00  0.00     0.251 C 
ATOM      7  H   UNL A   1      31.722  34.749  27.104  1.00  0.00     0.163 HD
BRANCH   6   8
ATOM      8  C   UNL A   1      34.162  34.299  29.336  1.00  0.00     0.039 A 
ATOM      9  C   UNL A   1      33.971  33.481  30.453  1.00  0.00     0.014 A 
ATOM     10  C   UNL A   1      35.454  34.505  28.839  1.00  0.00     0.014 A 
ATOM     11  C   UNL A   1      35.070  32.949  31.123  1.00  0.00     0.010 A 
ATOM     12  C   UNL A   1      36.551  33.916  29.472  1.00  0.00     0.010 A 
ATOM     13  C   UNL A   1      36.369  33.143  30.627  1.00  0.00    -0.014 A 
BRANCH  13  14
ATOM     14  C   UNL A   1      37.513  32.460  31.281  1.00  0.00     0.031 A 
ATOM     15  C   UNL A   1      38.259  31.358  30.590  1.00  0.00     0.074 A 
ATOM     16  C   UNL A   1      37.876  32.854  32.517  1.00  0.00     0.049 A 
ATOM     17  N   UNL A   1      39.284  30.662  31.018  1.00  0.00    -0.248 NA
ATOM     18  C   UNL A   1      37.794  30.979  29.248  1.00  0.00     0.031 C 
ATOM     19  C   UNL A   1      37.209  33.901  33.294  1.00  0.00     0.029 A 
ATOM     20  N   UNL A   1      38.898  32.435  33.330  1.00  0.00    -0.354 N 
ATOM     21  C   UNL A   1      39.577  29.756  30.008  1.00  0.00     0.074 A 
ATOM     22  C   UNL A   1      38.608  29.973  28.954  1.00  0.00     0.031 C 
ATOM     23  C   UNL A   1      37.860  34.068  34.455  1.00  0.00     0.029 A 
ATOM     24  C   UNL A   1      38.957  33.109  34.525  1.00  0.00     0.049 A 
ATOM     25  H   UNL A   1      39.527  31.720  33.082  1.00  0.00     0.167 HD
ATOM     26  C   UNL A   1      40.571  28.837  29.963  1.00  0.00     0.037 A 
ATOM     27  C   UNL A   1      39.797  32.965  35.566  1.00  0.00     0.037 A 
ATOM     28  C   UNL A   1      41.542  28.637  31.009  1.00  0.00     0.049 A 
ATOM     29  C   UNL A   1      40.882  31.931  35.492  1.00  0.00     0.074 A 
ATOM     30  C   UNL A   1      42.609  27.755  31.039  1.00  0.00     0.029 A 
ATOM     31  N   UNL A   1      41.561  29.327  32.211  1.00  0.00    -0.354 N 
ATOM     32  N   UNL A   1      41.173  31.107  34.516  1.00  0.00    -0.248 NA
ATOM     33  C   UNL A   1      41.756  31.806  36.666  1.00  0.00     0.031 C 
ATOM     34  C   UNL A   1      43.252  27.886  32.275  1.00  0.00     0.029 A 
ATOM     35  C   UNL A   1      42.611  28.878  32.999  1.00  0.00     0.049 A 
ATOM     36  H   UNL A   1      40.925  30.033  32.468  1.00  0.00     0.167 HD
ATOM     37  C   UNL A   1      42.265  30.372  34.949  1.00  0.00     0.074 A 
ATOM     38  C   UNL A   1      42.602  30.865  36.270  1.00  0.00     0.031 C 
ATOM     39  C   UNL A   1      42.928  29.377  34.312  1.00  0.00     0.037 A 
BRANCH  26  40
ATOM     40  C   UNL A   1      40.657  27.964  28.746  1.00  0.00     0.064 A 
ATOM     41  C   UNL A   1      39.938  26.763  28.651  1.00  0.00     0.173 A 
ATOM     42  C   UNL A   1      41.426  28.359  27.641  1.00  0.00     0.173 A 
ATOM     43  F   UNL A   1      39.194  26.338  29.683  1.00  0.00    -0.203 F 
ATOM     44  C   UNL A   1      40.002  25.980  27.500  1.00  0.00     0.198 A 
ATOM     45  C   UNL A   1      41.469  27.584  26.484  1.00  0.00     0.198 A 
ATOM     46  F   UNL A   1      42.127  29.502  27.678  1.00  0.00    -0.203 F 
ATOM     47  F   UNL A   1      39.332  24.820  27.444  1.00  0.00    -0.200 F 
ATOM     48  C   UNL A   1      40.761  26.394  26.416  1.00  0.00     0.200 A 
ATOM     49  F   UNL A   1      42.193  27.992  25.432  1.00  0.00    -0.200 F 
ATOM     50  F   UNL A   1      40.813  25.644  25.306  1.00  0.00    -0.200 F 
ENDBRANCH  26  40
BRANCH  27  51
ATOM     51  C   UNL A   1      39.640  33.832  36.761  1.00  0.00     0.064 A 
ATOM     52  C   UNL A   1      40.258  35.088  36.824  1.00  0.00     0.173 A 
ATOM     53  C   UNL A   1      38.853  33.433  37.850  1.00  0.00     0.173 A 
ATOM     54  F   UNL A   1      41.036  35.503  35.815  1.00  0.00    -0.203 F 
ATOM     55  C   UNL A   1      40.102  35.908  37.939  1.00  0.00     0.198 A 
ATOM     56  C   UNL A   1      38.675  34.266  38.953  1.00  0.00     0.198 A 
ATOM     57  F   UNL A   1      38.237  32.242  37.833  1.00  0.00    -0.203 F 
ATOM     58  F   UNL A   1      40.730  37.091  37.991  1.00  0.00    -0.200 F 
ATOM     59  C   UNL A   1      39.305  35.501  38.999  1.00  0.00     0.200 A 
ATOM     60  F   UNL A   1      37.892  33.874  39.967  1.00  0.00    -0.200 F 
ATOM     61  F   UNL A   1      39.146  36.296  40.066  1.00  0.00    -0.200 F 
ENDBRANCH  27  51
BRANCH  39  62
ATOM     62  C   UNL A   1      44.094  28.768  35.032  1.00  0.00     0.064 A 
ATOM     63  C   UNL A   1      45.387  29.296  34.907  1.00  0.00     0.173 A 
ATOM     64  C   UNL A   1      43.912  27.659  35.871  1.00  0.00     0.173 A 
ATOM     65  F   UNL A   1      45.613  30.345  34.101  1.00  0.00    -0.203 F 
ATOM     66  C   UNL A   1      46.462  28.722  35.581  1.00  0.00     0.198 A 
ATOM     67  C   UNL A   1      44.983  27.102  36.563  1.00  0.00     0.198 A 
ATOM     68  F   UNL A   1      42.693  27.120  36.024  1.00  0.00    -0.203 F 
ATOM     69  F   UNL A   1      47.696  29.215  35.413  1.00  0.00    -0.200 F 
ATOM     70  C   UNL A   1      46.258  27.630  36.413  1.00  0.00     0.200 A 
ATOM     71  F   UNL A   1      44.785  26.054  37.371  1.00  0.00    -0.200 F 
ATOM     72  F   UNL A   1      47.292  27.079  37.061  1.00  0.00    -0.200 F 
ENDBRANCH  39  62
ENDBRANCH  13  14
ENDBRANCH   6   8
ENDBRANCH   3   4
ENDBRANCH   2   3
ENDBRANCH   1   2
BRANCH   1  73
ATOM     73  C   UNL A   1      32.279  29.922  26.799  1.00  0.00     0.002 C 
BRANCH  73  74
ATOM     74  C   UNL A   1      31.689  28.574  27.233  1.00  0.00     0.021 C 
BRANCH  74  75
ATOM     75  C   UNL A   1      32.468  27.363  26.733  1.00  0.00     0.116 C 
BRANCH  75  76
ATOM     76  N   UNL A   1      31.678  26.169  26.596  1.00  0.00    -0.356 N 
ATOM     77  C   UNL A   1      32.041  24.870  26.739  1.00  0.00     0.227 C 
ATOM     78  H   UNL A   1      30.732  26.316  26.364  1.00  0.00     0.163 HD
ATOM     79  O   UNL A   1      31.138  24.093  27.081  1.00  0.00    -0.274 OA
BRANCH  77  80
ATOM     80  C   UNL A   1      33.448  24.310  26.478  1.00  0.00     0.103 C 
ATOM     81  C   UNL A   1      34.207  25.076  25.437  1.00  0.00    -0.016 C 
ATOM     82  C   UNL A   1      33.726  22.845  26.113  1.00  0.00     0.047 C 
ATOM     83  C   UNL A   1      34.789  24.272  24.540  1.00  0.00    -0.006 C 
ATOM     84  C   UNL A   1      34.447  22.846  24.745  1.00  0.00     0.106 C 
BRANCH  84  85
ATOM     85  N   UNL A   1      33.691  22.225  23.654  1.00  0.00    -0.346 N 
ATOM     86  C   UNL A   1      32.536  22.499  22.964  1.00  0.00     0.251 C 
ATOM     87  H   UNL A   1      34.122  21.400  23.335  1.00  0.00     0.164 HD
ATOM     88  O   UNL A   1      31.971  21.584  22.367  1.00  0.00    -0.269 OA
BRANCH  86  89
ATOM     89  C   UNL A   1      31.924  23.842  22.927  1.00  0.00     0.039 A 
ATOM     90  C   UNL A   1      32.500  24.883  22.198  1.00  0.00     0.015 A 
ATOM     91  C   UNL A   1      30.698  24.048  23.569  1.00  0.00     0.015 A 
ATOM     92  C   UNL A   1      31.945  26.165  22.258  1.00  0.00     0.016 A 
ATOM     93  C   UNL A   1      30.144  25.326  23.638  1.00  0.00     0.016 A 
ATOM     94  C   UNL A   1      30.788  26.386  23.004  1.00  0.00     0.018 A 
ATOM     95  Br  UNL A   1      30.080  28.132  23.150  1.00  0.00    -0.051 Br
ENDBRANCH  86  89
ENDBRANCH  84  85
ENDBRANCH  77  80
ENDBRANCH  75  76
ENDBRANCH  74  75
ENDBRANCH  73  74
ENDBRANCH   1  73
TORSDOF 15
ENDMDL
