MODEL 1
REMARK VINA RESULT:     -13.3      0.000      0.000
REMARK SMILES O=C(CNC(=O)[C@@H](CC1=c2ccccc2=NC1)N1C(=O)N=C2C=CC=C[C@H]2C1=O)NCCCCCCNC(=O)c1ccc(-c2c3nc(c(-c4c(F)c(F)c(F)c(F)c4F)c4ccc([nH]4)c(-c4c(F)c(F)c(F)c(F)c4F)c4nc(c(-c5c(F)c(F)c(F)c(F)c5F)c5ccc2[nH]5)C=C4)C=C3)cc1
REMARK SMILES IDX 32 1 31 2 30 3 1 4 2 5 3 7 4 8 5 9 6 11 7 12 8 13 9 14 10 15
REMARK SMILES IDX 17 16 11 17 15 18 16 19 12 20 14 21 13 22 18 23 19 24 28 25
REMARK SMILES IDX 21 26 20 27 27 28 29 29 22 30 26 31 23 32 25 33 24 34 33 35
REMARK SMILES IDX 34 36 35 37 36 38 37 39 38 40 39 42 40 43 41 44 102 45 42 46
REMARK SMILES IDX 101 47 43 48 44 49 45 50 95 51 46 52 100 53 94 54 96 55
REMARK SMILES IDX 47 56 99 57 93 58 92 59 48 61 80 62 60 63 79 64 61 65 64 66
REMARK SMILES IDX 78 67 97 68 62 69 63 70 77 72 98 73 65 74 49 75 50 76 58 77
REMARK SMILES IDX 51 78 52 79 56 80 59 81 53 82 54 83 57 84 55 85 81 86 82 87
REMARK SMILES IDX 90 88 83 89 84 90 88 91 91 92 85 93 86 94 89 95 87 96 66 97
REMARK SMILES IDX 67 98 75 99 68 100 69 101 73 102 76 103 70 104 71 105 74 106
REMARK SMILES IDX 72 107
REMARK H PARENT 30 6 4 10 37 41 96 60 64 71
REMARK Flexibility Score: inf
ROOT
ATOM      1  C   UNL A   1      35.163  30.381  27.829  1.00  0.00     0.021 C 
ENDROOT
BRANCH   1   2
ATOM      2  C   UNL A   1      34.261  29.291  27.245  1.00  0.00     0.116 C 
BRANCH   2   3
ATOM      3  N   UNL A   1      34.406  29.231  25.792  1.00  0.00    -0.355 N 
ATOM      4  O   UNL A   1      32.368  29.754  25.645  1.00  0.00    -0.273 OA
ATOM      5  C   UNL A   1      33.283  29.380  24.841  1.00  0.00     0.239 C 
ATOM      6  H   UNL A   1      35.307  29.084  25.424  1.00  0.00     0.163 HD
BRANCH   5   7
ATOM      7  C   UNL A   1      33.115  28.839  22.723  1.00  0.00     0.216 C 
BRANCH   7   8
ATOM      8  N   UNL A   1      33.256  27.512  21.819  1.00  0.00    -0.345 N 
ATOM      9  C   UNL A   1      32.964  26.201  21.882  1.00  0.00     0.244 C 
ATOM     10  H   UNL A   1      33.686  27.727  20.960  1.00  0.00     0.164 HD
ATOM     11  O   UNL A   1      33.185  25.608  20.808  1.00  0.00    -0.273 OA
BRANCH   9  12
ATOM     12  C   UNL A   1      32.475  25.346  23.081  1.00  0.00     0.188 C 
BRANCH  12  13
ATOM     13  C   UNL A   1      31.154  24.592  23.323  1.00  0.00     0.069 C 
BRANCH  13  14
ATOM     14  C   UNL A   1      30.931  24.034  24.670  1.00  0.00    -0.037 C 
ATOM     15  C   UNL A   1      31.297  22.819  25.043  1.00  0.00     0.001 A 
ATOM     16  C   UNL A   1      30.570  24.937  25.860  1.00  0.00     0.174 C 
ATOM     17  C   UNL A   1      32.115  21.266  24.369  1.00  0.00     0.010 A 
ATOM     18  C   UNL A   1      31.711  23.324  26.851  1.00  0.00     0.065 A 
ATOM     19  N   UNL A   1      31.226  24.482  27.147  1.00  0.00    -0.280 NA
ATOM     20  C   UNL A   1      33.047  20.377  25.291  1.00  0.00     0.001 A 
ATOM     21  C   UNL A   1      33.022  22.182  27.727  1.00  0.00     0.028 A 
ATOM     22  C   UNL A   1      33.498  20.841  27.043  1.00  0.00     0.002 A 
ENDBRANCH  13  14
ENDBRANCH  12  13
BRANCH  12  23
ATOM     23  N   UNL A   1      33.692  24.626  23.517  1.00  0.00    -0.249 N 
ATOM     24  C   UNL A   1      34.084  23.556  22.729  1.00  0.00     0.351 C 
ATOM     25  C   UNL A   1      34.386  25.031  24.645  1.00  0.00     0.244 C 
ATOM     26  N   UNL A   1      34.942  22.630  23.228  1.00  0.00    -0.197 NA
ATOM     27  O   UNL A   1      33.729  23.480  21.555  1.00  0.00    -0.246 OA
ATOM     28  C   UNL A   1      35.300  23.982  25.279  1.00  0.00     0.151 C 
ATOM     29  O   UNL A   1      34.222  26.142  25.152  1.00  0.00    -0.273 OA
ATOM     30  C   UNL A   1      35.545  22.815  24.351  1.00  0.00     0.062 C 
ATOM     31  C   UNL A   1      36.638  24.485  25.782  1.00  0.00    -0.007 C 
ATOM     32  C   UNL A   1      36.609  21.843  24.684  1.00  0.00     0.025 C 
ATOM     33  C   UNL A   1      37.737  23.706  25.776  1.00  0.00    -0.003 C 
ATOM     34  C   UNL A   1      37.685  22.340  25.307  1.00  0.00     0.002 C 
ENDBRANCH  12  23
ENDBRANCH   9  12
ENDBRANCH   7   8
ENDBRANCH   5   7
ENDBRANCH   2   3
ENDBRANCH   1   2
BRANCH   1  35
ATOM     35  C   UNL A   1      34.423  31.560  28.485  1.00  0.00     0.002 C 
BRANCH  35  36
ATOM     36  C   UNL A   1      34.918  32.961  28.110  1.00  0.00     0.002 C 
BRANCH  36  37
ATOM     37  C   UNL A   1      33.837  34.034  28.042  1.00  0.00     0.021 C 
BRANCH  37  38
ATOM     38  C   UNL A   1      34.226  35.355  28.681  1.00  0.00     0.116 C 
BRANCH  38  39
ATOM     39  N   UNL A   1      33.196  35.873  29.570  1.00  0.00    -0.352 N 
ATOM     40  C   UNL A   1      33.041  35.652  30.919  1.00  0.00     0.251 C 
ATOM     41  H   UNL A   1      32.523  36.457  29.150  1.00  0.00     0.163 HD
ATOM     42  O   UNL A   1      32.031  36.022  31.507  1.00  0.00    -0.269 OA
BRANCH  40  43
ATOM     43  C   UNL A   1      34.097  34.914  31.644  1.00  0.00     0.039 A 
ATOM     44  C   UNL A   1      35.211  35.594  32.141  1.00  0.00     0.014 A 
ATOM     45  C   UNL A   1      34.014  33.524  31.747  1.00  0.00     0.014 A 
ATOM     46  C   UNL A   1      36.324  34.873  32.553  1.00  0.00     0.010 A 
ATOM     47  C   UNL A   1      35.096  32.807  32.265  1.00  0.00     0.010 A 
ATOM     48  C   UNL A   1      36.283  33.471  32.618  1.00  0.00    -0.014 A 
BRANCH  48  49
ATOM     49  C   UNL A   1      37.492  32.724  33.052  1.00  0.00     0.031 A 
ATOM     50  C   UNL A   1      38.113  31.674  32.167  1.00  0.00     0.074 A 
ATOM     51  C   UNL A   1      38.068  33.035  34.229  1.00  0.00     0.049 A 
ATOM     52  N   UNL A   1      39.162  30.921  32.390  1.00  0.00    -0.248 NA
ATOM     53  C   UNL A   1      37.474  31.434  30.863  1.00  0.00     0.031 C 
ATOM     54  C   UNL A   1      37.573  34.049  35.163  1.00  0.00     0.029 A 
ATOM     55  N   UNL A   1      39.202  32.555  34.833  1.00  0.00    -0.354 N 
ATOM     56  C   UNL A   1      39.297  30.111  31.270  1.00  0.00     0.074 A 
ATOM     57  C   UNL A   1      38.205  30.436  30.380  1.00  0.00     0.031 C 
ATOM     58  C   UNL A   1      38.427  34.155  36.190  1.00  0.00     0.029 A 
ATOM     59  C   UNL A   1      39.486  33.164  36.030  1.00  0.00     0.049 A 
ATOM     60  H   UNL A   1      39.759  31.841  34.445  1.00  0.00     0.167 HD
ATOM     61  C   UNL A   1      40.255  29.191  31.004  1.00  0.00     0.037 A 
ATOM     62  C   UNL A   1      40.474  32.939  36.914  1.00  0.00     0.037 A 
ATOM     63  C   UNL A   1      41.355  28.887  31.883  1.00  0.00     0.049 A 
ATOM     64  C   UNL A   1      41.487  31.869  36.621  1.00  0.00     0.074 A 
ATOM     65  C   UNL A   1      42.386  27.984  31.692  1.00  0.00     0.029 A 
ATOM     66  N   UNL A   1      41.571  29.483  33.118  1.00  0.00    -0.354 N 
ATOM     67  N   UNL A   1      41.603  31.111  35.559  1.00  0.00    -0.248 NA
ATOM     68  C   UNL A   1      42.499  31.614  37.655  1.00  0.00     0.031 C 
ATOM     69  C   UNL A   1      43.195  27.995  32.832  1.00  0.00     0.029 A 
ATOM     70  C   UNL A   1      42.703  28.947  33.710  1.00  0.00     0.049 A 
ATOM     71  H   UNL A   1      41.003  30.183  33.514  1.00  0.00     0.167 HD
ATOM     72  C   UNL A   1      42.707  30.302  35.787  1.00  0.00     0.074 A 
ATOM     73  C   UNL A   1      43.239  30.677  37.080  1.00  0.00     0.031 C 
ATOM     74  C   UNL A   1      43.225  29.331  34.997  1.00  0.00     0.037 A 
BRANCH  61  75
ATOM     75  C   UNL A   1      40.168  28.432  29.710  1.00  0.00     0.064 A 
ATOM     76  C   UNL A   1      40.800  28.888  28.545  1.00  0.00     0.173 A 
ATOM     77  C   UNL A   1      39.514  27.190  29.657  1.00  0.00     0.173 A 
ATOM     78  F   UNL A   1      41.429  30.072  28.538  1.00  0.00    -0.203 F 
ATOM     79  C   UNL A   1      40.771  28.138  27.372  1.00  0.00     0.198 A 
ATOM     80  C   UNL A   1      39.513  26.428  28.491  1.00  0.00     0.198 A 
ATOM     81  F   UNL A   1      38.900  26.702  30.745  1.00  0.00    -0.203 F 
ATOM     82  F   UNL A   1      41.356  28.609  26.262  1.00  0.00    -0.200 F 
ATOM     83  C   UNL A   1      40.138  26.904  27.349  1.00  0.00     0.200 A 
ATOM     84  F   UNL A   1      38.914  25.229  28.476  1.00  0.00    -0.200 F 
ATOM     85  F   UNL A   1      40.129  26.174  26.224  1.00  0.00    -0.200 F 
ENDBRANCH  61  75
BRANCH  62  86
ATOM     86  C   UNL A   1      40.545  33.749  38.158  1.00  0.00     0.064 A 
ATOM     87  C   UNL A   1      41.382  34.870  38.239  1.00  0.00     0.173 A 
ATOM     88  C   UNL A   1      39.755  33.442  39.276  1.00  0.00     0.173 A 
ATOM     89  F   UNL A   1      42.170  35.193  37.204  1.00  0.00    -0.203 F 
ATOM     90  C   UNL A   1      41.430  35.649  39.393  1.00  0.00     0.198 A 
ATOM     91  C   UNL A   1      39.779  34.239  40.417  1.00  0.00     0.198 A 
ATOM     92  F   UNL A   1      38.934  32.380  39.247  1.00  0.00    -0.203 F 
ATOM     93  F   UNL A   1      42.263  36.696  39.459  1.00  0.00    -0.200 F 
ATOM     94  C   UNL A   1      40.621  35.339  40.477  1.00  0.00     0.200 A 
ATOM     95  F   UNL A   1      38.981  33.947  41.453  1.00  0.00    -0.200 F 
ATOM     96  F   UNL A   1      40.655  36.099  41.581  1.00  0.00    -0.200 F 
ENDBRANCH  62  86
BRANCH  74  97
ATOM     97  C   UNL A   1      44.445  28.611  35.495  1.00  0.00     0.064 A 
ATOM     98  C   UNL A   1      44.343  27.427  36.239  1.00  0.00     0.173 A 
ATOM     99  C   UNL A   1      45.729  29.071  35.163  1.00  0.00     0.173 A 
ATOM    100  F   UNL A   1      43.138  26.954  36.594  1.00  0.00    -0.203 F 
ATOM    101  C   UNL A   1      45.482  26.738  36.646  1.00  0.00     0.198 A 
ATOM    102  C   UNL A   1      46.864  28.361  35.545  1.00  0.00     0.198 A 
ATOM    103  F   UNL A   1      45.881  30.194  34.445  1.00  0.00    -0.203 F 
ATOM    104  F   UNL A   1      45.361  25.629  37.389  1.00  0.00    -0.200 F 
ATOM    105  C   UNL A   1      46.740  27.199  36.290  1.00  0.00     0.200 A 
ATOM    106  F   UNL A   1      48.078  28.800  35.185  1.00  0.00    -0.200 F 
ATOM    107  F   UNL A   1      47.834  26.525  36.667  1.00  0.00    -0.200 F 
ENDBRANCH  74  97
ENDBRANCH  48  49
ENDBRANCH  40  43
ENDBRANCH  38  39
ENDBRANCH  37  38
ENDBRANCH  36  37
ENDBRANCH  35  36
ENDBRANCH   1  35
TORSDOF 18
ENDMDL
MODEL 2
REMARK VINA RESULT:     -13.2      1.549      2.953
REMARK SMILES O=C(CNC(=O)[C@@H](CC1=c2ccccc2=NC1)N1C(=O)N=C2C=CC=C[C@H]2C1=O)NCCCCCCNC(=O)c1ccc(-c2c3nc(c(-c4c(F)c(F)c(F)c(F)c4F)c4ccc([nH]4)c(-c4c(F)c(F)c(F)c(F)c4F)c4nc(c(-c5c(F)c(F)c(F)c(F)c5F)c5ccc2[nH]5)C=C4)C=C3)cc1
REMARK SMILES IDX 32 1 31 2 30 3 1 4 2 5 3 7 4 8 5 9 6 11 7 12 8 13 9 14 10 15
REMARK SMILES IDX 17 16 11 17 15 18 16 19 12 20 14 21 13 22 18 23 19 24 28 25
REMARK SMILES IDX 21 26 20 27 27 28 29 29 22 30 26 31 23 32 25 33 24 34 33 35
REMARK SMILES IDX 34 36 35 37 36 38 37 39 38 40 39 42 40 43 41 44 102 45 42 46
REMARK SMILES IDX 101 47 43 48 44 49 45 50 95 51 46 52 100 53 94 54 96 55
REMARK SMILES IDX 47 56 99 57 93 58 92 59 48 61 80 62 60 63 79 64 61 65 64 66
REMARK SMILES IDX 78 67 97 68 62 69 63 70 77 72 98 73 65 74 49 75 50 76 58 77
REMARK SMILES IDX 51 78 52 79 56 80 59 81 53 82 54 83 57 84 55 85 81 86 82 87
REMARK SMILES IDX 90 88 83 89 84 90 88 91 91 92 85 93 86 94 89 95 87 96 66 97
REMARK SMILES IDX 67 98 75 99 68 100 69 101 73 102 76 103 70 104 71 105 74 106
REMARK SMILES IDX 72 107
REMARK H PARENT 30 6 4 10 37 41 96 60 64 71
REMARK Flexibility Score: inf
ROOT
ATOM      1  C   UNL A   1      35.323  31.753  27.910  1.00  0.00     0.021 C 
ENDROOT
BRANCH   1   2
ATOM      2  C   UNL A   1      33.881  31.341  27.604  1.00  0.00     0.116 C 
BRANCH   2   3
ATOM      3  N   UNL A   1      33.857  30.119  26.804  1.00  0.00    -0.355 N 
ATOM      4  O   UNL A   1      31.793  29.985  27.213  1.00  0.00    -0.273 OA
ATOM      5  C   UNL A   1      32.672  29.245  26.662  1.00  0.00     0.239 C 
ATOM      6  H   UNL A   1      34.680  29.862  26.329  1.00  0.00     0.163 HD
BRANCH   5   7
ATOM      7  C   UNL A   1      32.493  27.167  25.987  1.00  0.00     0.216 C 
BRANCH   7   8
ATOM      8  N   UNL A   1      33.238  26.185  24.948  1.00  0.00    -0.345 N 
ATOM      9  C   UNL A   1      32.937  25.367  23.925  1.00  0.00     0.244 C 
ATOM     10  H   UNL A   1      34.209  26.186  25.113  1.00  0.00     0.164 HD
ATOM     11  O   UNL A   1      33.950  24.914  23.357  1.00  0.00    -0.273 OA
BRANCH   9  12
ATOM     12  C   UNL A   1      31.555  24.875  23.417  1.00  0.00     0.188 C 
BRANCH  12  13
ATOM     13  C   UNL A   1      30.621  23.761  23.926  1.00  0.00     0.069 C 
BRANCH  13  14
ATOM     14  C   UNL A   1      31.025  23.049  25.153  1.00  0.00    -0.037 C 
ATOM     15  C   UNL A   1      32.036  22.198  25.222  1.00  0.00     0.001 A 
ATOM     16  C   UNL A   1      30.529  23.497  26.537  1.00  0.00     0.174 C 
ATOM     17  C   UNL A   1      33.359  21.408  24.146  1.00  0.00     0.010 A 
ATOM     18  C   UNL A   1      32.525  22.677  27.019  1.00  0.00     0.065 A 
ATOM     19  N   UNL A   1      31.595  23.353  27.603  1.00  0.00    -0.280 NA
ATOM     20  C   UNL A   1      34.794  21.085  24.734  1.00  0.00     0.001 A 
ATOM     21  C   UNL A   1      34.393  22.353  27.459  1.00  0.00     0.028 A 
ATOM     22  C   UNL A   1      35.323  21.555  26.463  1.00  0.00     0.002 A 
ENDBRANCH  13  14
ENDBRANCH  12  13
BRANCH  12  23
ATOM     23  N   UNL A   1      30.871  26.120  23.000  1.00  0.00    -0.249 N 
ATOM     24  C   UNL A   1      31.352  26.725  21.850  1.00  0.00     0.351 C 
ATOM     25  C   UNL A   1      29.806  26.618  23.730  1.00  0.00     0.244 C 
ATOM     26  N   UNL A   1      31.050  28.023  21.595  1.00  0.00    -0.197 NA
ATOM     27  O   UNL A   1      31.979  26.076  21.016  1.00  0.00    -0.246 OA
ATOM     28  C   UNL A   1      29.492  28.100  23.526  1.00  0.00     0.151 C 
ATOM     29  O   UNL A   1      29.194  25.931  24.550  1.00  0.00    -0.273 OA
ATOM     30  C   UNL A   1      30.179  28.657  22.302  1.00  0.00     0.062 C 
ATOM     31  C   UNL A   1      28.023  28.465  23.461  1.00  0.00    -0.007 C 
ATOM     32  C   UNL A   1      29.781  29.990  21.798  1.00  0.00     0.025 C 
ATOM     33  C   UNL A   1      27.579  29.494  22.714  1.00  0.00    -0.003 C 
ATOM     34  C   UNL A   1      28.493  30.317  21.955  1.00  0.00     0.002 C 
ENDBRANCH  12  23
ENDBRANCH   9  12
ENDBRANCH   7   8
ENDBRANCH   5   7
ENDBRANCH   2   3
ENDBRANCH   1   2
BRANCH   1  35
ATOM     35  C   UNL A   1      35.502  32.633  29.159  1.00  0.00     0.002 C 
BRANCH  35  36
ATOM     36  C   UNL A   1      35.771  34.121  28.905  1.00  0.00     0.002 C 
BRANCH  36  37
ATOM     37  C   UNL A   1      34.535  35.013  28.908  1.00  0.00     0.021 C 
BRANCH  37  38
ATOM     38  C   UNL A   1      33.331  34.412  29.611  1.00  0.00     0.116 C 
BRANCH  38  39
ATOM     39  N   UNL A   1      32.643  35.370  30.464  1.00  0.00    -0.352 N 
ATOM     40  C   UNL A   1      32.861  35.639  31.795  1.00  0.00     0.251 C 
ATOM     41  H   UNL A   1      31.930  35.892  30.031  1.00  0.00     0.163 HD
ATOM     42  O   UNL A   1      32.094  36.358  32.427  1.00  0.00    -0.269 OA
BRANCH  40  43
ATOM     43  C   UNL A   1      34.014  35.006  32.468  1.00  0.00     0.039 A 
ATOM     44  C   UNL A   1      35.251  35.655  32.497  1.00  0.00     0.014 A 
ATOM     45  C   UNL A   1      33.880  33.719  32.995  1.00  0.00     0.014 A 
ATOM     46  C   UNL A   1      36.386  34.944  32.862  1.00  0.00     0.010 A 
ATOM     47  C   UNL A   1      35.011  33.046  33.464  1.00  0.00     0.010 A 
ATOM     48  C   UNL A   1      36.282  33.631  33.348  1.00  0.00    -0.014 A 
BRANCH  48  49
ATOM     49  C   UNL A   1      37.516  32.890  33.720  1.00  0.00     0.031 A 
ATOM     50  C   UNL A   1      38.123  31.876  32.785  1.00  0.00     0.074 A 
ATOM     51  C   UNL A   1      38.125  33.176  34.887  1.00  0.00     0.049 A 
ATOM     52  N   UNL A   1      39.189  31.132  32.952  1.00  0.00    -0.248 NA
ATOM     53  C   UNL A   1      37.445  31.663  31.496  1.00  0.00     0.031 C 
ATOM     54  C   UNL A   1      37.646  34.154  35.867  1.00  0.00     0.029 A 
ATOM     55  N   UNL A   1      39.285  32.695  35.440  1.00  0.00    -0.354 N 
ATOM     56  C   UNL A   1      39.299  30.357  31.805  1.00  0.00     0.074 A 
ATOM     57  C   UNL A   1      38.174  30.692  30.961  1.00  0.00     0.031 C 
ATOM     58  C   UNL A   1      38.532  34.243  36.868  1.00  0.00     0.029 A 
ATOM     59  C   UNL A   1      39.599  33.273  36.645  1.00  0.00     0.049 A 
ATOM     60  H   UNL A   1      39.838  32.001  35.013  1.00  0.00     0.167 HD
ATOM     61  C   UNL A   1      40.260  29.460  31.482  1.00  0.00     0.037 A 
ATOM     62  C   UNL A   1      40.618  33.038  37.490  1.00  0.00     0.037 A 
ATOM     63  C   UNL A   1      41.393  29.147  32.316  1.00  0.00     0.049 A 
ATOM     64  C   UNL A   1      41.636  31.991  37.133  1.00  0.00     0.074 A 
ATOM     65  C   UNL A   1      42.430  28.266  32.066  1.00  0.00     0.029 A 
ATOM     66  N   UNL A   1      41.640  29.710  33.560  1.00  0.00    -0.354 N 
ATOM     67  N   UNL A   1      41.728  31.267  36.046  1.00  0.00    -0.248 NA
ATOM     68  C   UNL A   1      42.684  31.722  38.127  1.00  0.00     0.031 C 
ATOM     69  C   UNL A   1      43.275  28.255  33.179  1.00  0.00     0.029 A 
ATOM     70  C   UNL A   1      42.799  29.174  34.099  1.00  0.00     0.049 A 
ATOM     71  H   UNL A   1      41.076  30.390  33.995  1.00  0.00     0.167 HD
ATOM     72  C   UNL A   1      42.850  30.468  36.215  1.00  0.00     0.074 A 
ATOM     73  C   UNL A   1      43.419  30.813  37.501  1.00  0.00     0.031 C 
ATOM     74  C   UNL A   1      43.357  29.528  35.381  1.00  0.00     0.037 A 
BRANCH  61  75
ATOM     75  C   UNL A   1      40.142  28.737  30.169  1.00  0.00     0.064 A 
ATOM     76  C   UNL A   1      40.729  29.237  28.998  1.00  0.00     0.173 A 
ATOM     77  C   UNL A   1      39.505  27.488  30.100  1.00  0.00     0.173 A 
ATOM     78  F   UNL A   1      41.341  30.431  29.006  1.00  0.00    -0.203 F 
ATOM     79  C   UNL A   1      40.673  28.521  27.805  1.00  0.00     0.198 A 
ATOM     80  C   UNL A   1      39.477  26.760  28.913  1.00  0.00     0.198 A 
ATOM     81  F   UNL A   1      38.934  26.958  31.193  1.00  0.00    -0.203 F 
ATOM     82  F   UNL A   1      41.215  29.033  26.691  1.00  0.00    -0.200 F 
ATOM     83  C   UNL A   1      40.057  27.278  27.767  1.00  0.00     0.200 A 
ATOM     84  F   UNL A   1      38.896  25.553  28.883  1.00  0.00    -0.200 F 
ATOM     85  F   UNL A   1      40.022  26.581  26.622  1.00  0.00    -0.200 F 
ENDBRANCH  61  75
BRANCH  62  86
ATOM     86  C   UNL A   1      40.717  33.812  38.754  1.00  0.00     0.064 A 
ATOM     87  C   UNL A   1      41.507  34.967  38.830  1.00  0.00     0.173 A 
ATOM     88  C   UNL A   1      40.001  33.435  39.900  1.00  0.00     0.173 A 
ATOM     89  F   UNL A   1      42.226  35.357  37.767  1.00  0.00    -0.203 F 
ATOM     90  C   UNL A   1      41.581  35.712  40.004  1.00  0.00     0.198 A 
ATOM     91  C   UNL A   1      40.050  34.198  41.064  1.00  0.00     0.198 A 
ATOM     92  F   UNL A   1      39.228  32.338  39.879  1.00  0.00    -0.203 F 
ATOM     93  F   UNL A   1      42.369  36.794  40.061  1.00  0.00    -0.200 F 
ATOM     94  C   UNL A   1      40.844  35.333  41.117  1.00  0.00     0.200 A 
ATOM     95  F   UNL A   1      39.321  33.838  42.129  1.00  0.00    -0.200 F 
ATOM     96  F   UNL A   1      40.902  36.060  42.242  1.00  0.00    -0.200 F 
ENDBRANCH  62  86
BRANCH  74  97
ATOM     97  C   UNL A   1      44.602  28.813  35.817  1.00  0.00     0.064 A 
ATOM     98  C   UNL A   1      44.540  27.606  36.530  1.00  0.00     0.173 A 
ATOM     99  C   UNL A   1      45.867  29.300  35.458  1.00  0.00     0.173 A 
ATOM    100  F   UNL A   1      43.354  27.106  36.910  1.00  0.00    -0.203 F 
ATOM    101  C   UNL A   1      45.701  26.923  36.880  1.00  0.00     0.198 A 
ATOM    102  C   UNL A   1      47.024  28.597  35.782  1.00  0.00     0.198 A 
ATOM    103  F   UNL A   1      45.980  30.446  34.768  1.00  0.00    -0.203 F 
ATOM    104  F   UNL A   1      45.621  25.792  37.594  1.00  0.00    -0.200 F 
ATOM    105  C   UNL A   1      46.941  27.413  36.497  1.00  0.00     0.200 A 
ATOM    106  F   UNL A   1      48.219  29.064  35.396  1.00  0.00    -0.200 F 
ATOM    107  F   UNL A   1      48.056  26.744  36.819  1.00  0.00    -0.200 F 
ENDBRANCH  74  97
ENDBRANCH  48  49
ENDBRANCH  40  43
ENDBRANCH  38  39
ENDBRANCH  37  38
ENDBRANCH  36  37
ENDBRANCH  35  36
ENDBRANCH   1  35
TORSDOF 18
ENDMDL
MODEL 3
REMARK VINA RESULT:     -13.0      2.999      8.456
REMARK SMILES O=C(CNC(=O)[C@@H](CC1=c2ccccc2=NC1)N1C(=O)N=C2C=CC=C[C@H]2C1=O)NCCCCCCNC(=O)c1ccc(-c2c3nc(c(-c4c(F)c(F)c(F)c(F)c4F)c4ccc([nH]4)c(-c4c(F)c(F)c(F)c(F)c4F)c4nc(c(-c5c(F)c(F)c(F)c(F)c5F)c5ccc2[nH]5)C=C4)C=C3)cc1
REMARK SMILES IDX 32 1 31 2 30 3 1 4 2 5 3 7 4 8 5 9 6 11 7 12 8 13 9 14 10 15
REMARK SMILES IDX 17 16 11 17 15 18 16 19 12 20 14 21 13 22 18 23 19 24 28 25
REMARK SMILES IDX 21 26 20 27 27 28 29 29 22 30 26 31 23 32 25 33 24 34 33 35
REMARK SMILES IDX 34 36 35 37 36 38 37 39 38 40 39 42 40 43 41 44 102 45 42 46
REMARK SMILES IDX 101 47 43 48 44 49 45 50 95 51 46 52 100 53 94 54 96 55
REMARK SMILES IDX 47 56 99 57 93 58 92 59 48 61 80 62 60 63 79 64 61 65 64 66
REMARK SMILES IDX 78 67 97 68 62 69 63 70 77 72 98 73 65 74 49 75 50 76 58 77
REMARK SMILES IDX 51 78 52 79 56 80 59 81 53 82 54 83 57 84 55 85 81 86 82 87
REMARK SMILES IDX 90 88 83 89 84 90 88 91 91 92 85 93 86 94 89 95 87 96 66 97
REMARK SMILES IDX 67 98 75 99 68 100 69 101 73 102 76 103 70 104 71 105 74 106
REMARK SMILES IDX 72 107
REMARK H PARENT 30 6 4 10 37 41 96 60 64 71
REMARK Flexibility Score: inf
ROOT
ATOM      1  C   UNL A   1      40.014  22.550  27.106  1.00  0.00     0.021 C 
ENDROOT
BRANCH   1   2
ATOM      2  C   UNL A   1      39.145  21.744  26.138  1.00  0.00     0.116 C 
BRANCH   2   3
ATOM      3  N   UNL A   1      37.784  22.275  26.111  1.00  0.00    -0.355 N 
ATOM      4  O   UNL A   1      37.562  21.394  24.208  1.00  0.00    -0.273 OA
ATOM      5  C   UNL A   1      36.883  22.185  24.941  1.00  0.00     0.239 C 
ATOM      6  H   UNL A   1      37.445  22.719  26.922  1.00  0.00     0.163 HD
BRANCH   5   7
ATOM      7  C   UNL A   1      35.061  23.297  24.444  1.00  0.00     0.216 C 
BRANCH   7   8
ATOM      8  N   UNL A   1      33.997  24.240  25.204  1.00  0.00    -0.345 N 
ATOM      9  C   UNL A   1      32.670  24.447  25.250  1.00  0.00     0.244 C 
ATOM     10  H   UNL A   1      34.461  24.848  25.824  1.00  0.00     0.164 HD
ATOM     11  O   UNL A   1      32.340  25.253  26.142  1.00  0.00    -0.273 OA
BRANCH   9  12
ATOM     12  C   UNL A   1      31.543  23.896  24.335  1.00  0.00     0.188 C 
BRANCH  12  13
ATOM     13  C   UNL A   1      30.960  24.420  23.009  1.00  0.00     0.069 C 
BRANCH  13  14
ATOM     14  C   UNL A   1      31.580  25.627  22.429  1.00  0.00    -0.037 C 
ATOM     15  C   UNL A   1      31.474  26.840  22.945  1.00  0.00     0.001 A 
ATOM     16  C   UNL A   1      32.690  25.525  21.371  1.00  0.00     0.174 C 
ATOM     17  C   UNL A   1      30.670  27.756  24.377  1.00  0.00     0.010 A 
ATOM     18  C   UNL A   1      33.241  27.390  22.422  1.00  0.00     0.065 A 
ATOM     19  N   UNL A   1      33.751  26.591  21.547  1.00  0.00    -0.280 NA
ATOM     20  C   UNL A   1      31.400  28.981  25.065  1.00  0.00     0.001 A 
ATOM     21  C   UNL A   1      34.009  28.794  23.531  1.00  0.00     0.028 A 
ATOM     22  C   UNL A   1      33.125  29.535  24.609  1.00  0.00     0.002 A 
ENDBRANCH  13  14
ENDBRANCH  12  13
BRANCH  12  23
ATOM     23  N   UNL A   1      31.728  22.428  24.399  1.00  0.00    -0.249 N 
ATOM     24  C   UNL A   1      31.365  21.818  25.588  1.00  0.00     0.351 C 
ATOM     25  C   UNL A   1      32.224  21.732  23.309  1.00  0.00     0.244 C 
ATOM     26  N   UNL A   1      31.824  20.574  25.874  1.00  0.00    -0.197 NA
ATOM     27  O   UNL A   1      30.564  22.356  26.349  1.00  0.00    -0.246 OA
ATOM     28  C   UNL A   1      32.824  20.359  23.612  1.00  0.00     0.151 C 
ATOM     29  O   UNL A   1      32.249  22.217  22.177  1.00  0.00    -0.273 OA
ATOM     30  C   UNL A   1      32.442  19.870  24.990  1.00  0.00     0.062 C 
ATOM     31  C   UNL A   1      32.514  19.264  22.611  1.00  0.00    -0.007 C 
ATOM     32  C   UNL A   1      32.704  18.459  25.349  1.00  0.00     0.025 C 
ATOM     33  C   UNL A   1      32.403  17.974  22.981  1.00  0.00    -0.003 C 
ATOM     34  C   UNL A   1      32.598  17.570  24.355  1.00  0.00     0.002 C 
ENDBRANCH  12  23
ENDBRANCH   9  12
ENDBRANCH   7   8
ENDBRANCH   5   7
ENDBRANCH   2   3
ENDBRANCH   1   2
BRANCH   1  35
ATOM     35  C   UNL A   1      41.316  21.858  27.549  1.00  0.00     0.002 C 
BRANCH  35  36
ATOM     36  C   UNL A   1      42.016  20.996  26.492  1.00  0.00     0.002 C 
BRANCH  36  37
ATOM     37  C   UNL A   1      43.258  21.620  25.866  1.00  0.00     0.021 C 
BRANCH  37  38
ATOM     38  C   UNL A   1      43.016  22.962  25.198  1.00  0.00     0.116 C 
BRANCH  38  39
ATOM     39  N   UNL A   1      44.252  23.645  24.848  1.00  0.00    -0.352 N 
ATOM     40  C   UNL A   1      44.660  24.910  25.203  1.00  0.00     0.251 C 
ATOM     41  H   UNL A   1      44.878  23.135  24.284  1.00  0.00     0.163 HD
ATOM     42  O   UNL A   1      45.656  25.416  24.699  1.00  0.00    -0.269 OA
BRANCH  40  43
ATOM     43  C   UNL A   1      43.846  25.673  26.172  1.00  0.00     0.039 A 
ATOM     44  C   UNL A   1      43.847  27.069  26.141  1.00  0.00     0.014 A 
ATOM     45  C   UNL A   1      43.150  24.989  27.171  1.00  0.00     0.014 A 
ATOM     46  C   UNL A   1      43.327  27.776  27.217  1.00  0.00     0.010 A 
ATOM     47  C   UNL A   1      42.532  25.710  28.196  1.00  0.00     0.010 A 
ATOM     48  C   UNL A   1      42.665  27.107  28.260  1.00  0.00    -0.014 A 
BRANCH  48  49
ATOM     49  C   UNL A   1      42.129  27.889  29.404  1.00  0.00     0.031 A 
ATOM     50  C   UNL A   1      40.827  28.639  29.288  1.00  0.00     0.074 A 
ATOM     51  C   UNL A   1      42.794  27.877  30.576  1.00  0.00     0.049 A 
ATOM     52  N   UNL A   1      40.217  29.377  30.182  1.00  0.00    -0.248 NA
ATOM     53  C   UNL A   1      40.116  28.552  28.002  1.00  0.00     0.031 C 
ATOM     54  C   UNL A   1      44.054  27.170  30.818  1.00  0.00     0.029 A 
ATOM     55  N   UNL A   1      42.498  28.450  31.786  1.00  0.00    -0.354 N 
ATOM     56  C   UNL A   1      39.068  29.855  29.565  1.00  0.00     0.074 A 
ATOM     57  C   UNL A   1      39.079  29.353  28.208  1.00  0.00     0.031 C 
ATOM     58  C   UNL A   1      44.391  27.303  32.108  1.00  0.00     0.029 A 
ATOM     59  C   UNL A   1      43.419  28.169  32.765  1.00  0.00     0.049 A 
ATOM     60  H   UNL A   1      41.703  29.011  31.937  1.00  0.00     0.167 HD
ATOM     61  C   UNL A   1      38.088  30.629  30.088  1.00  0.00     0.037 A 
ATOM     62  C   UNL A   1      43.488  28.577  34.045  1.00  0.00     0.037 A 
ATOM     63  C   UNL A   1      38.069  31.107  31.447  1.00  0.00     0.049 A 
ATOM     64  C   UNL A   1      42.418  29.487  34.580  1.00  0.00     0.074 A 
ATOM     65  C   UNL A   1      37.110  31.882  32.075  1.00  0.00     0.029 A 
ATOM     66  N   UNL A   1      39.055  30.852  32.391  1.00  0.00    -0.354 N 
ATOM     67  N   UNL A   1      41.338  29.930  33.987  1.00  0.00    -0.248 NA
ATOM     68  C   UNL A   1      42.584  29.962  35.960  1.00  0.00     0.031 C 
ATOM     69  C   UNL A   1      37.539  32.139  33.380  1.00  0.00     0.029 A 
ATOM     70  C   UNL A   1      38.737  31.476  33.586  1.00  0.00     0.049 A 
ATOM     71  H   UNL A   1      39.860  30.307  32.233  1.00  0.00     0.167 HD
ATOM     72  C   UNL A   1      40.687  30.722  34.922  1.00  0.00     0.074 A 
ATOM     73  C   UNL A   1      41.483  30.680  36.130  1.00  0.00     0.031 C 
ATOM     74  C   UNL A   1      39.537  31.425  34.785  1.00  0.00     0.037 A 
BRANCH  61  75
ATOM     75  C   UNL A   1      36.943  31.021  29.197  1.00  0.00     0.064 A 
ATOM     76  C   UNL A   1      35.913  30.122  28.883  1.00  0.00     0.173 A 
ATOM     77  C   UNL A   1      36.831  32.336  28.719  1.00  0.00     0.173 A 
ATOM     78  F   UNL A   1      35.975  28.850  29.305  1.00  0.00    -0.203 F 
ATOM     79  C   UNL A   1      34.821  30.521  28.116  1.00  0.00     0.198 A 
ATOM     80  C   UNL A   1      35.723  32.741  27.978  1.00  0.00     0.198 A 
ATOM     81  F   UNL A   1      37.784  33.240  28.997  1.00  0.00    -0.203 F 
ATOM     82  F   UNL A   1      33.865  29.636  27.802  1.00  0.00    -0.200 F 
ATOM     83  C   UNL A   1      34.722  31.832  27.673  1.00  0.00     0.200 A 
ATOM     84  F   UNL A   1      35.622  34.011  27.566  1.00  0.00    -0.200 F 
ATOM     85  F   UNL A   1      33.661  32.219  26.951  1.00  0.00    -0.200 F 
ENDBRANCH  61  75
BRANCH  62  86
ATOM     86  C   UNL A   1      44.615  28.124  34.900  1.00  0.00     0.064 A 
ATOM     87  C   UNL A   1      44.513  26.954  35.664  1.00  0.00     0.173 A 
ATOM     88  C   UNL A   1      45.827  28.830  34.947  1.00  0.00     0.173 A 
ATOM     89  F   UNL A   1      43.368  26.255  35.668  1.00  0.00    -0.203 F 
ATOM     90  C   UNL A   1      45.578  26.510  36.444  1.00  0.00     0.198 A 
ATOM     91  C   UNL A   1      46.902  28.369  35.702  1.00  0.00     0.198 A 
ATOM     92  F   UNL A   1      45.977  29.956  34.231  1.00  0.00    -0.203 F 
ATOM     93  F   UNL A   1      45.443  25.406  37.192  1.00  0.00    -0.200 F 
ATOM     94  C   UNL A   1      46.774  27.211  36.455  1.00  0.00     0.200 A 
ATOM     95  F   UNL A   1      48.061  29.039  35.693  1.00  0.00    -0.200 F 
ATOM     96  F   UNL A   1      47.804  26.775  37.193  1.00  0.00    -0.200 F 
ENDBRANCH  62  86
BRANCH  74  97
ATOM     97  C   UNL A   1      39.051  32.197  35.976  1.00  0.00     0.064 A 
ATOM     98  C   UNL A   1      38.234  31.604  36.950  1.00  0.00     0.173 A 
ATOM     99  C   UNL A   1      39.465  33.522  36.184  1.00  0.00     0.173 A 
ATOM    100  F   UNL A   1      37.800  30.344  36.790  1.00  0.00    -0.203 F 
ATOM    101  C   UNL A   1      37.836  32.313  38.079  1.00  0.00     0.198 A 
ATOM    102  C   UNL A   1      39.091  34.217  37.331  1.00  0.00     0.198 A 
ATOM    103  F   UNL A   1      40.254  34.133  35.287  1.00  0.00    -0.203 F 
ATOM    104  F   UNL A   1      37.024  31.739  38.977  1.00  0.00    -0.200 F 
ATOM    105  C   UNL A   1      38.274  33.615  38.274  1.00  0.00     0.200 A 
ATOM    106  F   UNL A   1      39.530  35.469  37.525  1.00  0.00    -0.200 F 
ATOM    107  F   UNL A   1      37.905  34.290  39.371  1.00  0.00    -0.200 F 
ENDBRANCH  74  97
ENDBRANCH  48  49
ENDBRANCH  40  43
ENDBRANCH  38  39
ENDBRANCH  37  38
ENDBRANCH  36  37
ENDBRANCH  35  36
ENDBRANCH   1  35
TORSDOF 18
ENDMDL
