MODEL 1
REMARK VINA RESULT:     -11.9      0.000      0.000
REMARK SMILES CSc1nc(O)nc(C)c1C(=O)N1C[C@@H](O)C[C@@H]1C(=O)NCCCCCCNC(=O)c1ccc(-c2c3nc(c(-c4c(F)c(F)c(F)c(F)c4F)c4ccc([nH]4)c(-c4c(F)c(F)c(F)c(F)c4F)c4nc(c(-c5c(F)c(F)c(F)c(F)c5F)c5ccc2[nH]5)C=C4)C=C3)cc1
REMARK SMILES IDX 24 1 23 2 22 3 21 4 19 5 20 6 18 8 13 9 14 10 15 11 17 12
REMARK SMILES IDX 11 13 12 14 10 15 3 16 4 17 5 18 8 19 7 20 9 21 2 22 1 23
REMARK SMILES IDX 6 24 16 26 25 28 26 29 27 30 28 31 29 32 30 34 31 35 32 36
REMARK SMILES IDX 93 37 33 38 92 39 34 40 35 41 36 42 86 43 37 44 91 45 85 46
REMARK SMILES IDX 87 47 38 48 90 49 84 50 83 51 39 53 71 54 51 55 70 56 52 57
REMARK SMILES IDX 55 58 69 59 88 60 53 61 54 62 68 64 89 65 56 66 40 67 41 68
REMARK SMILES IDX 49 69 42 70 43 71 47 72 50 73 44 74 45 75 48 76 46 77 72 78
REMARK SMILES IDX 73 79 81 80 74 81 75 82 79 83 82 84 76 85 77 86 80 87 78 88
REMARK SMILES IDX 57 89 58 90 66 91 59 92 60 93 64 94 67 95 61 96 62 97 65 98
REMARK SMILES IDX 63 99
REMARK H PARENT 21 7 6 25 16 27 28 33 87 52 55 63
REMARK Flexibility Score: inf
ROOT
ATOM      1  C   UNL A   1      36.838  22.175  25.355  1.00  0.00     0.002 C 
ENDROOT
BRANCH   1   2
ATOM      2  C   UNL A   1      35.677  22.901  26.029  1.00  0.00     0.021 C 
BRANCH   2   3
ATOM      3  C   UNL A   1      35.227  24.183  25.349  1.00  0.00     0.116 C 
BRANCH   3   4
ATOM      4  N   UNL A   1      34.988  24.069  23.938  1.00  0.00    -0.354 N 
ATOM      5  C   UNL A   1      34.122  24.800  23.174  1.00  0.00     0.242 C 
ATOM      6  O   UNL A   1      34.027  24.484  21.981  1.00  0.00    -0.273 OA
ATOM      7  H   UNL A   1      35.511  23.383  23.463  1.00  0.00     0.163 HD
BRANCH   5   8
ATOM      8  C   UNL A   1      33.124  25.825  23.782  1.00  0.00     0.177 C 
ATOM      9  N   UNL A   1      31.694  25.797  23.410  1.00  0.00    -0.324 N 
ATOM     10  C   UNL A   1      31.200  27.161  23.454  1.00  0.00     0.152 C 
ATOM     11  C   UNL A   1      32.348  27.931  22.813  1.00  0.00     0.136 C 
ATOM     12  C   UNL A   1      33.576  27.268  23.448  1.00  0.00     0.069 C 
BRANCH   9  13
ATOM     13  C   UNL A   1      30.963  24.643  23.612  1.00  0.00     0.259 C 
ATOM     14  O   UNL A   1      29.995  24.454  22.873  1.00  0.00    -0.269 OA
BRANCH  13  15
ATOM     15  C   UNL A   1      31.137  23.734  24.813  1.00  0.00     0.093 A 
ATOM     16  C   UNL A   1      31.821  22.506  24.885  1.00  0.00     0.116 A 
ATOM     17  N   UNL A   1      32.207  21.937  26.055  1.00  0.00    -0.188 NA
ATOM     18  C   UNL A   1      31.930  22.604  27.160  1.00  0.00     0.315 A 
ATOM     19  C   UNL A   1      30.795  24.256  26.079  1.00  0.00     0.058 A 
ATOM     20  N   UNL A   1      31.227  23.716  27.251  1.00  0.00    -0.200 NA
ATOM     21  C   UNL A   1      29.990  25.508  26.314  1.00  0.00     0.068 C 
BRANCH  16  22
ATOM     22  S   UNL A   1      32.505  21.526  23.560  1.00  0.00    -0.109 SA
ATOM     23  C   UNL A   1      32.528  19.886  24.321  1.00  0.00     0.092 C 
ENDBRANCH  16  22
BRANCH  18  24
ATOM     24  O   UNL A   1      32.527  22.203  28.310  1.00  0.00    -0.479 OA
ATOM     25  H   UNL A   1      33.338  21.734  28.279  1.00  0.00     0.297 HD
ENDBRANCH  18  24
ENDBRANCH  13  15
ENDBRANCH   9  13
BRANCH  11  26
ATOM     26  O   UNL A   1      32.287  29.327  23.027  1.00  0.00    -0.391 OA
ATOM     27  H   UNL A   1      31.585  29.526  23.665  1.00  0.00     0.211 HD
ENDBRANCH  11  26
ENDBRANCH   5   8
ENDBRANCH   3   4
ENDBRANCH   2   3
ENDBRANCH   1   2
BRANCH   1  28
ATOM     28  C   UNL A   1      36.600  20.701  25.003  1.00  0.00     0.002 C 
BRANCH  28  29
ATOM     29  C   UNL A   1      37.833  19.793  25.001  1.00  0.00     0.021 C 
BRANCH  29  30
ATOM     30  C   UNL A   1      39.046  20.330  25.753  1.00  0.00     0.116 C 
BRANCH  30  31
ATOM     31  N   UNL A   1      40.058  19.307  25.949  1.00  0.00    -0.352 N 
ATOM     32  C   UNL A   1      41.411  19.444  26.127  1.00  0.00     0.251 C 
ATOM     33  H   UNL A   1      39.726  18.381  25.954  1.00  0.00     0.163 HD
ATOM     34  O   UNL A   1      42.150  18.469  26.058  1.00  0.00    -0.269 OA
BRANCH  32  35
ATOM     35  C   UNL A   1      41.983  20.776  26.409  1.00  0.00     0.039 A 
ATOM     36  C   UNL A   1      42.212  21.147  27.737  1.00  0.00     0.014 A 
ATOM     37  C   UNL A   1      42.240  21.674  25.370  1.00  0.00     0.014 A 
ATOM     38  C   UNL A   1      42.729  22.412  28.023  1.00  0.00     0.010 A 
ATOM     39  C   UNL A   1      42.804  22.915  25.650  1.00  0.00     0.010 A 
ATOM     40  C   UNL A   1      43.031  23.300  26.980  1.00  0.00    -0.014 A 
BRANCH  40  41
ATOM     41  C   UNL A   1      43.510  24.674  27.259  1.00  0.00     0.031 A 
ATOM     42  C   UNL A   1      42.547  25.693  27.794  1.00  0.00     0.074 A 
ATOM     43  C   UNL A   1      44.783  25.014  26.993  1.00  0.00     0.049 A 
ATOM     44  N   UNL A   1      42.737  26.963  28.044  1.00  0.00    -0.248 NA
ATOM     45  C   UNL A   1      41.179  25.223  28.063  1.00  0.00     0.031 C 
ATOM     46  C   UNL A   1      45.803  24.115  26.460  1.00  0.00     0.029 A 
ATOM     47  N   UNL A   1      45.429  26.218  27.125  1.00  0.00    -0.354 N 
ATOM     48  C   UNL A   1      41.515  27.442  28.497  1.00  0.00     0.074 A 
ATOM     49  C   UNL A   1      40.576  26.344  28.429  1.00  0.00     0.031 C 
ATOM     50  C   UNL A   1      46.953  24.793  26.320  1.00  0.00     0.029 A 
ATOM     51  C   UNL A   1      46.740  26.182  26.721  1.00  0.00     0.049 A 
ATOM     52  H   UNL A   1      44.995  27.028  27.476  1.00  0.00     0.167 HD
ATOM     53  C   UNL A   1      41.211  28.681  28.950  1.00  0.00     0.037 A 
ATOM     54  C   UNL A   1      47.661  27.164  26.673  1.00  0.00     0.037 A 
ATOM     55  C   UNL A   1      42.152  29.768  29.019  1.00  0.00     0.049 A 
ATOM     56  C   UNL A   1      47.289  28.547  27.135  1.00  0.00     0.074 A 
ATOM     57  C   UNL A   1      41.955  31.049  29.501  1.00  0.00     0.029 A 
ATOM     58  N   UNL A   1      43.467  29.701  28.580  1.00  0.00    -0.354 N 
ATOM     59  N   UNL A   1      46.146  28.982  27.610  1.00  0.00    -0.248 NA
ATOM     60  C   UNL A   1      48.336  29.576  27.056  1.00  0.00     0.031 C 
ATOM     61  C   UNL A   1      43.133  31.775  29.301  1.00  0.00     0.029 A 
ATOM     62  C   UNL A   1      44.085  30.931  28.750  1.00  0.00     0.049 A 
ATOM     63  H   UNL A   1      43.899  28.900  28.206  1.00  0.00     0.167 HD
ATOM     64  C   UNL A   1      46.338  30.326  27.903  1.00  0.00     0.074 A 
ATOM     65  C   UNL A   1      47.716  30.629  27.571  1.00  0.00     0.031 C 
ATOM     66  C   UNL A   1      45.454  31.225  28.401  1.00  0.00     0.037 A 
BRANCH  53  67
ATOM     67  C   UNL A   1      39.799  28.925  29.401  1.00  0.00     0.064 A 
ATOM     68  C   UNL A   1      38.815  29.396  28.517  1.00  0.00     0.173 A 
ATOM     69  C   UNL A   1      39.418  28.662  30.725  1.00  0.00     0.173 A 
ATOM     70  F   UNL A   1      39.131  29.677  27.243  1.00  0.00    -0.203 F 
ATOM     71  C   UNL A   1      37.513  29.627  28.950  1.00  0.00     0.198 A 
ATOM     72  C   UNL A   1      38.106  28.861  31.146  1.00  0.00     0.198 A 
ATOM     73  F   UNL A   1      40.316  28.207  31.611  1.00  0.00    -0.203 F 
ATOM     74  F   UNL A   1      36.605  30.130  28.102  1.00  0.00    -0.200 F 
ATOM     75  C   UNL A   1      37.157  29.351  30.262  1.00  0.00     0.200 A 
ATOM     76  F   UNL A   1      37.760  28.581  32.410  1.00  0.00    -0.200 F 
ATOM     77  F   UNL A   1      35.900  29.566  30.675  1.00  0.00    -0.200 F 
ENDBRANCH  53  67
BRANCH  54  78
ATOM     78  C   UNL A   1      49.033  26.850  26.197  1.00  0.00     0.064 A 
ATOM     79  C   UNL A   1      50.002  26.360  27.082  1.00  0.00     0.173 A 
ATOM     80  C   UNL A   1      49.388  26.984  24.846  1.00  0.00     0.173 A 
ATOM     81  F   UNL A   1      49.717  26.237  28.386  1.00  0.00    -0.203 F 
ATOM     82  C   UNL A   1      51.275  26.013  26.633  1.00  0.00     0.198 A 
ATOM     83  C   UNL A   1      50.652  26.613  24.395  1.00  0.00     0.198 A 
ATOM     84  F   UNL A   1      48.496  27.450  23.960  1.00  0.00    -0.203 F 
ATOM     85  F   UNL A   1      52.191  25.567  27.505  1.00  0.00    -0.200 F 
ATOM     86  C   UNL A   1      51.595  26.128  25.289  1.00  0.00     0.200 A 
ATOM     87  F   UNL A   1      50.953  26.713  23.094  1.00  0.00    -0.200 F 
ATOM     88  F   UNL A   1      52.812  25.773  24.856  1.00  0.00    -0.200 F 
ENDBRANCH  54  78
BRANCH  66  89
ATOM     89  C   UNL A   1      45.939  32.630  28.620  1.00  0.00     0.064 A 
ATOM     90  C   UNL A   1      46.503  33.028  29.842  1.00  0.00     0.173 A 
ATOM     91  C   UNL A   1      45.902  33.571  27.579  1.00  0.00     0.173 A 
ATOM     92  F   UNL A   1      46.551  32.172  30.873  1.00  0.00    -0.203 F 
ATOM     93  C   UNL A   1      46.992  34.319  30.018  1.00  0.00     0.198 A 
ATOM     94  C   UNL A   1      46.424  34.849  27.747  1.00  0.00     0.198 A 
ATOM     95  F   UNL A   1      45.383  33.239  26.387  1.00  0.00    -0.203 F 
ATOM     96  F   UNL A   1      47.488  34.690  31.207  1.00  0.00    -0.200 F 
ATOM     97  C   UNL A   1      46.963  35.225  28.968  1.00  0.00     0.200 A 
ATOM     98  F   UNL A   1      46.411  35.717  26.727  1.00  0.00    -0.200 F 
ATOM     99  F   UNL A   1      47.449  36.463  29.135  1.00  0.00    -0.200 F 
ENDBRANCH  66  89
ENDBRANCH  40  41
ENDBRANCH  32  35
ENDBRANCH  30  31
ENDBRANCH  29  30
ENDBRANCH  28  29
ENDBRANCH   1  28
TORSDOF 18
ENDMDL
MODEL 2
REMARK VINA RESULT:     -11.9      5.463     10.684
REMARK SMILES CSc1nc(O)nc(C)c1C(=O)N1C[C@@H](O)C[C@@H]1C(=O)NCCCCCCNC(=O)c1ccc(-c2c3nc(c(-c4c(F)c(F)c(F)c(F)c4F)c4ccc([nH]4)c(-c4c(F)c(F)c(F)c(F)c4F)c4nc(c(-c5c(F)c(F)c(F)c(F)c5F)c5ccc2[nH]5)C=C4)C=C3)cc1
REMARK SMILES IDX 24 1 23 2 22 3 21 4 19 5 20 6 18 8 13 9 14 10 15 11 17 12
REMARK SMILES IDX 11 13 12 14 10 15 3 16 4 17 5 18 8 19 7 20 9 21 2 22 1 23
REMARK SMILES IDX 6 24 16 26 25 28 26 29 27 30 28 31 29 32 30 34 31 35 32 36
REMARK SMILES IDX 93 37 33 38 92 39 34 40 35 41 36 42 86 43 37 44 91 45 85 46
REMARK SMILES IDX 87 47 38 48 90 49 84 50 83 51 39 53 71 54 51 55 70 56 52 57
REMARK SMILES IDX 55 58 69 59 88 60 53 61 54 62 68 64 89 65 56 66 40 67 41 68
REMARK SMILES IDX 49 69 42 70 43 71 47 72 50 73 44 74 45 75 48 76 46 77 72 78
REMARK SMILES IDX 73 79 81 80 74 81 75 82 79 83 82 84 76 85 77 86 80 87 78 88
REMARK SMILES IDX 57 89 58 90 66 91 59 92 60 93 64 94 67 95 61 96 62 97 65 98
REMARK SMILES IDX 63 99
REMARK H PARENT 21 7 6 25 16 27 28 33 87 52 55 63
REMARK Flexibility Score: inf
ROOT
ATOM      1  C   UNL A   1      32.593  30.011  27.129  1.00  0.00     0.002 C 
ENDROOT
BRANCH   1   2
ATOM      2  C   UNL A   1      32.435  28.493  27.101  1.00  0.00     0.021 C 
BRANCH   2   3
ATOM      3  C   UNL A   1      33.623  27.725  26.545  1.00  0.00     0.116 C 
BRANCH   3   4
ATOM      4  N   UNL A   1      33.823  27.857  25.130  1.00  0.00    -0.354 N 
ATOM      5  C   UNL A   1      33.150  27.218  24.126  1.00  0.00     0.242 C 
ATOM      6  O   UNL A   1      33.538  27.432  22.971  1.00  0.00    -0.273 OA
ATOM      7  H   UNL A   1      34.531  28.481  24.848  1.00  0.00     0.163 HD
BRANCH   5   8
ATOM      8  C   UNL A   1      32.103  26.102  24.395  1.00  0.00     0.177 C 
ATOM      9  N   UNL A   1      31.916  24.996  23.432  1.00  0.00    -0.324 N 
ATOM     10  C   UNL A   1      30.522  24.599  23.481  1.00  0.00     0.152 C 
ATOM     11  C   UNL A   1      29.814  25.946  23.549  1.00  0.00     0.136 C 
ATOM     12  C   UNL A   1      30.691  26.722  24.540  1.00  0.00     0.069 C 
BRANCH   9  13
ATOM     13  C   UNL A   1      32.995  24.201  23.095  1.00  0.00     0.259 C 
ATOM     14  O   UNL A   1      33.503  24.384  21.987  1.00  0.00    -0.269 OA
BRANCH  13  15
ATOM     15  C   UNL A   1      33.427  22.986  23.892  1.00  0.00     0.093 A 
ATOM     16  C   UNL A   1      34.222  22.944  25.054  1.00  0.00     0.116 A 
ATOM     17  N   UNL A   1      34.278  21.866  25.877  1.00  0.00    -0.188 NA
ATOM     18  C   UNL A   1      33.524  20.833  25.555  1.00  0.00     0.315 A 
ATOM     19  C   UNL A   1      32.787  21.760  23.610  1.00  0.00     0.058 A 
ATOM     20  N   UNL A   1      32.799  20.698  24.461  1.00  0.00    -0.200 NA
ATOM     21  C   UNL A   1      31.944  21.480  22.393  1.00  0.00     0.068 C 
BRANCH  16  22
ATOM     22  S   UNL A   1      35.144  24.260  25.828  1.00  0.00    -0.109 SA
ATOM     23  C   UNL A   1      36.841  23.716  25.523  1.00  0.00     0.092 C 
ENDBRANCH  16  22
BRANCH  18  24
ATOM     24  O   UNL A   1      33.353  19.857  26.483  1.00  0.00    -0.479 OA
ATOM     25  H   UNL A   1      32.493  19.542  26.680  1.00  0.00     0.297 HD
ENDBRANCH  18  24
ENDBRANCH  13  15
ENDBRANCH   9  13
BRANCH  11  26
ATOM     26  O   UNL A   1      28.460  25.860  23.944  1.00  0.00    -0.391 OA
ATOM     27  H   UNL A   1      28.394  25.989  24.903  1.00  0.00     0.211 HD
ENDBRANCH  11  26
ENDBRANCH   5   8
ENDBRANCH   3   4
ENDBRANCH   2   3
ENDBRANCH   1   2
BRANCH   1  28
ATOM     28  C   UNL A   1      31.572  30.811  26.310  1.00  0.00     0.002 C 
BRANCH  28  29
ATOM     29  C   UNL A   1      31.484  32.310  26.607  1.00  0.00     0.021 C 
BRANCH  29  30
ATOM     30  C   UNL A   1      32.725  32.928  27.242  1.00  0.00     0.116 C 
BRANCH  30  31
ATOM     31  N   UNL A   1      32.493  34.298  27.665  1.00  0.00    -0.352 N 
ATOM     32  C   UNL A   1      33.031  34.986  28.722  1.00  0.00     0.251 C 
ATOM     33  H   UNL A   1      31.855  34.806  27.114  1.00  0.00     0.163 HD
ATOM     34  O   UNL A   1      32.562  36.063  29.067  1.00  0.00    -0.269 OA
BRANCH  32  35
ATOM     35  C   UNL A   1      34.190  34.427  29.447  1.00  0.00     0.039 A 
ATOM     36  C   UNL A   1      35.467  34.571  28.898  1.00  0.00     0.014 A 
ATOM     37  C   UNL A   1      34.008  33.716  30.637  1.00  0.00     0.014 A 
ATOM     38  C   UNL A   1      36.570  34.027  29.558  1.00  0.00     0.010 A 
ATOM     39  C   UNL A   1      35.112  33.220  31.322  1.00  0.00     0.010 A 
ATOM     40  C   UNL A   1      36.398  33.352  30.776  1.00  0.00    -0.014 A 
BRANCH  40  41
ATOM     41  C   UNL A   1      37.541  32.702  31.459  1.00  0.00     0.031 A 
ATOM     42  C   UNL A   1      38.192  31.508  30.826  1.00  0.00     0.074 A 
ATOM     43  C   UNL A   1      37.959  33.151  32.655  1.00  0.00     0.049 A 
ATOM     44  N   UNL A   1      39.157  30.750  31.281  1.00  0.00    -0.248 NA
ATOM     45  C   UNL A   1      37.671  31.097  29.513  1.00  0.00     0.031 C 
ATOM     46  C   UNL A   1      37.395  34.292  33.372  1.00  0.00     0.029 A 
ATOM     47  N   UNL A   1      38.951  32.689  33.483  1.00  0.00    -0.354 N 
ATOM     48  C   UNL A   1      39.356  29.776  30.312  1.00  0.00     0.074 A 
ATOM     49  C   UNL A   1      38.372  30.000  29.275  1.00  0.00     0.031 C 
ATOM     50  C   UNL A   1      38.057  34.451  34.529  1.00  0.00     0.029 A 
ATOM     51  C   UNL A   1      39.068  33.402  34.650  1.00  0.00     0.049 A 
ATOM     52  H   UNL A   1      39.525  31.920  33.261  1.00  0.00     0.167 HD
ATOM     53  C   UNL A   1      40.291  28.797  30.280  1.00  0.00     0.037 A 
ATOM     54  C   UNL A   1      39.892  33.221  35.699  1.00  0.00     0.037 A 
ATOM     55  C   UNL A   1      41.269  28.583  31.314  1.00  0.00     0.049 A 
ATOM     56  C   UNL A   1      40.892  32.096  35.667  1.00  0.00     0.074 A 
ATOM     57  C   UNL A   1      42.285  27.647  31.358  1.00  0.00     0.029 A 
ATOM     58  N   UNL A   1      41.343  29.312  32.493  1.00  0.00    -0.354 N 
ATOM     59  N   UNL A   1      41.109  31.209  34.726  1.00  0.00    -0.248 NA
ATOM     60  C   UNL A   1      41.761  31.949  36.842  1.00  0.00     0.031 C 
ATOM     61  C   UNL A   1      42.938  27.770  32.589  1.00  0.00     0.029 A 
ATOM     62  C   UNL A   1      42.369  28.823  33.288  1.00  0.00     0.049 A 
ATOM     63  H   UNL A   1      40.756  30.066  32.730  1.00  0.00     0.167 HD
ATOM     64  C   UNL A   1      42.149  30.410  35.184  1.00  0.00     0.074 A 
ATOM     65  C   UNL A   1      42.532  30.932  36.480  1.00  0.00     0.031 C 
ATOM     66  C   UNL A   1      42.731  29.343  34.584  1.00  0.00     0.037 A 
BRANCH  53  67
ATOM     67  C   UNL A   1      40.292  27.881  29.091  1.00  0.00     0.064 A 
ATOM     68  C   UNL A   1      41.043  28.170  27.940  1.00  0.00     0.173 A 
ATOM     69  C   UNL A   1      39.555  26.689  29.107  1.00  0.00     0.173 A 
ATOM     70  F   UNL A   1      41.755  29.306  27.865  1.00  0.00    -0.203 F 
ATOM     71  C   UNL A   1      41.028  27.318  26.840  1.00  0.00     0.198 A 
ATOM     72  C   UNL A   1      39.570  25.820  28.019  1.00  0.00     0.198 A 
ATOM     73  F   UNL A   1      38.823  26.360  30.183  1.00  0.00    -0.203 F 
ATOM     74  F   UNL A   1      41.708  27.643  25.732  1.00  0.00    -0.200 F 
ATOM     75  C   UNL A   1      40.298  26.139  26.884  1.00  0.00     0.200 A 
ATOM     76  F   UNL A   1      38.875  24.675  28.068  1.00  0.00    -0.200 F 
ATOM     77  F   UNL A   1      40.291  25.314  25.827  1.00  0.00    -0.200 F 
ENDBRANCH  53  67
BRANCH  54  78
ATOM     78  C   UNL A   1      39.819  34.157  36.850  1.00  0.00     0.064 A 
ATOM     79  C   UNL A   1      38.997  33.877  37.949  1.00  0.00     0.173 A 
ATOM     80  C   UNL A   1      40.602  35.321  36.899  1.00  0.00     0.173 A 
ATOM     81  F   UNL A   1      38.212  32.790  37.938  1.00  0.00    -0.203 F 
ATOM     82  C   UNL A   1      38.963  34.723  39.056  1.00  0.00     0.198 A 
ATOM     83  C   UNL A   1      40.587  36.151  38.016  1.00  0.00     0.198 A 
ATOM     84  F   UNL A   1      41.405  35.634  35.871  1.00  0.00    -0.203 F 
ATOM     85  F   UNL A   1      38.151  34.443  40.085  1.00  0.00    -0.200 F 
ATOM     86  C   UNL A   1      39.766  35.853  39.094  1.00  0.00     0.200 A 
ATOM     87  F   UNL A   1      41.374  37.235  38.054  1.00  0.00    -0.200 F 
ATOM     88  F   UNL A   1      39.749  36.654  40.168  1.00  0.00    -0.200 F 
ENDBRANCH  54  78
BRANCH  66  89
ATOM     89  C   UNL A   1      43.848  28.656  35.319  1.00  0.00     0.064 A 
ATOM     90  C   UNL A   1      45.188  29.021  35.120  1.00  0.00     0.173 A 
ATOM     91  C   UNL A   1      43.573  27.670  36.280  1.00  0.00     0.173 A 
ATOM     92  F   UNL A   1      45.506  29.949  34.206  1.00  0.00    -0.203 F 
ATOM     93  C   UNL A   1      46.211  28.411  35.841  1.00  0.00     0.198 A 
ATOM     94  C   UNL A   1      44.595  27.087  37.023  1.00  0.00     0.198 A 
ATOM     95  F   UNL A   1      42.308  27.291  36.516  1.00  0.00    -0.203 F 
ATOM     96  F   UNL A   1      47.488  28.746  35.605  1.00  0.00    -0.200 F 
ATOM     97  C   UNL A   1      45.913  27.453  36.799  1.00  0.00     0.200 A 
ATOM     98  F   UNL A   1      44.304  26.175  37.960  1.00  0.00    -0.200 F 
ATOM     99  F   UNL A   1      46.899  26.879  37.503  1.00  0.00    -0.200 F 
ENDBRANCH  66  89
ENDBRANCH  40  41
ENDBRANCH  32  35
ENDBRANCH  30  31
ENDBRANCH  29  30
ENDBRANCH  28  29
ENDBRANCH   1  28
TORSDOF 18
ENDMDL
MODEL 3
REMARK VINA RESULT:     -11.9      5.401     10.676
REMARK SMILES CSc1nc(O)nc(C)c1C(=O)N1C[C@@H](O)C[C@@H]1C(=O)NCCCCCCNC(=O)c1ccc(-c2c3nc(c(-c4c(F)c(F)c(F)c(F)c4F)c4ccc([nH]4)c(-c4c(F)c(F)c(F)c(F)c4F)c4nc(c(-c5c(F)c(F)c(F)c(F)c5F)c5ccc2[nH]5)C=C4)C=C3)cc1
REMARK SMILES IDX 24 1 23 2 22 3 21 4 19 5 20 6 18 8 13 9 14 10 15 11 17 12
REMARK SMILES IDX 11 13 12 14 10 15 3 16 4 17 5 18 8 19 7 20 9 21 2 22 1 23
REMARK SMILES IDX 6 24 16 26 25 28 26 29 27 30 28 31 29 32 30 34 31 35 32 36
REMARK SMILES IDX 93 37 33 38 92 39 34 40 35 41 36 42 86 43 37 44 91 45 85 46
REMARK SMILES IDX 87 47 38 48 90 49 84 50 83 51 39 53 71 54 51 55 70 56 52 57
REMARK SMILES IDX 55 58 69 59 88 60 53 61 54 62 68 64 89 65 56 66 40 67 41 68
REMARK SMILES IDX 49 69 42 70 43 71 47 72 50 73 44 74 45 75 48 76 46 77 72 78
REMARK SMILES IDX 73 79 81 80 74 81 75 82 79 83 82 84 76 85 77 86 80 87 78 88
REMARK SMILES IDX 57 89 58 90 66 91 59 92 60 93 64 94 67 95 61 96 62 97 65 98
REMARK SMILES IDX 63 99
REMARK H PARENT 21 7 6 25 16 27 28 33 87 52 55 63
REMARK Flexibility Score: inf
ROOT
ATOM      1  C   UNL A   1      32.285  29.823  26.954  1.00  0.00     0.002 C 
ENDROOT
BRANCH   1   2
ATOM      2  C   UNL A   1      33.388  29.006  26.288  1.00  0.00     0.021 C 
BRANCH   2   3
ATOM      3  C   UNL A   1      33.241  27.497  26.401  1.00  0.00     0.116 C 
BRANCH   3   4
ATOM      4  N   UNL A   1      31.898  27.032  26.603  1.00  0.00    -0.354 N 
ATOM      5  C   UNL A   1      31.215  26.103  25.868  1.00  0.00     0.242 C 
ATOM      6  O   UNL A   1      30.034  25.904  26.181  1.00  0.00    -0.273 OA
ATOM      7  H   UNL A   1      31.411  27.429  27.360  1.00  0.00     0.163 HD
BRANCH   5   8
ATOM      8  C   UNL A   1      31.783  25.481  24.562  1.00  0.00     0.177 C 
ATOM      9  N   UNL A   1      33.140  24.898  24.534  1.00  0.00    -0.324 N 
ATOM     10  C   UNL A   1      33.681  25.104  23.203  1.00  0.00     0.152 C 
ATOM     11  C   UNL A   1      33.240  26.531  22.903  1.00  0.00     0.136 C 
ATOM     12  C   UNL A   1      31.801  26.542  23.434  1.00  0.00     0.069 C 
BRANCH   9  13
ATOM     13  C   UNL A   1      33.460  23.880  25.411  1.00  0.00     0.259 C 
ATOM     14  O   UNL A   1      33.934  24.206  26.501  1.00  0.00    -0.269 OA
BRANCH  13  15
ATOM     15  C   UNL A   1      33.483  22.414  25.028  1.00  0.00     0.093 A 
ATOM     16  C   UNL A   1      34.578  21.641  24.598  1.00  0.00     0.116 A 
ATOM     17  N   UNL A   1      34.578  20.284  24.600  1.00  0.00    -0.188 NA
ATOM     18  C   UNL A   1      33.490  19.691  25.052  1.00  0.00     0.315 A 
ATOM     19  C   UNL A   1      32.348  21.638  25.352  1.00  0.00     0.058 A 
ATOM     20  N   UNL A   1      32.363  20.279  25.406  1.00  0.00    -0.200 NA
ATOM     21  C   UNL A   1      31.006  22.190  25.759  1.00  0.00     0.068 C 
BRANCH  16  22
ATOM     22  S   UNL A   1      36.223  22.178  24.161  1.00  0.00    -0.109 SA
ATOM     23  C   UNL A   1      37.218  21.227  25.332  1.00  0.00     0.092 C 
ENDBRANCH  16  22
BRANCH  18  24
ATOM     24  O   UNL A   1      33.554  18.361  25.315  1.00  0.00    -0.479 OA
ATOM     25  H   UNL A   1      33.079  18.003  26.039  1.00  0.00     0.297 HD
ENDBRANCH  18  24
ENDBRANCH  13  15
ENDBRANCH   9  13
BRANCH  11  26
ATOM     26  O   UNL A   1      33.338  26.883  21.537  1.00  0.00    -0.391 OA
ATOM     27  H   UNL A   1      34.158  26.519  21.169  1.00  0.00     0.211 HD
ENDBRANCH  11  26
ENDBRANCH   5   8
ENDBRANCH   3   4
ENDBRANCH   2   3
ENDBRANCH   1   2
BRANCH   1  28
ATOM     28  C   UNL A   1      31.536  30.810  26.051  1.00  0.00     0.002 C 
BRANCH  28  29
ATOM     29  C   UNL A   1      31.387  32.240  26.578  1.00  0.00     0.021 C 
BRANCH  29  30
ATOM     30  C   UNL A   1      32.613  32.811  27.283  1.00  0.00     0.116 C 
BRANCH  30  31
ATOM     31  N   UNL A   1      32.427  34.203  27.652  1.00  0.00    -0.352 N 
ATOM     32  C   UNL A   1      33.013  34.922  28.662  1.00  0.00     0.251 C 
ATOM     33  H   UNL A   1      31.786  34.703  27.097  1.00  0.00     0.163 HD
ATOM     34  O   UNL A   1      32.580  36.025  28.972  1.00  0.00    -0.269 OA
BRANCH  32  35
ATOM     35  C   UNL A   1      34.178  34.366  29.379  1.00  0.00     0.039 A 
ATOM     36  C   UNL A   1      35.454  34.540  28.836  1.00  0.00     0.014 A 
ATOM     37  C   UNL A   1      34.004  33.627  30.553  1.00  0.00     0.014 A 
ATOM     38  C   UNL A   1      36.563  33.999  29.487  1.00  0.00     0.010 A 
ATOM     39  C   UNL A   1      35.114  33.133  31.230  1.00  0.00     0.010 A 
ATOM     40  C   UNL A   1      36.399  33.296  30.691  1.00  0.00    -0.014 A 
BRANCH  40  41
ATOM     41  C   UNL A   1      37.549  32.649  31.363  1.00  0.00     0.031 A 
ATOM     42  C   UNL A   1      38.255  31.514  30.681  1.00  0.00     0.074 A 
ATOM     43  C   UNL A   1      37.927  33.046  32.590  1.00  0.00     0.049 A 
ATOM     44  N   UNL A   1      39.236  30.766  31.116  1.00  0.00    -0.248 NA
ATOM     45  C   UNL A   1      37.776  31.158  29.336  1.00  0.00     0.031 C 
ATOM     46  C   UNL A   1      37.309  34.126  33.355  1.00  0.00     0.029 A 
ATOM     47  N   UNL A   1      38.917  32.573  33.414  1.00  0.00    -0.354 N 
ATOM     48  C   UNL A   1      39.489  29.853  30.101  1.00  0.00     0.074 A 
ATOM     49  C   UNL A   1      38.520  30.100  29.056  1.00  0.00     0.031 C 
ATOM     50  C   UNL A   1      37.941  34.244  34.534  1.00  0.00     0.029 A 
ATOM     51  C   UNL A   1      38.985  33.225  34.620  1.00  0.00     0.049 A 
ATOM     52  H   UNL A   1      39.522  31.837  33.164  1.00  0.00     0.167 HD
ATOM     53  C   UNL A   1      40.459  28.910  30.037  1.00  0.00     0.037 A 
ATOM     54  C   UNL A   1      39.794  33.015  35.677  1.00  0.00     0.037 A 
ATOM     55  C   UNL A   1      41.422  28.673  31.080  1.00  0.00     0.049 A 
ATOM     56  C   UNL A   1      40.833  31.928  35.606  1.00  0.00     0.074 A 
ATOM     57  C   UNL A   1      42.470  27.771  31.096  1.00  0.00     0.029 A 
ATOM     58  N   UNL A   1      41.447  29.339  32.297  1.00  0.00    -0.354 N 
ATOM     59  N   UNL A   1      41.100  31.102  34.623  1.00  0.00    -0.248 NA
ATOM     60  C   UNL A   1      41.682  31.747  36.791  1.00  0.00     0.031 C 
ATOM     61  C   UNL A   1      43.093  27.849  32.345  1.00  0.00     0.029 A 
ATOM     62  C   UNL A   1      42.473  28.842  33.087  1.00  0.00     0.049 A 
ATOM     63  H   UNL A   1      40.829  30.058  32.562  1.00  0.00     0.167 HD
ATOM     64  C   UNL A   1      42.158  30.315  35.061  1.00  0.00     0.074 A 
ATOM     65  C   UNL A   1      42.496  30.778  36.391  1.00  0.00     0.031 C 
ATOM     66  C   UNL A   1      42.789  29.302  34.418  1.00  0.00     0.037 A 
BRANCH  53  67
ATOM     67  C   UNL A   1      40.517  28.061  28.800  1.00  0.00     0.064 A 
ATOM     68  C   UNL A   1      41.278  28.439  27.682  1.00  0.00     0.173 A 
ATOM     69  C   UNL A   1      39.823  26.844  28.737  1.00  0.00     0.173 A 
ATOM     70  F   UNL A   1      41.949  29.602  27.684  1.00  0.00    -0.203 F 
ATOM     71  C   UNL A   1      41.316  27.648  26.538  1.00  0.00     0.198 A 
ATOM     72  C   UNL A   1      39.892  26.037  27.604  1.00  0.00     0.198 A 
ATOM     73  F   UNL A   1      39.084  26.431  29.777  1.00  0.00    -0.203 F 
ATOM     74  F   UNL A   1      42.005  28.058  25.464  1.00  0.00    -0.200 F 
ATOM     75  C   UNL A   1      40.629  26.443  26.503  1.00  0.00     0.200 A 
ATOM     76  F   UNL A   1      39.239  24.867  27.577  1.00  0.00    -0.200 F 
ATOM     77  F   UNL A   1      40.673  25.678  25.404  1.00  0.00    -0.200 F 
ENDBRANCH  53  67
BRANCH  54  78
ATOM     78  C   UNL A   1      39.664  33.884  36.874  1.00  0.00     0.064 A 
ATOM     79  C   UNL A   1      40.289  35.137  36.919  1.00  0.00     0.173 A 
ATOM     80  C   UNL A   1      38.876  33.506  37.972  1.00  0.00     0.173 A 
ATOM     81  F   UNL A   1      41.071  35.532  35.905  1.00  0.00    -0.203 F 
ATOM     82  C   UNL A   1      40.128  35.981  38.016  1.00  0.00     0.198 A 
ATOM     83  C   UNL A   1      38.695  34.361  39.055  1.00  0.00     0.198 A 
ATOM     84  F   UNL A   1      38.257  32.316  37.977  1.00  0.00    -0.203 F 
ATOM     85  F   UNL A   1      40.754  37.166  38.044  1.00  0.00    -0.200 F 
ATOM     86  C   UNL A   1      39.322  35.598  39.078  1.00  0.00     0.200 A 
ATOM     87  F   UNL A   1      37.906  33.992  40.073  1.00  0.00    -0.200 F 
ATOM     88  F   UNL A   1      39.151  36.420  40.123  1.00  0.00    -0.200 F 
ENDBRANCH  54  78
BRANCH  66  89
ATOM     89  C   UNL A   1      43.915  28.615  35.139  1.00  0.00     0.064 A 
ATOM     90  C   UNL A   1      43.697  27.461  35.906  1.00  0.00     0.173 A 
ATOM     91  C   UNL A   1      45.235  29.076  35.009  1.00  0.00     0.173 A 
ATOM     92  F   UNL A   1      42.455  26.985  36.072  1.00  0.00    -0.203 F 
ATOM     93  C   UNL A   1      44.755  26.805  36.530  1.00  0.00     0.198 A 
ATOM     94  C   UNL A   1      46.294  28.399  35.605  1.00  0.00     0.198 A 
ATOM     95  F   UNL A   1      45.500  30.170  34.278  1.00  0.00    -0.203 F 
ATOM     96  F   UNL A   1      44.518  25.728  37.292  1.00  0.00    -0.200 F 
ATOM     97  C   UNL A   1      46.053  27.268  36.371  1.00  0.00     0.200 A 
ATOM     98  F   UNL A   1      47.549  28.837  35.436  1.00  0.00    -0.200 F 
ATOM     99  F   UNL A   1      47.072  26.626  36.959  1.00  0.00    -0.200 F 
ENDBRANCH  66  89
ENDBRANCH  40  41
ENDBRANCH  32  35
ENDBRANCH  30  31
ENDBRANCH  29  30
ENDBRANCH  28  29
ENDBRANCH   1  28
TORSDOF 18
ENDMDL
