MODEL 1
REMARK VINA RESULT:     -16.9      0.000      0.000
REMARK SMILES NC(=O)c1c(-c2ccc(Cl)cc2)csc1NC(=O)[C@H]1[C@@H](C(=O)NCCCCCCNC(=O)c2ccc(-c3c4nc(c(-c5c(F)c(F)c(F)c(F)c5F)c5ccc([nH]5)c(-c5c(F)c(F)c(F)c(F)c5F)c5nc(c(-c6c(F)c(F)c(F)c(F)c6F)c6ccc3[nH]6)C=C5)C=C4)cc2)[C@@H]2CC[C@H]1O2
REMARK SMILES IDX 26 1 25 2 24 3 23 4 21 5 22 6 20 8 19 9 99 10 96 11 98 12
REMARK SMILES IDX 100 13 97 14 17 15 16 16 18 18 15 19 4 20 5 21 13 22 14 23
REMARK SMILES IDX 2 24 1 25 3 28 6 29 7 30 12 31 8 32 11 33 9 34 10 35 27 36
REMARK SMILES IDX 28 37 29 38 30 39 31 40 32 42 33 43 34 44 95 45 35 46 94 47
REMARK SMILES IDX 36 48 37 49 38 50 88 51 39 52 93 53 87 54 89 55 40 56 92 57
REMARK SMILES IDX 86 58 85 59 41 61 73 62 53 63 72 64 54 65 57 66 71 67 90 68
REMARK SMILES IDX 55 69 56 70 70 72 91 73 58 74 42 75 43 76 51 77 44 78 45 79
REMARK SMILES IDX 49 80 52 81 46 82 47 83 50 84 48 85 74 86 75 87 83 88 76 89
REMARK SMILES IDX 77 90 81 91 84 92 78 93 79 94 82 95 80 96 59 97 60 98 68 99
REMARK SMILES IDX 61 100 62 101 66 102 69 103 63 104 64 105 67 106 65 107
REMARK H PARENT 23 7 16 17 1 26 1 27 30 41 89 60 57 71
REMARK Flexibility Score: inf
ROOT
ATOM      1  C   UNL A   1      34.596  28.878  26.993  1.00  0.00     0.002 C 
ENDROOT
BRANCH   1   2
ATOM      2  C   UNL A   1      33.879  29.159  25.122  1.00  0.00     0.021 C 
BRANCH   2   3
ATOM      3  C   UNL A   1      31.805  30.004  25.267  1.00  0.00     0.116 C 
BRANCH   3   4
ATOM      4  N   UNL A   1      30.534  29.632  24.258  1.00  0.00    -0.356 N 
ATOM      5  C   UNL A   1      30.121  28.429  23.758  1.00  0.00     0.226 C 
ATOM      6  O   UNL A   1      29.388  28.399  22.775  1.00  0.00    -0.275 OA
ATOM      7  H   UNL A   1      29.992  30.404  23.975  1.00  0.00     0.163 HD
BRANCH   5   8
ATOM      8  C   UNL A   1      30.525  27.225  24.554  1.00  0.00     0.122 C 
ATOM      9  C   UNL A   1      31.788  26.437  24.167  1.00  0.00     0.123 C 
ATOM     10  C   UNL A   1      31.198  25.010  24.077  1.00  0.00     0.132 C 
ATOM     11  C   UNL A   1      29.416  26.165  24.509  1.00  0.00     0.132 C 
ATOM     12  C   UNL A   1      30.794  24.497  25.468  1.00  0.00     0.035 C 
ATOM     13  O   UNL A   1      29.893  25.249  23.508  1.00  0.00    -0.373 OA
ATOM     14  C   UNL A   1      29.531  25.307  25.768  1.00  0.00     0.035 C 
BRANCH   9  15
ATOM     15  C   UNL A   1      32.561  26.786  22.886  1.00  0.00     0.231 C 
ATOM     16  N   UNL A   1      33.569  25.994  22.393  1.00  0.00    -0.317 N 
ATOM     17  H   UNL A   1      33.880  26.163  21.475  1.00  0.00     0.170 HD
ATOM     18  O   UNL A   1      32.250  27.758  22.190  1.00  0.00    -0.274 OA
BRANCH  16  19
ATOM     19  C   UNL A   1      34.169  24.984  23.100  1.00  0.00     0.108 A 
ATOM     20  C   UNL A   1      34.503  23.289  22.721  1.00  0.00     0.082 A 
ATOM     21  C   UNL A   1      35.367  22.387  24.390  1.00  0.00     0.007 A 
ATOM     22  C   UNL A   1      35.496  23.565  25.697  1.00  0.00     0.076 A 
ATOM     23  S   UNL A   1      34.456  25.483  25.239  1.00  0.00    -0.125 S 
BRANCH  20  24
ATOM     24  C   UNL A   1      33.307  23.099  21.673  1.00  0.00     0.252 C 
ATOM     25  N   UNL A   1      32.169  22.377  22.106  1.00  0.00    -0.365 N 
ATOM     26  H   UNL A   1      31.411  22.238  21.493  1.00  0.00     0.159 HD
ATOM     27  H   UNL A   1      32.134  22.013  23.021  1.00  0.00     0.159 HD
ATOM     28  O   UNL A   1      33.241  23.709  20.616  1.00  0.00    -0.269 OA
ENDBRANCH  20  24
BRANCH  21  29
ATOM     29  C   UNL A   1      34.813  20.980  25.379  1.00  0.00    -0.017 A 
ATOM     30  C   UNL A   1      35.950  19.665  24.973  1.00  0.00     0.010 A 
ATOM     31  C   UNL A   1      32.972  20.514  25.578  1.00  0.00     0.010 A 
ATOM     32  C   UNL A   1      35.350  18.076  24.580  1.00  0.00     0.021 A 
ATOM     33  C   UNL A   1      32.424  18.838  25.118  1.00  0.00     0.021 A 
ATOM     34  C   UNL A   1      33.648  17.667  24.650  1.00  0.00     0.041 A 
ATOM     35  Cl  UNL A   1      33.218  16.010  24.477  1.00  0.00    -0.084 Cl
ENDBRANCH  21  29
ENDBRANCH  16  19
ENDBRANCH   9  15
ENDBRANCH   5   8
ENDBRANCH   3   4
ENDBRANCH   2   3
ENDBRANCH   1   2
BRANCH   1  36
ATOM     36  C   UNL A   1      34.397  30.321  28.310  1.00  0.00     0.002 C 
BRANCH  36  37
ATOM     37  C   UNL A   1      34.618  32.126  27.585  1.00  0.00     0.021 C 
BRANCH  37  38
ATOM     38  C   UNL A   1      32.846  33.429  27.612  1.00  0.00     0.116 C 
BRANCH  38  39
ATOM     39  N   UNL A   1      32.789  34.988  28.374  1.00  0.00    -0.352 N 
ATOM     40  C   UNL A   1      33.150  35.421  29.599  1.00  0.00     0.251 C 
ATOM     41  H   UNL A   1      32.420  35.696  27.798  1.00  0.00     0.163 HD
ATOM     42  O   UNL A   1      32.686  36.420  30.125  1.00  0.00    -0.269 OA
BRANCH  40  43
ATOM     43  C   UNL A   1      34.240  34.683  30.161  1.00  0.00     0.039 A 
ATOM     44  C   UNL A   1      33.996  33.731  31.136  1.00  0.00     0.014 A 
ATOM     45  C   UNL A   1      35.483  34.910  29.561  1.00  0.00     0.014 A 
ATOM     46  C   UNL A   1      35.072  32.979  31.549  1.00  0.00     0.010 A 
ATOM     47  C   UNL A   1      36.528  34.103  29.913  1.00  0.00     0.010 A 
ATOM     48  C   UNL A   1      36.327  33.176  30.943  1.00  0.00    -0.014 A 
BRANCH  48  49
ATOM     49  C   UNL A   1      37.498  32.489  31.475  1.00  0.00     0.031 A 
ATOM     50  C   UNL A   1      37.996  32.889  32.826  1.00  0.00     0.074 A 
ATOM     51  C   UNL A   1      38.074  31.534  30.733  1.00  0.00     0.049 A 
ATOM     52  N   UNL A   1      39.007  32.414  33.499  1.00  0.00    -0.248 NA
ATOM     53  C   UNL A   1      37.278  33.984  33.507  1.00  0.00     0.031 C 
ATOM     54  C   UNL A   1      37.642  31.123  29.394  1.00  0.00     0.029 A 
ATOM     55  N   UNL A   1      39.139  30.730  31.010  1.00  0.00    -0.354 N 
ATOM     56  C   UNL A   1      39.042  33.147  34.674  1.00  0.00     0.074 A 
ATOM     57  C   UNL A   1      38.009  34.151  34.595  1.00  0.00     0.031 C 
ATOM     58  C   UNL A   1      38.419  30.110  28.982  1.00  0.00     0.029 A 
ATOM     59  C   UNL A   1      39.420  29.839  30.010  1.00  0.00     0.049 A 
ATOM     60  H   UNL A   1      39.654  30.785  31.848  1.00  0.00     0.167 HD
ATOM     61  C   UNL A   1      39.851  32.964  35.738  1.00  0.00     0.037 A 
ATOM     62  C   UNL A   1      40.391  28.913  29.948  1.00  0.00     0.037 A 
ATOM     63  C   UNL A   1      40.859  31.943  35.789  1.00  0.00     0.049 A 
ATOM     64  C   UNL A   1      41.306  28.765  31.134  1.00  0.00     0.074 A 
ATOM     65  C   UNL A   1      41.722  31.636  36.823  1.00  0.00     0.029 A 
ATOM     66  N   UNL A   1      41.142  31.066  34.750  1.00  0.00    -0.354 N 
ATOM     67  N   UNL A   1      41.302  29.417  32.273  1.00  0.00    -0.248 NA
ATOM     68  C   UNL A   1      42.354  27.745  31.028  1.00  0.00     0.031 C 
ATOM     69  C   UNL A   1      42.573  30.619  36.384  1.00  0.00     0.029 A 
ATOM     70  C   UNL A   1      42.192  30.239  35.106  1.00  0.00     0.049 A 
ATOM     71  H   UNL A   1      40.666  31.038  33.889  1.00  0.00     0.167 HD
ATOM     72  C   UNL A   1      42.324  28.865  33.033  1.00  0.00     0.074 A 
ATOM     73  C   UNL A   1      42.911  27.812  32.229  1.00  0.00     0.031 C 
ATOM     74  C   UNL A   1      42.746  29.195  34.280  1.00  0.00     0.037 A 
BRANCH  61  75
ATOM     75  C   UNL A   1      39.679  33.885  36.907  1.00  0.00     0.064 A 
ATOM     76  C   UNL A   1      40.295  35.146  36.954  1.00  0.00     0.173 A 
ATOM     77  C   UNL A   1      38.872  33.508  37.989  1.00  0.00     0.173 A 
ATOM     78  F   UNL A   1      41.099  35.545  35.956  1.00  0.00    -0.203 F 
ATOM     79  C   UNL A   1      40.128  35.984  38.053  1.00  0.00     0.198 A 
ATOM     80  C   UNL A   1      38.678  34.365  39.069  1.00  0.00     0.198 A 
ATOM     81  F   UNL A   1      38.268  32.311  37.999  1.00  0.00    -0.203 F 
ATOM     82  F   UNL A   1      40.772  37.158  38.102  1.00  0.00    -0.200 F 
ATOM     83  C   UNL A   1      39.311  35.597  39.105  1.00  0.00     0.200 A 
ATOM     84  F   UNL A   1      37.879  33.993  40.079  1.00  0.00    -0.200 F 
ATOM     85  F   UNL A   1      39.141  36.409  40.157  1.00  0.00    -0.200 F 
ENDBRANCH  61  75
BRANCH  62  86
ATOM     86  C   UNL A   1      40.535  28.065  28.739  1.00  0.00     0.064 A 
ATOM     87  C   UNL A   1      41.321  28.477  27.655  1.00  0.00     0.173 A 
ATOM     88  C   UNL A   1      39.877  26.830  28.638  1.00  0.00     0.173 A 
ATOM     89  F   UNL A   1      41.965  29.651  27.703  1.00  0.00    -0.203 F 
ATOM     90  C   UNL A   1      41.408  27.706  26.498  1.00  0.00     0.198 A 
ATOM     91  C   UNL A   1      39.995  26.043  27.496  1.00  0.00     0.198 A 
ATOM     92  F   UNL A   1      39.128  26.381  29.655  1.00  0.00    -0.203 F 
ATOM     93  F   UNL A   1      42.115  28.153  25.451  1.00  0.00    -0.200 F 
ATOM     94  C   UNL A   1      40.749  26.489  26.421  1.00  0.00     0.200 A 
ATOM     95  F   UNL A   1      39.375  24.857  27.436  1.00  0.00    -0.200 F 
ATOM     96  F   UNL A   1      40.832  25.749  25.307  1.00  0.00    -0.200 F 
ENDBRANCH  62  86
BRANCH  74  97
ATOM     97  C   UNL A   1      43.866  28.382  34.860  1.00  0.00     0.064 A 
ATOM     98  C   UNL A   1      43.630  27.191  35.559  1.00  0.00     0.173 A 
ATOM     99  C   UNL A   1      45.199  28.780  34.669  1.00  0.00     0.173 A 
ATOM    100  F   UNL A   1      42.374  26.773  35.778  1.00  0.00    -0.203 F 
ATOM    101  C   UNL A   1      44.685  26.447  36.080  1.00  0.00     0.198 A 
ATOM    102  C   UNL A   1      46.252  28.012  35.153  1.00  0.00     0.198 A 
ATOM    103  F   UNL A   1      45.479  29.906  33.995  1.00  0.00    -0.203 F 
ATOM    104  F   UNL A   1      44.433  25.344  36.799  1.00  0.00    -0.200 F 
ATOM    105  C   UNL A   1      45.994  26.852  35.867  1.00  0.00     0.200 A 
ATOM    106  F   UNL A   1      47.517  28.394  34.927  1.00  0.00    -0.200 F 
ATOM    107  F   UNL A   1      47.009  26.128  36.358  1.00  0.00    -0.200 F 
ENDBRANCH  74  97
ENDBRANCH  48  49
ENDBRANCH  40  43
ENDBRANCH  38  39
ENDBRANCH  37  38
ENDBRANCH  36  37
ENDBRANCH   1  36
TORSDOF 17
ENDMDL
MODEL 2
REMARK VINA RESULT:     -16.5      6.113     11.564
REMARK SMILES NC(=O)c1c(-c2ccc(Cl)cc2)csc1NC(=O)[C@H]1[C@@H](C(=O)NCCCCCCNC(=O)c2ccc(-c3c4nc(c(-c5c(F)c(F)c(F)c(F)c5F)c5ccc([nH]5)c(-c5c(F)c(F)c(F)c(F)c5F)c5nc(c(-c6c(F)c(F)c(F)c(F)c6F)c6ccc3[nH]6)C=C5)C=C4)cc2)[C@@H]2CC[C@H]1O2
REMARK SMILES IDX 26 1 25 2 24 3 23 4 21 5 22 6 20 8 19 9 99 10 96 11 98 12
REMARK SMILES IDX 100 13 97 14 17 15 16 16 18 18 15 19 4 20 5 21 13 22 14 23
REMARK SMILES IDX 2 24 1 25 3 28 6 29 7 30 12 31 8 32 11 33 9 34 10 35 27 36
REMARK SMILES IDX 28 37 29 38 30 39 31 40 32 42 33 43 34 44 95 45 35 46 94 47
REMARK SMILES IDX 36 48 37 49 38 50 88 51 39 52 93 53 87 54 89 55 40 56 92 57
REMARK SMILES IDX 86 58 85 59 41 61 73 62 53 63 72 64 54 65 57 66 71 67 90 68
REMARK SMILES IDX 55 69 56 70 70 72 91 73 58 74 42 75 43 76 51 77 44 78 45 79
REMARK SMILES IDX 49 80 52 81 46 82 47 83 50 84 48 85 74 86 75 87 83 88 76 89
REMARK SMILES IDX 77 90 81 91 84 92 78 93 79 94 82 95 80 96 59 97 60 98 68 99
REMARK SMILES IDX 61 100 62 101 66 102 69 103 63 104 64 105 67 106 65 107
REMARK H PARENT 23 7 16 17 1 26 1 27 30 41 89 60 57 71
REMARK Flexibility Score: inf
ROOT
ATOM      1  C   UNL A   1      38.898  23.511  26.827  1.00  0.00     0.002 C 
ENDROOT
BRANCH   1   2
ATOM      2  C   UNL A   1      37.663  23.025  25.300  1.00  0.00     0.021 C 
BRANCH   2   3
ATOM      3  C   UNL A   1      35.931  21.858  26.122  1.00  0.00     0.116 C 
BRANCH   3   4
ATOM      4  N   UNL A   1      35.081  20.680  25.307  1.00  0.00    -0.356 N 
ATOM      5  C   UNL A   1      33.977  20.775  24.506  1.00  0.00     0.226 C 
ATOM      6  O   UNL A   1      33.304  19.776  24.279  1.00  0.00    -0.275 OA
ATOM      7  H   UNL A   1      35.432  19.766  25.420  1.00  0.00     0.163 HD
BRANCH   5   8
ATOM      8  C   UNL A   1      33.753  22.115  23.873  1.00  0.00     0.122 C 
ATOM      9  C   UNL A   1      33.075  23.240  24.673  1.00  0.00     0.123 C 
ATOM     10  C   UNL A   1      31.953  23.635  23.685  1.00  0.00     0.132 C 
ATOM     11  C   UNL A   1      32.857  21.970  22.634  1.00  0.00     0.132 C 
ATOM     12  C   UNL A   1      32.538  24.306  22.433  1.00  0.00     0.035 C 
ATOM     13  O   UNL A   1      31.565  22.360  23.130  1.00  0.00    -0.373 OA
ATOM     14  C   UNL A   1      33.169  23.128  21.687  1.00  0.00     0.035 C 
BRANCH   9  15
ATOM     15  C   UNL A   1      32.497  22.962  26.069  1.00  0.00     0.231 C 
ATOM     16  N   UNL A   1      31.955  23.951  26.853  1.00  0.00    -0.317 N 
ATOM     17  H   UNL A   1      31.425  23.678  27.637  1.00  0.00     0.170 HD
ATOM     18  O   UNL A   1      32.415  21.813  26.516  1.00  0.00    -0.274 OA
BRANCH  16  19
ATOM     19  C   UNL A   1      32.106  25.292  26.614  1.00  0.00     0.108 A 
ATOM     20  C   UNL A   1      30.953  26.629  26.505  1.00  0.00     0.082 A 
ATOM     21  C   UNL A   1      31.988  28.367  26.005  1.00  0.00     0.007 A 
ATOM     22  C   UNL A   1      33.702  28.000  25.817  1.00  0.00     0.076 A 
ATOM     23  S   UNL A   1      34.132  25.813  25.886  1.00  0.00    -0.125 S 
BRANCH  20  24
ATOM     24  C   UNL A   1      29.695  25.746  26.054  1.00  0.00     0.252 C 
ATOM     25  N   UNL A   1      29.344  25.764  24.682  1.00  0.00    -0.365 N 
ATOM     26  H   UNL A   1      28.578  25.234  24.363  1.00  0.00     0.159 HD
ATOM     27  H   UNL A   1      29.866  26.305  24.047  1.00  0.00     0.159 HD
ATOM     28  O   UNL A   1      29.166  24.916  26.779  1.00  0.00    -0.269 OA
ENDBRANCH  20  24
BRANCH  21  29
ATOM     29  C   UNL A   1      31.813  29.466  24.581  1.00  0.00    -0.017 A 
ATOM     30  C   UNL A   1      30.902  30.871  25.202  1.00  0.00     0.010 A 
ATOM     31  C   UNL A   1      31.365  28.836  22.836  1.00  0.00     0.010 A 
ATOM     32  C   UNL A   1      29.533  31.489  24.318  1.00  0.00     0.021 A 
ATOM     33  C   UNL A   1      29.900  29.518  21.992  1.00  0.00     0.021 A 
ATOM     34  C   UNL A   1      29.044  30.843  22.764  1.00  0.00     0.041 A 
ATOM     35  Cl  UNL A   1      27.835  31.699  21.889  1.00  0.00    -0.084 Cl
ENDBRANCH  21  29
ENDBRANCH  16  19
ENDBRANCH   9  15
ENDBRANCH   5   8
ENDBRANCH   3   4
ENDBRANCH   2   3
ENDBRANCH   1   2
BRANCH   1  36
ATOM     36  C   UNL A   1      40.372  22.292  27.276  1.00  0.00     0.002 C 
BRANCH  36  37
ATOM     37  C   UNL A   1      41.465  21.733  25.752  1.00  0.00     0.021 C 
BRANCH  37  38
ATOM     38  C   UNL A   1      42.186  19.655  25.759  1.00  0.00     0.116 C 
BRANCH  38  39
ATOM     39  N   UNL A   1      43.679  19.135  25.040  1.00  0.00    -0.352 N 
ATOM     40  C   UNL A   1      44.648  19.789  24.368  1.00  0.00     0.251 C 
ATOM     41  H   UNL A   1      43.853  18.171  25.145  1.00  0.00     0.163 HD
ATOM     42  O   UNL A   1      45.411  19.245  23.587  1.00  0.00    -0.269 OA
BRANCH  40  43
ATOM     43  C   UNL A   1      44.792  21.155  24.772  1.00  0.00     0.039 A 
ATOM     44  C   UNL A   1      44.510  22.171  23.875  1.00  0.00     0.014 A 
ATOM     45  C   UNL A   1      45.094  21.345  26.124  1.00  0.00     0.014 A 
ATOM     46  C   UNL A   1      44.558  23.456  24.363  1.00  0.00     0.010 A 
ATOM     47  C   UNL A   1      45.057  22.617  26.623  1.00  0.00     0.010 A 
ATOM     48  C   UNL A   1      44.839  23.670  25.726  1.00  0.00    -0.014 A 
BRANCH  48  49
ATOM     49  C   UNL A   1      45.036  25.030  26.216  1.00  0.00     0.031 A 
ATOM     50  C   UNL A   1      46.404  25.622  26.117  1.00  0.00     0.074 A 
ATOM     51  C   UNL A   1      43.987  25.684  26.730  1.00  0.00     0.049 A 
ATOM     52  N   UNL A   1      46.810  26.808  26.477  1.00  0.00    -0.248 NA
ATOM     53  C   UNL A   1      47.467  24.763  25.560  1.00  0.00     0.031 C 
ATOM     54  C   UNL A   1      42.634  25.140  26.872  1.00  0.00     0.029 A 
ATOM     55  N   UNL A   1      43.897  26.955  27.214  1.00  0.00    -0.354 N 
ATOM     56  C   UNL A   1      48.164  26.835  26.190  1.00  0.00     0.074 A 
ATOM     57  C   UNL A   1      48.536  25.529  25.701  1.00  0.00     0.031 C 
ATOM     58  C   UNL A   1      41.837  26.094  27.378  1.00  0.00     0.029 A 
ATOM     59  C   UNL A   1      42.636  27.289  27.629  1.00  0.00     0.049 A 
ATOM     60  H   UNL A   1      44.664  27.571  27.260  1.00  0.00     0.167 HD
ATOM     61  C   UNL A   1      49.011  27.881  26.293  1.00  0.00     0.037 A 
ATOM     62  C   UNL A   1      42.196  28.443  28.157  1.00  0.00     0.037 A 
ATOM     63  C   UNL A   1      48.604  29.174  26.768  1.00  0.00     0.049 A 
ATOM     64  C   UNL A   1      43.176  29.576  28.302  1.00  0.00     0.074 A 
ATOM     65  C   UNL A   1      49.360  30.323  26.890  1.00  0.00     0.029 A 
ATOM     66  N   UNL A   1      47.322  29.481  27.207  1.00  0.00    -0.354 N 
ATOM     67  N   UNL A   1      44.446  29.624  27.972  1.00  0.00    -0.248 NA
ATOM     68  C   UNL A   1      42.658  30.819  28.883  1.00  0.00     0.031 C 
ATOM     69  C   UNL A   1      48.554  31.307  27.468  1.00  0.00     0.029 A 
ATOM     70  C   UNL A   1      47.275  30.796  27.634  1.00  0.00     0.049 A 
ATOM     71  H   UNL A   1      46.562  28.857  27.212  1.00  0.00     0.167 HD
ATOM     72  C   UNL A   1      44.872  30.910  28.276  1.00  0.00     0.074 A 
ATOM     73  C   UNL A   1      43.716  31.612  28.796  1.00  0.00     0.031 C 
ATOM     74  C   UNL A   1      46.103  31.464  28.141  1.00  0.00     0.037 A 
BRANCH  61  75
ATOM     75  C   UNL A   1      50.439  27.660  25.899  1.00  0.00     0.064 A 
ATOM     76  C   UNL A   1      50.882  27.841  24.579  1.00  0.00     0.173 A 
ATOM     77  C   UNL A   1      51.384  27.278  26.861  1.00  0.00     0.173 A 
ATOM     78  F   UNL A   1      50.013  28.181  23.614  1.00  0.00    -0.203 F 
ATOM     79  C   UNL A   1      52.212  27.623  24.233  1.00  0.00     0.198 A 
ATOM     80  C   UNL A   1      52.721  27.097  26.519  1.00  0.00     0.198 A 
ATOM     81  F   UNL A   1      51.012  27.083  28.135  1.00  0.00    -0.203 F 
ATOM     82  F   UNL A   1      52.600  27.745  22.957  1.00  0.00    -0.200 F 
ATOM     83  C   UNL A   1      53.133  27.262  25.206  1.00  0.00     0.200 A 
ATOM     84  F   UNL A   1      53.611  26.759  27.463  1.00  0.00    -0.200 F 
ATOM     85  F   UNL A   1      54.416  27.063  24.875  1.00  0.00    -0.200 F 
ENDBRANCH  61  75
BRANCH  62  86
ATOM     86  C   UNL A   1      40.778  28.579  28.570  1.00  0.00     0.064 A 
ATOM     87  C   UNL A   1      39.801  29.025  27.670  1.00  0.00     0.173 A 
ATOM     88  C   UNL A   1      40.372  28.278  29.879  1.00  0.00     0.173 A 
ATOM     89  F   UNL A   1      40.141  29.329  26.410  1.00  0.00    -0.203 F 
ATOM     90  C   UNL A   1      38.481  29.206  28.075  1.00  0.00     0.198 A 
ATOM     91  C   UNL A   1      39.045  28.424  30.272  1.00  0.00     0.198 A 
ATOM     92  F   UNL A   1      41.264  27.829  30.774  1.00  0.00    -0.203 F 
ATOM     93  F   UNL A   1      37.580  29.695  27.213  1.00  0.00    -0.200 F 
ATOM     94  C   UNL A   1      38.103  28.903  29.375  1.00  0.00     0.200 A 
ATOM     95  F   UNL A   1      38.681  28.107  31.522  1.00  0.00    -0.200 F 
ATOM     96  F   UNL A   1      36.834  29.080  29.765  1.00  0.00    -0.200 F 
ENDBRANCH  62  86
BRANCH  74  97
ATOM     97  C   UNL A   1      46.248  32.908  28.526  1.00  0.00     0.064 A 
ATOM     98  C   UNL A   1      46.632  33.293  29.818  1.00  0.00     0.173 A 
ATOM     99  C   UNL A   1      46.044  33.917  27.571  1.00  0.00     0.173 A 
ATOM    100  F   UNL A   1      46.828  32.368  30.769  1.00  0.00    -0.203 F 
ATOM    101  C   UNL A   1      46.771  34.638  30.150  1.00  0.00     0.198 A 
ATOM    102  C   UNL A   1      46.225  35.256  27.895  1.00  0.00     0.198 A 
ATOM    103  F   UNL A   1      45.687  33.600  26.317  1.00  0.00    -0.203 F 
ATOM    104  F   UNL A   1      47.079  34.986  31.407  1.00  0.00    -0.200 F 
ATOM    105  C   UNL A   1      46.578  35.616  29.187  1.00  0.00     0.200 A 
ATOM    106  F   UNL A   1      46.061  36.199  26.957  1.00  0.00    -0.200 F 
ATOM    107  F   UNL A   1      46.724  36.910  29.505  1.00  0.00    -0.200 F 
ENDBRANCH  74  97
ENDBRANCH  48  49
ENDBRANCH  40  43
ENDBRANCH  38  39
ENDBRANCH  37  38
ENDBRANCH  36  37
ENDBRANCH   1  36
TORSDOF 17
ENDMDL
MODEL 3
REMARK VINA RESULT:     -16.4      5.726     10.266
REMARK SMILES NC(=O)c1c(-c2ccc(Cl)cc2)csc1NC(=O)[C@H]1[C@@H](C(=O)NCCCCCCNC(=O)c2ccc(-c3c4nc(c(-c5c(F)c(F)c(F)c(F)c5F)c5ccc([nH]5)c(-c5c(F)c(F)c(F)c(F)c5F)c5nc(c(-c6c(F)c(F)c(F)c(F)c6F)c6ccc3[nH]6)C=C5)C=C4)cc2)[C@@H]2CC[C@H]1O2
REMARK SMILES IDX 26 1 25 2 24 3 23 4 21 5 22 6 20 8 19 9 99 10 96 11 98 12
REMARK SMILES IDX 100 13 97 14 17 15 16 16 18 18 15 19 4 20 5 21 13 22 14 23
REMARK SMILES IDX 2 24 1 25 3 28 6 29 7 30 12 31 8 32 11 33 9 34 10 35 27 36
REMARK SMILES IDX 28 37 29 38 30 39 31 40 32 42 33 43 34 44 95 45 35 46 94 47
REMARK SMILES IDX 36 48 37 49 38 50 88 51 39 52 93 53 87 54 89 55 40 56 92 57
REMARK SMILES IDX 86 58 85 59 41 61 73 62 53 63 72 64 54 65 57 66 71 67 90 68
REMARK SMILES IDX 55 69 56 70 70 72 91 73 58 74 42 75 43 76 51 77 44 78 45 79
REMARK SMILES IDX 49 80 52 81 46 82 47 83 50 84 48 85 74 86 75 87 83 88 76 89
REMARK SMILES IDX 77 90 81 91 84 92 78 93 79 94 82 95 80 96 59 97 60 98 68 99
REMARK SMILES IDX 61 100 62 101 66 102 69 103 63 104 64 105 67 106 65 107
REMARK H PARENT 23 7 16 17 1 26 1 27 30 41 89 60 57 71
REMARK Flexibility Score: inf
ROOT
ATOM      1  C   UNL A   1      36.983  23.619  24.720  1.00  0.00     0.002 C 
ENDROOT
BRANCH   1   2
ATOM      2  C   UNL A   1      37.015  21.809  23.817  1.00  0.00     0.021 C 
BRANCH   2   3
ATOM      3  C   UNL A   1      35.770  20.384  25.023  1.00  0.00     0.116 C 
BRANCH   3   4
ATOM      4  N   UNL A   1      34.273  19.797  24.587  1.00  0.00    -0.356 N 
ATOM      5  C   UNL A   1      33.122  20.458  24.259  1.00  0.00     0.226 C 
ATOM      6  O   UNL A   1      32.049  19.866  24.302  1.00  0.00    -0.275 OA
ATOM      7  H   UNL A   1      34.207  18.815  24.561  1.00  0.00     0.163 HD
BRANCH   5   8
ATOM      8  C   UNL A   1      33.302  21.858  23.755  1.00  0.00     0.122 C 
ATOM      9  C   UNL A   1      33.101  23.049  24.706  1.00  0.00     0.123 C 
ATOM     10  C   UNL A   1      32.096  23.886  23.880  1.00  0.00     0.132 C 
ATOM     11  C   UNL A   1      32.312  22.140  22.616  1.00  0.00     0.132 C 
ATOM     12  C   UNL A   1      32.767  24.462  22.623  1.00  0.00     0.035 C 
ATOM     13  O   UNL A   1      31.265  22.870  23.279  1.00  0.00    -0.373 OA
ATOM     14  C   UNL A   1      32.911  23.229  21.728  1.00  0.00     0.035 C 
BRANCH   9  15
ATOM     15  C   UNL A   1      32.579  22.826  26.133  1.00  0.00     0.231 C 
ATOM     16  N   UNL A   1      32.052  23.841  26.893  1.00  0.00    -0.317 N 
ATOM     17  H   UNL A   1      31.555  23.596  27.707  1.00  0.00     0.170 HD
ATOM     18  O   UNL A   1      32.530  21.697  26.632  1.00  0.00    -0.274 OA
BRANCH  16  19
ATOM     19  C   UNL A   1      32.174  25.172  26.590  1.00  0.00     0.108 A 
ATOM     20  C   UNL A   1      31.000  26.490  26.476  1.00  0.00     0.082 A 
ATOM     21  C   UNL A   1      31.988  28.217  25.855  1.00  0.00     0.007 A 
ATOM     22  C   UNL A   1      33.698  27.862  25.607  1.00  0.00     0.076 A 
ATOM     23  S   UNL A   1      34.159  25.684  25.750  1.00  0.00    -0.125 S 
BRANCH  20  24
ATOM     24  C   UNL A   1      29.735  25.574  26.119  1.00  0.00     0.252 C 
ATOM     25  N   UNL A   1      29.260  25.608  24.786  1.00  0.00    -0.365 N 
ATOM     26  H   UNL A   1      28.485  25.059  24.525  1.00  0.00     0.159 HD
ATOM     27  H   UNL A   1      29.705  26.179  24.118  1.00  0.00     0.159 HD
ATOM     28  O   UNL A   1      29.301  24.712  26.870  1.00  0.00    -0.269 OA
ENDBRANCH  20  24
BRANCH  21  29
ATOM     29  C   UNL A   1      31.736  29.250  24.395  1.00  0.00    -0.017 A 
ATOM     30  C   UNL A   1      30.995  30.749  25.023  1.00  0.00     0.010 A 
ATOM     31  C   UNL A   1      31.061  28.566  22.746  1.00  0.00     0.010 A 
ATOM     32  C   UNL A   1      29.584  31.420  24.250  1.00  0.00     0.021 A 
ATOM     33  C   UNL A   1      29.563  29.310  22.020  1.00  0.00     0.021 A 
ATOM     34  C   UNL A   1      28.887  30.733  22.796  1.00  0.00     0.041 A 
ATOM     35  Cl  UNL A   1      27.652  31.629  22.003  1.00  0.00    -0.084 Cl
ENDBRANCH  21  29
ENDBRANCH  16  19
ENDBRANCH   9  15
ENDBRANCH   5   8
ENDBRANCH   3   4
ENDBRANCH   2   3
ENDBRANCH   1   2
BRANCH   1  36
ATOM     36  C   UNL A   1      37.803  23.807  26.495  1.00  0.00     0.002 C 
BRANCH  36  37
ATOM     37  C   UNL A   1      39.442  22.768  26.754  1.00  0.00     0.021 C 
BRANCH  37  38
ATOM     38  C   UNL A   1      39.380  20.653  26.152  1.00  0.00     0.116 C 
BRANCH  38  39
ATOM     39  N   UNL A   1      40.723  19.560  26.283  1.00  0.00    -0.352 N 
ATOM     40  C   UNL A   1      42.047  19.708  26.080  1.00  0.00     0.251 C 
ATOM     41  H   UNL A   1      40.465  18.650  26.561  1.00  0.00     0.163 HD
ATOM     42  O   UNL A   1      42.797  18.782  25.815  1.00  0.00    -0.269 OA
BRANCH  40  43
ATOM     43  C   UNL A   1      42.516  21.033  26.355  1.00  0.00     0.039 A 
ATOM     44  C   UNL A   1      42.835  21.394  27.652  1.00  0.00     0.014 A 
ATOM     45  C   UNL A   1      42.735  21.830  25.227  1.00  0.00     0.014 A 
ATOM     46  C   UNL A   1      43.387  22.642  27.828  1.00  0.00     0.010 A 
ATOM     47  C   UNL A   1      43.361  23.033  25.398  1.00  0.00     0.010 A 
ATOM     48  C   UNL A   1      43.637  23.453  26.705  1.00  0.00    -0.014 A 
BRANCH  48  49
ATOM     49  C   UNL A   1      44.083  24.828  26.895  1.00  0.00     0.031 A 
ATOM     50  C   UNL A   1      43.085  25.832  27.375  1.00  0.00     0.074 A 
ATOM     51  C   UNL A   1      45.361  25.130  26.633  1.00  0.00     0.049 A 
ATOM     52  N   UNL A   1      43.255  27.101  27.623  1.00  0.00    -0.248 NA
ATOM     53  C   UNL A   1      41.704  25.356  27.585  1.00  0.00     0.031 C 
ATOM     54  C   UNL A   1      46.370  24.191  26.138  1.00  0.00     0.029 A 
ATOM     55  N   UNL A   1      46.027  26.312  26.763  1.00  0.00    -0.354 N 
ATOM     56  C   UNL A   1      42.012  27.568  28.016  1.00  0.00     0.074 A 
ATOM     57  C   UNL A   1      41.076  26.475  27.901  1.00  0.00     0.031 C 
ATOM     58  C   UNL A   1      47.545  24.833  26.041  1.00  0.00     0.029 A 
ATOM     59  C   UNL A   1      47.351  26.227  26.426  1.00  0.00     0.049 A 
ATOM     60  H   UNL A   1      45.598  27.144  27.068  1.00  0.00     0.167 HD
ATOM     61  C   UNL A   1      41.697  28.799  28.471  1.00  0.00     0.037 A 
ATOM     62  C   UNL A   1      48.290  27.187  26.432  1.00  0.00     0.037 A 
ATOM     63  C   UNL A   1      42.658  29.859  28.589  1.00  0.00     0.049 A 
ATOM     64  C   UNL A   1      47.896  28.562  26.900  1.00  0.00     0.074 A 
ATOM     65  C   UNL A   1      42.469  31.142  29.064  1.00  0.00     0.029 A 
ATOM     66  N   UNL A   1      43.992  29.755  28.217  1.00  0.00    -0.354 N 
ATOM     67  N   UNL A   1      46.733  28.991  27.333  1.00  0.00    -0.248 NA
ATOM     68  C   UNL A   1      48.948  29.583  26.891  1.00  0.00     0.031 C 
ATOM     69  C   UNL A   1      43.673  31.836  28.915  1.00  0.00     0.029 A 
ATOM     70  C   UNL A   1      44.632  30.964  28.420  1.00  0.00     0.049 A 
ATOM     71  H   UNL A   1      44.418  28.942  27.863  1.00  0.00     0.167 HD
ATOM     72  C   UNL A   1      46.920  30.323  27.678  1.00  0.00     0.074 A 
ATOM     73  C   UNL A   1      48.315  30.620  27.421  1.00  0.00     0.031 C 
ATOM     74  C   UNL A   1      46.026  31.222  28.159  1.00  0.00     0.037 A 
BRANCH  61  75
ATOM     75  C   UNL A   1      40.271  29.053  28.855  1.00  0.00     0.064 A 
ATOM     76  C   UNL A   1      39.851  29.046  30.195  1.00  0.00     0.173 A 
ATOM     77  C   UNL A   1      39.314  29.326  27.868  1.00  0.00     0.173 A 
ATOM     78  F   UNL A   1      40.722  28.765  31.176  1.00  0.00    -0.203 F 
ATOM     79  C   UNL A   1      38.520  29.278  30.528  1.00  0.00     0.198 A 
ATOM     80  C   UNL A   1      37.991  29.595  28.209  1.00  0.00     0.198 A 
ATOM     81  F   UNL A   1      39.661  29.336  26.573  1.00  0.00    -0.203 F 
ATOM     82  F   UNL A   1      38.129  29.209  31.808  1.00  0.00    -0.200 F 
ATOM     83  C   UNL A   1      37.594  29.563  29.536  1.00  0.00     0.200 A 
ATOM     84  F   UNL A   1      37.101  29.881  27.249  1.00  0.00    -0.200 F 
ATOM     85  F   UNL A   1      36.314  29.798  29.859  1.00  0.00    -0.200 F 
ENDBRANCH  61  75
BRANCH  62  86
ATOM     86  C   UNL A   1      49.673  26.878  25.993  1.00  0.00     0.064 A 
ATOM     87  C   UNL A   1      50.062  27.040  24.657  1.00  0.00     0.173 A 
ATOM     88  C   UNL A   1      50.632  26.401  26.900  1.00  0.00     0.173 A 
ATOM     89  F   UNL A   1      49.181  27.489  23.752  1.00  0.00    -0.203 F 
ATOM     90  C   UNL A   1      51.345  26.695  24.235  1.00  0.00     0.198 A 
ATOM     91  C   UNL A   1      51.924  26.091  26.484  1.00  0.00     0.198 A 
ATOM     92  F   UNL A   1      50.316  26.246  28.194  1.00  0.00    -0.203 F 
ATOM     93  F   UNL A   1      51.671  26.798  22.940  1.00  0.00    -0.200 F 
ATOM     94  C   UNL A   1      52.275  26.224  25.150  1.00  0.00     0.200 A 
ATOM     95  F   UNL A   1      52.826  25.659  27.376  1.00  0.00    -0.200 F 
ATOM     96  F   UNL A   1      53.507  25.890  24.744  1.00  0.00    -0.200 F 
ENDBRANCH  62  86
BRANCH  74  97
ATOM     97  C   UNL A   1      46.542  32.596  28.476  1.00  0.00     0.064 A 
ATOM     98  C   UNL A   1      47.090  32.908  29.727  1.00  0.00     0.173 A 
ATOM     99  C   UNL A   1      46.528  33.598  27.493  1.00  0.00     0.173 A 
ATOM    100  F   UNL A   1      47.116  31.989  30.703  1.00  0.00    -0.203 F 
ATOM    101  C   UNL A   1      47.573  34.186  29.996  1.00  0.00     0.198 A 
ATOM    102  C   UNL A   1      47.050  34.861  27.751  1.00  0.00     0.198 A 
ATOM    103  F   UNL A   1      46.026  33.346  26.275  1.00  0.00    -0.203 F 
ATOM    104  F   UNL A   1      48.036  34.481  31.218  1.00  0.00    -0.200 F 
ATOM    105  C   UNL A   1      47.562  35.157  29.006  1.00  0.00     0.200 A 
ATOM    106  F   UNL A   1      47.059  35.790  26.786  1.00  0.00    -0.200 F 
ATOM    107  F   UNL A   1      48.038  36.383  29.262  1.00  0.00    -0.200 F 
ENDBRANCH  74  97
ENDBRANCH  48  49
ENDBRANCH  40  43
ENDBRANCH  38  39
ENDBRANCH  37  38
ENDBRANCH  36  37
ENDBRANCH   1  36
TORSDOF 17
ENDMDL
