MODEL 1
REMARK VINA RESULT:     -11.1      0.000      0.000
REMARK SMILES CC[C@@H]1CC(=O)N(Cc2ccc(C(=O)NCCCCCCNC(=O)c3ccc(-c4c5nc(c(-c6c(F)c(F)c(F)c(F)c6F)c6ccc([nH]6)c(-c6c(F)c(F)c(F)c(F)c6F)c6nc(c(-c7c(F)c(F)c(F)c(F)c7F)c7ccc4[nH]7)C=C6)C=C5)cc3)cn2)C1
REMARK SMILES IDX 18 1 17 2 16 3 15 4 13 5 14 6 12 8 9 9 10 10 89 11 11 12
REMARK SMILES IDX 88 13 8 14 7 15 3 16 4 17 90 18 5 19 6 20 2 21 1 22 19 23
REMARK SMILES IDX 20 24 21 25 22 26 23 27 24 29 25 30 26 31 87 32 27 33 86 34
REMARK SMILES IDX 28 35 29 36 30 37 80 38 31 39 85 40 79 41 81 42 32 43 84 44
REMARK SMILES IDX 78 45 77 46 33 48 65 49 45 50 64 51 46 52 49 53 63 54 82 55
REMARK SMILES IDX 47 56 48 57 62 59 83 60 50 61 34 62 35 63 43 64 36 65 37 66
REMARK SMILES IDX 41 67 44 68 38 69 39 70 42 71 40 72 66 73 67 74 75 75 68 76
REMARK SMILES IDX 69 77 73 78 76 79 70 80 71 81 74 82 72 83 51 84 52 85 60 86
REMARK SMILES IDX 53 87 54 88 58 89 61 90 55 91 56 92 59 93 57 94
REMARK H PARENT 15 7 22 28 81 47 49 58
REMARK Flexibility Score: inf
ROOT
ATOM      1  C   UNL A   1      34.697  32.927  29.072  1.00  0.00     0.002 C 
ENDROOT
BRANCH   1   2
ATOM      2  C   UNL A   1      35.453  31.811  28.337  1.00  0.00     0.021 C 
BRANCH   2   3
ATOM      3  C   UNL A   1      34.531  30.879  27.548  1.00  0.00     0.116 C 
BRANCH   3   4
ATOM      4  N   UNL A   1      33.280  31.549  27.255  1.00  0.00    -0.352 N 
ATOM      5  C   UNL A   1      32.076  31.094  26.786  1.00  0.00     0.252 C 
ATOM      6  O   UNL A   1      31.169  31.916  26.647  1.00  0.00    -0.269 OA
ATOM      7  H   UNL A   1      33.298  32.518  27.427  1.00  0.00     0.163 HD
BRANCH   5   8
ATOM      8  C   UNL A   1      31.800  29.668  26.494  1.00  0.00     0.058 A 
ATOM      9  C   UNL A   1      31.188  27.093  25.657  1.00  0.00     0.060 A 
ATOM     10  C   UNL A   1      31.353  27.355  27.016  1.00  0.00     0.026 A 
ATOM     11  N   UNL A   1      31.376  28.055  24.724  1.00  0.00    -0.259 NA
ATOM     12  C   UNL A   1      31.676  28.648  27.434  1.00  0.00     0.017 A 
ATOM     13  C   UNL A   1      31.683  29.305  25.157  1.00  0.00     0.125 A 
BRANCH   9  14
ATOM     14  C   UNL A   1      30.800  25.709  25.173  1.00  0.00     0.175 C 
BRANCH  14  15
ATOM     15  N   UNL A   1      31.844  24.703  25.341  1.00  0.00    -0.336 N 
ATOM     16  C   UNL A   1      33.499  23.158  24.752  1.00  0.00     0.017 C 
ATOM     17  C   UNL A   1      33.185  23.014  26.245  1.00  0.00     0.105 C 
ATOM     18  C   UNL A   1      32.947  24.546  24.434  1.00  0.00     0.124 C 
ATOM     19  C   UNL A   1      31.925  23.836  26.421  1.00  0.00     0.223 C 
ATOM     20  O   UNL A   1      31.154  23.749  27.358  1.00  0.00    -0.275 OA
BRANCH  16  21
ATOM     21  C   UNL A   1      32.913  22.068  23.825  1.00  0.00     0.002 C 
ATOM     22  C   UNL A   1      32.577  20.720  24.449  1.00  0.00     0.004 C 
ENDBRANCH  16  21
ENDBRANCH  14  15
ENDBRANCH   9  14
ENDBRANCH   5   8
ENDBRANCH   3   4
ENDBRANCH   2   3
ENDBRANCH   1   2
BRANCH   1  23
ATOM     23  C   UNL A   1      35.174  34.348  28.744  1.00  0.00     0.002 C 
BRANCH  23  24
ATOM     24  C   UNL A   1      34.105  35.433  28.899  1.00  0.00     0.021 C 
BRANCH  24  25
ATOM     25  C   UNL A   1      32.842  34.960  29.609  1.00  0.00     0.116 C 
BRANCH  25  26
ATOM     26  N   UNL A   1      32.440  35.887  30.655  1.00  0.00    -0.352 N 
ATOM     27  C   UNL A   1      32.843  35.945  31.965  1.00  0.00     0.251 C 
ATOM     28  H   UNL A   1      31.784  36.570  30.385  1.00  0.00     0.163 HD
ATOM     29  O   UNL A   1      32.219  36.621  32.776  1.00  0.00    -0.269 OA
BRANCH  27  30
ATOM     30  C   UNL A   1      34.031  35.183  32.398  1.00  0.00     0.039 A 
ATOM     31  C   UNL A   1      33.862  33.894  32.909  1.00  0.00     0.014 A 
ATOM     32  C   UNL A   1      35.308  35.746  32.313  1.00  0.00     0.014 A 
ATOM     33  C   UNL A   1      34.981  33.150  33.284  1.00  0.00     0.010 A 
ATOM     34  C   UNL A   1      36.426  34.975  32.613  1.00  0.00     0.010 A 
ATOM     35  C   UNL A   1      36.274  33.671  33.107  1.00  0.00    -0.014 A 
BRANCH  35  36
ATOM     36  C   UNL A   1      37.477  32.871  33.445  1.00  0.00     0.031 A 
ATOM     37  C   UNL A   1      38.228  33.141  34.721  1.00  0.00     0.074 A 
ATOM     38  C   UNL A   1      37.919  31.935  32.581  1.00  0.00     0.049 A 
ATOM     39  N   UNL A   1      39.340  32.604  35.157  1.00  0.00    -0.248 NA
ATOM     40  C   UNL A   1      37.668  34.167  35.616  1.00  0.00     0.031 C 
ATOM     41  C   UNL A   1      37.298  31.606  31.298  1.00  0.00     0.029 A 
ATOM     42  N   UNL A   1      39.001  31.093  32.650  1.00  0.00    -0.354 N 
ATOM     43  C   UNL A   1      39.604  33.221  36.373  1.00  0.00     0.074 A 
ATOM     44  C   UNL A   1      38.581  34.222  36.574  1.00  0.00     0.031 C 
ATOM     45  C   UNL A   1      37.993  30.619  30.712  1.00  0.00     0.029 A 
ATOM     46  C   UNL A   1      39.134  30.276  31.553  1.00  0.00     0.049 A 
ATOM     47  H   UNL A   1      39.623  31.076  33.413  1.00  0.00     0.167 HD
ATOM     48  C   UNL A   1      40.592  32.951  37.259  1.00  0.00     0.037 A 
ATOM     49  C   UNL A   1      40.081  29.366  31.255  1.00  0.00     0.037 A 
ATOM     50  C   UNL A   1      41.605  31.947  37.061  1.00  0.00     0.049 A 
ATOM     51  C   UNL A   1      41.199  29.128  32.238  1.00  0.00     0.074 A 
ATOM     52  C   UNL A   1      42.642  31.589  37.904  1.00  0.00     0.029 A 
ATOM     53  N   UNL A   1      41.703  31.138  35.939  1.00  0.00    -0.354 N 
ATOM     54  N   UNL A   1      41.408  29.681  33.407  1.00  0.00    -0.248 NA
ATOM     55  C   UNL A   1      42.210  28.131  31.860  1.00  0.00     0.031 C 
ATOM     56  C   UNL A   1      43.395  30.594  37.274  1.00  0.00     0.029 A 
ATOM     57  C   UNL A   1      42.793  30.291  36.065  1.00  0.00     0.049 A 
ATOM     58  H   UNL A   1      41.090  31.161  35.170  1.00  0.00     0.167 HD
ATOM     59  C   UNL A   1      42.545  29.071  33.921  1.00  0.00     0.074 A 
ATOM     60  C   UNL A   1      42.970  28.092  32.943  1.00  0.00     0.031 C 
ATOM     61  C   UNL A   1      43.184  29.302  35.094  1.00  0.00     0.037 A 
BRANCH  48  62
ATOM     62  C   UNL A   1      40.616  33.735  38.539  1.00  0.00     0.064 A 
ATOM     63  C   UNL A   1      41.420  34.878  38.679  1.00  0.00     0.173 A 
ATOM     64  C   UNL A   1      39.781  33.387  39.611  1.00  0.00     0.173 A 
ATOM     65  F   UNL A   1      42.245  35.247  37.688  1.00  0.00    -0.203 F 
ATOM     66  C   UNL A   1      41.399  35.631  39.850  1.00  0.00     0.198 A 
ATOM     67  C   UNL A   1      39.740  34.161  40.768  1.00  0.00     0.198 A 
ATOM     68  F   UNL A   1      38.989  32.307  39.529  1.00  0.00    -0.203 F 
ATOM     69  F   UNL A   1      42.204  36.695  39.974  1.00  0.00    -0.200 F 
ATOM     70  C   UNL A   1      40.551  35.278  40.888  1.00  0.00     0.200 A 
ATOM     71  F   UNL A   1      38.908  33.828  41.766  1.00  0.00    -0.200 F 
ATOM     72  F   UNL A   1      40.520  36.014  42.008  1.00  0.00    -0.200 F 
ENDBRANCH  48  62
BRANCH  49  73
ATOM     73  C   UNL A   1      40.029  28.606  29.976  1.00  0.00     0.064 A 
ATOM     74  C   UNL A   1      39.405  27.351  29.904  1.00  0.00     0.173 A 
ATOM     75  C   UNL A   1      40.655  29.086  28.815  1.00  0.00     0.173 A 
ATOM     76  F   UNL A   1      38.806  26.839  30.990  1.00  0.00    -0.203 F 
ATOM     77  C   UNL A   1      39.453  26.586  28.741  1.00  0.00     0.198 A 
ATOM     78  C   UNL A   1      40.668  28.337  27.641  1.00  0.00     0.198 A 
ATOM     79  F   UNL A   1      41.260  30.283  28.823  1.00  0.00    -0.203 F 
ATOM     80  F   UNL A   1      38.919  25.357  28.729  1.00  0.00    -0.200 F 
ATOM     81  C   UNL A   1      40.084  27.080  27.609  1.00  0.00     0.200 A 
ATOM     82  F   UNL A   1      41.264  28.825  26.544  1.00  0.00    -0.200 F 
ATOM     83  F   UNL A   1      40.142  26.338  26.495  1.00  0.00    -0.200 F 
ENDBRANCH  49  73
BRANCH  61  84
ATOM     84  C   UNL A   1      44.372  28.441  35.413  1.00  0.00     0.064 A 
ATOM     85  C   UNL A   1      44.240  27.209  36.072  1.00  0.00     0.173 A 
ATOM     86  C   UNL A   1      45.660  28.839  35.020  1.00  0.00     0.173 A 
ATOM     87  F   UNL A   1      43.034  26.789  36.481  1.00  0.00    -0.203 F 
ATOM     88  C   UNL A   1      45.357  26.426  36.355  1.00  0.00     0.198 A 
ATOM     89  C   UNL A   1      46.768  28.036  35.272  1.00  0.00     0.198 A 
ATOM     90  F   UNL A   1      45.842  30.004  34.378  1.00  0.00    -0.203 F 
ATOM     91  F   UNL A   1      45.212  25.282  37.038  1.00  0.00    -0.200 F 
ATOM     92  C   UNL A   1      46.617  26.837  35.948  1.00  0.00     0.200 A 
ATOM     93  F   UNL A   1      47.983  28.426  34.861  1.00  0.00    -0.200 F 
ATOM     94  F   UNL A   1      47.688  26.076  36.215  1.00  0.00    -0.200 F 
ENDBRANCH  61  84
ENDBRANCH  35  36
ENDBRANCH  27  30
ENDBRANCH  25  26
ENDBRANCH  24  25
ENDBRANCH  23  24
ENDBRANCH   1  23
TORSDOF 16
ENDMDL
MODEL 2
REMARK VINA RESULT:     -11.0      1.931      7.862
REMARK SMILES CC[C@@H]1CC(=O)N(Cc2ccc(C(=O)NCCCCCCNC(=O)c3ccc(-c4c5nc(c(-c6c(F)c(F)c(F)c(F)c6F)c6ccc([nH]6)c(-c6c(F)c(F)c(F)c(F)c6F)c6nc(c(-c7c(F)c(F)c(F)c(F)c7F)c7ccc4[nH]7)C=C6)C=C5)cc3)cn2)C1
REMARK SMILES IDX 18 1 17 2 16 3 15 4 13 5 14 6 12 8 9 9 10 10 89 11 11 12
REMARK SMILES IDX 88 13 8 14 7 15 3 16 4 17 90 18 5 19 6 20 2 21 1 22 19 23
REMARK SMILES IDX 20 24 21 25 22 26 23 27 24 29 25 30 26 31 87 32 27 33 86 34
REMARK SMILES IDX 28 35 29 36 30 37 80 38 31 39 85 40 79 41 81 42 32 43 84 44
REMARK SMILES IDX 78 45 77 46 33 48 65 49 45 50 64 51 46 52 49 53 63 54 82 55
REMARK SMILES IDX 47 56 48 57 62 59 83 60 50 61 34 62 35 63 43 64 36 65 37 66
REMARK SMILES IDX 41 67 44 68 38 69 39 70 42 71 40 72 66 73 67 74 75 75 68 76
REMARK SMILES IDX 69 77 73 78 76 79 70 80 71 81 74 82 72 83 51 84 52 85 60 86
REMARK SMILES IDX 53 87 54 88 58 89 61 90 55 91 56 92 59 93 57 94
REMARK H PARENT 15 7 22 28 81 47 49 58
REMARK Flexibility Score: inf
ROOT
ATOM      1  C   UNL A   1      30.880  30.159  24.621  1.00  0.00     0.002 C 
ENDROOT
BRANCH   1   2
ATOM      2  C   UNL A   1      30.780  28.672  24.254  1.00  0.00     0.021 C 
BRANCH   2   3
ATOM      3  C   UNL A   1      30.823  28.420  22.745  1.00  0.00     0.116 C 
BRANCH   3   4
ATOM      4  N   UNL A   1      32.187  28.518  22.264  1.00  0.00    -0.352 N 
ATOM      5  C   UNL A   1      33.311  27.778  22.519  1.00  0.00     0.252 C 
ATOM      6  O   UNL A   1      34.349  28.098  21.939  1.00  0.00    -0.269 OA
ATOM      7  H   UNL A   1      32.333  29.258  21.632  1.00  0.00     0.163 HD
BRANCH   5   8
ATOM      8  C   UNL A   1      33.325  26.593  23.407  1.00  0.00     0.058 A 
ATOM      9  C   UNL A   1      33.158  24.231  24.856  1.00  0.00     0.060 A 
ATOM     10  C   UNL A   1      33.622  25.389  25.478  1.00  0.00     0.026 A 
ATOM     11  N   UNL A   1      32.838  24.213  23.542  1.00  0.00    -0.259 NA
ATOM     12  C   UNL A   1      33.720  26.572  24.742  1.00  0.00     0.017 A 
ATOM     13  C   UNL A   1      32.936  25.380  22.851  1.00  0.00     0.125 A 
BRANCH   9  14
ATOM     14  C   UNL A   1      33.004  22.939  25.636  1.00  0.00     0.175 C 
BRANCH  14  15
ATOM     15  N   UNL A   1      34.109  22.003  25.465  1.00  0.00    -0.336 N 
ATOM     16  C   UNL A   1      36.313  21.244  25.255  1.00  0.00     0.017 C 
ATOM     17  C   UNL A   1      35.352  20.101  24.911  1.00  0.00     0.105 C 
ATOM     18  C   UNL A   1      35.414  22.204  26.033  1.00  0.00     0.124 C 
ATOM     19  C   UNL A   1      34.010  20.792  24.795  1.00  0.00     0.223 C 
ATOM     20  O   UNL A   1      33.031  20.337  24.234  1.00  0.00    -0.275 OA
BRANCH  16  21
ATOM     21  C   UNL A   1      37.008  21.934  24.059  1.00  0.00     0.002 C 
ATOM     22  C   UNL A   1      36.497  23.307  23.645  1.00  0.00     0.004 C 
ENDBRANCH  16  21
ENDBRANCH  14  15
ENDBRANCH   9  14
ENDBRANCH   5   8
ENDBRANCH   3   4
ENDBRANCH   2   3
ENDBRANCH   1   2
BRANCH   1  23
ATOM     23  C   UNL A   1      31.568  30.445  25.962  1.00  0.00     0.002 C 
BRANCH  23  24
ATOM     24  C   UNL A   1      31.393  31.875  26.479  1.00  0.00     0.021 C 
BRANCH  24  25
ATOM     25  C   UNL A   1      32.640  32.452  27.137  1.00  0.00     0.116 C 
BRANCH  25  26
ATOM     26  N   UNL A   1      32.471  33.860  27.459  1.00  0.00    -0.352 N 
ATOM     27  C   UNL A   1      33.065  34.602  28.448  1.00  0.00     0.251 C 
ATOM     28  H   UNL A   1      31.839  34.352  26.886  1.00  0.00     0.163 HD
ATOM     29  O   UNL A   1      32.622  35.706  28.746  1.00  0.00    -0.269 OA
BRANCH  27  30
ATOM     30  C   UNL A   1      34.239  34.060  29.161  1.00  0.00     0.039 A 
ATOM     31  C   UNL A   1      34.041  33.166  30.215  1.00  0.00     0.014 A 
ATOM     32  C   UNL A   1      35.532  34.448  28.799  1.00  0.00     0.014 A 
ATOM     33  C   UNL A   1      35.144  32.618  30.870  1.00  0.00     0.010 A 
ATOM     34  C   UNL A   1      36.631  33.841  29.399  1.00  0.00     0.010 A 
ATOM     35  C   UNL A   1      36.448  32.925  30.445  1.00  0.00    -0.014 A 
BRANCH  35  36
ATOM     36  C   UNL A   1      37.632  32.305  31.092  1.00  0.00     0.031 A 
ATOM     37  C   UNL A   1      38.381  31.203  30.394  1.00  0.00     0.074 A 
ATOM     38  C   UNL A   1      38.001  32.703  32.325  1.00  0.00     0.049 A 
ATOM     39  N   UNL A   1      39.390  30.486  30.823  1.00  0.00    -0.248 NA
ATOM     40  C   UNL A   1      37.923  30.841  29.042  1.00  0.00     0.031 C 
ATOM     41  C   UNL A   1      37.333  33.737  33.117  1.00  0.00     0.029 A 
ATOM     42  N   UNL A   1      39.027  32.280  33.133  1.00  0.00    -0.354 N 
ATOM     43  C   UNL A   1      39.687  29.600  29.796  1.00  0.00     0.074 A 
ATOM     44  C   UNL A   1      38.709  29.815  28.753  1.00  0.00     0.031 C 
ATOM     45  C   UNL A   1      37.979  33.884  34.285  1.00  0.00     0.029 A 
ATOM     46  C   UNL A   1      39.077  32.925  34.346  1.00  0.00     0.049 A 
ATOM     47  H   UNL A   1      39.667  31.579  32.870  1.00  0.00     0.167 HD
ATOM     48  C   UNL A   1      40.705  28.711  29.717  1.00  0.00     0.037 A 
ATOM     49  C   UNL A   1      39.905  32.749  35.393  1.00  0.00     0.037 A 
ATOM     50  C   UNL A   1      41.681  28.504  30.754  1.00  0.00     0.049 A 
ATOM     51  C   UNL A   1      40.994  31.712  35.294  1.00  0.00     0.074 A 
ATOM     52  C   UNL A   1      42.758  27.636  30.764  1.00  0.00     0.029 A 
ATOM     53  N   UNL A   1      41.701  29.180  31.964  1.00  0.00    -0.354 N 
ATOM     54  N   UNL A   1      41.296  30.917  34.297  1.00  0.00    -0.248 NA
ATOM     55  C   UNL A   1      41.865  31.554  36.467  1.00  0.00     0.031 C 
ATOM     56  C   UNL A   1      43.404  27.754  31.999  1.00  0.00     0.029 A 
ATOM     57  C   UNL A   1      42.764  28.737  32.734  1.00  0.00     0.049 A 
ATOM     58  H   UNL A   1      41.056  29.872  32.236  1.00  0.00     0.167 HD
ATOM     59  C   UNL A   1      42.412  30.198  34.705  1.00  0.00     0.074 A 
ATOM     60  C   UNL A   1      42.745  30.665  36.033  1.00  0.00     0.031 C 
ATOM     61  C   UNL A   1      43.098  29.235  34.043  1.00  0.00     0.037 A 
BRANCH  48  62
ATOM     62  C   UNL A   1      40.833  27.907  28.455  1.00  0.00     0.064 A 
ATOM     63  C   UNL A   1      41.617  28.356  27.381  1.00  0.00     0.173 A 
ATOM     64  C   UNL A   1      40.226  26.647  28.341  1.00  0.00     0.173 A 
ATOM     65  F   UNL A   1      42.208  29.559  27.435  1.00  0.00    -0.203 F 
ATOM     66  C   UNL A   1      41.773  27.583  26.234  1.00  0.00     0.198 A 
ATOM     67  C   UNL A   1      40.411  25.863  27.205  1.00  0.00     0.198 A 
ATOM     68  F   UNL A   1      39.471  26.167  29.340  1.00  0.00    -0.203 F 
ATOM     69  F   UNL A   1      42.495  28.051  25.206  1.00  0.00    -0.200 F 
ATOM     70  C   UNL A   1      41.180  26.333  26.152  1.00  0.00     0.200 A 
ATOM     71  F   UNL A   1      39.850  24.647  27.134  1.00  0.00    -0.200 F 
ATOM     72  F   UNL A   1      41.346  25.582  25.054  1.00  0.00    -0.200 F 
ENDBRANCH  48  62
BRANCH  49  73
ATOM     73  C   UNL A   1      39.750  33.562  36.630  1.00  0.00     0.064 A 
ATOM     74  C   UNL A   1      38.853  33.181  37.639  1.00  0.00     0.173 A 
ATOM     75  C   UNL A   1      40.446  34.768  36.803  1.00  0.00     0.173 A 
ATOM     76  F   UNL A   1      38.150  32.045  37.515  1.00  0.00    -0.203 F 
ATOM     77  C   UNL A   1      38.619  33.997  38.744  1.00  0.00     0.198 A 
ATOM     78  C   UNL A   1      40.241  35.564  37.928  1.00  0.00     0.198 A 
ATOM     79  F   UNL A   1      41.323  35.179  35.875  1.00  0.00    -0.203 F 
ATOM     80  F   UNL A   1      37.696  33.645  39.649  1.00  0.00    -0.200 F 
ATOM     81  C   UNL A   1      39.315  35.188  38.889  1.00  0.00     0.200 A 
ATOM     82  F   UNL A   1      40.928  36.706  38.072  1.00  0.00    -0.200 F 
ATOM     83  F   UNL A   1      39.080  35.979  39.944  1.00  0.00    -0.200 F 
ENDBRANCH  49  73
BRANCH  61  84
ATOM     84  C   UNL A   1      44.313  28.665  34.719  1.00  0.00     0.064 A 
ATOM     85  C   UNL A   1      45.578  29.260  34.594  1.00  0.00     0.173 A 
ATOM     86  C   UNL A   1      44.201  27.527  35.532  1.00  0.00     0.173 A 
ATOM     87  F   UNL A   1      45.742  30.342  33.817  1.00  0.00    -0.203 F 
ATOM     88  C   UNL A   1      46.690  28.716  35.232  1.00  0.00     0.198 A 
ATOM     89  C   UNL A   1      45.308  27.008  36.197  1.00  0.00     0.198 A 
ATOM     90  F   UNL A   1      43.013  26.924  35.693  1.00  0.00    -0.203 F 
ATOM     91  F   UNL A   1      47.898  29.267  35.050  1.00  0.00    -0.200 F 
ATOM     92  C   UNL A   1      46.552  27.596  36.038  1.00  0.00     0.200 A 
ATOM     93  F   UNL A   1      45.170  25.937  36.991  1.00  0.00    -0.200 F 
ATOM     94  F   UNL A   1      47.624  27.080  36.657  1.00  0.00    -0.200 F 
ENDBRANCH  61  84
ENDBRANCH  35  36
ENDBRANCH  27  30
ENDBRANCH  25  26
ENDBRANCH  24  25
ENDBRANCH  23  24
ENDBRANCH   1  23
TORSDOF 16
ENDMDL
MODEL 3
REMARK VINA RESULT:     -11.0      1.895      7.784
REMARK SMILES CC[C@@H]1CC(=O)N(Cc2ccc(C(=O)NCCCCCCNC(=O)c3ccc(-c4c5nc(c(-c6c(F)c(F)c(F)c(F)c6F)c6ccc([nH]6)c(-c6c(F)c(F)c(F)c(F)c6F)c6nc(c(-c7c(F)c(F)c(F)c(F)c7F)c7ccc4[nH]7)C=C6)C=C5)cc3)cn2)C1
REMARK SMILES IDX 18 1 17 2 16 3 15 4 13 5 14 6 12 8 9 9 10 10 89 11 11 12
REMARK SMILES IDX 88 13 8 14 7 15 3 16 4 17 90 18 5 19 6 20 2 21 1 22 19 23
REMARK SMILES IDX 20 24 21 25 22 26 23 27 24 29 25 30 26 31 87 32 27 33 86 34
REMARK SMILES IDX 28 35 29 36 30 37 80 38 31 39 85 40 79 41 81 42 32 43 84 44
REMARK SMILES IDX 78 45 77 46 33 48 65 49 45 50 64 51 46 52 49 53 63 54 82 55
REMARK SMILES IDX 47 56 48 57 62 59 83 60 50 61 34 62 35 63 43 64 36 65 37 66
REMARK SMILES IDX 41 67 44 68 38 69 39 70 42 71 40 72 66 73 67 74 75 75 68 76
REMARK SMILES IDX 69 77 73 78 76 79 70 80 71 81 74 82 72 83 51 84 52 85 60 86
REMARK SMILES IDX 53 87 54 88 58 89 61 90 55 91 56 92 59 93 57 94
REMARK H PARENT 15 7 22 28 81 47 49 58
REMARK Flexibility Score: inf
ROOT
ATOM      1  C   UNL A   1      31.683  29.347  25.849  1.00  0.00     0.002 C 
ENDROOT
BRANCH   1   2
ATOM      2  C   UNL A   1      33.032  28.883  25.281  1.00  0.00     0.021 C 
BRANCH   2   3
ATOM      3  C   UNL A   1      33.243  29.290  23.821  1.00  0.00     0.116 C 
BRANCH   3   4
ATOM      4  N   UNL A   1      31.987  29.225  23.101  1.00  0.00    -0.352 N 
ATOM      5  C   UNL A   1      31.290  28.180  22.554  1.00  0.00     0.252 C 
ATOM      6  O   UNL A   1      30.219  28.435  22.002  1.00  0.00    -0.269 OA
ATOM      7  H   UNL A   1      31.551  30.099  22.982  1.00  0.00     0.163 HD
BRANCH   5   8
ATOM      8  C   UNL A   1      31.731  26.769  22.643  1.00  0.00     0.058 A 
ATOM      9  C   UNL A   1      32.709  24.173  22.531  1.00  0.00     0.060 A 
ATOM     10  C   UNL A   1      31.663  24.479  23.401  1.00  0.00     0.026 A 
ATOM     11  N   UNL A   1      33.302  25.126  21.775  1.00  0.00    -0.259 NA
ATOM     12  C   UNL A   1      31.184  25.789  23.467  1.00  0.00     0.017 A 
ATOM     13  C   UNL A   1      32.811  26.391  21.854  1.00  0.00     0.125 A 
BRANCH   9  14
ATOM     14  C   UNL A   1      33.227  22.753  22.407  1.00  0.00     0.175 C 
BRANCH  14  15
ATOM     15  N   UNL A   1      34.119  22.347  23.489  1.00  0.00    -0.336 N 
ATOM     16  C   UNL A   1      34.794  21.719  25.640  1.00  0.00     0.017 C 
ATOM     17  C   UNL A   1      36.034  21.990  24.781  1.00  0.00     0.105 C 
ATOM     18  C   UNL A   1      33.706  21.516  24.586  1.00  0.00     0.124 C 
ATOM     19  C   UNL A   1      35.469  22.659  23.546  1.00  0.00     0.223 C 
ATOM     20  O   UNL A   1      36.107  23.323  22.752  1.00  0.00    -0.275 OA
BRANCH  16  21
ATOM     21  C   UNL A   1      34.421  22.816  26.663  1.00  0.00     0.002 C 
ATOM     22  C   UNL A   1      33.554  22.408  27.846  1.00  0.00     0.004 C 
ENDBRANCH  16  21
ENDBRANCH  14  15
ENDBRANCH   9  14
ENDBRANCH   5   8
ENDBRANCH   3   4
ENDBRANCH   2   3
ENDBRANCH   1   2
BRANCH   1  23
ATOM     23  C   UNL A   1      31.783  30.257  27.079  1.00  0.00     0.002 C 
BRANCH  23  24
ATOM     24  C   UNL A   1      31.644  31.752  26.781  1.00  0.00     0.021 C 
BRANCH  24  25
ATOM     25  C   UNL A   1      32.914  32.554  27.035  1.00  0.00     0.116 C 
BRANCH  25  26
ATOM     26  N   UNL A   1      32.612  33.903  27.490  1.00  0.00    -0.352 N 
ATOM     27  C   UNL A   1      33.079  34.572  28.592  1.00  0.00     0.251 C 
ATOM     28  H   UNL A   1      31.982  34.407  26.926  1.00  0.00     0.163 HD
ATOM     29  O   UNL A   1      32.530  35.602  28.970  1.00  0.00    -0.269 OA
BRANCH  27  30
ATOM     30  C   UNL A   1      34.243  34.043  29.329  1.00  0.00     0.039 A 
ATOM     31  C   UNL A   1      34.030  33.178  30.405  1.00  0.00     0.014 A 
ATOM     32  C   UNL A   1      35.542  34.412  28.967  1.00  0.00     0.014 A 
ATOM     33  C   UNL A   1      35.125  32.640  31.083  1.00  0.00     0.010 A 
ATOM     34  C   UNL A   1      36.632  33.814  29.593  1.00  0.00     0.010 A 
ATOM     35  C   UNL A   1      36.434  32.927  30.661  1.00  0.00    -0.014 A 
BRANCH  35  36
ATOM     36  C   UNL A   1      37.608  32.317  31.334  1.00  0.00     0.031 A 
ATOM     37  C   UNL A   1      38.347  31.183  30.678  1.00  0.00     0.074 A 
ATOM     38  C   UNL A   1      37.978  32.754  32.554  1.00  0.00     0.049 A 
ATOM     39  N   UNL A   1      39.346  30.470  31.136  1.00  0.00    -0.248 NA
ATOM     40  C   UNL A   1      37.890  30.778  29.338  1.00  0.00     0.031 C 
ATOM     41  C   UNL A   1      37.320  33.823  33.306  1.00  0.00     0.029 A 
ATOM     42  N   UNL A   1      38.996  32.348  33.381  1.00  0.00    -0.354 N 
ATOM     43  C   UNL A   1      39.637  29.545  30.143  1.00  0.00     0.074 A 
ATOM     44  C   UNL A   1      38.666  29.734  29.088  1.00  0.00     0.031 C 
ATOM     45  C   UNL A   1      37.962  34.004  34.471  1.00  0.00     0.029 A 
ATOM     46  C   UNL A   1      39.049  33.035  34.570  1.00  0.00     0.049 A 
ATOM     47  H   UNL A   1      39.629  31.632  33.144  1.00  0.00     0.167 HD
ATOM     48  C   UNL A   1      40.645  28.642  30.098  1.00  0.00     0.037 A 
ATOM     49  C   UNL A   1      39.871  32.887  35.626  1.00  0.00     0.037 A 
ATOM     50  C   UNL A   1      41.615  28.461  31.146  1.00  0.00     0.049 A 
ATOM     51  C   UNL A   1      40.949  31.834  35.567  1.00  0.00     0.074 A 
ATOM     52  C   UNL A   1      42.682  27.581  31.191  1.00  0.00     0.029 A 
ATOM     53  N   UNL A   1      41.638  29.179  32.332  1.00  0.00    -0.354 N 
ATOM     54  N   UNL A   1      41.245  31.001  34.600  1.00  0.00    -0.248 NA
ATOM     55  C   UNL A   1      41.814  31.708  36.749  1.00  0.00     0.031 C 
ATOM     56  C   UNL A   1      43.325  27.735  32.424  1.00  0.00     0.029 A 
ATOM     57  C   UNL A   1      42.694  28.751  33.121  1.00  0.00     0.049 A 
ATOM     58  H   UNL A   1      41.000  29.887  32.576  1.00  0.00     0.167 HD
ATOM     59  C   UNL A   1      42.351  30.284  35.038  1.00  0.00     0.074 A 
ATOM     60  C   UNL A   1      42.685  30.795  36.350  1.00  0.00     0.031 C 
ATOM     61  C   UNL A   1      43.029  29.291  34.413  1.00  0.00     0.037 A 
BRANCH  48  62
ATOM     62  C   UNL A   1      40.768  27.792  28.867  1.00  0.00     0.064 A 
ATOM     63  C   UNL A   1      39.987  26.638  28.696  1.00  0.00     0.173 A 
ATOM     64  C   UNL A   1      41.620  28.167  27.817  1.00  0.00     0.173 A 
ATOM     65  F   UNL A   1      39.166  26.229  29.674  1.00  0.00    -0.203 F 
ATOM     66  C   UNL A   1      40.068  25.883  27.529  1.00  0.00     0.198 A 
ATOM     67  C   UNL A   1      41.674  27.427  26.639  1.00  0.00     0.198 A 
ATOM     68  F   UNL A   1      42.384  29.264  27.926  1.00  0.00    -0.203 F 
ATOM     69  F   UNL A   1      39.341  24.763  27.407  1.00  0.00    -0.200 F 
ATOM     70  C   UNL A   1      40.903  26.284  26.498  1.00  0.00     0.200 A 
ATOM     71  F   UNL A   1      42.471  27.824  25.636  1.00  0.00    -0.200 F 
ATOM     72  F   UNL A   1      40.966  25.565  25.369  1.00  0.00    -0.200 F 
ENDBRANCH  48  62
BRANCH  49  73
ATOM     73  C   UNL A   1      39.721  33.744  36.832  1.00  0.00     0.064 A 
ATOM     74  C   UNL A   1      38.928  33.338  37.916  1.00  0.00     0.173 A 
ATOM     75  C   UNL A   1      40.314  35.015  36.904  1.00  0.00     0.173 A 
ATOM     76  F   UNL A   1      38.325  32.140  37.890  1.00  0.00    -0.203 F 
ATOM     77  C   UNL A   1      38.692  34.185  38.996  1.00  0.00     0.198 A 
ATOM     78  C   UNL A   1      40.109  35.845  38.004  1.00  0.00     0.198 A 
ATOM     79  F   UNL A   1      41.089  35.453  35.901  1.00  0.00    -0.203 F 
ATOM     80  F   UNL A   1      37.864  33.799  39.977  1.00  0.00    -0.200 F 
ATOM     81  C   UNL A   1      39.284  35.438  39.040  1.00  0.00     0.200 A 
ATOM     82  F   UNL A   1      40.696  37.049  38.050  1.00  0.00    -0.200 F 
ATOM     83  F   UNL A   1      39.045  36.258  40.073  1.00  0.00    -0.200 F 
ENDBRANCH  49  73
BRANCH  61  84
ATOM     84  C   UNL A   1      44.234  28.732  35.113  1.00  0.00     0.064 A 
ATOM     85  C   UNL A   1      44.145  27.632  35.979  1.00  0.00     0.173 A 
ATOM     86  C   UNL A   1      45.504  29.285  34.884  1.00  0.00     0.173 A 
ATOM     87  F   UNL A   1      42.953  27.075  36.243  1.00  0.00    -0.203 F 
ATOM     88  C   UNL A   1      45.277  27.129  36.616  1.00  0.00     0.198 A 
ATOM     89  C   UNL A   1      46.638  28.756  35.493  1.00  0.00     0.198 A 
ATOM     90  F   UNL A   1      45.647  30.333  34.057  1.00  0.00    -0.203 F 
ATOM     91  F   UNL A   1      45.158  26.115  37.485  1.00  0.00    -0.200 F 
ATOM     92  C   UNL A   1      46.522  27.686  36.366  1.00  0.00     0.200 A 
ATOM     93  F   UNL A   1      47.843  29.284  35.236  1.00  0.00    -0.200 F 
ATOM     94  F   UNL A   1      47.611  27.194  36.974  1.00  0.00    -0.200 F 
ENDBRANCH  61  84
ENDBRANCH  35  36
ENDBRANCH  27  30
ENDBRANCH  25  26
ENDBRANCH  24  25
ENDBRANCH  23  24
ENDBRANCH   1  23
TORSDOF 16
ENDMDL
