MODEL 1
REMARK VINA RESULT:     -11.2      0.000      0.000
REMARK SMILES C[C@@H](C(=O)NCCCCCCNC(=O)c1ccc(-c2c3nc(c(-c4c(F)c(F)c(F)c(F)c4F)c4ccc([nH]4)c(-c4c(F)c(F)c(F)c(F)c4F)c4nc(c(-c5c(F)c(F)c(F)c(F)c5F)c5ccc2[nH]5)C=C4)C=C3)cc1)c1cc(/C=C/S(C)(=O)=O)cc(C(=O)c2ccccc2)c1
REMARK SMILES IDX 8 1 7 2 6 3 5 4 3 5 4 6 2 8 1 9 78 10 79 11 97 12 80 13
REMARK SMILES IDX 88 14 87 15 81 16 82 17 83 18 84 19 85 20 86 21 89 22 90 23
REMARK SMILES IDX 91 24 92 25 96 26 93 27 95 28 94 29 9 30 10 31 11 32 12 33
REMARK SMILES IDX 13 34 14 36 15 37 16 38 77 39 17 40 76 41 18 42 19 43 20 44
REMARK SMILES IDX 70 45 21 46 75 47 69 48 71 49 22 50 74 51 68 52 67 53 23 55
REMARK SMILES IDX 55 56 35 57 54 58 36 59 39 60 53 61 72 62 37 63 38 64 52 66
REMARK SMILES IDX 73 67 40 68 24 69 25 70 33 71 26 72 27 73 31 74 34 75 28 76
REMARK SMILES IDX 29 77 32 78 30 79 56 80 57 81 65 82 58 83 59 84 63 85 66 86
REMARK SMILES IDX 60 87 61 88 64 89 62 90 41 91 42 92 50 93 43 94 44 95 48 96
REMARK SMILES IDX 51 97 45 98 46 99 49 100 47 101
REMARK H PARENT 5 7 12 35 71 54 39 65
REMARK Flexibility Score: inf
ROOT
ATOM      1  C   UNL A   1      33.945  24.860  23.573  1.00  0.00     0.002 C 
ENDROOT
BRANCH   1   2
ATOM      2  C   UNL A   1      33.687  26.256  22.983  1.00  0.00     0.021 C 
BRANCH   2   3
ATOM      3  C   UNL A   1      32.573  26.293  21.936  1.00  0.00     0.116 C 
BRANCH   3   4
ATOM      4  N   UNL A   1      31.976  27.608  21.897  1.00  0.00    -0.356 N 
ATOM      5  C   UNL A   1      30.744  28.023  22.292  1.00  0.00     0.227 C 
ATOM      6  O   UNL A   1      30.429  29.166  21.951  1.00  0.00    -0.274 OA
ATOM      7  H   UNL A   1      32.552  28.315  21.525  1.00  0.00     0.163 HD
BRANCH   5   8
ATOM      8  C   UNL A   1      29.853  27.102  23.159  1.00  0.00     0.105 C 
ATOM      9  C   UNL A   1      28.464  27.675  23.436  1.00  0.00     0.023 C 
BRANCH   8  10
ATOM     10  C   UNL A   1      30.514  26.742  24.487  1.00  0.00    -0.035 A 
ATOM     11  C   UNL A   1      31.195  27.715  25.230  1.00  0.00     0.012 A 
ATOM     12  C   UNL A   1      30.458  25.439  24.986  1.00  0.00     0.016 A 
ATOM     13  C   UNL A   1      31.943  27.397  26.369  1.00  0.00    -0.024 A 
ATOM     14  C   UNL A   1      31.145  25.099  26.159  1.00  0.00     0.023 A 
ATOM     15  C   UNL A   1      31.891  26.079  26.840  1.00  0.00     0.020 A 
BRANCH  13  16
ATOM     16  C   UNL A   1      32.789  28.403  27.041  1.00  0.00     0.020 C 
ATOM     17  C   UNL A   1      34.059  28.655  26.681  1.00  0.00     0.106 C 
BRANCH  17  18
ATOM     18  S   UNL A   1      35.033  29.787  27.557  1.00  0.00     0.168 S 
ATOM     19  C   UNL A   1      33.990  31.226  27.526  1.00  0.00     0.163 C 
ATOM     20  O   UNL A   1      35.112  29.349  28.939  1.00  0.00    -0.225 OA
ATOM     21  O   UNL A   1      36.234  30.106  26.811  1.00  0.00    -0.225 OA
ENDBRANCH  17  18
ENDBRANCH  13  16
BRANCH  14  22
ATOM     22  C   UNL A   1      31.083  23.719  26.727  1.00  0.00     0.193 C 
ATOM     23  O   UNL A   1      30.135  23.381  27.428  1.00  0.00    -0.289 OA
BRANCH  22  24
ATOM     24  C   UNL A   1      32.124  22.710  26.413  1.00  0.00     0.022 A 
ATOM     25  C   UNL A   1      32.088  22.083  25.164  1.00  0.00     0.012 A 
ATOM     26  C   UNL A   1      33.128  22.389  27.335  1.00  0.00     0.012 A 
ATOM     27  C   UNL A   1      33.085  21.170  24.819  1.00  0.00     0.001 A 
ATOM     28  C   UNL A   1      34.126  21.479  26.981  1.00  0.00     0.001 A 
ATOM     29  C   UNL A   1      34.108  20.877  25.722  1.00  0.00     0.000 A 
ENDBRANCH  22  24
ENDBRANCH  14  22
ENDBRANCH   8  10
ENDBRANCH   5   8
ENDBRANCH   3   4
ENDBRANCH   2   3
ENDBRANCH   1   2
BRANCH   1  30
ATOM     30  C   UNL A   1      34.783  24.846  24.855  1.00  0.00     0.002 C 
BRANCH  30  31
ATOM     31  C   UNL A   1      36.004  23.927  24.808  1.00  0.00     0.021 C 
BRANCH  31  32
ATOM     32  C   UNL A   1      36.765  23.822  26.126  1.00  0.00     0.116 C 
BRANCH  32  33
ATOM     33  N   UNL A   1      37.609  22.640  26.176  1.00  0.00    -0.352 N 
ATOM     34  C   UNL A   1      38.966  22.546  26.361  1.00  0.00     0.251 C 
ATOM     35  H   UNL A   1      37.140  21.782  26.061  1.00  0.00     0.163 HD
ATOM     36  O   UNL A   1      39.547  21.482  26.167  1.00  0.00    -0.269 OA
BRANCH  34  37
ATOM     37  C   UNL A   1      39.735  23.741  26.767  1.00  0.00     0.039 A 
ATOM     38  C   UNL A   1      40.019  24.716  25.808  1.00  0.00     0.014 A 
ATOM     39  C   UNL A   1      40.155  23.908  28.089  1.00  0.00     0.014 A 
ATOM     40  C   UNL A   1      40.650  25.900  26.196  1.00  0.00     0.010 A 
ATOM     41  C   UNL A   1      40.721  25.117  28.487  1.00  0.00     0.010 A 
ATOM     42  C   UNL A   1      40.957  26.132  27.547  1.00  0.00    -0.014 A 
BRANCH  42  43
ATOM     43  C   UNL A   1      41.460  27.454  28.001  1.00  0.00     0.031 A 
ATOM     44  C   UNL A   1      42.935  27.744  28.032  1.00  0.00     0.074 A 
ATOM     45  C   UNL A   1      40.581  28.366  28.464  1.00  0.00     0.049 A 
ATOM     46  N   UNL A   1      43.556  28.808  28.474  1.00  0.00    -0.248 NA
ATOM     47  C   UNL A   1      43.831  26.694  27.522  1.00  0.00     0.031 C 
ATOM     48  C   UNL A   1      39.129  28.181  28.531  1.00  0.00     0.029 A 
ATOM     49  N   UNL A   1      40.776  29.623  28.983  1.00  0.00    -0.354 N 
ATOM     50  C   UNL A   1      44.911  28.553  28.306  1.00  0.00     0.074 A 
ATOM     51  C   UNL A   1      45.026  27.219  27.758  1.00  0.00     0.031 C 
ATOM     52  C   UNL A   1      38.568  29.283  29.049  1.00  0.00     0.029 A 
ATOM     53  C   UNL A   1      39.617  30.234  29.397  1.00  0.00     0.049 A 
ATOM     54  H   UNL A   1      41.663  30.045  29.053  1.00  0.00     0.167 HD
ATOM     55  C   UNL A   1      45.959  29.367  28.576  1.00  0.00     0.037 A 
ATOM     56  C   UNL A   1      39.424  31.418  30.011  1.00  0.00     0.037 A 
ATOM     57  C   UNL A   1      45.836  30.705  29.093  1.00  0.00     0.049 A 
ATOM     58  C   UNL A   1      40.614  32.288  30.314  1.00  0.00     0.074 A 
ATOM     59  C   UNL A   1      46.834  31.640  29.305  1.00  0.00     0.029 A 
ATOM     60  N   UNL A   1      44.645  31.295  29.492  1.00  0.00    -0.354 N 
ATOM     61  N   UNL A   1      41.882  32.076  30.055  1.00  0.00    -0.248 NA
ATOM     62  C   UNL A   1      40.349  33.563  30.996  1.00  0.00     0.031 C 
ATOM     63  C   UNL A   1      46.260  32.768  29.897  1.00  0.00     0.029 A 
ATOM     64  C   UNL A   1      44.894  32.562  29.995  1.00  0.00     0.049 A 
ATOM     65  H   UNL A   1      43.758  30.876  29.427  1.00  0.00     0.167 HD
ATOM     66  C   UNL A   1      42.559  33.196  30.522  1.00  0.00     0.074 A 
ATOM     67  C   UNL A   1      41.560  34.097  31.053  1.00  0.00     0.031 C 
ATOM     68  C   UNL A   1      43.889  33.449  30.520  1.00  0.00     0.037 A 
BRANCH  55  69
ATOM     69  C   UNL A   1      47.345  28.851  28.320  1.00  0.00     0.064 A 
ATOM     70  C   UNL A   1      47.946  28.944  27.057  1.00  0.00     0.173 A 
ATOM     71  C   UNL A   1      48.119  28.357  29.382  1.00  0.00     0.173 A 
ATOM     72  F   UNL A   1      47.246  29.402  26.008  1.00  0.00    -0.203 F 
ATOM     73  C   UNL A   1      49.269  28.555  26.864  1.00  0.00     0.198 A 
ATOM     74  C   UNL A   1      49.450  27.995  29.191  1.00  0.00     0.198 A 
ATOM     75  F   UNL A   1      47.593  28.254  30.612  1.00  0.00    -0.203 F 
ATOM     76  F   UNL A   1      49.817  28.632  25.643  1.00  0.00    -0.200 F 
ATOM     77  C   UNL A   1      50.023  28.093  27.933  1.00  0.00     0.200 A 
ATOM     78  F   UNL A   1      50.181  27.565  30.230  1.00  0.00    -0.200 F 
ATOM     79  F   UNL A   1      51.304  27.744  27.751  1.00  0.00    -0.200 F 
ENDBRANCH  55  69
BRANCH  56  80
ATOM     80  C   UNL A   1      38.055  31.845  30.411  1.00  0.00     0.064 A 
ATOM     81  C   UNL A   1      37.280  32.666  29.580  1.00  0.00     0.173 A 
ATOM     82  C   UNL A   1      37.514  31.483  31.655  1.00  0.00     0.173 A 
ATOM     83  F   UNL A   1      37.759  33.057  28.390  1.00  0.00    -0.203 F 
ATOM     84  C   UNL A   1      36.036  33.141  29.993  1.00  0.00     0.198 A 
ATOM     85  C   UNL A   1      36.255  31.928  32.051  1.00  0.00     0.198 A 
ATOM     86  F   UNL A   1      38.209  30.695  32.488  1.00  0.00    -0.203 F 
ATOM     87  F   UNL A   1      35.349  33.982  29.208  1.00  0.00    -0.200 F 
ATOM     88  C   UNL A   1      35.523  32.769  31.227  1.00  0.00     0.200 A 
ATOM     89  F   UNL A   1      35.756  31.551  33.235  1.00  0.00    -0.200 F 
ATOM     90  F   UNL A   1      34.331  33.232  31.626  1.00  0.00    -0.200 F 
ENDBRANCH  56  80
BRANCH  68  91
ATOM     91  C   UNL A   1      44.343  34.758  31.099  1.00  0.00     0.064 A 
ATOM     92  C   UNL A   1      44.751  34.867  32.437  1.00  0.00     0.173 A 
ATOM     93  C   UNL A   1      44.409  35.909  30.298  1.00  0.00     0.173 A 
ATOM     94  F   UNL A   1      44.689  33.800  33.249  1.00  0.00    -0.203 F 
ATOM     95  C   UNL A   1      45.186  36.083  32.957  1.00  0.00     0.198 A 
ATOM     96  C   UNL A   1      44.878  37.115  30.812  1.00  0.00     0.198 A 
ATOM     97  F   UNL A   1      44.037  35.858  29.010  1.00  0.00    -0.203 F 
ATOM     98  F   UNL A   1      45.522  36.173  34.251  1.00  0.00    -0.200 F 
ATOM     99  C   UNL A   1      45.259  37.202  32.142  1.00  0.00     0.200 A 
ATOM    100  F   UNL A   1      44.963  38.191  30.018  1.00  0.00    -0.200 F 
ATOM    101  F   UNL A   1      45.689  38.368  32.642  1.00  0.00    -0.200 F 
ENDBRANCH  68  91
ENDBRANCH  42  43
ENDBRANCH  34  37
ENDBRANCH  32  33
ENDBRANCH  31  32
ENDBRANCH  30  31
ENDBRANCH   1  30
TORSDOF 18
ENDMDL
MODEL 2
REMARK VINA RESULT:     -11.2      1.610      7.139
REMARK SMILES C[C@@H](C(=O)NCCCCCCNC(=O)c1ccc(-c2c3nc(c(-c4c(F)c(F)c(F)c(F)c4F)c4ccc([nH]4)c(-c4c(F)c(F)c(F)c(F)c4F)c4nc(c(-c5c(F)c(F)c(F)c(F)c5F)c5ccc2[nH]5)C=C4)C=C3)cc1)c1cc(/C=C/S(C)(=O)=O)cc(C(=O)c2ccccc2)c1
REMARK SMILES IDX 8 1 7 2 6 3 5 4 3 5 4 6 2 8 1 9 78 10 79 11 97 12 80 13
REMARK SMILES IDX 88 14 87 15 81 16 82 17 83 18 84 19 85 20 86 21 89 22 90 23
REMARK SMILES IDX 91 24 92 25 96 26 93 27 95 28 94 29 9 30 10 31 11 32 12 33
REMARK SMILES IDX 13 34 14 36 15 37 16 38 77 39 17 40 76 41 18 42 19 43 20 44
REMARK SMILES IDX 70 45 21 46 75 47 69 48 71 49 22 50 74 51 68 52 67 53 23 55
REMARK SMILES IDX 55 56 35 57 54 58 36 59 39 60 53 61 72 62 37 63 38 64 52 66
REMARK SMILES IDX 73 67 40 68 24 69 25 70 33 71 26 72 27 73 31 74 34 75 28 76
REMARK SMILES IDX 29 77 32 78 30 79 56 80 57 81 65 82 58 83 59 84 63 85 66 86
REMARK SMILES IDX 60 87 61 88 64 89 62 90 41 91 42 92 50 93 43 94 44 95 48 96
REMARK SMILES IDX 51 97 45 98 46 99 49 100 47 101
REMARK H PARENT 5 7 12 35 71 54 39 65
REMARK Flexibility Score: inf
ROOT
ATOM      1  C   UNL A   1      33.529  24.224  22.886  1.00  0.00     0.002 C 
ENDROOT
BRANCH   1   2
ATOM      2  C   UNL A   1      33.444  25.637  22.290  1.00  0.00     0.021 C 
BRANCH   2   3
ATOM      3  C   UNL A   1      32.167  25.902  21.492  1.00  0.00     0.116 C 
BRANCH   3   4
ATOM      4  N   UNL A   1      31.764  27.281  21.644  1.00  0.00    -0.356 N 
ATOM      5  C   UNL A   1      30.681  27.813  22.268  1.00  0.00     0.227 C 
ATOM      6  O   UNL A   1      30.483  29.013  22.066  1.00  0.00    -0.274 OA
ATOM      7  H   UNL A   1      32.370  27.938  21.231  1.00  0.00     0.163 HD
BRANCH   5   8
ATOM      8  C   UNL A   1      29.816  26.938  23.207  1.00  0.00     0.105 C 
ATOM      9  C   UNL A   1      28.452  27.547  23.528  1.00  0.00     0.023 C 
BRANCH   8  10
ATOM     10  C   UNL A   1      30.532  26.609  24.514  1.00  0.00    -0.035 A 
ATOM     11  C   UNL A   1      31.215  27.606  25.222  1.00  0.00     0.012 A 
ATOM     12  C   UNL A   1      30.525  25.310  25.027  1.00  0.00     0.016 A 
ATOM     13  C   UNL A   1      32.009  27.318  26.338  1.00  0.00    -0.024 A 
ATOM     14  C   UNL A   1      31.261  24.999  26.178  1.00  0.00     0.023 A 
ATOM     15  C   UNL A   1      32.006  26.004  26.823  1.00  0.00     0.020 A 
BRANCH  13  16
ATOM     16  C   UNL A   1      32.853  28.352  26.969  1.00  0.00     0.020 C 
ATOM     17  C   UNL A   1      34.173  28.463  26.742  1.00  0.00     0.106 C 
BRANCH  17  18
ATOM     18  S   UNL A   1      35.132  29.642  27.573  1.00  0.00     0.168 S 
ATOM     19  C   UNL A   1      34.046  31.050  27.532  1.00  0.00     0.163 C 
ATOM     20  O   UNL A   1      35.250  29.237  28.963  1.00  0.00    -0.225 OA
ATOM     21  O   UNL A   1      36.307  29.979  26.796  1.00  0.00    -0.225 OA
ENDBRANCH  17  18
ENDBRANCH  13  16
BRANCH  14  22
ATOM     22  C   UNL A   1      31.253  23.625  26.762  1.00  0.00     0.193 C 
ATOM     23  O   UNL A   1      30.390  23.302  27.571  1.00  0.00    -0.289 OA
BRANCH  22  24
ATOM     24  C   UNL A   1      32.241  22.603  26.338  1.00  0.00     0.022 A 
ATOM     25  C   UNL A   1      33.443  22.507  27.047  1.00  0.00     0.012 A 
ATOM     26  C   UNL A   1      31.987  21.746  25.261  1.00  0.00     0.012 A 
ATOM     27  C   UNL A   1      34.369  21.520  26.708  1.00  0.00     0.001 A 
ATOM     28  C   UNL A   1      32.916  20.757  24.931  1.00  0.00     0.001 A 
ATOM     29  C   UNL A   1      34.101  20.640  25.657  1.00  0.00     0.000 A 
ENDBRANCH  22  24
ENDBRANCH  14  22
ENDBRANCH   8  10
ENDBRANCH   5   8
ENDBRANCH   3   4
ENDBRANCH   2   3
ENDBRANCH   1   2
BRANCH   1  30
ATOM     30  C   UNL A   1      34.657  24.016  23.901  1.00  0.00     0.002 C 
BRANCH  30  31
ATOM     31  C   UNL A   1      35.693  22.966  23.498  1.00  0.00     0.021 C 
BRANCH  31  32
ATOM     32  C   UNL A   1      37.047  23.123  24.181  1.00  0.00     0.116 C 
BRANCH  32  33
ATOM     33  N   UNL A   1      37.493  21.884  24.798  1.00  0.00    -0.352 N 
ATOM     34  C   UNL A   1      38.495  21.680  25.713  1.00  0.00     0.251 C 
ATOM     35  H   UNL A   1      37.006  21.076  24.520  1.00  0.00     0.163 HD
ATOM     36  O   UNL A   1      38.877  20.542  25.972  1.00  0.00    -0.269 OA
BRANCH  34  37
ATOM     37  C   UNL A   1      39.138  22.839  26.368  1.00  0.00     0.039 A 
ATOM     38  C   UNL A   1      40.358  22.652  27.021  1.00  0.00     0.014 A 
ATOM     39  C   UNL A   1      38.549  24.105  26.321  1.00  0.00     0.014 A 
ATOM     40  C   UNL A   1      41.030  23.754  27.553  1.00  0.00     0.010 A 
ATOM     41  C   UNL A   1      39.253  25.213  26.790  1.00  0.00     0.010 A 
ATOM     42  C   UNL A   1      40.510  25.049  27.394  1.00  0.00    -0.014 A 
BRANCH  42  43
ATOM     43  C   UNL A   1      41.297  26.245  27.791  1.00  0.00     0.031 A 
ATOM     44  C   UNL A   1      40.650  27.371  28.547  1.00  0.00     0.074 A 
ATOM     45  C   UNL A   1      42.582  26.344  27.394  1.00  0.00     0.049 A 
ATOM     46  N   UNL A   1      41.160  28.524  28.904  1.00  0.00    -0.248 NA
ATOM     47  C   UNL A   1      39.242  27.193  28.934  1.00  0.00     0.031 C 
ATOM     48  C   UNL A   1      43.305  25.338  26.613  1.00  0.00     0.029 A 
ATOM     49  N   UNL A   1      43.505  27.346  27.576  1.00  0.00    -0.354 N 
ATOM     50  C   UNL A   1      40.136  29.210  29.545  1.00  0.00     0.074 A 
ATOM     51  C   UNL A   1      38.964  28.362  29.495  1.00  0.00     0.031 C 
ATOM     52  C   UNL A   1      44.556  25.767  26.392  1.00  0.00     0.029 A 
ATOM     53  C   UNL A   1      44.714  27.097  26.971  1.00  0.00     0.049 A 
ATOM     54  H   UNL A   1      43.318  28.164  28.089  1.00  0.00     0.167 HD
ATOM     55  C   UNL A   1      40.180  30.430  30.129  1.00  0.00     0.037 A 
ATOM     56  C   UNL A   1      45.817  27.864  26.871  1.00  0.00     0.037 A 
ATOM     57  C   UNL A   1      41.358  31.254  30.202  1.00  0.00     0.049 A 
ATOM     58  C   UNL A   1      45.823  29.224  27.516  1.00  0.00     0.074 A 
ATOM     59  C   UNL A   1      41.523  32.461  30.859  1.00  0.00     0.029 A 
ATOM     60  N   UNL A   1      42.567  30.966  29.586  1.00  0.00    -0.354 N 
ATOM     61  N   UNL A   1      44.879  29.816  28.208  1.00  0.00    -0.248 NA
ATOM     62  C   UNL A   1      47.046  30.025  27.368  1.00  0.00     0.031 C 
ATOM     63  C   UNL A   1      42.808  32.937  30.583  1.00  0.00     0.029 A 
ATOM     64  C   UNL A   1      43.465  31.997  29.807  1.00  0.00     0.049 A 
ATOM     65  H   UNL A   1      42.757  30.150  29.069  1.00  0.00     0.167 HD
ATOM     66  C   UNL A   1      45.401  31.045  28.592  1.00  0.00     0.074 A 
ATOM     67  C   UNL A   1      46.754  31.101  28.083  1.00  0.00     0.031 C 
ATOM     68  C   UNL A   1      44.810  32.040  29.294  1.00  0.00     0.037 A 
BRANCH  55  69
ATOM     69  C   UNL A   1      38.923  30.967  30.748  1.00  0.00     0.064 A 
ATOM     70  C   UNL A   1      37.924  31.579  29.978  1.00  0.00     0.173 A 
ATOM     71  C   UNL A   1      38.668  30.765  32.115  1.00  0.00     0.173 A 
ATOM     72  F   UNL A   1      38.121  31.801  28.670  1.00  0.00    -0.203 F 
ATOM     73  C   UNL A   1      36.720  31.977  30.554  1.00  0.00     0.198 A 
ATOM     74  C   UNL A   1      37.453  31.139  32.681  1.00  0.00     0.198 A 
ATOM     75  F   UNL A   1      39.588  30.177  32.894  1.00  0.00    -0.203 F 
ATOM     76  F   UNL A   1      35.788  32.581  29.803  1.00  0.00    -0.200 F 
ATOM     77  C   UNL A   1      36.480  31.745  31.901  1.00  0.00     0.200 A 
ATOM     78  F   UNL A   1      37.217  30.898  33.978  1.00  0.00    -0.200 F 
ATOM     79  F   UNL A   1      35.311  32.105  32.447  1.00  0.00    -0.200 F 
ENDBRANCH  55  69
BRANCH  56  80
ATOM     80  C   UNL A   1      47.003  27.386  26.109  1.00  0.00     0.064 A 
ATOM     81  C   UNL A   1      48.068  26.742  26.753  1.00  0.00     0.173 A 
ATOM     82  C   UNL A   1      47.117  27.607  24.728  1.00  0.00     0.173 A 
ATOM     83  F   UNL A   1      48.017  26.524  28.076  1.00  0.00    -0.203 F 
ATOM     84  C   UNL A   1      49.218  26.376  26.057  1.00  0.00     0.198 A 
ATOM     85  C   UNL A   1      48.251  27.206  24.025  1.00  0.00     0.198 A 
ATOM     86  F   UNL A   1      46.126  28.213  24.058  1.00  0.00    -0.203 F 
ATOM     87  F   UNL A   1      50.250  25.827  26.712  1.00  0.00    -0.200 F 
ATOM     88  C   UNL A   1      49.307  26.605  24.692  1.00  0.00     0.200 A 
ATOM     89  F   UNL A   1      48.325  27.413  22.703  1.00  0.00    -0.200 F 
ATOM     90  F   UNL A   1      50.415  26.260  24.023  1.00  0.00    -0.200 F 
ENDBRANCH  56  80
BRANCH  68  91
ATOM     91  C   UNL A   1      45.625  33.272  29.565  1.00  0.00     0.064 A 
ATOM     92  C   UNL A   1      46.460  33.367  30.688  1.00  0.00     0.173 A 
ATOM     93  C   UNL A   1      45.603  34.353  28.671  1.00  0.00     0.173 A 
ATOM     94  F   UNL A   1      46.503  32.367  31.582  1.00  0.00    -0.203 F 
ATOM     95  C   UNL A   1      47.225  34.507  30.918  1.00  0.00     0.198 A 
ATOM     96  C   UNL A   1      46.395  35.478  28.885  1.00  0.00     0.198 A 
ATOM     97  F   UNL A   1      44.827  34.312  27.577  1.00  0.00    -0.203 F 
ATOM     98  F   UNL A   1      47.976  34.595  32.024  1.00  0.00    -0.200 F 
ATOM     99  C   UNL A   1      47.199  35.557  30.012  1.00  0.00     0.200 A 
ATOM    100  F   UNL A   1      46.382  36.484  28.000  1.00  0.00    -0.200 F 
ATOM    101  F   UNL A   1      47.944  36.648  30.230  1.00  0.00    -0.200 F 
ENDBRANCH  68  91
ENDBRANCH  42  43
ENDBRANCH  34  37
ENDBRANCH  32  33
ENDBRANCH  31  32
ENDBRANCH  30  31
ENDBRANCH   1  30
TORSDOF 18
ENDMDL
MODEL 3
REMARK VINA RESULT:     -11.1      1.324      7.156
REMARK SMILES C[C@@H](C(=O)NCCCCCCNC(=O)c1ccc(-c2c3nc(c(-c4c(F)c(F)c(F)c(F)c4F)c4ccc([nH]4)c(-c4c(F)c(F)c(F)c(F)c4F)c4nc(c(-c5c(F)c(F)c(F)c(F)c5F)c5ccc2[nH]5)C=C4)C=C3)cc1)c1cc(/C=C/S(C)(=O)=O)cc(C(=O)c2ccccc2)c1
REMARK SMILES IDX 8 1 7 2 6 3 5 4 3 5 4 6 2 8 1 9 78 10 79 11 97 12 80 13
REMARK SMILES IDX 88 14 87 15 81 16 82 17 83 18 84 19 85 20 86 21 89 22 90 23
REMARK SMILES IDX 91 24 92 25 96 26 93 27 95 28 94 29 9 30 10 31 11 32 12 33
REMARK SMILES IDX 13 34 14 36 15 37 16 38 77 39 17 40 76 41 18 42 19 43 20 44
REMARK SMILES IDX 70 45 21 46 75 47 69 48 71 49 22 50 74 51 68 52 67 53 23 55
REMARK SMILES IDX 55 56 35 57 54 58 36 59 39 60 53 61 72 62 37 63 38 64 52 66
REMARK SMILES IDX 73 67 40 68 24 69 25 70 33 71 26 72 27 73 31 74 34 75 28 76
REMARK SMILES IDX 29 77 32 78 30 79 56 80 57 81 65 82 58 83 59 84 63 85 66 86
REMARK SMILES IDX 60 87 61 88 64 89 62 90 41 91 42 92 50 93 43 94 44 95 48 96
REMARK SMILES IDX 51 97 45 98 46 99 49 100 47 101
REMARK H PARENT 5 7 12 35 71 54 39 65
REMARK Flexibility Score: inf
ROOT
ATOM      1  C   UNL A   1      33.966  24.687  23.369  1.00  0.00     0.002 C 
ENDROOT
BRANCH   1   2
ATOM      2  C   UNL A   1      33.811  26.125  22.849  1.00  0.00     0.021 C 
BRANCH   2   3
ATOM      3  C   UNL A   1      32.699  26.296  21.813  1.00  0.00     0.116 C 
BRANCH   3   4
ATOM      4  N   UNL A   1      32.180  27.643  21.863  1.00  0.00    -0.356 N 
ATOM      5  C   UNL A   1      30.988  28.106  22.323  1.00  0.00     0.227 C 
ATOM      6  O   UNL A   1      30.730  29.281  22.053  1.00  0.00    -0.274 OA
ATOM      7  H   UNL A   1      32.784  28.334  21.508  1.00  0.00     0.163 HD
BRANCH   5   8
ATOM      8  C   UNL A   1      30.073  27.191  23.172  1.00  0.00     0.105 C 
ATOM      9  C   UNL A   1      28.714  27.812  23.493  1.00  0.00     0.023 C 
BRANCH   8  10
ATOM     10  C   UNL A   1      30.739  26.755  24.474  1.00  0.00    -0.035 A 
ATOM     11  C   UNL A   1      31.427  27.683  25.267  1.00  0.00     0.012 A 
ATOM     12  C   UNL A   1      30.681  25.426  24.898  1.00  0.00     0.016 A 
ATOM     13  C   UNL A   1      32.179  27.299  26.383  1.00  0.00    -0.024 A 
ATOM     14  C   UNL A   1      31.373  25.018  26.047  1.00  0.00     0.023 A 
ATOM     15  C   UNL A   1      32.125  25.956  26.778  1.00  0.00     0.020 A 
BRANCH  13  16
ATOM     16  C   UNL A   1      33.032  28.263  27.106  1.00  0.00     0.020 C 
ATOM     17  C   UNL A   1      34.242  28.647  26.668  1.00  0.00     0.106 C 
BRANCH  17  18
ATOM     18  S   UNL A   1      35.236  29.718  27.598  1.00  0.00     0.168 S 
ATOM     19  C   UNL A   1      34.250  31.197  27.578  1.00  0.00     0.163 C 
ATOM     20  O   UNL A   1      35.262  29.241  28.969  1.00  0.00    -0.225 OA
ATOM     21  O   UNL A   1      36.467  30.009  26.891  1.00  0.00    -0.225 OA
ENDBRANCH  17  18
ENDBRANCH  13  16
BRANCH  14  22
ATOM     22  C   UNL A   1      31.310  23.609  26.536  1.00  0.00     0.193 C 
ATOM     23  O   UNL A   1      30.667  23.333  27.544  1.00  0.00    -0.289 OA
BRANCH  22  24
ATOM     24  C   UNL A   1      31.964  22.506  25.792  1.00  0.00     0.022 A 
ATOM     25  C   UNL A   1      31.693  22.372  24.427  1.00  0.00     0.012 A 
ATOM     26  C   UNL A   1      32.840  21.617  26.427  1.00  0.00     0.012 A 
ATOM     27  C   UNL A   1      32.335  21.378  23.687  1.00  0.00     0.001 A 
ATOM     28  C   UNL A   1      33.484  20.628  25.680  1.00  0.00     0.001 A 
ATOM     29  C   UNL A   1      33.237  20.514  24.312  1.00  0.00     0.000 A 
ENDBRANCH  22  24
ENDBRANCH  14  22
ENDBRANCH   8  10
ENDBRANCH   5   8
ENDBRANCH   3   4
ENDBRANCH   2   3
ENDBRANCH   1   2
BRANCH   1  30
ATOM     30  C   UNL A   1      34.920  24.529  24.557  1.00  0.00     0.002 C 
BRANCH  30  31
ATOM     31  C   UNL A   1      35.807  23.284  24.502  1.00  0.00     0.021 C 
BRANCH  31  32
ATOM     32  C   UNL A   1      36.245  22.762  25.866  1.00  0.00     0.116 C 
BRANCH  32  33
ATOM     33  N   UNL A   1      37.262  21.730  25.754  1.00  0.00    -0.352 N 
ATOM     34  C   UNL A   1      38.612  21.809  25.984  1.00  0.00     0.251 C 
ATOM     35  H   UNL A   1      36.934  20.845  25.473  1.00  0.00     0.163 HD
ATOM     36  O   UNL A   1      39.356  20.896  25.639  1.00  0.00    -0.269 OA
BRANCH  34  37
ATOM     37  C   UNL A   1      39.177  23.017  26.623  1.00  0.00     0.039 A 
ATOM     38  C   UNL A   1      40.258  22.874  27.495  1.00  0.00     0.014 A 
ATOM     39  C   UNL A   1      38.656  24.284  26.347  1.00  0.00     0.014 A 
ATOM     40  C   UNL A   1      40.872  24.011  28.024  1.00  0.00     0.010 A 
ATOM     41  C   UNL A   1      39.312  25.419  26.819  1.00  0.00     0.010 A 
ATOM     42  C   UNL A   1      40.438  25.293  27.647  1.00  0.00    -0.014 A 
BRANCH  42  43
ATOM     43  C   UNL A   1      41.191  26.507  28.055  1.00  0.00     0.031 A 
ATOM     44  C   UNL A   1      40.493  27.646  28.744  1.00  0.00     0.074 A 
ATOM     45  C   UNL A   1      42.495  26.609  27.728  1.00  0.00     0.049 A 
ATOM     46  N   UNL A   1      40.972  28.813  29.097  1.00  0.00    -0.248 NA
ATOM     47  C   UNL A   1      39.067  27.464  29.056  1.00  0.00     0.031 C 
ATOM     48  C   UNL A   1      43.269  25.590  27.016  1.00  0.00     0.029 A 
ATOM     49  N   UNL A   1      43.398  27.624  27.934  1.00  0.00    -0.354 N 
ATOM     50  C   UNL A   1      39.908  29.505  29.661  1.00  0.00     0.074 A 
ATOM     51  C   UNL A   1      38.748  28.645  29.570  1.00  0.00     0.031 C 
ATOM     52  C   UNL A   1      44.528  26.026  26.853  1.00  0.00     0.029 A 
ATOM     53  C   UNL A   1      44.641  27.372  27.404  1.00  0.00     0.049 A 
ATOM     54  H   UNL A   1      43.175  28.454  28.414  1.00  0.00     0.167 HD
ATOM     55  C   UNL A   1      39.909  30.740  30.214  1.00  0.00     0.037 A 
ATOM     56  C   UNL A   1      45.741  28.148  27.345  1.00  0.00     0.037 A 
ATOM     57  C   UNL A   1      41.073  31.578  30.330  1.00  0.00     0.049 A 
ATOM     58  C   UNL A   1      45.699  29.524  27.953  1.00  0.00     0.074 A 
ATOM     59  C   UNL A   1      41.191  32.804  30.962  1.00  0.00     0.029 A 
ATOM     60  N   UNL A   1      42.317  31.286  29.790  1.00  0.00    -0.354 N 
ATOM     61  N   UNL A   1      44.713  30.124  28.575  1.00  0.00    -0.248 NA
ATOM     62  C   UNL A   1      46.922  30.333  27.851  1.00  0.00     0.031 C 
ATOM     63  C   UNL A   1      42.485  33.286  30.746  1.00  0.00     0.029 A 
ATOM     64  C   UNL A   1      43.193  32.332  30.033  1.00  0.00     0.049 A 
ATOM     65  H   UNL A   1      42.543  30.459  29.307  1.00  0.00     0.167 HD
ATOM     66  C   UNL A   1      45.202  31.368  28.954  1.00  0.00     0.074 A 
ATOM     67  C   UNL A   1      46.580  31.425  28.520  1.00  0.00     0.031 C 
ATOM     68  C   UNL A   1      44.563  32.376  29.595  1.00  0.00     0.037 A 
BRANCH  55  69
ATOM     69  C   UNL A   1      38.614  31.281  30.748  1.00  0.00     0.064 A 
ATOM     70  C   UNL A   1      38.276  31.182  32.105  1.00  0.00     0.173 A 
ATOM     71  C   UNL A   1      37.752  32.003  29.907  1.00  0.00     0.173 A 
ATOM     72  F   UNL A   1      39.062  30.496  32.948  1.00  0.00    -0.203 F 
ATOM     73  C   UNL A   1      37.120  31.780  32.600  1.00  0.00     0.198 A 
ATOM     74  C   UNL A   1      36.612  32.623  30.410  1.00  0.00     0.198 A 
ATOM     75  F   UNL A   1      38.034  32.134  28.602  1.00  0.00    -0.203 F 
ATOM     76  F   UNL A   1      36.805  31.654  33.897  1.00  0.00    -0.200 F 
ATOM     77  C   UNL A   1      36.296  32.511  31.755  1.00  0.00     0.200 A 
ATOM     78  F   UNL A   1      35.828  33.343  29.596  1.00  0.00    -0.200 F 
ATOM     79  F   UNL A   1      35.199  33.108  32.239  1.00  0.00    -0.200 F 
ENDBRANCH  55  69
BRANCH  56  80
ATOM     80  C   UNL A   1      46.972  27.661  26.663  1.00  0.00     0.064 A 
ATOM     81  C   UNL A   1      47.127  27.781  25.275  1.00  0.00     0.173 A 
ATOM     82  C   UNL A   1      47.996  27.022  27.378  1.00  0.00     0.173 A 
ATOM     83  F   UNL A   1      46.167  28.366  24.542  1.00  0.00    -0.203 F 
ATOM     84  C   UNL A   1      48.235  27.244  24.624  1.00  0.00     0.198 A 
ATOM     85  C   UNL A   1      49.122  26.519  26.732  1.00  0.00     0.198 A 
ATOM     86  F   UNL A   1      47.903  26.884  28.710  1.00  0.00    -0.203 F 
ATOM     87  F   UNL A   1      48.322  27.310  23.288  1.00  0.00    -0.200 F 
ATOM     88  C   UNL A   1      49.234  26.617  25.353  1.00  0.00     0.200 A 
ATOM     89  F   UNL A   1      50.093  25.930  27.442  1.00  0.00    -0.200 F 
ATOM     90  F   UNL A   1      50.297  26.094  24.727  1.00  0.00    -0.200 F 
ENDBRANCH  56  80
BRANCH  68  91
ATOM     91  C   UNL A   1      45.351  33.622  29.877  1.00  0.00     0.064 A 
ATOM     92  C   UNL A   1      45.360  34.702  28.983  1.00  0.00     0.173 A 
ATOM     93  C   UNL A   1      46.072  33.756  31.074  1.00  0.00     0.173 A 
ATOM     94  F   UNL A   1      44.702  34.618  27.816  1.00  0.00    -0.203 F 
ATOM     95  C   UNL A   1      46.081  35.860  29.264  1.00  0.00     0.198 A 
ATOM     96  C   UNL A   1      46.763  34.928  31.369  1.00  0.00     0.198 A 
ATOM     97  F   UNL A   1      46.091  32.755  31.968  1.00  0.00    -0.203 F 
ATOM     98  F   UNL A   1      46.115  36.858  28.371  1.00  0.00    -0.200 F 
ATOM     99  C   UNL A   1      46.772  35.976  30.460  1.00  0.00     0.200 A 
ATOM    100  F   UNL A   1      47.417  35.045  32.533  1.00  0.00    -0.200 F 
ATOM    101  F   UNL A   1      47.455  37.095  30.734  1.00  0.00    -0.200 F 
ENDBRANCH  68  91
ENDBRANCH  42  43
ENDBRANCH  34  37
ENDBRANCH  32  33
ENDBRANCH  31  32
ENDBRANCH  30  31
ENDBRANCH   1  30
TORSDOF 18
ENDMDL
