MODEL 1
REMARK VINA RESULT:     -11.8      0.000      0.000
REMARK SMILES Nc1ccc(C(=O)NC[C@@H]2CC[C@@H](C(=O)NCCCCCCNC(=O)c3ccc(-c4c5nc(c(-c6c(F)c(F)c(F)c(F)c6F)c6ccc([nH]6)c(-c6c(F)c(F)c(F)c(F)c6F)c6nc(c(-c7c(F)c(F)c(F)c(F)c7F)c7ccc4[nH]7)C=C6)C=C5)cc3)O2)cc1Cl
REMARK SMILES IDX 18 1 17 2 16 3 14 4 15 5 13 7 10 8 11 9 89 10 12 11 9 12
REMARK SMILES IDX 8 13 6 14 7 15 5 17 2 18 3 19 91 20 4 21 90 22 92 23 1 24
REMARK SMILES IDX 19 27 20 28 21 29 22 30 23 31 24 32 25 34 26 35 27 36 88 37
REMARK SMILES IDX 28 38 87 39 29 40 30 41 31 42 81 43 32 44 86 45 80 46 82 47
REMARK SMILES IDX 33 48 85 49 79 50 78 51 34 53 66 54 46 55 65 56 47 57 50 58
REMARK SMILES IDX 64 59 83 60 48 61 49 62 63 64 84 65 51 66 35 67 36 68 44 69
REMARK SMILES IDX 37 70 38 71 42 72 45 73 39 74 40 75 43 76 41 77 67 78 68 79
REMARK SMILES IDX 76 80 69 81 70 82 74 83 77 84 71 85 72 86 75 87 73 88 52 89
REMARK SMILES IDX 53 90 61 91 54 92 55 93 59 94 62 95 56 96 57 97 60 98 58 99
REMARK H PARENT 16 6 8 16 1 25 1 26 23 33 82 52 50 63
REMARK Flexibility Score: inf
ROOT
ATOM      1  C   UNL A   1      32.790  28.635  26.840  1.00  0.00     0.021 C 
ENDROOT
BRANCH   1   2
ATOM      2  C   UNL A   1      34.123  28.432  26.125  1.00  0.00     0.116 C 
BRANCH   2   3
ATOM      3  N   UNL A   1      34.050  28.786  24.722  1.00  0.00    -0.354 N 
ATOM      4  C   UNL A   1      33.704  28.005  23.658  1.00  0.00     0.249 C 
ATOM      5  O   UNL A   1      33.688  28.534  22.544  1.00  0.00    -0.272 OA
ATOM      6  H   UNL A   1      34.282  29.718  24.508  1.00  0.00     0.163 HD
BRANCH   4   7
ATOM      7  C   UNL A   1      33.423  26.504  23.872  1.00  0.00     0.207 C 
ATOM      8  C   UNL A   1      31.564  25.308  23.111  1.00  0.00     0.138 C 
ATOM      9  C   UNL A   1      32.803  24.570  22.639  1.00  0.00     0.037 C 
ATOM     10  O   UNL A   1      32.037  26.207  24.130  1.00  0.00    -0.363 OA
ATOM     11  C   UNL A   1      33.830  25.674  22.656  1.00  0.00     0.045 C 
BRANCH   8  12
ATOM     12  C   UNL A   1      30.393  24.448  23.618  1.00  0.00     0.148 C 
BRANCH  12  13
ATOM     13  N   UNL A   1      30.335  24.284  25.064  1.00  0.00    -0.349 N 
ATOM     14  C   UNL A   1      31.008  23.566  26.009  1.00  0.00     0.251 C 
ATOM     15  O   UNL A   1      30.583  23.688  27.161  1.00  0.00    -0.269 OA
ATOM     16  H   UNL A   1      29.624  24.836  25.464  1.00  0.00     0.163 HD
BRANCH  14  17
ATOM     17  C   UNL A   1      32.185  22.678  25.779  1.00  0.00     0.041 A 
ATOM     18  C   UNL A   1      34.592  21.213  25.362  1.00  0.00     0.050 A 
ATOM     19  C   UNL A   1      33.342  20.639  25.116  1.00  0.00     0.028 A 
ATOM     20  C   UNL A   1      34.622  22.514  25.881  1.00  0.00     0.064 A 
ATOM     21  C   UNL A   1      32.153  21.363  25.317  1.00  0.00     0.016 A 
ATOM     22  C   UNL A   1      33.443  23.238  26.071  1.00  0.00     0.036 A 
ATOM     23  Cl  UNL A   1      36.128  23.272  26.274  1.00  0.00    -0.082 Cl
BRANCH  18  24
ATOM     24  N   UNL A   1      35.744  20.445  25.216  1.00  0.00    -0.398 N 
ATOM     25  H   UNL A   1      36.427  20.443  25.925  1.00  0.00     0.156 HD
ATOM     26  H   UNL A   1      35.875  19.905  24.404  1.00  0.00     0.156 HD
ENDBRANCH  18  24
ENDBRANCH  14  17
ENDBRANCH  12  13
ENDBRANCH   8  12
ENDBRANCH   4   7
ENDBRANCH   2   3
ENDBRANCH   1   2
BRANCH   1  27
ATOM     27  C   UNL A   1      32.474  30.075  27.256  1.00  0.00     0.002 C 
BRANCH  27  28
ATOM     28  C   UNL A   1      31.372  30.775  26.458  1.00  0.00     0.002 C 
BRANCH  28  29
ATOM     29  C   UNL A   1      31.327  32.300  26.583  1.00  0.00     0.021 C 
BRANCH  29  30
ATOM     30  C   UNL A   1      32.623  32.959  27.042  1.00  0.00     0.116 C 
BRANCH  30  31
ATOM     31  N   UNL A   1      32.412  34.269  27.630  1.00  0.00    -0.352 N 
ATOM     32  C   UNL A   1      33.037  34.859  28.699  1.00  0.00     0.251 C 
ATOM     33  H   UNL A   1      31.717  34.815  27.197  1.00  0.00     0.163 HD
ATOM     34  O   UNL A   1      32.622  35.930  29.130  1.00  0.00    -0.269 OA
BRANCH  32  35
ATOM     35  C   UNL A   1      34.197  34.209  29.354  1.00  0.00     0.039 A 
ATOM     36  C   UNL A   1      35.481  34.540  28.912  1.00  0.00     0.014 A 
ATOM     37  C   UNL A   1      34.033  33.242  30.350  1.00  0.00     0.014 A 
ATOM     38  C   UNL A   1      36.598  33.924  29.483  1.00  0.00     0.010 A 
ATOM     39  C   UNL A   1      35.150  32.678  30.968  1.00  0.00     0.010 A 
ATOM     40  C   UNL A   1      36.442  32.996  30.525  1.00  0.00    -0.014 A 
BRANCH  40  41
ATOM     41  C   UNL A   1      37.621  32.308  31.112  1.00  0.00     0.031 A 
ATOM     42  C   UNL A   1      38.117  32.702  32.478  1.00  0.00     0.074 A 
ATOM     43  C   UNL A   1      38.260  31.351  30.413  1.00  0.00     0.049 A 
ATOM     44  N   UNL A   1      39.149  32.253  33.148  1.00  0.00    -0.248 NA
ATOM     45  C   UNL A   1      37.367  33.760  33.173  1.00  0.00     0.031 C 
ATOM     46  C   UNL A   1      37.907  30.909  29.064  1.00  0.00     0.029 A 
ATOM     47  N   UNL A   1      39.346  30.579  30.743  1.00  0.00    -0.354 N 
ATOM     48  C   UNL A   1      39.174  32.977  34.333  1.00  0.00     0.074 A 
ATOM     49  C   UNL A   1      38.093  33.936  34.267  1.00  0.00     0.031 C 
ATOM     50  C   UNL A   1      38.749  29.933  28.687  1.00  0.00     0.029 A 
ATOM     51  C   UNL A   1      39.716  29.697  29.757  1.00  0.00     0.049 A 
ATOM     52  H   UNL A   1      39.818  30.651  31.605  1.00  0.00     0.167 HD
ATOM     53  C   UNL A   1      40.003  32.836  35.395  1.00  0.00     0.037 A 
ATOM     54  C   UNL A   1      40.719  28.799  29.722  1.00  0.00     0.037 A 
ATOM     55  C   UNL A   1      41.062  31.865  35.474  1.00  0.00     0.049 A 
ATOM     56  C   UNL A   1      41.610  28.647  30.926  1.00  0.00     0.074 A 
ATOM     57  C   UNL A   1      41.945  31.629  36.515  1.00  0.00     0.029 A 
ATOM     58  N   UNL A   1      41.373  30.956  34.474  1.00  0.00    -0.354 N 
ATOM     59  N   UNL A   1      41.595  29.308  32.059  1.00  0.00    -0.248 NA
ATOM     60  C   UNL A   1      42.647  27.608  30.853  1.00  0.00     0.031 C 
ATOM     61  C   UNL A   1      42.805  30.594  36.133  1.00  0.00     0.029 A 
ATOM     62  C   UNL A   1      42.433  30.157  34.872  1.00  0.00     0.049 A 
ATOM     63  H   UNL A   1      40.909  30.888  33.608  1.00  0.00     0.167 HD
ATOM     64  C   UNL A   1      42.595  28.747  32.841  1.00  0.00     0.074 A 
ATOM     65  C   UNL A   1      43.185  27.678  32.063  1.00  0.00     0.031 C 
ATOM     66  C   UNL A   1      42.994  29.088  34.091  1.00  0.00     0.037 A 
BRANCH  53  67
ATOM     67  C   UNL A   1      39.785  33.745  36.569  1.00  0.00     0.064 A 
ATOM     68  C   UNL A   1      38.933  33.383  37.623  1.00  0.00     0.173 A 
ATOM     69  C   UNL A   1      40.459  34.971  36.663  1.00  0.00     0.173 A 
ATOM     70  F   UNL A   1      38.253  32.227  37.574  1.00  0.00    -0.203 F 
ATOM     71  C   UNL A   1      38.745  34.225  38.716  1.00  0.00     0.198 A 
ATOM     72  C   UNL A   1      40.292  35.798  37.770  1.00  0.00     0.198 A 
ATOM     73  F   UNL A   1      41.289  35.364  35.684  1.00  0.00    -0.203 F 
ATOM     74  F   UNL A   1      37.890  33.878  39.689  1.00  0.00    -0.200 F 
ATOM     75  C   UNL A   1      39.431  35.428  38.793  1.00  0.00     0.200 A 
ATOM     76  F   UNL A   1      40.964  36.956  37.849  1.00  0.00    -0.200 F 
ATOM     77  F   UNL A   1      39.255  36.234  39.849  1.00  0.00    -0.200 F 
ENDBRANCH  53  67
BRANCH  54  78
ATOM     78  C   UNL A   1      40.922  27.951  28.519  1.00  0.00     0.064 A 
ATOM     79  C   UNL A   1      41.759  28.367  27.475  1.00  0.00     0.173 A 
ATOM     80  C   UNL A   1      40.261  26.722  28.376  1.00  0.00     0.173 A 
ATOM     81  F   UNL A   1      42.397  29.544  27.557  1.00  0.00    -0.203 F 
ATOM     82  C   UNL A   1      41.901  27.603  26.318  1.00  0.00     0.198 A 
ATOM     83  C   UNL A   1      40.427  25.945  27.231  1.00  0.00     0.198 A 
ATOM     84  F   UNL A   1      39.454  26.276  29.349  1.00  0.00    -0.203 F 
ATOM     85  F   UNL A   1      42.662  28.053  25.311  1.00  0.00    -0.200 F 
ATOM     86  C   UNL A   1      41.237  26.392  26.199  1.00  0.00     0.200 A 
ATOM     87  F   UNL A   1      39.794  24.770  27.125  1.00  0.00    -0.200 F 
ATOM     88  F   UNL A   1      41.371  25.660  25.084  1.00  0.00    -0.200 F 
ENDBRANCH  54  78
BRANCH  66  89
ATOM     89  C   UNL A   1      44.089  28.267  34.707  1.00  0.00     0.064 A 
ATOM     90  C   UNL A   1      45.439  28.629  34.585  1.00  0.00     0.173 A 
ATOM     91  C   UNL A   1      43.781  27.115  35.445  1.00  0.00     0.173 A 
ATOM     92  F   UNL A   1      45.785  29.716  33.877  1.00  0.00    -0.203 F 
ATOM     93  C   UNL A   1      46.443  27.847  35.150  1.00  0.00     0.198 A 
ATOM     94  C   UNL A   1      44.786  26.352  36.034  1.00  0.00     0.198 A 
ATOM     95  F   UNL A   1      42.505  26.730  35.598  1.00  0.00    -0.203 F 
ATOM     96  F   UNL A   1      47.728  28.181  34.973  1.00  0.00    -0.200 F 
ATOM     97  C   UNL A   1      46.115  26.713  35.877  1.00  0.00     0.200 A 
ATOM     98  F   UNL A   1      44.467  25.262  36.746  1.00  0.00    -0.200 F 
ATOM     99  F   UNL A   1      47.083  25.961  36.419  1.00  0.00    -0.200 F 
ENDBRANCH  66  89
ENDBRANCH  40  41
ENDBRANCH  32  35
ENDBRANCH  30  31
ENDBRANCH  29  30
ENDBRANCH  28  29
ENDBRANCH  27  28
ENDBRANCH   1  27
TORSDOF 17
ENDMDL
MODEL 2
REMARK VINA RESULT:     -11.6      1.237      2.432
REMARK SMILES Nc1ccc(C(=O)NC[C@@H]2CC[C@@H](C(=O)NCCCCCCNC(=O)c3ccc(-c4c5nc(c(-c6c(F)c(F)c(F)c(F)c6F)c6ccc([nH]6)c(-c6c(F)c(F)c(F)c(F)c6F)c6nc(c(-c7c(F)c(F)c(F)c(F)c7F)c7ccc4[nH]7)C=C6)C=C5)cc3)O2)cc1Cl
REMARK SMILES IDX 18 1 17 2 16 3 14 4 15 5 13 7 10 8 11 9 89 10 12 11 9 12
REMARK SMILES IDX 8 13 6 14 7 15 5 17 2 18 3 19 91 20 4 21 90 22 92 23 1 24
REMARK SMILES IDX 19 27 20 28 21 29 22 30 23 31 24 32 25 34 26 35 27 36 88 37
REMARK SMILES IDX 28 38 87 39 29 40 30 41 31 42 81 43 32 44 86 45 80 46 82 47
REMARK SMILES IDX 33 48 85 49 79 50 78 51 34 53 66 54 46 55 65 56 47 57 50 58
REMARK SMILES IDX 64 59 83 60 48 61 49 62 63 64 84 65 51 66 35 67 36 68 44 69
REMARK SMILES IDX 37 70 38 71 42 72 45 73 39 74 40 75 43 76 41 77 67 78 68 79
REMARK SMILES IDX 76 80 69 81 70 82 74 83 77 84 71 85 72 86 75 87 73 88 52 89
REMARK SMILES IDX 53 90 61 91 54 92 55 93 59 94 62 95 56 96 57 97 60 98 58 99
REMARK H PARENT 16 6 8 16 1 25 1 26 23 33 82 52 50 63
REMARK Flexibility Score: inf
ROOT
ATOM      1  C   UNL A   1      31.867  28.618  27.274  1.00  0.00     0.021 C 
ENDROOT
BRANCH   1   2
ATOM      2  C   UNL A   1      31.602  27.509  26.258  1.00  0.00     0.116 C 
BRANCH   2   3
ATOM      3  N   UNL A   1      31.133  26.292  26.887  1.00  0.00    -0.354 N 
ATOM      4  C   UNL A   1      31.283  25.001  26.474  1.00  0.00     0.249 C 
ATOM      5  O   UNL A   1      30.815  24.114  27.191  1.00  0.00    -0.272 OA
ATOM      6  H   UNL A   1      30.637  26.414  27.728  1.00  0.00     0.163 HD
BRANCH   4   7
ATOM      7  C   UNL A   1      31.954  24.706  25.116  1.00  0.00     0.207 C 
ATOM      8  C   UNL A   1      31.763  22.744  23.859  1.00  0.00     0.138 C 
ATOM      9  C   UNL A   1      31.409  23.905  22.947  1.00  0.00     0.037 C 
ATOM     10  O   UNL A   1      32.421  23.349  24.986  1.00  0.00    -0.363 OA
ATOM     11  C   UNL A   1      31.002  24.955  23.949  1.00  0.00     0.045 C 
BRANCH   8  12
ATOM     12  C   UNL A   1      32.611  21.614  23.251  1.00  0.00     0.148 C 
BRANCH  12  13
ATOM     13  N   UNL A   1      32.742  20.429  24.087  1.00  0.00    -0.349 N 
ATOM     14  C   UNL A   1      33.737  19.818  24.792  1.00  0.00     0.251 C 
ATOM     15  O   UNL A   1      33.416  18.760  25.342  1.00  0.00    -0.269 OA
ATOM     16  H   UNL A   1      31.890  19.941  24.162  1.00  0.00     0.163 HD
BRANCH  14  17
ATOM     17  C   UNL A   1      35.137  20.308  24.963  1.00  0.00     0.041 A 
ATOM     18  C   UNL A   1      37.701  21.500  25.298  1.00  0.00     0.050 A 
ATOM     19  C   UNL A   1      37.568  20.164  24.916  1.00  0.00     0.028 A 
ATOM     20  C   UNL A   1      36.531  22.220  25.572  1.00  0.00     0.064 A 
ATOM     21  C   UNL A   1      36.302  19.575  24.745  1.00  0.00     0.016 A 
ATOM     22  C   UNL A   1      35.273  21.640  25.393  1.00  0.00     0.036 A 
ATOM     23  Cl  UNL A   1      36.612  23.862  26.115  1.00  0.00    -0.082 Cl
BRANCH  18  24
ATOM     24  N   UNL A   1      38.968  22.031  25.523  1.00  0.00    -0.398 N 
ATOM     25  H   UNL A   1      39.437  22.508  24.800  1.00  0.00     0.156 HD
ATOM     26  H   UNL A   1      39.396  21.928  26.403  1.00  0.00     0.156 HD
ENDBRANCH  18  24
ENDBRANCH  14  17
ENDBRANCH  12  13
ENDBRANCH   8  12
ENDBRANCH   4   7
ENDBRANCH   2   3
ENDBRANCH   1   2
BRANCH   1  27
ATOM     27  C   UNL A   1      32.398  29.933  26.694  1.00  0.00     0.002 C 
BRANCH  27  28
ATOM     28  C   UNL A   1      31.365  30.824  26.001  1.00  0.00     0.002 C 
BRANCH  28  29
ATOM     29  C   UNL A   1      31.296  32.271  26.495  1.00  0.00     0.021 C 
BRANCH  29  30
ATOM     30  C   UNL A   1      32.575  32.810  27.125  1.00  0.00     0.116 C 
BRANCH  30  31
ATOM     31  N   UNL A   1      32.426  34.159  27.639  1.00  0.00    -0.352 N 
ATOM     32  C   UNL A   1      33.099  34.788  28.656  1.00  0.00     0.251 C 
ATOM     33  H   UNL A   1      31.738  34.704  27.192  1.00  0.00     0.163 HD
ATOM     34  O   UNL A   1      32.733  35.897  29.033  1.00  0.00    -0.269 OA
BRANCH  32  35
ATOM     35  C   UNL A   1      34.253  34.136  29.319  1.00  0.00     0.039 A 
ATOM     36  C   UNL A   1      35.541  34.457  28.879  1.00  0.00     0.014 A 
ATOM     37  C   UNL A   1      34.080  33.176  30.322  1.00  0.00     0.014 A 
ATOM     38  C   UNL A   1      36.652  33.839  29.459  1.00  0.00     0.010 A 
ATOM     39  C   UNL A   1      35.192  32.611  30.947  1.00  0.00     0.010 A 
ATOM     40  C   UNL A   1      36.488  32.919  30.506  1.00  0.00    -0.014 A 
BRANCH  40  41
ATOM     41  C   UNL A   1      37.660  32.228  31.102  1.00  0.00     0.031 A 
ATOM     42  C   UNL A   1      38.137  32.610  32.479  1.00  0.00     0.074 A 
ATOM     43  C   UNL A   1      38.312  31.280  30.402  1.00  0.00     0.049 A 
ATOM     44  N   UNL A   1      39.161  32.158  33.157  1.00  0.00    -0.248 NA
ATOM     45  C   UNL A   1      37.375  33.659  33.174  1.00  0.00     0.031 C 
ATOM     46  C   UNL A   1      37.978  30.851  29.044  1.00  0.00     0.029 A 
ATOM     47  N   UNL A   1      39.396  30.508  30.738  1.00  0.00    -0.354 N 
ATOM     48  C   UNL A   1      39.169  32.869  34.350  1.00  0.00     0.074 A 
ATOM     49  C   UNL A   1      38.085  33.826  34.279  1.00  0.00     0.031 C 
ATOM     50  C   UNL A   1      38.829  29.881  28.668  1.00  0.00     0.029 A 
ATOM     51  C   UNL A   1      39.781  29.637  29.749  1.00  0.00     0.049 A 
ATOM     52  H   UNL A   1      39.856  30.573  31.607  1.00  0.00     0.167 HD
ATOM     53  C   UNL A   1      39.984  32.720  35.421  1.00  0.00     0.037 A 
ATOM     54  C   UNL A   1      40.788  28.743  29.718  1.00  0.00     0.037 A 
ATOM     55  C   UNL A   1      41.045  31.751  35.505  1.00  0.00     0.049 A 
ATOM     56  C   UNL A   1      41.663  28.581  30.933  1.00  0.00     0.074 A 
ATOM     57  C   UNL A   1      41.915  31.508  36.555  1.00  0.00     0.029 A 
ATOM     58  N   UNL A   1      41.371  30.854  34.500  1.00  0.00    -0.354 N 
ATOM     59  N   UNL A   1      41.631  29.230  32.071  1.00  0.00    -0.248 NA
ATOM     60  C   UNL A   1      42.704  27.547  30.863  1.00  0.00     0.031 C 
ATOM     61  C   UNL A   1      42.783  30.479  36.174  1.00  0.00     0.029 A 
ATOM     62  C   UNL A   1      42.429  30.054  34.904  1.00  0.00     0.049 A 
ATOM     63  H   UNL A   1      40.920  30.793  33.627  1.00  0.00     0.167 HD
ATOM     64  C   UNL A   1      42.623  28.665  32.862  1.00  0.00     0.074 A 
ATOM     65  C   UNL A   1      43.226  27.606  32.080  1.00  0.00     0.031 C 
ATOM     66  C   UNL A   1      43.003  28.994  34.119  1.00  0.00     0.037 A 
BRANCH  53  67
ATOM     67  C   UNL A   1      39.747  33.616  36.601  1.00  0.00     0.064 A 
ATOM     68  C   UNL A   1      40.368  34.871  36.701  1.00  0.00     0.173 A 
ATOM     69  C   UNL A   1      38.864  33.239  37.624  1.00  0.00     0.173 A 
ATOM     70  F   UNL A   1      41.233  35.272  35.757  1.00  0.00    -0.203 F 
ATOM     71  C   UNL A   1      40.133  35.703  37.792  1.00  0.00     0.198 A 
ATOM     72  C   UNL A   1      38.609  34.086  38.699  1.00  0.00     0.198 A 
ATOM     73  F   UNL A   1      38.241  32.052  37.576  1.00  0.00    -0.203 F 
ATOM     74  F   UNL A   1      40.774  36.877  37.888  1.00  0.00    -0.200 F 
ATOM     75  C   UNL A   1      39.248  35.314  38.786  1.00  0.00     0.200 A 
ATOM     76  F   UNL A   1      37.745  33.714  39.654  1.00  0.00    -0.200 F 
ATOM     77  F   UNL A   1      39.016  36.120  39.832  1.00  0.00    -0.200 F 
ENDBRANCH  53  67
BRANCH  54  78
ATOM     78  C   UNL A   1      41.009  27.908  28.510  1.00  0.00     0.064 A 
ATOM     79  C   UNL A   1      41.909  28.305  27.512  1.00  0.00     0.173 A 
ATOM     80  C   UNL A   1      40.304  26.711  28.314  1.00  0.00     0.173 A 
ATOM     81  F   UNL A   1      42.592  29.452  27.645  1.00  0.00    -0.203 F 
ATOM     82  C   UNL A   1      42.072  27.556  26.349  1.00  0.00     0.198 A 
ATOM     83  C   UNL A   1      40.490  25.947  27.163  1.00  0.00     0.198 A 
ATOM     84  F   UNL A   1      39.436  26.283  29.241  1.00  0.00    -0.203 F 
ATOM     85  F   UNL A   1      42.896  27.990  25.385  1.00  0.00    -0.200 F 
ATOM     86  C   UNL A   1      41.364  26.376  26.177  1.00  0.00     0.200 A 
ATOM     87  F   UNL A   1      39.813  24.802  27.006  1.00  0.00    -0.200 F 
ATOM     88  F   UNL A   1      41.518  25.659  25.055  1.00  0.00    -0.200 F 
ENDBRANCH  54  78
BRANCH  66  89
ATOM     89  C   UNL A   1      44.093  28.171  34.742  1.00  0.00     0.064 A 
ATOM     90  C   UNL A   1      43.812  26.995  35.455  1.00  0.00     0.173 A 
ATOM     91  C   UNL A   1      45.435  28.553  34.608  1.00  0.00     0.173 A 
ATOM     92  F   UNL A   1      42.542  26.595  35.623  1.00  0.00    -0.203 F 
ATOM     93  C   UNL A   1      44.834  26.253  36.040  1.00  0.00     0.198 A 
ATOM     94  C   UNL A   1      46.457  27.792  35.168  1.00  0.00     0.198 A 
ATOM     95  F   UNL A   1      45.757  29.665  33.929  1.00  0.00    -0.203 F 
ATOM     96  F   UNL A   1      44.538  25.165  36.763  1.00  0.00    -0.200 F 
ATOM     97  C   UNL A   1      46.155  26.648  35.892  1.00  0.00     0.200 A 
ATOM     98  F   UNL A   1      47.734  28.170  35.015  1.00  0.00    -0.200 F 
ATOM     99  F   UNL A   1      47.137  25.933  36.456  1.00  0.00    -0.200 F 
ENDBRANCH  66  89
ENDBRANCH  40  41
ENDBRANCH  32  35
ENDBRANCH  30  31
ENDBRANCH  29  30
ENDBRANCH  28  29
ENDBRANCH  27  28
ENDBRANCH   1  27
TORSDOF 17
ENDMDL
MODEL 3
REMARK VINA RESULT:     -11.4      1.356      7.346
REMARK SMILES Nc1ccc(C(=O)NC[C@@H]2CC[C@@H](C(=O)NCCCCCCNC(=O)c3ccc(-c4c5nc(c(-c6c(F)c(F)c(F)c(F)c6F)c6ccc([nH]6)c(-c6c(F)c(F)c(F)c(F)c6F)c6nc(c(-c7c(F)c(F)c(F)c(F)c7F)c7ccc4[nH]7)C=C6)C=C5)cc3)O2)cc1Cl
REMARK SMILES IDX 18 1 17 2 16 3 14 4 15 5 13 7 10 8 11 9 89 10 12 11 9 12
REMARK SMILES IDX 8 13 6 14 7 15 5 17 2 18 3 19 91 20 4 21 90 22 92 23 1 24
REMARK SMILES IDX 19 27 20 28 21 29 22 30 23 31 24 32 25 34 26 35 27 36 88 37
REMARK SMILES IDX 28 38 87 39 29 40 30 41 31 42 81 43 32 44 86 45 80 46 82 47
REMARK SMILES IDX 33 48 85 49 79 50 78 51 34 53 66 54 46 55 65 56 47 57 50 58
REMARK SMILES IDX 64 59 83 60 48 61 49 62 63 64 84 65 51 66 35 67 36 68 44 69
REMARK SMILES IDX 37 70 38 71 42 72 45 73 39 74 40 75 43 76 41 77 67 78 68 79
REMARK SMILES IDX 76 80 69 81 70 82 74 83 77 84 71 85 72 86 75 87 73 88 52 89
REMARK SMILES IDX 53 90 61 91 54 92 55 93 59 94 62 95 56 96 57 97 60 98 58 99
REMARK H PARENT 16 6 8 16 1 25 1 26 23 33 82 52 50 63
REMARK Flexibility Score: inf
ROOT
ATOM      1  C   UNL A   1      32.041  28.696  27.309  1.00  0.00     0.021 C 
ENDROOT
BRANCH   1   2
ATOM      2  C   UNL A   1      31.690  27.694  26.212  1.00  0.00     0.116 C 
BRANCH   2   3
ATOM      3  N   UNL A   1      31.017  26.524  26.735  1.00  0.00    -0.354 N 
ATOM      4  C   UNL A   1      31.049  25.239  26.276  1.00  0.00     0.249 C 
ATOM      5  O   UNL A   1      30.408  24.393  26.904  1.00  0.00    -0.272 OA
ATOM      6  H   UNL A   1      30.460  26.677  27.532  1.00  0.00     0.163 HD
BRANCH   4   7
ATOM      7  C   UNL A   1      31.808  24.912  24.974  1.00  0.00     0.207 C 
ATOM      8  C   UNL A   1      31.666  22.936  23.732  1.00  0.00     0.138 C 
ATOM      9  C   UNL A   1      31.402  24.091  22.782  1.00  0.00     0.037 C 
ATOM     10  O   UNL A   1      32.256  23.545  24.895  1.00  0.00    -0.363 OA
ATOM     11  C   UNL A   1      30.946  25.163  23.738  1.00  0.00     0.045 C 
BRANCH   8  12
ATOM     12  C   UNL A   1      32.532  21.781  23.200  1.00  0.00     0.148 C 
BRANCH  12  13
ATOM     13  N   UNL A   1      32.622  20.627  24.083  1.00  0.00    -0.349 N 
ATOM     14  C   UNL A   1      33.593  20.015  24.820  1.00  0.00     0.251 C 
ATOM     15  O   UNL A   1      33.237  18.989  25.407  1.00  0.00    -0.269 OA
ATOM     16  H   UNL A   1      31.755  20.168  24.170  1.00  0.00     0.163 HD
BRANCH  14  17
ATOM     17  C   UNL A   1      35.005  20.469  24.983  1.00  0.00     0.041 A 
ATOM     18  C   UNL A   1      37.602  21.597  25.296  1.00  0.00     0.050 A 
ATOM     19  C   UNL A   1      37.432  20.254  24.951  1.00  0.00     0.028 A 
ATOM     20  C   UNL A   1      36.452  22.357  25.545  1.00  0.00     0.064 A 
ATOM     21  C   UNL A   1      36.150  19.697  24.791  1.00  0.00     0.016 A 
ATOM     22  C   UNL A   1      35.178  21.808  25.376  1.00  0.00     0.036 A 
ATOM     23  Cl  UNL A   1      36.578  24.011  26.040  1.00  0.00    -0.082 Cl
BRANCH  18  24
ATOM     24  N   UNL A   1      38.883  22.096  25.511  1.00  0.00    -0.398 N 
ATOM     25  H   UNL A   1      39.108  23.012  25.228  1.00  0.00     0.156 HD
ATOM     26  H   UNL A   1      39.564  21.534  25.946  1.00  0.00     0.156 HD
ENDBRANCH  18  24
ENDBRANCH  14  17
ENDBRANCH  12  13
ENDBRANCH   8  12
ENDBRANCH   4   7
ENDBRANCH   2   3
ENDBRANCH   1   2
BRANCH   1  27
ATOM     27  C   UNL A   1      32.458  30.089  26.825  1.00  0.00     0.002 C 
BRANCH  27  28
ATOM     28  C   UNL A   1      31.370  30.906  26.123  1.00  0.00     0.002 C 
BRANCH  28  29
ATOM     29  C   UNL A   1      31.298  32.385  26.507  1.00  0.00     0.021 C 
BRANCH  29  30
ATOM     30  C   UNL A   1      32.505  32.925  27.268  1.00  0.00     0.116 C 
BRANCH  30  31
ATOM     31  N   UNL A   1      32.354  34.317  27.651  1.00  0.00    -0.352 N 
ATOM     32  C   UNL A   1      33.005  35.031  28.625  1.00  0.00     0.251 C 
ATOM     33  H   UNL A   1      31.684  34.823  27.137  1.00  0.00     0.163 HD
ATOM     34  O   UNL A   1      32.639  36.173  28.888  1.00  0.00    -0.269 OA
BRANCH  32  35
ATOM     35  C   UNL A   1      34.133  34.436  29.377  1.00  0.00     0.039 A 
ATOM     36  C   UNL A   1      35.417  34.526  28.831  1.00  0.00     0.014 A 
ATOM     37  C   UNL A   1      33.935  33.744  30.576  1.00  0.00     0.014 A 
ATOM     38  C   UNL A   1      36.502  33.948  29.496  1.00  0.00     0.010 A 
ATOM     39  C   UNL A   1      35.027  33.227  31.274  1.00  0.00     0.010 A 
ATOM     40  C   UNL A   1      36.318  33.304  30.730  1.00  0.00    -0.014 A 
BRANCH  40  41
ATOM     41  C   UNL A   1      37.459  32.653  31.425  1.00  0.00     0.031 A 
ATOM     42  C   UNL A   1      38.187  31.512  30.765  1.00  0.00     0.074 A 
ATOM     43  C   UNL A   1      37.825  33.065  32.653  1.00  0.00     0.049 A 
ATOM     44  N   UNL A   1      39.178  30.786  31.219  1.00  0.00    -0.248 NA
ATOM     45  C   UNL A   1      37.722  31.117  29.426  1.00  0.00     0.031 C 
ATOM     46  C   UNL A   1      37.173  34.129  33.418  1.00  0.00     0.029 A 
ATOM     47  N   UNL A   1      38.835  32.634  33.477  1.00  0.00    -0.354 N 
ATOM     48  C   UNL A   1      39.447  29.850  30.229  1.00  0.00     0.074 A 
ATOM     49  C   UNL A   1      38.477  30.058  29.175  1.00  0.00     0.031 C 
ATOM     50  C   UNL A   1      37.810  34.279  34.592  1.00  0.00     0.029 A 
ATOM     51  C   UNL A   1      38.898  33.308  34.672  1.00  0.00     0.049 A 
ATOM     52  H   UNL A   1      39.456  31.909  33.234  1.00  0.00     0.167 HD
ATOM     53  C   UNL A   1      40.431  28.921  30.185  1.00  0.00     0.037 A 
ATOM     54  C   UNL A   1      39.739  33.159  35.712  1.00  0.00     0.037 A 
ATOM     55  C   UNL A   1      41.414  28.730  31.220  1.00  0.00     0.049 A 
ATOM     56  C   UNL A   1      40.840  32.135  35.626  1.00  0.00     0.074 A 
ATOM     57  C   UNL A   1      42.464  27.828  31.261  1.00  0.00     0.029 A 
ATOM     58  N   UNL A   1      41.473  29.466  32.393  1.00  0.00    -0.354 N 
ATOM     59  N   UNL A   1      41.110  31.286  34.664  1.00  0.00    -0.248 NA
ATOM     60  C   UNL A   1      41.765  32.061  36.766  1.00  0.00     0.031 C 
ATOM     61  C   UNL A   1      43.143  28.003  32.471  1.00  0.00     0.029 A 
ATOM     62  C   UNL A   1      42.542  29.040  33.165  1.00  0.00     0.049 A 
ATOM     63  H   UNL A   1      40.848  30.185  32.642  1.00  0.00     0.167 HD
ATOM     64  C   UNL A   1      42.249  30.602  35.067  1.00  0.00     0.074 A 
ATOM     65  C   UNL A   1      42.632  31.148  36.352  1.00  0.00     0.031 C 
ATOM     66  C   UNL A   1      42.917  29.608  34.433  1.00  0.00     0.037 A 
BRANCH  53  67
ATOM     67  C   UNL A   1      40.506  28.049  28.966  1.00  0.00     0.064 A 
ATOM     68  C   UNL A   1      39.793  26.843  28.887  1.00  0.00     0.173 A 
ATOM     69  C   UNL A   1      41.265  28.436  27.852  1.00  0.00     0.173 A 
ATOM     70  F   UNL A   1      39.064  26.421  29.931  1.00  0.00    -0.203 F 
ATOM     71  C   UNL A   1      39.856  26.046  27.747  1.00  0.00     0.198 A 
ATOM     72  C   UNL A   1      41.304  27.651  26.703  1.00  0.00     0.198 A 
ATOM     73  F   UNL A   1      41.964  29.582  27.874  1.00  0.00    -0.203 F 
ATOM     74  F   UNL A   1      39.203  24.876  27.712  1.00  0.00    -0.200 F 
ATOM     75  C   UNL A   1      40.604  26.454  26.653  1.00  0.00     0.200 A 
ATOM     76  F   UNL A   1      42.018  28.052  25.642  1.00  0.00    -0.200 F 
ATOM     77  F   UNL A   1      40.658  25.689  25.553  1.00  0.00    -0.200 F 
ENDBRANCH  53  67
BRANCH  54  78
ATOM     78  C   UNL A   1      39.599  34.018  36.917  1.00  0.00     0.064 A 
ATOM     79  C   UNL A   1      40.237  35.263  36.995  1.00  0.00     0.173 A 
ATOM     80  C   UNL A   1      38.848  33.598  38.025  1.00  0.00     0.173 A 
ATOM     81  F   UNL A   1      40.982  35.698  35.968  1.00  0.00    -0.203 F 
ATOM     82  C   UNL A   1      40.159  36.041  38.147  1.00  0.00     0.198 A 
ATOM     83  C   UNL A   1      38.747  34.391  39.166  1.00  0.00     0.198 A 
ATOM     84  F   UNL A   1      38.212  32.418  37.999  1.00  0.00    -0.203 F 
ATOM     85  F   UNL A   1      40.827  37.201  38.216  1.00  0.00    -0.200 F 
ATOM     86  C   UNL A   1      39.411  35.606  39.231  1.00  0.00     0.200 A 
ATOM     87  F   UNL A   1      38.013  33.974  40.206  1.00  0.00    -0.200 F 
ATOM     88  F   UNL A   1      39.341  36.354  40.341  1.00  0.00    -0.200 F 
ENDBRANCH  54  78
BRANCH  66  89
ATOM     89  C   UNL A   1      44.154  29.081  35.100  1.00  0.00     0.064 A 
ATOM     90  C   UNL A   1      45.416  29.646  34.864  1.00  0.00     0.173 A 
ATOM     91  C   UNL A   1      44.071  28.009  36.001  1.00  0.00     0.173 A 
ATOM     92  F   UNL A   1      45.549  30.664  34.000  1.00  0.00    -0.203 F 
ATOM     93  C   UNL A   1      46.555  29.133  35.480  1.00  0.00     0.198 A 
ATOM     94  C   UNL A   1      45.207  27.519  36.638  1.00  0.00     0.198 A 
ATOM     95  F   UNL A   1      42.885  27.439  36.267  1.00  0.00    -0.203 F 
ATOM     96  F   UNL A   1      47.757  29.652  35.197  1.00  0.00    -0.200 F 
ATOM     97  C   UNL A   1      46.449  28.074  36.369  1.00  0.00     0.200 A 
ATOM     98  F   UNL A   1      45.101  26.502  37.505  1.00  0.00    -0.200 F 
ATOM     99  F   UNL A   1      47.546  27.582  36.960  1.00  0.00    -0.200 F 
ENDBRANCH  66  89
ENDBRANCH  40  41
ENDBRANCH  32  35
ENDBRANCH  30  31
ENDBRANCH  29  30
ENDBRANCH  28  29
ENDBRANCH  27  28
ENDBRANCH   1  27
TORSDOF 17
ENDMDL
