MODEL 1
REMARK VINA RESULT:     -13.5      0.000      0.000
REMARK SMILES CN1C(=O)C[C@@H](C(=O)NCCCCCCNC(=O)c2ccc(-c3c4nc(c(-c5c(F)c(F)c(F)c(F)c5F)c5ccc([nH]5)c(-c5c(F)c(F)c(F)c(F)c5F)c5nc(c(-c6c(F)c(F)c(F)c(F)c6F)c6ccc3[nH]6)C=C5)C=C4)cc2)C12CCN(C(=O)c1cccc3ccccc13)CC2
REMARK SMILES IDX 13 1 12 2 11 3 10 4 9 5 7 6 8 7 6 9 1 10 2 11 3 12 82 13
REMARK SMILES IDX 4 14 5 15 83 16 99 17 84 18 98 19 85 20 86 21 87 22 88 23
REMARK SMILES IDX 89 24 97 25 90 26 92 27 96 28 91 29 93 30 95 31 94 32 14 33
REMARK SMILES IDX 15 34 16 35 17 36 18 38 19 39 20 40 81 41 21 42 80 43 22 44
REMARK SMILES IDX 23 45 24 46 74 47 25 48 79 49 73 50 75 51 26 52 78 53 72 54
REMARK SMILES IDX 71 55 27 57 59 58 39 59 58 60 40 61 43 62 57 63 76 64 41 65
REMARK SMILES IDX 42 66 56 68 77 69 44 70 28 71 29 72 37 73 30 74 31 75 35 76
REMARK SMILES IDX 38 77 32 78 33 79 36 80 34 81 60 82 61 83 69 84 62 85 63 86
REMARK SMILES IDX 67 87 70 88 64 89 65 90 68 91 66 92 45 93 46 94 54 95 47 96
REMARK SMILES IDX 48 97 52 98 55 99 49 100 50 101 53 102 51 103
REMARK H PARENT 9 8 16 37 75 56 43 67
REMARK Flexibility Score: inf
ROOT
ATOM      1  C   UNL A   1      40.817  21.288  26.449  1.00  0.00     0.002 C 
ENDROOT
BRANCH   1   2
ATOM      2  C   UNL A   1      39.424  21.824  26.125  1.00  0.00     0.002 C 
BRANCH   2   3
ATOM      3  C   UNL A   1      39.243  23.309  26.421  1.00  0.00     0.021 C 
BRANCH   3   4
ATOM      4  C   UNL A   1      37.829  23.848  26.167  1.00  0.00     0.116 C 
BRANCH   4   5
ATOM      5  N   UNL A   1      37.293  23.483  24.867  1.00  0.00    -0.356 N 
ATOM      6  C   UNL A   1      36.329  22.613  24.468  1.00  0.00     0.226 C 
ATOM      7  O   UNL A   1      36.100  22.581  23.254  1.00  0.00    -0.275 OA
ATOM      8  H   UNL A   1      37.716  23.967  24.121  1.00  0.00     0.163 HD
BRANCH   6   9
ATOM      9  C   UNL A   1      35.540  21.672  25.388  1.00  0.00     0.113 C 
ATOM     10  C   UNL A   1      32.702  19.719  23.884  1.00  0.00     0.147 C 
ATOM     11  N   UNL A   1      33.910  20.242  24.499  1.00  0.00    -0.339 N 
ATOM     12  C   UNL A   1      35.042  19.450  24.650  1.00  0.00     0.223 C 
ATOM     13  C   UNL A   1      34.011  21.547  25.177  1.00  0.00     0.058 C 
ATOM     14  O   UNL A   1      35.187  18.306  24.257  1.00  0.00    -0.275 OA
ATOM     15  C   UNL A   1      36.096  20.250  25.361  1.00  0.00     0.116 C 
ATOM     16  C   UNL A   1      33.423  22.711  24.363  1.00  0.00     0.051 C 
ATOM     17  C   UNL A   1      33.223  21.476  26.520  1.00  0.00     0.051 C 
ATOM     18  C   UNL A   1      33.431  24.037  25.115  1.00  0.00     0.122 C 
ATOM     19  C   UNL A   1      33.020  22.838  27.200  1.00  0.00     0.122 C 
ATOM     20  N   UNL A   1      32.564  23.861  26.254  1.00  0.00    -0.338 N 
ATOM     21  C   UNL A   1      31.314  24.456  26.401  1.00  0.00     0.254 C 
ATOM     22  O   UNL A   1      30.507  24.080  27.251  1.00  0.00    -0.269 OA
BRANCH  21  23
ATOM     23  C   UNL A   1      30.940  25.678  25.630  1.00  0.00     0.047 A 
ATOM     24  C   UNL A   1      30.274  25.396  24.424  1.00  0.00     0.014 A 
ATOM     25  C   UNL A   1      31.373  27.007  25.920  1.00  0.00    -0.006 A 
ATOM     26  C   UNL A   1      30.088  26.390  23.470  1.00  0.00     0.001 A 
ATOM     27  C   UNL A   1      31.208  27.995  24.915  1.00  0.00    -0.018 A 
ATOM     28  C   UNL A   1      31.952  27.438  27.137  1.00  0.00     0.009 A 
ATOM     29  C   UNL A   1      30.589  27.667  23.700  1.00  0.00     0.009 A 
ATOM     30  C   UNL A   1      31.662  29.309  25.123  1.00  0.00     0.009 A 
ATOM     31  C   UNL A   1      32.291  28.775  27.374  1.00  0.00     0.001 A 
ATOM     32  C   UNL A   1      32.174  29.706  26.354  1.00  0.00     0.001 A 
ENDBRANCH  21  23
ENDBRANCH   6   9
ENDBRANCH   4   5
ENDBRANCH   3   4
ENDBRANCH   2   3
ENDBRANCH   1   2
BRANCH   1  33
ATOM     33  C   UNL A   1      41.046  19.828  26.049  1.00  0.00     0.021 C 
BRANCH  33  34
ATOM     34  C   UNL A   1      42.344  19.224  26.574  1.00  0.00     0.116 C 
BRANCH  34  35
ATOM     35  N   UNL A   1      43.209  18.784  25.493  1.00  0.00    -0.352 N 
ATOM     36  C   UNL A   1      44.021  19.533  24.683  1.00  0.00     0.251 C 
ATOM     37  H   UNL A   1      43.211  17.815  25.319  1.00  0.00     0.163 HD
ATOM     38  O   UNL A   1      44.507  19.047  23.668  1.00  0.00    -0.269 OA
BRANCH  36  39
ATOM     39  C   UNL A   1      44.299  20.938  25.038  1.00  0.00     0.039 A 
ATOM     40  C   UNL A   1      43.724  21.953  24.272  1.00  0.00     0.014 A 
ATOM     41  C   UNL A   1      45.125  21.248  26.122  1.00  0.00     0.014 A 
ATOM     42  C   UNL A   1      43.941  23.285  24.624  1.00  0.00     0.010 A 
ATOM     43  C   UNL A   1      45.276  22.573  26.518  1.00  0.00     0.010 A 
ATOM     44  C   UNL A   1      44.695  23.605  25.766  1.00  0.00    -0.014 A 
BRANCH  44  45
ATOM     45  C   UNL A   1      44.889  25.016  26.182  1.00  0.00     0.031 A 
ATOM     46  C   UNL A   1      46.245  25.654  26.081  1.00  0.00     0.074 A 
ATOM     47  C   UNL A   1      43.854  25.703  26.702  1.00  0.00     0.049 A 
ATOM     48  N   UNL A   1      46.625  26.855  26.438  1.00  0.00    -0.248 NA
ATOM     49  C   UNL A   1      47.328  24.822  25.531  1.00  0.00     0.031 C 
ATOM     50  C   UNL A   1      42.503  25.175  26.897  1.00  0.00     0.029 A 
ATOM     51  N   UNL A   1      43.778  26.991  27.169  1.00  0.00    -0.354 N 
ATOM     52  C   UNL A   1      47.986  26.917  26.168  1.00  0.00     0.074 A 
ATOM     53  C   UNL A   1      48.379  25.616  25.673  1.00  0.00     0.031 C 
ATOM     54  C   UNL A   1      41.727  26.136  27.423  1.00  0.00     0.029 A 
ATOM     55  C   UNL A   1      42.534  27.332  27.641  1.00  0.00     0.049 A 
ATOM     56  H   UNL A   1      44.542  27.611  27.168  1.00  0.00     0.167 HD
ATOM     57  C   UNL A   1      48.826  27.972  26.297  1.00  0.00     0.037 A 
ATOM     58  C   UNL A   1      42.097  28.478  28.198  1.00  0.00     0.037 A 
ATOM     59  C   UNL A   1      48.422  29.269  26.774  1.00  0.00     0.049 A 
ATOM     60  C   UNL A   1      43.053  29.631  28.343  1.00  0.00     0.074 A 
ATOM     61  C   UNL A   1      49.181  30.421  26.885  1.00  0.00     0.029 A 
ATOM     62  N   UNL A   1      47.150  29.582  27.231  1.00  0.00    -0.354 N 
ATOM     63  N   UNL A   1      44.319  29.706  28.009  1.00  0.00    -0.248 NA
ATOM     64  C   UNL A   1      42.517  30.865  28.933  1.00  0.00     0.031 C 
ATOM     65  C   UNL A   1      48.384  31.414  27.466  1.00  0.00     0.029 A 
ATOM     66  C   UNL A   1      47.110  30.902  27.654  1.00  0.00     0.049 A 
ATOM     67  H   UNL A   1      46.388  28.960  27.252  1.00  0.00     0.167 HD
ATOM     68  C   UNL A   1      44.722  30.997  28.322  1.00  0.00     0.074 A 
ATOM     69  C   UNL A   1      43.561  31.677  28.855  1.00  0.00     0.031 C 
ATOM     70  C   UNL A   1      45.945  31.567  28.180  1.00  0.00     0.037 A 
BRANCH  57  71
ATOM     71  C   UNL A   1      50.266  27.766  25.923  1.00  0.00     0.064 A 
ATOM     72  C   UNL A   1      50.699  27.816  24.589  1.00  0.00     0.173 A 
ATOM     73  C   UNL A   1      51.234  27.545  26.915  1.00  0.00     0.173 A 
ATOM     74  F   UNL A   1      49.815  28.014  23.598  1.00  0.00    -0.203 F 
ATOM     75  C   UNL A   1      52.038  27.619  24.260  1.00  0.00     0.198 A 
ATOM     76  C   UNL A   1      52.577  27.385  26.586  1.00  0.00     0.198 A 
ATOM     77  F   UNL A   1      50.878  27.492  28.208  1.00  0.00    -0.203 F 
ATOM     78  F   UNL A   1      52.417  27.615  22.974  1.00  0.00    -0.200 F 
ATOM     79  C   UNL A   1      52.977  27.412  25.259  1.00  0.00     0.200 A 
ATOM     80  F   UNL A   1      53.485  27.198  27.554  1.00  0.00    -0.200 F 
ATOM     81  F   UNL A   1      54.266  27.229  24.941  1.00  0.00    -0.200 F 
ENDBRANCH  57  71
BRANCH  58  82
ATOM     82  C   UNL A   1      40.684  28.594  28.645  1.00  0.00     0.064 A 
ATOM     83  C   UNL A   1      39.678  29.011  27.763  1.00  0.00     0.173 A 
ATOM     84  C   UNL A   1      40.311  28.292  29.963  1.00  0.00     0.173 A 
ATOM     85  F   UNL A   1      39.987  29.329  26.497  1.00  0.00    -0.203 F 
ATOM     86  C   UNL A   1      38.358  29.145  28.188  1.00  0.00     0.198 A 
ATOM     87  C   UNL A   1      38.984  28.396  30.378  1.00  0.00     0.198 A 
ATOM     88  F   UNL A   1      41.233  27.882  30.846  1.00  0.00    -0.203 F 
ATOM     89  F   UNL A   1      37.426  29.596  27.336  1.00  0.00    -0.200 F 
ATOM     90  C   UNL A   1      38.011  28.832  29.493  1.00  0.00     0.200 A 
ATOM     91  F   UNL A   1      38.651  28.075  31.635  1.00  0.00    -0.200 F 
ATOM     92  F   UNL A   1      36.740  28.957  29.900  1.00  0.00    -0.200 F 
ENDBRANCH  58  82
BRANCH  70  93
ATOM     93  C   UNL A   1      46.081  33.012  28.572  1.00  0.00     0.064 A 
ATOM     94  C   UNL A   1      45.799  34.052  27.675  1.00  0.00     0.173 A 
ATOM     95  C   UNL A   1      46.460  33.357  29.878  1.00  0.00     0.173 A 
ATOM     96  F   UNL A   1      45.445  33.777  26.411  1.00  0.00    -0.203 F 
ATOM     97  C   UNL A   1      45.923  35.384  28.063  1.00  0.00     0.198 A 
ATOM     98  C   UNL A   1      46.548  34.689  30.273  1.00  0.00     0.198 A 
ATOM     99  F   UNL A   1      46.733  32.400  30.780  1.00  0.00    -0.203 F 
ATOM    100  F   UNL A   1      45.702  36.361  27.172  1.00  0.00    -0.200 F 
ATOM    101  C   UNL A   1      46.289  35.701  29.362  1.00  0.00     0.200 A 
ATOM    102  F   UNL A   1      46.884  34.992  31.534  1.00  0.00    -0.200 F 
ATOM    103  F   UNL A   1      46.398  36.983  29.735  1.00  0.00    -0.200 F 
ENDBRANCH  70  93
ENDBRANCH  44  45
ENDBRANCH  36  39
ENDBRANCH  34  35
ENDBRANCH  33  34
ENDBRANCH   1  33
TORSDOF 14
ENDMDL
MODEL 2
REMARK VINA RESULT:     -13.5      0.191      1.859
REMARK SMILES CN1C(=O)C[C@@H](C(=O)NCCCCCCNC(=O)c2ccc(-c3c4nc(c(-c5c(F)c(F)c(F)c(F)c5F)c5ccc([nH]5)c(-c5c(F)c(F)c(F)c(F)c5F)c5nc(c(-c6c(F)c(F)c(F)c(F)c6F)c6ccc3[nH]6)C=C5)C=C4)cc2)C12CCN(C(=O)c1cccc3ccccc13)CC2
REMARK SMILES IDX 13 1 12 2 11 3 10 4 9 5 7 6 8 7 6 9 1 10 2 11 3 12 82 13
REMARK SMILES IDX 4 14 5 15 83 16 99 17 84 18 98 19 85 20 86 21 87 22 88 23
REMARK SMILES IDX 89 24 97 25 90 26 92 27 96 28 91 29 93 30 95 31 94 32 14 33
REMARK SMILES IDX 15 34 16 35 17 36 18 38 19 39 20 40 81 41 21 42 80 43 22 44
REMARK SMILES IDX 23 45 24 46 74 47 25 48 79 49 73 50 75 51 26 52 78 53 72 54
REMARK SMILES IDX 71 55 27 57 59 58 39 59 58 60 40 61 43 62 57 63 76 64 41 65
REMARK SMILES IDX 42 66 56 68 77 69 44 70 28 71 29 72 37 73 30 74 31 75 35 76
REMARK SMILES IDX 38 77 32 78 33 79 36 80 34 81 60 82 61 83 69 84 62 85 63 86
REMARK SMILES IDX 67 87 70 88 64 89 65 90 68 91 66 92 45 93 46 94 54 95 47 96
REMARK SMILES IDX 48 97 52 98 55 99 49 100 50 101 53 102 51 103
REMARK H PARENT 9 8 16 37 75 56 43 67
REMARK Flexibility Score: inf
ROOT
ATOM      1  C   UNL A   1      40.792  21.331  26.515  1.00  0.00     0.002 C 
ENDROOT
BRANCH   1   2
ATOM      2  C   UNL A   1      39.420  21.888  26.140  1.00  0.00     0.002 C 
BRANCH   2   3
ATOM      3  C   UNL A   1      39.229  23.361  26.488  1.00  0.00     0.021 C 
BRANCH   3   4
ATOM      4  C   UNL A   1      37.825  23.910  26.207  1.00  0.00     0.116 C 
BRANCH   4   5
ATOM      5  N   UNL A   1      37.303  23.535  24.904  1.00  0.00    -0.356 N 
ATOM      6  C   UNL A   1      36.338  22.668  24.503  1.00  0.00     0.226 C 
ATOM      7  O   UNL A   1      36.125  22.623  23.285  1.00  0.00    -0.275 OA
ATOM      8  H   UNL A   1      37.740  24.007  24.159  1.00  0.00     0.163 HD
BRANCH   6   9
ATOM      9  C   UNL A   1      35.529  21.744  25.422  1.00  0.00     0.113 C 
ATOM     10  C   UNL A   1      32.701  19.790  23.900  1.00  0.00     0.147 C 
ATOM     11  N   UNL A   1      33.903  20.313  24.527  1.00  0.00    -0.339 N 
ATOM     12  C   UNL A   1      35.027  19.516  24.705  1.00  0.00     0.223 C 
ATOM     13  C   UNL A   1      34.002  21.626  25.190  1.00  0.00     0.058 C 
ATOM     14  O   UNL A   1      35.170  18.366  24.329  1.00  0.00    -0.275 OA
ATOM     15  C   UNL A   1      36.075  20.318  25.421  1.00  0.00     0.116 C 
ATOM     16  C   UNL A   1      33.434  22.783  24.352  1.00  0.00     0.051 C 
ATOM     17  C   UNL A   1      33.194  21.577  26.522  1.00  0.00     0.051 C 
ATOM     18  C   UNL A   1      33.439  24.119  25.088  1.00  0.00     0.122 C 
ATOM     19  C   UNL A   1      32.990  22.949  27.181  1.00  0.00     0.122 C 
ATOM     20  N   UNL A   1      32.555  23.963  26.216  1.00  0.00    -0.338 N 
ATOM     21  C   UNL A   1      31.307  24.567  26.337  1.00  0.00     0.254 C 
ATOM     22  O   UNL A   1      30.485  24.208  27.179  1.00  0.00    -0.269 OA
BRANCH  21  23
ATOM     23  C   UNL A   1      30.952  25.782  25.544  1.00  0.00     0.047 A 
ATOM     24  C   UNL A   1      30.340  25.488  24.313  1.00  0.00     0.014 A 
ATOM     25  C   UNL A   1      31.358  27.117  25.847  1.00  0.00    -0.006 A 
ATOM     26  C   UNL A   1      30.185  26.475  23.348  1.00  0.00     0.001 A 
ATOM     27  C   UNL A   1      31.225  28.098  24.830  1.00  0.00    -0.018 A 
ATOM     28  C   UNL A   1      31.881  27.560  27.084  1.00  0.00     0.009 A 
ATOM     29  C   UNL A   1      30.662  27.759  23.592  1.00  0.00     0.009 A 
ATOM     30  C   UNL A   1      31.655  29.419  25.051  1.00  0.00     0.009 A 
ATOM     31  C   UNL A   1      32.195  28.901  27.329  1.00  0.00     0.001 A 
ATOM     32  C   UNL A   1      32.112  29.826  26.300  1.00  0.00     0.001 A 
ENDBRANCH  21  23
ENDBRANCH   6   9
ENDBRANCH   4   5
ENDBRANCH   3   4
ENDBRANCH   2   3
ENDBRANCH   1   2
BRANCH   1  33
ATOM     33  C   UNL A   1      41.034  19.886  26.073  1.00  0.00     0.021 C 
BRANCH  33  34
ATOM     34  C   UNL A   1      42.351  19.288  26.557  1.00  0.00     0.116 C 
BRANCH  34  35
ATOM     35  N   UNL A   1      43.197  18.879  25.449  1.00  0.00    -0.352 N 
ATOM     36  C   UNL A   1      43.997  19.650  24.648  1.00  0.00     0.251 C 
ATOM     37  H   UNL A   1      43.193  17.916  25.246  1.00  0.00     0.163 HD
ATOM     38  O   UNL A   1      44.464  19.194  23.610  1.00  0.00    -0.269 OA
BRANCH  36  39
ATOM     39  C   UNL A   1      44.285  21.043  25.040  1.00  0.00     0.039 A 
ATOM     40  C   UNL A   1      43.720  22.082  24.300  1.00  0.00     0.014 A 
ATOM     41  C   UNL A   1      45.111  21.318  26.134  1.00  0.00     0.014 A 
ATOM     42  C   UNL A   1      43.947  23.403  24.688  1.00  0.00     0.010 A 
ATOM     43  C   UNL A   1      45.271  22.631  26.565  1.00  0.00     0.010 A 
ATOM     44  C   UNL A   1      44.700  23.686  25.839  1.00  0.00    -0.014 A 
BRANCH  44  45
ATOM     45  C   UNL A   1      44.904  25.085  26.292  1.00  0.00     0.031 A 
ATOM     46  C   UNL A   1      46.266  25.714  26.214  1.00  0.00     0.074 A 
ATOM     47  C   UNL A   1      43.873  25.767  26.826  1.00  0.00     0.049 A 
ATOM     48  N   UNL A   1      46.654  26.902  26.604  1.00  0.00    -0.248 NA
ATOM     49  C   UNL A   1      47.344  24.888  25.646  1.00  0.00     0.031 C 
ATOM     50  C   UNL A   1      42.517  25.245  27.003  1.00  0.00     0.029 A 
ATOM     51  N   UNL A   1      43.805  27.042  27.327  1.00  0.00    -0.354 N 
ATOM     52  C   UNL A   1      48.016  26.960  26.340  1.00  0.00     0.074 A 
ATOM     53  C   UNL A   1      48.401  25.668  25.813  1.00  0.00     0.031 C 
ATOM     54  C   UNL A   1      41.747  26.198  27.550  1.00  0.00     0.029 A 
ATOM     55  C   UNL A   1      42.563  27.381  27.803  1.00  0.00     0.049 A 
ATOM     56  H   UNL A   1      44.575  27.656  27.345  1.00  0.00     0.167 HD
ATOM     57  C   UNL A   1      48.865  28.004  26.500  1.00  0.00     0.037 A 
ATOM     58  C   UNL A   1      42.133  28.517  28.388  1.00  0.00     0.037 A 
ATOM     59  C   UNL A   1      48.470  29.291  27.009  1.00  0.00     0.049 A 
ATOM     60  C   UNL A   1      43.098  29.657  28.566  1.00  0.00     0.074 A 
ATOM     61  C   UNL A   1      49.237  30.434  27.153  1.00  0.00     0.029 A 
ATOM     62  N   UNL A   1      47.198  29.603  27.469  1.00  0.00    -0.354 N 
ATOM     63  N   UNL A   1      44.366  29.730  28.239  1.00  0.00    -0.248 NA
ATOM     64  C   UNL A   1      42.569  30.879  29.187  1.00  0.00     0.031 C 
ATOM     65  C   UNL A   1      48.447  31.418  27.757  1.00  0.00     0.029 A 
ATOM     66  C   UNL A   1      47.168  30.912  27.927  1.00  0.00     0.049 A 
ATOM     67  H   UNL A   1      46.431  28.987  27.471  1.00  0.00     0.167 HD
ATOM     68  C   UNL A   1      44.778  31.009  28.588  1.00  0.00     0.074 A 
ATOM     69  C   UNL A   1      43.621  31.685  29.134  1.00  0.00     0.031 C 
ATOM     70  C   UNL A   1      46.006  31.572  28.465  1.00  0.00     0.037 A 
BRANCH  57  71
ATOM     71  C   UNL A   1      50.305  27.795  26.126  1.00  0.00     0.064 A 
ATOM     72  C   UNL A   1      51.286  27.510  27.089  1.00  0.00     0.173 A 
ATOM     73  C   UNL A   1      50.707  27.851  24.782  1.00  0.00     0.173 A 
ATOM     74  F   UNL A   1      50.960  27.455  28.390  1.00  0.00    -0.203 F 
ATOM     75  C   UNL A   1      52.617  27.323  26.725  1.00  0.00     0.198 A 
ATOM     76  C   UNL A   1      52.031  27.629  24.418  1.00  0.00     0.198 A 
ATOM     77  F   UNL A   1      49.810  28.115  23.819  1.00  0.00    -0.203 F 
ATOM     78  F   UNL A   1      53.544  27.109  27.669  1.00  0.00    -0.200 F 
ATOM     79  C   UNL A   1      52.987  27.375  25.390  1.00  0.00     0.200 A 
ATOM     80  F   UNL A   1      52.385  27.665  23.126  1.00  0.00    -0.200 F 
ATOM     81  F   UNL A   1      54.268  27.188  25.041  1.00  0.00    -0.200 F 
ENDBRANCH  57  71
BRANCH  58  82
ATOM     82  C   UNL A   1      40.719  28.632  28.833  1.00  0.00     0.064 A 
ATOM     83  C   UNL A   1      40.346  28.314  30.145  1.00  0.00     0.173 A 
ATOM     84  C   UNL A   1      39.712  29.059  27.954  1.00  0.00     0.173 A 
ATOM     85  F   UNL A   1      41.269  27.883  31.018  1.00  0.00    -0.203 F 
ATOM     86  C   UNL A   1      39.017  28.396  30.557  1.00  0.00     0.198 A 
ATOM     87  C   UNL A   1      38.388  29.172  28.376  1.00  0.00     0.198 A 
ATOM     88  F   UNL A   1      40.016  29.382  26.689  1.00  0.00    -0.203 F 
ATOM     89  F   UNL A   1      38.681  28.036  31.804  1.00  0.00    -0.200 F 
ATOM     90  C   UNL A   1      38.041  28.830  29.674  1.00  0.00     0.200 A 
ATOM     91  F   UNL A   1      37.451  29.609  27.524  1.00  0.00    -0.200 F 
ATOM     92  F   UNL A   1      36.763  28.914  30.070  1.00  0.00    -0.200 F 
ENDBRANCH  58  82
BRANCH  70  93
ATOM     93  C   UNL A   1      46.152  33.005  28.896  1.00  0.00     0.064 A 
ATOM     94  C   UNL A   1      46.540  33.350  30.199  1.00  0.00     0.173 A 
ATOM     95  C   UNL A   1      45.938  34.045  27.978  1.00  0.00     0.173 A 
ATOM     96  F   UNL A   1      46.744  32.395  31.118  1.00  0.00    -0.203 F 
ATOM     97  C   UNL A   1      46.679  34.684  30.574  1.00  0.00     0.198 A 
ATOM     98  C   UNL A   1      46.113  35.376  28.347  1.00  0.00     0.198 A 
ATOM     99  F   UNL A   1      45.574  33.770  26.716  1.00  0.00    -0.203 F 
ATOM    100  F   UNL A   1      46.997  34.991  31.840  1.00  0.00    -0.200 F 
ATOM    101  C   UNL A   1      46.473  35.694  29.647  1.00  0.00     0.200 A 
ATOM    102  F   UNL A   1      45.931  36.349  27.444  1.00  0.00    -0.200 F 
ATOM    103  F   UNL A   1      46.616  36.977  30.008  1.00  0.00    -0.200 F 
ENDBRANCH  70  93
ENDBRANCH  44  45
ENDBRANCH  36  39
ENDBRANCH  34  35
ENDBRANCH  33  34
ENDBRANCH   1  33
TORSDOF 14
ENDMDL
MODEL 3
REMARK VINA RESULT:     -13.2      5.989     10.790
REMARK SMILES CN1C(=O)C[C@@H](C(=O)NCCCCCCNC(=O)c2ccc(-c3c4nc(c(-c5c(F)c(F)c(F)c(F)c5F)c5ccc([nH]5)c(-c5c(F)c(F)c(F)c(F)c5F)c5nc(c(-c6c(F)c(F)c(F)c(F)c6F)c6ccc3[nH]6)C=C5)C=C4)cc2)C12CCN(C(=O)c1cccc3ccccc13)CC2
REMARK SMILES IDX 13 1 12 2 11 3 10 4 9 5 7 6 8 7 6 9 1 10 2 11 3 12 82 13
REMARK SMILES IDX 4 14 5 15 83 16 99 17 84 18 98 19 85 20 86 21 87 22 88 23
REMARK SMILES IDX 89 24 97 25 90 26 92 27 96 28 91 29 93 30 95 31 94 32 14 33
REMARK SMILES IDX 15 34 16 35 17 36 18 38 19 39 20 40 81 41 21 42 80 43 22 44
REMARK SMILES IDX 23 45 24 46 74 47 25 48 79 49 73 50 75 51 26 52 78 53 72 54
REMARK SMILES IDX 71 55 27 57 59 58 39 59 58 60 40 61 43 62 57 63 76 64 41 65
REMARK SMILES IDX 42 66 56 68 77 69 44 70 28 71 29 72 37 73 30 74 31 75 35 76
REMARK SMILES IDX 38 77 32 78 33 79 36 80 34 81 60 82 61 83 69 84 62 85 63 86
REMARK SMILES IDX 67 87 70 88 64 89 65 90 68 91 66 92 45 93 46 94 54 95 47 96
REMARK SMILES IDX 48 97 52 98 55 99 49 100 50 101 53 102 51 103
REMARK H PARENT 9 8 16 37 75 56 43 67
REMARK Flexibility Score: inf
ROOT
ATOM      1  C   UNL A   1      34.026  31.128  27.940  1.00  0.00     0.002 C 
ENDROOT
BRANCH   1   2
ATOM      2  C   UNL A   1      33.502  29.867  27.258  1.00  0.00     0.002 C 
BRANCH   2   3
ATOM      3  C   UNL A   1      32.023  29.925  26.891  1.00  0.00     0.021 C 
BRANCH   3   4
ATOM      4  C   UNL A   1      31.725  29.769  25.394  1.00  0.00     0.116 C 
BRANCH   4   5
ATOM      5  N   UNL A   1      32.918  29.691  24.568  1.00  0.00    -0.356 N 
ATOM      6  C   UNL A   1      33.157  29.209  23.322  1.00  0.00     0.226 C 
ATOM      7  O   UNL A   1      34.314  29.338  22.905  1.00  0.00    -0.275 OA
ATOM      8  H   UNL A   1      33.719  30.063  25.004  1.00  0.00     0.163 HD
BRANCH   6   9
ATOM      9  C   UNL A   1      32.128  28.511  22.422  1.00  0.00     0.113 C 
ATOM     10  C   UNL A   1      29.262  26.734  24.084  1.00  0.00     0.147 C 
ATOM     11  N   UNL A   1      30.187  27.579  23.348  1.00  0.00    -0.339 N 
ATOM     12  C   UNL A   1      29.792  28.815  22.850  1.00  0.00     0.223 C 
ATOM     13  C   UNL A   1      31.528  27.165  22.896  1.00  0.00     0.058 C 
ATOM     14  O   UNL A   1      28.709  29.349  23.006  1.00  0.00    -0.275 OA
ATOM     15  C   UNL A   1      30.944  29.419  22.099  1.00  0.00     0.116 C 
ATOM     16  C   UNL A   1      32.366  26.491  23.996  1.00  0.00     0.051 C 
ATOM     17  C   UNL A   1      31.370  26.136  21.737  1.00  0.00     0.051 C 
ATOM     18  C   UNL A   1      33.707  25.967  23.494  1.00  0.00     0.122 C 
ATOM     19  C   UNL A   1      32.674  25.421  21.352  1.00  0.00     0.122 C 
ATOM     20  N   UNL A   1      33.404  24.939  22.529  1.00  0.00    -0.338 N 
ATOM     21  C   UNL A   1      33.609  23.577  22.727  1.00  0.00     0.254 C 
ATOM     22  O   UNL A   1      33.103  22.726  21.996  1.00  0.00    -0.269 OA
BRANCH  21  23
ATOM     23  C   UNL A   1      34.571  23.078  23.754  1.00  0.00     0.047 A 
ATOM     24  C   UNL A   1      35.832  22.750  23.226  1.00  0.00     0.014 A 
ATOM     25  C   UNL A   1      34.244  22.739  25.101  1.00  0.00    -0.006 A 
ATOM     26  C   UNL A   1      36.751  22.033  23.983  1.00  0.00     0.001 A 
ATOM     27  C   UNL A   1      35.182  21.973  25.841  1.00  0.00    -0.018 A 
ATOM     28  C   UNL A   1      33.058  23.107  25.780  1.00  0.00     0.009 A 
ATOM     29  C   UNL A   1      36.409  21.614  25.265  1.00  0.00     0.009 A 
ATOM     30  C   UNL A   1      34.895  21.565  27.156  1.00  0.00     0.009 A 
ATOM     31  C   UNL A   1      32.836  22.795  27.127  1.00  0.00     0.001 A 
ATOM     32  C   UNL A   1      33.743  21.996  27.806  1.00  0.00     0.001 A 
ENDBRANCH  21  23
ENDBRANCH   6   9
ENDBRANCH   4   5
ENDBRANCH   3   4
ENDBRANCH   2   3
ENDBRANCH   1   2
BRANCH   1  33
ATOM     33  C   UNL A   1      33.606  32.437  27.266  1.00  0.00     0.021 C 
BRANCH  33  34
ATOM     34  C   UNL A   1      32.303  33.030  27.792  1.00  0.00     0.116 C 
BRANCH  34  35
ATOM     35  N   UNL A   1      32.359  34.480  27.858  1.00  0.00    -0.352 N 
ATOM     36  C   UNL A   1      33.147  35.275  28.648  1.00  0.00     0.251 C 
ATOM     37  H   UNL A   1      31.748  34.956  27.252  1.00  0.00     0.163 HD
ATOM     38  O   UNL A   1      32.912  36.473  28.757  1.00  0.00    -0.269 OA
BRANCH  36  39
ATOM     39  C   UNL A   1      34.279  34.673  29.379  1.00  0.00     0.039 A 
ATOM     40  C   UNL A   1      34.035  34.043  30.600  1.00  0.00     0.014 A 
ATOM     41  C   UNL A   1      35.575  34.732  28.858  1.00  0.00     0.014 A 
ATOM     42  C   UNL A   1      35.088  33.430  31.279  1.00  0.00     0.010 A 
ATOM     43  C   UNL A   1      36.607  34.053  29.497  1.00  0.00     0.010 A 
ATOM     44  C   UNL A   1      36.375  33.406  30.719  1.00  0.00    -0.014 A 
BRANCH  44  45
ATOM     45  C   UNL A   1      37.493  32.710  31.406  1.00  0.00     0.031 A 
ATOM     46  C   UNL A   1      38.159  31.529  30.758  1.00  0.00     0.074 A 
ATOM     47  C   UNL A   1      37.867  33.109  32.636  1.00  0.00     0.049 A 
ATOM     48  N   UNL A   1      39.115  30.763  31.218  1.00  0.00    -0.248 NA
ATOM     49  C   UNL A   1      37.667  31.140  29.426  1.00  0.00     0.031 C 
ATOM     50  C   UNL A   1      37.261  34.209  33.388  1.00  0.00     0.029 A 
ATOM     51  N   UNL A   1      38.842  32.630  33.475  1.00  0.00    -0.354 N 
ATOM     52  C   UNL A   1      39.329  29.799  30.242  1.00  0.00     0.074 A 
ATOM     53  C   UNL A   1      38.364  30.039  29.191  1.00  0.00     0.031 C 
ATOM     54  C   UNL A   1      37.891  34.335  34.566  1.00  0.00     0.029 A 
ATOM     55  C   UNL A   1      38.915  33.301  34.671  1.00  0.00     0.049 A 
ATOM     56  H   UNL A   1      39.431  31.877  33.243  1.00  0.00     0.167 HD
ATOM     57  C   UNL A   1      40.262  28.817  30.212  1.00  0.00     0.037 A 
ATOM     58  C   UNL A   1      39.712  33.096  35.738  1.00  0.00     0.037 A 
ATOM     59  C   UNL A   1      41.231  28.596  31.255  1.00  0.00     0.049 A 
ATOM     60  C   UNL A   1      40.732  31.990  35.687  1.00  0.00     0.074 A 
ATOM     61  C   UNL A   1      42.257  27.669  31.295  1.00  0.00     0.029 A 
ATOM     62  N   UNL A   1      41.284  29.303  32.448  1.00  0.00    -0.354 N 
ATOM     63  N   UNL A   1      40.980  31.135  34.725  1.00  0.00    -0.248 NA
ATOM     64  C   UNL A   1      41.590  31.828  36.868  1.00  0.00     0.031 C 
ATOM     65  C   UNL A   1      42.892  27.775  32.537  1.00  0.00     0.029 A 
ATOM     66  C   UNL A   1      42.307  28.813  33.245  1.00  0.00     0.049 A 
ATOM     67  H   UNL A   1      40.684  30.044  32.692  1.00  0.00     0.167 HD
ATOM     68  C   UNL A   1      42.037  30.353  35.171  1.00  0.00     0.074 A 
ATOM     69  C   UNL A   1      42.396  30.849  36.482  1.00  0.00     0.031 C 
ATOM     70  C   UNL A   1      42.655  29.319  34.548  1.00  0.00     0.037 A 
BRANCH  57  71
ATOM     71  C   UNL A   1      40.278  27.905  29.019  1.00  0.00     0.064 A 
ATOM     72  C   UNL A   1      41.021  28.206  27.867  1.00  0.00     0.173 A 
ATOM     73  C   UNL A   1      39.563  26.697  29.038  1.00  0.00     0.173 A 
ATOM     74  F   UNL A   1      41.715  29.352  27.790  1.00  0.00    -0.203 F 
ATOM     75  C   UNL A   1      41.021  27.350  26.768  1.00  0.00     0.198 A 
ATOM     76  C   UNL A   1      39.594  25.827  27.952  1.00  0.00     0.198 A 
ATOM     77  F   UNL A   1      38.839  26.356  30.115  1.00  0.00    -0.203 F 
ATOM     78  F   UNL A   1      41.693  27.687  25.658  1.00  0.00    -0.200 F 
ATOM     79  C   UNL A   1      40.315  26.158  26.815  1.00  0.00     0.200 A 
ATOM     80  F   UNL A   1      38.922  24.668  28.004  1.00  0.00    -0.200 F 
ATOM     81  F   UNL A   1      40.321  25.332  25.758  1.00  0.00    -0.200 F 
ENDBRANCH  57  71
BRANCH  58  82
ATOM     82  C   UNL A   1      39.585  33.966  36.937  1.00  0.00     0.064 A 
ATOM     83  C   UNL A   1      38.815  33.571  38.039  1.00  0.00     0.173 A 
ATOM     84  C   UNL A   1      40.227  35.212  37.004  1.00  0.00     0.173 A 
ATOM     85  F   UNL A   1      38.166  32.397  38.016  1.00  0.00    -0.203 F 
ATOM     86  C   UNL A   1      38.672  34.397  39.152  1.00  0.00     0.198 A 
ATOM     87  C   UNL A   1      40.110  36.023  38.131  1.00  0.00     0.198 A 
ATOM     88  F   UNL A   1      40.981  35.635  35.979  1.00  0.00    -0.203 F 
ATOM     89  F   UNL A   1      37.888  34.016  40.170  1.00  0.00    -0.200 F 
ATOM     90  C   UNL A   1      39.325  35.619  39.200  1.00  0.00     0.200 A 
ATOM     91  F   UNL A   1      40.757  37.195  38.180  1.00  0.00    -0.200 F 
ATOM     92  F   UNL A   1      39.192  36.412  40.272  1.00  0.00    -0.200 F 
ENDBRANCH  58  82
BRANCH  70  93
ATOM     93  C   UNL A   1      43.810  28.675  35.263  1.00  0.00     0.064 A 
ATOM     94  C   UNL A   1      43.630  27.589  36.131  1.00  0.00     0.173 A 
ATOM     95  C   UNL A   1      45.119  29.130  35.044  1.00  0.00     0.173 A 
ATOM     96  F   UNL A   1      42.398  27.124  36.386  1.00  0.00    -0.203 F 
ATOM     97  C   UNL A   1      44.716  27.001  36.777  1.00  0.00     0.198 A 
ATOM     98  C   UNL A   1      46.205  28.518  35.662  1.00  0.00     0.198 A 
ATOM     99  F   UNL A   1      45.349  30.162  34.216  1.00  0.00    -0.203 F 
ATOM    100  F   UNL A   1      44.514  26.000  37.644  1.00  0.00    -0.200 F 
ATOM    101  C   UNL A   1      46.002  27.461  36.536  1.00  0.00     0.200 A 
ATOM    102  F   UNL A   1      47.448  28.952  35.414  1.00  0.00    -0.200 F 
ATOM    103  F   UNL A   1      47.045  26.888  37.151  1.00  0.00    -0.200 F 
ENDBRANCH  70  93
ENDBRANCH  44  45
ENDBRANCH  36  39
ENDBRANCH  34  35
ENDBRANCH  33  34
ENDBRANCH   1  33
TORSDOF 14
ENDMDL
