MODEL 1
REMARK VINA RESULT:     -11.6      0.000      0.000
REMARK SMILES Cc1noc(C)c1CNc1cnc(C(=O)NCCCCCCNC(=O)c2ccc(-c3c4nc(c(-c5c(F)c(F)c(F)c(F)c5F)c5ccc([nH]5)c(-c5c(F)c(F)c(F)c(F)c5F)c5nc(c(-c6c(F)c(F)c(F)c(F)c6F)c6ccc3[nH]6)C=C5)C=C4)cc2)cn1
REMARK SMILES IDX 19 1 18 2 17 3 16 4 14 5 15 6 13 8 10 9 11 10 90 11 12 12
REMARK SMILES IDX 89 13 9 14 8 16 7 17 1 18 2 19 3 20 4 21 5 22 6 23 20 24
REMARK SMILES IDX 21 25 22 26 23 27 24 28 25 30 26 31 27 32 88 33 28 34 87 35
REMARK SMILES IDX 29 36 30 37 31 38 81 39 32 40 86 41 80 42 82 43 33 44 85 45
REMARK SMILES IDX 79 46 78 47 34 49 66 50 46 51 65 52 47 53 50 54 64 55 83 56
REMARK SMILES IDX 48 57 49 58 63 60 84 61 51 62 35 63 36 64 44 65 37 66 38 67
REMARK SMILES IDX 42 68 45 69 39 70 40 71 43 72 41 73 67 74 68 75 76 76 69 77
REMARK SMILES IDX 70 78 74 79 77 80 71 81 72 82 75 83 73 84 52 85 53 86 61 87
REMARK SMILES IDX 54 88 55 89 59 90 62 91 56 92 57 93 60 94 58 95
REMARK H PARENT 16 7 9 15 23 29 82 48 50 59
REMARK Flexibility Score: inf
ROOT
ATOM      1  C   UNL A   1      37.075  22.098  23.890  1.00  0.00     0.002 C 
ENDROOT
BRANCH   1   2
ATOM      2  C   UNL A   1      36.048  23.236  23.869  1.00  0.00     0.021 C 
BRANCH   2   3
ATOM      3  C   UNL A   1      36.092  24.129  25.108  1.00  0.00     0.116 C 
BRANCH   3   4
ATOM      4  N   UNL A   1      34.817  24.789  25.325  1.00  0.00    -0.351 N 
ATOM      5  C   UNL A   1      33.562  24.291  25.597  1.00  0.00     0.271 C 
ATOM      6  O   UNL A   1      32.636  25.099  25.689  1.00  0.00    -0.267 OA
ATOM      7  H   UNL A   1      34.855  25.771  25.267  1.00  0.00     0.163 HD
BRANCH   5   8
ATOM      8  C   UNL A   1      33.282  22.842  25.810  1.00  0.00     0.146 A 
ATOM      9  C   UNL A   1      33.028  20.162  26.191  1.00  0.00     0.144 A 
ATOM     10  C   UNL A   1      32.376  20.840  25.164  1.00  0.00     0.158 A 
ATOM     11  N   UNL A   1      33.775  20.845  27.080  1.00  0.00    -0.235 NA
ATOM     12  N   UNL A   1      32.486  22.171  24.948  1.00  0.00    -0.246 NA
ATOM     13  C   UNL A   1      33.897  22.186  26.868  1.00  0.00     0.147 A 
BRANCH   9  14
ATOM     14  N   UNL A   1      33.000  18.798  26.353  1.00  0.00    -0.365 N 
ATOM     15  H   UNL A   1      33.506  18.389  27.091  1.00  0.00     0.162 HD
BRANCH  14  16
ATOM     16  C   UNL A   1      32.237  17.953  25.456  1.00  0.00     0.156 C 
BRANCH  16  17
ATOM     17  C   UNL A   1      32.999  17.417  24.297  1.00  0.00     0.037 A 
ATOM     18  C   UNL A   1      34.532  15.637  25.451  1.00  0.00     0.071 C 
ATOM     19  C   UNL A   1      34.005  16.410  24.301  1.00  0.00     0.086 A 
ATOM     20  N   UNL A   1      34.485  16.197  23.071  1.00  0.00    -0.085 NA
ATOM     21  O   UNL A   1      33.802  17.065  22.242  1.00  0.00    -0.361 OA
ATOM     22  C   UNL A   1      32.920  17.793  22.974  1.00  0.00     0.138 A 
ATOM     23  C   UNL A   1      32.116  18.787  22.238  1.00  0.00     0.091 C 
ENDBRANCH  16  17
ENDBRANCH  14  16
ENDBRANCH   9  14
ENDBRANCH   5   8
ENDBRANCH   3   4
ENDBRANCH   2   3
ENDBRANCH   1   2
BRANCH   1  24
ATOM     24  C   UNL A   1      36.679  20.874  24.727  1.00  0.00     0.002 C 
BRANCH  24  25
ATOM     25  C   UNL A   1      37.782  19.830  24.924  1.00  0.00     0.021 C 
BRANCH  25  26
ATOM     26  C   UNL A   1      38.950  20.291  25.788  1.00  0.00     0.116 C 
BRANCH  26  27
ATOM     27  N   UNL A   1      40.022  19.309  25.828  1.00  0.00    -0.352 N 
ATOM     28  C   UNL A   1      41.360  19.485  26.067  1.00  0.00     0.251 C 
ATOM     29  H   UNL A   1      39.746  18.380  25.657  1.00  0.00     0.163 HD
ATOM     30  O   UNL A   1      42.147  18.561  25.871  1.00  0.00    -0.269 OA
BRANCH  28  31
ATOM     31  C   UNL A   1      41.868  20.790  26.543  1.00  0.00     0.039 A 
ATOM     32  C   UNL A   1      42.257  21.745  25.599  1.00  0.00     0.014 A 
ATOM     33  C   UNL A   1      41.991  21.062  27.908  1.00  0.00     0.014 A 
ATOM     34  C   UNL A   1      42.717  22.994  26.024  1.00  0.00     0.010 A 
ATOM     35  C   UNL A   1      42.390  22.329  28.330  1.00  0.00     0.010 A 
ATOM     36  C   UNL A   1      42.760  23.307  27.393  1.00  0.00    -0.014 A 
BRANCH  36  37
ATOM     37  C   UNL A   1      43.187  24.650  27.861  1.00  0.00     0.031 A 
ATOM     38  C   UNL A   1      42.159  25.694  28.205  1.00  0.00     0.074 A 
ATOM     39  C   UNL A   1      44.499  24.951  27.908  1.00  0.00     0.049 A 
ATOM     40  N   UNL A   1      42.335  26.944  28.552  1.00  0.00    -0.248 NA
ATOM     41  C   UNL A   1      40.748  25.289  28.120  1.00  0.00     0.031 C 
ATOM     42  C   UNL A   1      45.589  24.042  27.551  1.00  0.00     0.029 A 
ATOM     43  N   UNL A   1      45.140  26.114  28.259  1.00  0.00    -0.354 N 
ATOM     44  C   UNL A   1      41.062  27.479  28.701  1.00  0.00     0.074 A 
ATOM     45  C   UNL A   1      40.121  26.429  28.375  1.00  0.00     0.031 C 
ATOM     46  C   UNL A   1      46.762  24.677  27.707  1.00  0.00     0.029 A 
ATOM     47  C   UNL A   1      46.508  26.047  28.142  1.00  0.00     0.049 A 
ATOM     48  H   UNL A   1      44.665  26.920  28.565  1.00  0.00     0.167 HD
ATOM     49  C   UNL A   1      40.713  28.727  29.091  1.00  0.00     0.037 A 
ATOM     50  C   UNL A   1      47.447  26.988  28.351  1.00  0.00     0.037 A 
ATOM     51  C   UNL A   1      41.651  29.753  29.465  1.00  0.00     0.049 A 
ATOM     52  C   UNL A   1      47.027  28.360  28.809  1.00  0.00     0.074 A 
ATOM     53  C   UNL A   1      41.390  31.015  29.969  1.00  0.00     0.029 A 
ATOM     54  N   UNL A   1      43.029  29.634  29.375  1.00  0.00    -0.354 N 
ATOM     55  N   UNL A   1      45.822  28.823  29.034  1.00  0.00    -0.248 NA
ATOM     56  C   UNL A   1      48.098  29.337  29.049  1.00  0.00     0.031 C 
ATOM     57  C   UNL A   1      42.610  31.679  30.139  1.00  0.00     0.029 A 
ATOM     58  C   UNL A   1      43.631  30.811  29.788  1.00  0.00     0.049 A 
ATOM     59  H   UNL A   1      43.508  28.832  29.064  1.00  0.00     0.167 HD
ATOM     60  C   UNL A   1      45.992  30.130  29.471  1.00  0.00     0.074 A 
ATOM     61  C   UNL A   1      47.417  30.382  29.494  1.00  0.00     0.031 C 
ATOM     62  C   UNL A   1      45.052  31.040  29.822  1.00  0.00     0.037 A 
BRANCH  49  63
ATOM     63  C   UNL A   1      39.252  29.067  29.145  1.00  0.00     0.064 A 
ATOM     64  C   UNL A   1      38.533  29.039  30.348  1.00  0.00     0.173 A 
ATOM     65  C   UNL A   1      38.587  29.507  27.991  1.00  0.00     0.173 A 
ATOM     66  F   UNL A   1      39.123  28.617  31.477  1.00  0.00    -0.203 F 
ATOM     67  C   UNL A   1      37.197  29.427  30.392  1.00  0.00     0.198 A 
ATOM     68  C   UNL A   1      37.258  29.920  28.044  1.00  0.00     0.198 A 
ATOM     69  F   UNL A   1      39.233  29.559  26.816  1.00  0.00    -0.203 F 
ATOM     70  F   UNL A   1      36.520  29.364  31.547  1.00  0.00    -0.200 F 
ATOM     71  C   UNL A   1      36.564  29.876  29.243  1.00  0.00     0.200 A 
ATOM     72  F   UNL A   1      36.652  30.366  26.934  1.00  0.00    -0.200 F 
ATOM     73  F   UNL A   1      35.282  30.266  29.290  1.00  0.00    -0.200 F 
ENDBRANCH  49  63
BRANCH  50  74
ATOM     74  C   UNL A   1      48.884  26.674  28.135  1.00  0.00     0.064 A 
ATOM     75  C   UNL A   1      49.443  26.690  26.850  1.00  0.00     0.173 A 
ATOM     76  C   UNL A   1      49.720  26.315  29.204  1.00  0.00     0.173 A 
ATOM     77  F   UNL A   1      48.679  27.006  25.793  1.00  0.00    -0.203 F 
ATOM     78  C   UNL A   1      50.771  26.325  26.635  1.00  0.00     0.198 A 
ATOM     79  C   UNL A   1      51.056  25.981  28.993  1.00  0.00     0.198 A 
ATOM     80  F   UNL A   1      49.237  26.289  30.454  1.00  0.00    -0.203 F 
ATOM     81  F   UNL A   1      51.261  26.290  25.389  1.00  0.00    -0.200 F 
ATOM     82  C   UNL A   1      51.577  25.975  27.708  1.00  0.00     0.200 A 
ATOM     83  F   UNL A   1      51.835  25.655  30.033  1.00  0.00    -0.200 F 
ATOM     84  F   UNL A   1      52.852  25.618  27.501  1.00  0.00    -0.200 F 
ENDBRANCH  50  74
BRANCH  62  85
ATOM     85  C   UNL A   1      45.532  32.380  30.298  1.00  0.00     0.064 A 
ATOM     86  C   UNL A   1      45.848  32.612  31.645  1.00  0.00     0.173 A 
ATOM     87  C   UNL A   1      45.716  33.431  29.388  1.00  0.00     0.173 A 
ATOM     88  F   UNL A   1      45.674  31.642  32.556  1.00  0.00    -0.203 F 
ATOM     89  C   UNL A   1      46.307  33.857  32.066  1.00  0.00     0.198 A 
ATOM     90  C   UNL A   1      46.203  34.664  29.808  1.00  0.00     0.198 A 
ATOM     91  F   UNL A   1      45.434  33.257  28.087  1.00  0.00    -0.203 F 
ATOM     92  F   UNL A   1      46.557  34.071  33.365  1.00  0.00    -0.200 F 
ATOM     93  C   UNL A   1      46.492  34.879  31.147  1.00  0.00     0.200 A 
ATOM     94  F   UNL A   1      46.394  35.647  28.917  1.00  0.00    -0.200 F 
ATOM     95  F   UNL A   1      46.941  36.074  31.554  1.00  0.00    -0.200 F 
ENDBRANCH  62  85
ENDBRANCH  36  37
ENDBRANCH  28  31
ENDBRANCH  26  27
ENDBRANCH  25  26
ENDBRANCH  24  25
ENDBRANCH   1  24
TORSDOF 16
ENDMDL
MODEL 2
REMARK VINA RESULT:     -11.6      3.414      7.716
REMARK SMILES Cc1noc(C)c1CNc1cnc(C(=O)NCCCCCCNC(=O)c2ccc(-c3c4nc(c(-c5c(F)c(F)c(F)c(F)c5F)c5ccc([nH]5)c(-c5c(F)c(F)c(F)c(F)c5F)c5nc(c(-c6c(F)c(F)c(F)c(F)c6F)c6ccc3[nH]6)C=C5)C=C4)cc2)cn1
REMARK SMILES IDX 19 1 18 2 17 3 16 4 14 5 15 6 13 8 10 9 11 10 90 11 12 12
REMARK SMILES IDX 89 13 9 14 8 16 7 17 1 18 2 19 3 20 4 21 5 22 6 23 20 24
REMARK SMILES IDX 21 25 22 26 23 27 24 28 25 30 26 31 27 32 88 33 28 34 87 35
REMARK SMILES IDX 29 36 30 37 31 38 81 39 32 40 86 41 80 42 82 43 33 44 85 45
REMARK SMILES IDX 79 46 78 47 34 49 66 50 46 51 65 52 47 53 50 54 64 55 83 56
REMARK SMILES IDX 48 57 49 58 63 60 84 61 51 62 35 63 36 64 44 65 37 66 38 67
REMARK SMILES IDX 42 68 45 69 39 70 40 71 43 72 41 73 67 74 68 75 76 76 69 77
REMARK SMILES IDX 70 78 74 79 77 80 71 81 72 82 75 83 73 84 52 85 53 86 61 87
REMARK SMILES IDX 54 88 55 89 59 90 62 91 56 92 57 93 60 94 58 95
REMARK H PARENT 16 7 9 15 23 29 82 48 50 59
REMARK Flexibility Score: inf
ROOT
ATOM      1  C   UNL A   1      31.592  27.501  24.128  1.00  0.00     0.002 C 
ENDROOT
BRANCH   1   2
ATOM      2  C   UNL A   1      30.662  26.584  24.931  1.00  0.00     0.021 C 
BRANCH   2   3
ATOM      3  C   UNL A   1      31.397  25.638  25.880  1.00  0.00     0.116 C 
BRANCH   3   4
ATOM      4  N   UNL A   1      30.465  24.791  26.602  1.00  0.00    -0.351 N 
ATOM      5  C   UNL A   1      30.502  23.452  26.920  1.00  0.00     0.271 C 
ATOM      6  O   UNL A   1      29.531  22.979  27.514  1.00  0.00    -0.267 OA
ATOM      7  H   UNL A   1      29.660  25.258  26.923  1.00  0.00     0.163 HD
BRANCH   5   8
ATOM      8  C   UNL A   1      31.661  22.566  26.609  1.00  0.00     0.146 A 
ATOM      9  C   UNL A   1      33.924  21.161  26.060  1.00  0.00     0.144 A 
ATOM     10  C   UNL A   1      32.812  21.152  25.222  1.00  0.00     0.158 A 
ATOM     11  N   UNL A   1      33.883  21.839  27.224  1.00  0.00    -0.235 NA
ATOM     12  N   UNL A   1      31.674  21.843  25.466  1.00  0.00    -0.246 NA
ATOM     13  C   UNL A   1      32.744  22.543  27.477  1.00  0.00     0.147 A 
BRANCH   9  14
ATOM     14  N   UNL A   1      35.115  20.543  25.767  1.00  0.00    -0.365 N 
ATOM     15  H   UNL A   1      35.349  19.704  26.223  1.00  0.00     0.162 HD
BRANCH  14  16
ATOM     16  C   UNL A   1      36.033  21.109  24.796  1.00  0.00     0.156 C 
BRANCH  16  17
ATOM     17  C   UNL A   1      36.987  22.109  25.343  1.00  0.00     0.037 A 
ATOM     18  C   UNL A   1      39.103  20.633  25.785  1.00  0.00     0.071 C 
ATOM     19  C   UNL A   1      38.325  21.895  25.780  1.00  0.00     0.086 A 
ATOM     20  N   UNL A   1      38.877  23.028  26.228  1.00  0.00    -0.085 NA
ATOM     21  O   UNL A   1      37.907  24.001  26.096  1.00  0.00    -0.361 OA
ATOM     22  C   UNL A   1      36.781  23.452  25.572  1.00  0.00     0.138 A 
ATOM     23  C   UNL A   1      35.634  24.359  25.380  1.00  0.00     0.091 C 
ENDBRANCH  16  17
ENDBRANCH  14  16
ENDBRANCH   9  14
ENDBRANCH   5   8
ENDBRANCH   3   4
ENDBRANCH   2   3
ENDBRANCH   1   2
BRANCH   1  24
ATOM     24  C   UNL A   1      33.082  27.138  24.189  1.00  0.00     0.002 C 
BRANCH  24  25
ATOM     25  C   UNL A   1      34.005  28.245  24.708  1.00  0.00     0.021 C 
BRANCH  25  26
ATOM     26  C   UNL A   1      34.076  28.357  26.227  1.00  0.00     0.116 C 
BRANCH  26  27
ATOM     27  N   UNL A   1      33.717  29.685  26.695  1.00  0.00    -0.352 N 
ATOM     28  C   UNL A   1      34.356  30.496  27.597  1.00  0.00     0.251 C 
ATOM     29  H   UNL A   1      32.893  30.058  26.307  1.00  0.00     0.163 HD
ATOM     30  O   UNL A   1      33.801  31.512  28.012  1.00  0.00    -0.269 OA
BRANCH  28  31
ATOM     31  C   UNL A   1      35.706  30.148  28.090  1.00  0.00     0.039 A 
ATOM     32  C   UNL A   1      35.842  29.673  29.397  1.00  0.00     0.014 A 
ATOM     33  C   UNL A   1      36.834  30.315  27.283  1.00  0.00     0.014 A 
ATOM     34  C   UNL A   1      37.104  29.314  29.877  1.00  0.00     0.010 A 
ATOM     35  C   UNL A   1      38.082  29.897  27.740  1.00  0.00     0.010 A 
ATOM     36  C   UNL A   1      38.231  29.395  29.043  1.00  0.00    -0.014 A 
BRANCH  36  37
ATOM     37  C   UNL A   1      39.570  28.960  29.515  1.00  0.00     0.031 A 
ATOM     38  C   UNL A   1      40.362  29.829  30.453  1.00  0.00     0.074 A 
ATOM     39  C   UNL A   1      40.102  27.816  29.042  1.00  0.00     0.049 A 
ATOM     40  N   UNL A   1      41.577  29.659  30.911  1.00  0.00    -0.248 NA
ATOM     41  C   UNL A   1      39.715  31.065  30.918  1.00  0.00     0.031 C 
ATOM     42  C   UNL A   1      39.455  26.914  28.088  1.00  0.00     0.029 A 
ATOM     43  N   UNL A   1      41.317  27.224  29.284  1.00  0.00    -0.354 N 
ATOM     44  C   UNL A   1      41.848  30.775  31.691  1.00  0.00     0.074 A 
ATOM     45  C   UNL A   1      40.685  31.633  31.622  1.00  0.00     0.031 C 
ATOM     46  C   UNL A   1      40.274  25.880  27.833  1.00  0.00     0.029 A 
ATOM     47  C   UNL A   1      41.517  26.064  28.575  1.00  0.00     0.049 A 
ATOM     48  H   UNL A   1      41.983  27.597  29.907  1.00  0.00     0.167 HD
ATOM     49  C   UNL A   1      42.960  31.048  32.414  1.00  0.00     0.037 A 
ATOM     50  C   UNL A   1      42.587  25.249  28.522  1.00  0.00     0.037 A 
ATOM     51  C   UNL A   1      44.093  30.169  32.523  1.00  0.00     0.049 A 
ATOM     52  C   UNL A   1      43.799  25.568  29.358  1.00  0.00     0.074 A 
ATOM     53  C   UNL A   1      45.222  30.314  33.310  1.00  0.00     0.029 A 
ATOM     54  N   UNL A   1      44.242  28.981  31.824  1.00  0.00    -0.354 N 
ATOM     55  N   UNL A   1      44.003  26.581  30.164  1.00  0.00    -0.248 NA
ATOM     56  C   UNL A   1      44.924  24.626  29.282  1.00  0.00     0.031 C 
ATOM     57  C   UNL A   1      46.077  29.237  33.052  1.00  0.00     0.029 A 
ATOM     58  C   UNL A   1      45.457  28.397  32.141  1.00  0.00     0.049 A 
ATOM     59  H   UNL A   1      43.581  28.608  31.196  1.00  0.00     0.167 HD
ATOM     60  C   UNL A   1      45.263  26.381  30.713  1.00  0.00     0.074 A 
ATOM     61  C   UNL A   1      45.770  25.144  30.161  1.00  0.00     0.031 C 
ATOM     62  C   UNL A   1      45.940  27.155  31.596  1.00  0.00     0.037 A 
BRANCH  49  63
ATOM     63  C   UNL A   1      43.016  32.351  33.157  1.00  0.00     0.064 A 
ATOM     64  C   UNL A   1      43.522  33.516  32.565  1.00  0.00     0.173 A 
ATOM     65  C   UNL A   1      42.480  32.449  34.450  1.00  0.00     0.173 A 
ATOM     66  F   UNL A   1      44.054  33.471  31.334  1.00  0.00    -0.203 F 
ATOM     67  C   UNL A   1      43.500  34.731  33.244  1.00  0.00     0.198 A 
ATOM     68  C   UNL A   1      42.435  33.672  35.116  1.00  0.00     0.198 A 
ATOM     69  F   UNL A   1      41.977  31.365  35.059  1.00  0.00    -0.203 F 
ATOM     70  F   UNL A   1      44.016  35.828  32.670  1.00  0.00    -0.200 F 
ATOM     71  C   UNL A   1      42.949  34.810  34.514  1.00  0.00     0.200 A 
ATOM     72  F   UNL A   1      41.889  33.748  36.337  1.00  0.00    -0.200 F 
ATOM     73  F   UNL A   1      42.912  35.985  35.159  1.00  0.00    -0.200 F 
ENDBRANCH  49  63
BRANCH  50  74
ATOM     74  C   UNL A   1      42.569  24.044  27.652  1.00  0.00     0.064 A 
ATOM     75  C   UNL A   1      42.254  22.781  28.172  1.00  0.00     0.173 A 
ATOM     76  C   UNL A   1      42.902  24.123  26.291  1.00  0.00     0.173 A 
ATOM     77  F   UNL A   1      41.949  22.651  29.472  1.00  0.00    -0.203 F 
ATOM     78  C   UNL A   1      42.306  21.639  27.376  1.00  0.00     0.198 A 
ATOM     79  C   UNL A   1      42.924  22.984  25.488  1.00  0.00     0.198 A 
ATOM     80  F   UNL A   1      43.207  25.307  25.742  1.00  0.00    -0.203 F 
ATOM     81  F   UNL A   1      42.060  20.436  27.915  1.00  0.00    -0.200 F 
ATOM     82  C   UNL A   1      42.638  21.742  26.033  1.00  0.00     0.200 A 
ATOM     83  F   UNL A   1      43.232  23.090  24.188  1.00  0.00    -0.200 F 
ATOM     84  F   UNL A   1      42.695  20.643  25.268  1.00  0.00    -0.200 F 
ENDBRANCH  50  74
BRANCH  62  85
ATOM     85  C   UNL A   1      47.284  26.668  32.051  1.00  0.00     0.064 A 
ATOM     86  C   UNL A   1      48.467  27.066  31.409  1.00  0.00     0.173 A 
ATOM     87  C   UNL A   1      47.392  25.826  33.167  1.00  0.00     0.173 A 
ATOM     88  F   UNL A   1      48.415  27.859  30.328  1.00  0.00    -0.203 F 
ATOM     89  C   UNL A   1      49.706  26.617  31.856  1.00  0.00     0.198 A 
ATOM     90  C   UNL A   1      48.635  25.403  33.627  1.00  0.00     0.198 A 
ATOM     91  F   UNL A   1      46.291  25.422  33.819  1.00  0.00    -0.203 F 
ATOM     92  F   UNL A   1      50.820  26.971  31.199  1.00  0.00    -0.200 F 
ATOM     93  C   UNL A   1      49.791  25.793  32.968  1.00  0.00     0.200 A 
ATOM     94  F   UNL A   1      48.715  24.618  34.711  1.00  0.00    -0.200 F 
ATOM     95  F   UNL A   1      50.986  25.368  33.400  1.00  0.00    -0.200 F 
ENDBRANCH  62  85
ENDBRANCH  36  37
ENDBRANCH  28  31
ENDBRANCH  26  27
ENDBRANCH  25  26
ENDBRANCH  24  25
ENDBRANCH   1  24
TORSDOF 16
ENDMDL
MODEL 3
REMARK VINA RESULT:     -11.5      5.625     10.198
REMARK SMILES Cc1noc(C)c1CNc1cnc(C(=O)NCCCCCCNC(=O)c2ccc(-c3c4nc(c(-c5c(F)c(F)c(F)c(F)c5F)c5ccc([nH]5)c(-c5c(F)c(F)c(F)c(F)c5F)c5nc(c(-c6c(F)c(F)c(F)c(F)c6F)c6ccc3[nH]6)C=C5)C=C4)cc2)cn1
REMARK SMILES IDX 19 1 18 2 17 3 16 4 14 5 15 6 13 8 10 9 11 10 90 11 12 12
REMARK SMILES IDX 89 13 9 14 8 16 7 17 1 18 2 19 3 20 4 21 5 22 6 23 20 24
REMARK SMILES IDX 21 25 22 26 23 27 24 28 25 30 26 31 27 32 88 33 28 34 87 35
REMARK SMILES IDX 29 36 30 37 31 38 81 39 32 40 86 41 80 42 82 43 33 44 85 45
REMARK SMILES IDX 79 46 78 47 34 49 66 50 46 51 65 52 47 53 50 54 64 55 83 56
REMARK SMILES IDX 48 57 49 58 63 60 84 61 51 62 35 63 36 64 44 65 37 66 38 67
REMARK SMILES IDX 42 68 45 69 39 70 40 71 43 72 41 73 67 74 68 75 76 76 69 77
REMARK SMILES IDX 70 78 74 79 77 80 71 81 72 82 75 83 73 84 52 85 53 86 61 87
REMARK SMILES IDX 54 88 55 89 59 90 62 91 56 92 57 93 60 94 58 95
REMARK H PARENT 16 7 9 15 23 29 82 48 50 59
REMARK Flexibility Score: inf
ROOT
ATOM      1  C   UNL A   1      37.589  33.114  30.426  1.00  0.00     0.002 C 
ENDROOT
BRANCH   1   2
ATOM      2  C   UNL A   1      37.876  34.301  31.353  1.00  0.00     0.021 C 
BRANCH   2   3
ATOM      3  C   UNL A   1      38.763  33.951  32.548  1.00  0.00     0.116 C 
BRANCH   3   4
ATOM      4  N   UNL A   1      37.966  33.571  33.700  1.00  0.00    -0.351 N 
ATOM      5  C   UNL A   1      37.921  32.411  34.440  1.00  0.00     0.271 C 
ATOM      6  O   UNL A   1      37.098  32.351  35.357  1.00  0.00    -0.267 OA
ATOM      7  H   UNL A   1      37.345  34.270  34.010  1.00  0.00     0.163 HD
BRANCH   5   8
ATOM      8  C   UNL A   1      38.829  31.252  34.207  1.00  0.00     0.146 A 
ATOM      9  C   UNL A   1      40.312  28.992  33.906  1.00  0.00     0.144 A 
ATOM     10  C   UNL A   1      40.819  30.152  34.488  1.00  0.00     0.158 A 
ATOM     11  N   UNL A   1      39.059  28.980  33.413  1.00  0.00    -0.235 NA
ATOM     12  N   UNL A   1      40.105  31.289  34.654  1.00  0.00    -0.246 NA
ATOM     13  C   UNL A   1      38.329  30.119  33.579  1.00  0.00     0.147 A 
BRANCH   9  14
ATOM     14  N   UNL A   1      41.000  27.805  33.827  1.00  0.00    -0.365 N 
ATOM     15  H   UNL A   1      40.724  27.131  33.166  1.00  0.00     0.162 HD
BRANCH  14  16
ATOM     16  C   UNL A   1      42.125  27.532  34.700  1.00  0.00     0.156 C 
BRANCH  16  17
ATOM     17  C   UNL A   1      42.449  26.092  34.876  1.00  0.00     0.037 A 
ATOM     18  C   UNL A   1      44.243  25.722  33.006  1.00  0.00     0.071 C 
ATOM     19  C   UNL A   1      43.370  25.304  34.129  1.00  0.00     0.086 A 
ATOM     20  N   UNL A   1      43.386  24.038  34.559  1.00  0.00    -0.085 NA
ATOM     21  O   UNL A   1      42.472  23.976  35.592  1.00  0.00    -0.361 OA
ATOM     22  C   UNL A   1      41.913  25.199  35.778  1.00  0.00     0.138 A 
ATOM     23  C   UNL A   1      40.896  25.303  36.841  1.00  0.00     0.091 C 
ENDBRANCH  16  17
ENDBRANCH  14  16
ENDBRANCH   9  14
ENDBRANCH   5   8
ENDBRANCH   3   4
ENDBRANCH   2   3
ENDBRANCH   1   2
BRANCH   1  24
ATOM     24  C   UNL A   1      37.412  33.470  28.944  1.00  0.00     0.002 C 
BRANCH  24  25
ATOM     25  C   UNL A   1      35.979  33.372  28.413  1.00  0.00     0.021 C 
BRANCH  25  26
ATOM     26  C   UNL A   1      34.996  32.679  29.351  1.00  0.00     0.116 C 
BRANCH  26  27
ATOM     27  N   UNL A   1      34.261  31.616  28.685  1.00  0.00    -0.352 N 
ATOM     28  C   UNL A   1      34.710  30.420  28.191  1.00  0.00     0.251 C 
ATOM     29  H   UNL A   1      33.296  31.780  28.573  1.00  0.00     0.163 HD
ATOM     30  O   UNL A   1      33.974  29.728  27.489  1.00  0.00    -0.269 OA
BRANCH  28  31
ATOM     31  C   UNL A   1      36.085  29.960  28.481  1.00  0.00     0.039 A 
ATOM     32  C   UNL A   1      37.059  30.080  27.485  1.00  0.00     0.014 A 
ATOM     33  C   UNL A   1      36.410  29.387  29.713  1.00  0.00     0.014 A 
ATOM     34  C   UNL A   1      38.371  29.676  27.744  1.00  0.00     0.010 A 
ATOM     35  C   UNL A   1      37.731  29.043  29.992  1.00  0.00     0.010 A 
ATOM     36  C   UNL A   1      38.724  29.181  29.010  1.00  0.00    -0.014 A 
BRANCH  36  37
ATOM     37  C   UNL A   1      40.126  28.805  29.324  1.00  0.00     0.031 A 
ATOM     38  C   UNL A   1      41.010  29.750  30.091  1.00  0.00     0.074 A 
ATOM     39  C   UNL A   1      40.623  27.643  28.856  1.00  0.00     0.049 A 
ATOM     40  N   UNL A   1      42.280  29.635  30.390  1.00  0.00    -0.248 NA
ATOM     41  C   UNL A   1      40.395  31.001  30.560  1.00  0.00     0.031 C 
ATOM     42  C   UNL A   1      39.882  26.667  28.057  1.00  0.00     0.029 A 
ATOM     43  N   UNL A   1      41.877  27.093  28.970  1.00  0.00    -0.354 N 
ATOM     44  C   UNL A   1      42.619  30.806  31.055  1.00  0.00     0.074 A 
ATOM     45  C   UNL A   1      41.433  31.634  31.090  1.00  0.00     0.031 C 
ATOM     46  C   UNL A   1      40.689  25.636  27.759  1.00  0.00     0.029 A 
ATOM     47  C   UNL A   1      42.014  25.893  28.315  1.00  0.00     0.049 A 
ATOM     48  H   UNL A   1      42.608  27.520  29.472  1.00  0.00     0.167 HD
ATOM     49  C   UNL A   1      43.809  31.149  31.603  1.00  0.00     0.037 A 
ATOM     50  C   UNL A   1      43.091  25.098  28.170  1.00  0.00     0.037 A 
ATOM     51  C   UNL A   1      44.972  30.302  31.614  1.00  0.00     0.049 A 
ATOM     52  C   UNL A   1      44.393  25.497  28.813  1.00  0.00     0.074 A 
ATOM     53  C   UNL A   1      46.191  30.522  32.232  1.00  0.00     0.029 A 
ATOM     54  N   UNL A   1      45.061  29.074  30.978  1.00  0.00    -0.354 N 
ATOM     55  N   UNL A   1      44.673  26.564  29.519  1.00  0.00    -0.248 NA
ATOM     56  C   UNL A   1      45.526  24.575  28.646  1.00  0.00     0.031 C 
ATOM     57  C   UNL A   1      47.035  29.448  31.928  1.00  0.00     0.029 A 
ATOM     58  C   UNL A   1      46.324  28.537  31.164  1.00  0.00     0.049 A 
ATOM     59  H   UNL A   1      44.334  28.647  30.469  1.00  0.00     0.167 HD
ATOM     60  C   UNL A   1      46.000  26.428  29.905  1.00  0.00     0.074 A 
ATOM     61  C   UNL A   1      46.465  25.167  29.368  1.00  0.00     0.031 C 
ATOM     62  C   UNL A   1      46.766  27.272  30.638  1.00  0.00     0.037 A 
BRANCH  49  63
ATOM     63  C   UNL A   1      43.926  32.499  32.249  1.00  0.00     0.064 A 
ATOM     64  C   UNL A   1      43.823  32.663  33.637  1.00  0.00     0.173 A 
ATOM     65  C   UNL A   1      44.227  33.629  31.474  1.00  0.00     0.173 A 
ATOM     66  F   UNL A   1      43.527  31.615  34.421  1.00  0.00    -0.203 F 
ATOM     67  C   UNL A   1      44.005  33.912  34.226  1.00  0.00     0.198 A 
ATOM     68  C   UNL A   1      44.436  34.870  32.068  1.00  0.00     0.198 A 
ATOM     69  F   UNL A   1      44.344  33.523  30.141  1.00  0.00    -0.203 F 
ATOM     70  F   UNL A   1      43.874  34.052  35.552  1.00  0.00    -0.200 F 
ATOM     71  C   UNL A   1      44.321  35.011  33.442  1.00  0.00     0.200 A 
ATOM     72  F   UNL A   1      44.754  35.929  31.310  1.00  0.00    -0.200 F 
ATOM     73  F   UNL A   1      44.515  36.209  34.012  1.00  0.00    -0.200 F 
ENDBRANCH  49  63
BRANCH  50  74
ATOM     74  C   UNL A   1      42.992  23.838  27.387  1.00  0.00     0.064 A 
ATOM     75  C   UNL A   1      42.542  22.651  27.982  1.00  0.00     0.173 A 
ATOM     76  C   UNL A   1      43.381  23.785  26.040  1.00  0.00     0.173 A 
ATOM     77  F   UNL A   1      42.179  22.647  29.273  1.00  0.00    -0.203 F 
ATOM     78  C   UNL A   1      42.516  21.453  27.272  1.00  0.00     0.198 A 
ATOM     79  C   UNL A   1      43.326  22.592  25.321  1.00  0.00     0.198 A 
ATOM     80  F   UNL A   1      43.815  24.892  25.422  1.00  0.00    -0.203 F 
ATOM     81  F   UNL A   1      42.139  20.321  27.883  1.00  0.00    -0.200 F 
ATOM     82  C   UNL A   1      42.905  21.425  25.940  1.00  0.00     0.200 A 
ATOM     83  F   UNL A   1      43.691  22.572  24.032  1.00  0.00    -0.200 F 
ATOM     84  F   UNL A   1      42.887  20.271  25.259  1.00  0.00    -0.200 F 
ENDBRANCH  50  74
BRANCH  62  85
ATOM     85  C   UNL A   1      48.172  26.844  30.938  1.00  0.00     0.064 A 
ATOM     86  C   UNL A   1      48.471  26.006  32.023  1.00  0.00     0.173 A 
ATOM     87  C   UNL A   1      49.228  27.244  30.105  1.00  0.00     0.173 A 
ATOM     88  F   UNL A   1      47.498  25.609  32.857  1.00  0.00    -0.203 F 
ATOM     89  C   UNL A   1      49.780  25.607  32.277  1.00  0.00     0.198 A 
ATOM     90  C   UNL A   1      50.530  26.818  30.345  1.00  0.00     0.198 A 
ATOM     91  F   UNL A   1      48.993  28.039  29.050  1.00  0.00    -0.203 F 
ATOM     92  F   UNL A   1      50.050  24.846  33.346  1.00  0.00    -0.200 F 
ATOM     93  C   UNL A   1      50.807  26.005  31.434  1.00  0.00     0.200 A 
ATOM     94  F   UNL A   1      51.519  27.193  29.522  1.00  0.00    -0.200 F 
ATOM     95  F   UNL A   1      52.065  25.613  31.676  1.00  0.00    -0.200 F 
ENDBRANCH  62  85
ENDBRANCH  36  37
ENDBRANCH  28  31
ENDBRANCH  26  27
ENDBRANCH  25  26
ENDBRANCH  24  25
ENDBRANCH   1  24
TORSDOF 16
ENDMDL
