MODEL 1
REMARK VINA RESULT:     -13.4      0.000      0.000
REMARK SMILES CC1(C)[C@@]2(C(=O)NCCCCCCNC(=O)c3ccc(-c4c5nc(c(-c6c(F)c(F)c(F)c(F)c6F)c6ccc([nH]6)c(-c6c(F)c(F)c(F)c(F)c6F)c6nc(c(-c7c(F)c(F)c(F)c(F)c7F)c7ccc4[nH]7)C=C6)C=C5)cc3)CC[C@]1(C)/C(=N/NC(=O)c1ccc(Cl)cc1)C2
REMARK SMILES IDX 10 1 9 2 8 3 7 4 5 5 6 6 4 8 1 9 2 10 3 11 82 12 80 13 96 14
REMARK SMILES IDX 81 15 83 16 84 17 85 18 86 19 87 20 88 22 89 23 90 24 95 25
REMARK SMILES IDX 91 26 94 27 92 28 93 29 11 30 12 31 13 32 14 33 15 34 16 36
REMARK SMILES IDX 17 37 18 38 79 39 19 40 78 41 20 42 21 43 22 44 72 45 23 46
REMARK SMILES IDX 77 47 71 48 73 49 24 50 76 51 70 52 69 53 25 55 57 56 37 57
REMARK SMILES IDX 56 58 38 59 41 60 55 61 74 62 39 63 40 64 54 66 75 67 42 68
REMARK SMILES IDX 26 69 27 70 35 71 28 72 29 73 33 74 36 75 30 76 31 77 34 78
REMARK SMILES IDX 32 79 58 80 59 81 67 82 60 83 61 84 65 85 68 86 62 87 63 88
REMARK SMILES IDX 66 89 64 90 43 91 44 92 52 93 45 94 46 95 50 96 53 97 47 98
REMARK SMILES IDX 48 99 51 100 49 101
REMARK H PARENT 7 7 86 21 14 35 73 54 41 65
REMARK Flexibility Score: inf
ROOT
ATOM      1  C   UNL A   1      32.270  29.680  25.840  1.00  0.00     0.002 C 
ENDROOT
BRANCH   1   2
ATOM      2  C   UNL A   1      33.123  29.317  24.621  1.00  0.00     0.021 C 
BRANCH   2   3
ATOM      3  C   UNL A   1      32.482  28.471  23.506  1.00  0.00     0.116 C 
BRANCH   3   4
ATOM      4  N   UNL A   1      33.336  27.579  22.734  1.00  0.00    -0.356 N 
ATOM      5  C   UNL A   1      33.326  26.208  22.640  1.00  0.00     0.227 C 
ATOM      6  O   UNL A   1      33.610  25.742  21.533  1.00  0.00    -0.274 OA
ATOM      7  H   UNL A   1      34.027  28.027  22.197  1.00  0.00     0.163 HD
BRANCH   5   8
ATOM      8  C   UNL A   1      33.157  25.283  23.857  1.00  0.00     0.060 C 
ATOM      9  C   UNL A   1      30.708  25.834  24.526  1.00  0.00     0.013 C 
ATOM     10  C   UNL A   1      31.725  24.722  24.174  1.00  0.00    -0.010 C 
ATOM     11  C   UNL A   1      31.047  23.821  23.119  1.00  0.00     0.013 C 
ATOM     12  C   UNL A   1      32.248  23.888  25.392  1.00  0.00     0.014 C 
ATOM     13  C   UNL A   1      33.600  25.857  25.242  1.00  0.00     0.019 C 
ATOM     14  C   UNL A   1      33.965  23.985  23.629  1.00  0.00     0.071 C 
ATOM     15  C   UNL A   1      32.900  24.959  26.280  1.00  0.00     0.014 C 
ATOM     16  C   UNL A   1      31.267  22.993  26.119  1.00  0.00     0.018 C 
ATOM     17  C   UNL A   1      33.478  23.161  24.774  1.00  0.00     0.046 C 
ATOM     18  N   UNL A   1      33.970  22.125  25.368  1.00  0.00    -0.181 NA
BRANCH  18  19
ATOM     19  N   UNL A   1      35.074  21.354  25.186  1.00  0.00    -0.243 N 
ATOM     20  C   UNL A   1      35.467  20.047  25.002  1.00  0.00     0.271 C 
ATOM     21  H   UNL A   1      35.872  21.932  25.184  1.00  0.00     0.194 HD
ATOM     22  O   UNL A   1      36.670  19.790  24.911  1.00  0.00    -0.267 OA
BRANCH  20  23
ATOM     23  C   UNL A   1      34.566  18.902  24.931  1.00  0.00     0.041 A 
ATOM     24  C   UNL A   1      34.990  17.742  24.273  1.00  0.00     0.015 A 
ATOM     25  C   UNL A   1      33.273  18.989  25.431  1.00  0.00     0.015 A 
ATOM     26  C   UNL A   1      34.211  16.586  24.336  1.00  0.00     0.021 A 
ATOM     27  C   UNL A   1      32.528  17.813  25.543  1.00  0.00     0.021 A 
ATOM     28  C   UNL A   1      33.018  16.609  25.046  1.00  0.00     0.041 A 
ATOM     29  Cl  UNL A   1      32.178  15.146  25.375  1.00  0.00    -0.084 Cl
ENDBRANCH  20  23
ENDBRANCH  18  19
ENDBRANCH   5   8
ENDBRANCH   3   4
ENDBRANCH   2   3
ENDBRANCH   1   2
BRANCH   1  30
ATOM     30  C   UNL A   1      31.191  30.739  25.552  1.00  0.00     0.002 C 
BRANCH  30  31
ATOM     31  C   UNL A   1      31.144  31.947  26.496  1.00  0.00     0.021 C 
BRANCH  31  32
ATOM     32  C   UNL A   1      32.502  32.431  26.991  1.00  0.00     0.116 C 
BRANCH  32  33
ATOM     33  N   UNL A   1      32.464  33.837  27.360  1.00  0.00    -0.352 N 
ATOM     34  C   UNL A   1      33.133  34.476  28.380  1.00  0.00     0.251 C 
ATOM     35  H   UNL A   1      31.882  34.406  26.808  1.00  0.00     0.163 HD
ATOM     36  O   UNL A   1      32.787  35.589  28.751  1.00  0.00    -0.269 OA
BRANCH  34  37
ATOM     37  C   UNL A   1      34.283  33.809  29.030  1.00  0.00     0.039 A 
ATOM     38  C   UNL A   1      34.049  32.807  29.974  1.00  0.00     0.014 A 
ATOM     39  C   UNL A   1      35.590  34.203  28.728  1.00  0.00     0.014 A 
ATOM     40  C   UNL A   1      35.131  32.166  30.585  1.00  0.00     0.010 A 
ATOM     41  C   UNL A   1      36.666  33.523  29.292  1.00  0.00     0.010 A 
ATOM     42  C   UNL A   1      36.448  32.505  30.234  1.00  0.00    -0.014 A 
BRANCH  42  43
ATOM     43  C   UNL A   1      37.611  31.822  30.857  1.00  0.00     0.031 A 
ATOM     44  C   UNL A   1      38.057  32.200  32.242  1.00  0.00     0.074 A 
ATOM     45  C   UNL A   1      38.303  30.905  30.155  1.00  0.00     0.049 A 
ATOM     46  N   UNL A   1      39.068  31.750  32.941  1.00  0.00    -0.248 NA
ATOM     47  C   UNL A   1      37.274  33.244  32.921  1.00  0.00     0.031 C 
ATOM     48  C   UNL A   1      37.998  30.480  28.790  1.00  0.00     0.029 A 
ATOM     49  N   UNL A   1      39.411  30.168  30.494  1.00  0.00    -0.354 N 
ATOM     50  C   UNL A   1      39.053  32.466  34.132  1.00  0.00     0.074 A 
ATOM     51  C   UNL A   1      37.967  33.418  34.037  1.00  0.00     0.031 C 
ATOM     52  C   UNL A   1      38.874  29.533  28.419  1.00  0.00     0.029 A 
ATOM     53  C   UNL A   1      39.823  29.310  29.505  1.00  0.00     0.049 A 
ATOM     54  H   UNL A   1      39.866  30.247  31.364  1.00  0.00     0.167 HD
ATOM     55  C   UNL A   1      39.856  32.327  35.214  1.00  0.00     0.037 A 
ATOM     56  C   UNL A   1      40.850  28.439  29.481  1.00  0.00     0.037 A 
ATOM     57  C   UNL A   1      40.923  31.365  35.313  1.00  0.00     0.049 A 
ATOM     58  C   UNL A   1      41.741  28.316  30.687  1.00  0.00     0.074 A 
ATOM     59  C   UNL A   1      41.747  31.094  36.391  1.00  0.00     0.029 A 
ATOM     60  N   UNL A   1      41.317  30.519  34.286  1.00  0.00    -0.354 N 
ATOM     61  N   UNL A   1      41.671  28.941  31.836  1.00  0.00    -0.248 NA
ATOM     62  C   UNL A   1      42.855  27.362  30.589  1.00  0.00     0.031 C 
ATOM     63  C   UNL A   1      42.673  30.121  35.999  1.00  0.00     0.029 A 
ATOM     64  C   UNL A   1      42.394  29.747  34.695  1.00  0.00     0.049 A 
ATOM     65  H   UNL A   1      40.895  30.473  33.398  1.00  0.00     0.167 HD
ATOM     66  C   UNL A   1      42.707  28.437  32.610  1.00  0.00     0.074 A 
ATOM     67  C   UNL A   1      43.386  27.446  31.801  1.00  0.00     0.031 C 
ATOM     68  C   UNL A   1      43.059  28.762  33.878  1.00  0.00     0.037 A 
BRANCH  55  69
ATOM     69  C   UNL A   1      39.612  33.252  36.374  1.00  0.00     0.064 A 
ATOM     70  C   UNL A   1      38.760  32.901  37.433  1.00  0.00     0.173 A 
ATOM     71  C   UNL A   1      40.238  34.507  36.427  1.00  0.00     0.173 A 
ATOM     72  F   UNL A   1      38.129  31.717  37.427  1.00  0.00    -0.203 F 
ATOM     73  C   UNL A   1      38.505  33.790  38.474  1.00  0.00     0.198 A 
ATOM     74  C   UNL A   1      40.009  35.380  37.489  1.00  0.00     0.198 A 
ATOM     75  F   UNL A   1      41.070  34.891  35.448  1.00  0.00    -0.203 F 
ATOM     76  F   UNL A   1      37.635  33.458  39.438  1.00  0.00    -0.200 F 
ATOM     77  C   UNL A   1      39.132  35.026  38.504  1.00  0.00     0.200 A 
ATOM     78  F   UNL A   1      40.627  36.568  37.523  1.00  0.00    -0.200 F 
ATOM     79  F   UNL A   1      38.883  35.881  39.505  1.00  0.00    -0.200 F 
ENDBRANCH  55  69
BRANCH  56  80
ATOM     80  C   UNL A   1      41.055  27.575  28.290  1.00  0.00     0.064 A 
ATOM     81  C   UNL A   1      41.922  27.974  27.263  1.00  0.00     0.173 A 
ATOM     82  C   UNL A   1      40.415  26.334  28.160  1.00  0.00     0.173 A 
ATOM     83  F   UNL A   1      42.541  29.162  27.334  1.00  0.00    -0.203 F 
ATOM     84  C   UNL A   1      42.133  27.169  26.145  1.00  0.00     0.198 A 
ATOM     85  C   UNL A   1      40.646  25.520  27.053  1.00  0.00     0.198 A 
ATOM     86  F   UNL A   1      39.580  25.905  29.117  1.00  0.00    -0.203 F 
ATOM     87  F   UNL A   1      42.943  27.590  25.164  1.00  0.00    -0.200 F 
ATOM     88  C   UNL A   1      41.501  25.940  26.045  1.00  0.00     0.200 A 
ATOM     89  F   UNL A   1      40.043  24.326  26.966  1.00  0.00    -0.200 F 
ATOM     90  F   UNL A   1      41.712  25.161  24.975  1.00  0.00    -0.200 F 
ENDBRANCH  56  80
BRANCH  68  91
ATOM     91  C   UNL A   1      44.214  28.016  34.484  1.00  0.00     0.064 A 
ATOM     92  C   UNL A   1      45.520  28.524  34.449  1.00  0.00     0.173 A 
ATOM     93  C   UNL A   1      44.001  26.794  35.140  1.00  0.00     0.173 A 
ATOM     94  F   UNL A   1      45.778  29.680  33.819  1.00  0.00    -0.203 F 
ATOM     95  C   UNL A   1      46.576  27.823  35.026  1.00  0.00     0.198 A 
ATOM     96  C   UNL A   1      45.054  26.111  35.743  1.00  0.00     0.198 A 
ATOM     97  F   UNL A   1      42.770  26.267  35.207  1.00  0.00    -0.203 F 
ATOM     98  F   UNL A   1      47.824  28.304  34.939  1.00  0.00    -0.200 F 
ATOM     99  C   UNL A   1      46.341  26.622  35.680  1.00  0.00     0.200 A 
ATOM    100  F   UNL A   1      44.822  24.957  36.385  1.00  0.00    -0.200 F 
ATOM    101  F   UNL A   1      47.358  25.954  36.242  1.00  0.00    -0.200 F 
ENDBRANCH  68  91
ENDBRANCH  42  43
ENDBRANCH  34  37
ENDBRANCH  32  33
ENDBRANCH  31  32
ENDBRANCH  30  31
ENDBRANCH   1  30
TORSDOF 15
ENDMDL
MODEL 2
REMARK VINA RESULT:     -13.4      0.585      7.057
REMARK SMILES CC1(C)[C@@]2(C(=O)NCCCCCCNC(=O)c3ccc(-c4c5nc(c(-c6c(F)c(F)c(F)c(F)c6F)c6ccc([nH]6)c(-c6c(F)c(F)c(F)c(F)c6F)c6nc(c(-c7c(F)c(F)c(F)c(F)c7F)c7ccc4[nH]7)C=C6)C=C5)cc3)CC[C@]1(C)/C(=N/NC(=O)c1ccc(Cl)cc1)C2
REMARK SMILES IDX 10 1 9 2 8 3 7 4 5 5 6 6 4 8 1 9 2 10 3 11 82 12 80 13 96 14
REMARK SMILES IDX 81 15 83 16 84 17 85 18 86 19 87 20 88 22 89 23 90 24 95 25
REMARK SMILES IDX 91 26 94 27 92 28 93 29 11 30 12 31 13 32 14 33 15 34 16 36
REMARK SMILES IDX 17 37 18 38 79 39 19 40 78 41 20 42 21 43 22 44 72 45 23 46
REMARK SMILES IDX 77 47 71 48 73 49 24 50 76 51 70 52 69 53 25 55 57 56 37 57
REMARK SMILES IDX 56 58 38 59 41 60 55 61 74 62 39 63 40 64 54 66 75 67 42 68
REMARK SMILES IDX 26 69 27 70 35 71 28 72 29 73 33 74 36 75 30 76 31 77 34 78
REMARK SMILES IDX 32 79 58 80 59 81 67 82 60 83 61 84 65 85 68 86 62 87 63 88
REMARK SMILES IDX 66 89 64 90 43 91 44 92 52 93 45 94 46 95 50 96 53 97 47 98
REMARK SMILES IDX 48 99 51 100 49 101
REMARK H PARENT 7 7 86 21 14 35 73 54 41 65
REMARK Flexibility Score: inf
ROOT
ATOM      1  C   UNL A   1      32.452  29.893  26.241  1.00  0.00     0.002 C 
ENDROOT
BRANCH   1   2
ATOM      2  C   UNL A   1      33.360  29.365  25.126  1.00  0.00     0.021 C 
BRANCH   2   3
ATOM      3  C   UNL A   1      32.706  28.675  23.916  1.00  0.00     0.116 C 
BRANCH   3   4
ATOM      4  N   UNL A   1      33.530  27.816  23.078  1.00  0.00    -0.356 N 
ATOM      5  C   UNL A   1      33.448  26.463  22.846  1.00  0.00     0.227 C 
ATOM      6  O   UNL A   1      33.737  26.094  21.705  1.00  0.00    -0.274 OA
ATOM      7  H   UNL A   1      34.261  28.274  22.604  1.00  0.00     0.163 HD
BRANCH   5   8
ATOM      8  C   UNL A   1      33.195  25.433  23.960  1.00  0.00     0.060 C 
ATOM      9  C   UNL A   1      30.708  25.946  24.512  1.00  0.00     0.013 C 
ATOM     10  C   UNL A   1      31.742  24.861  24.128  1.00  0.00    -0.010 C 
ATOM     11  C   UNL A   1      31.132  24.066  22.953  1.00  0.00     0.013 C 
ATOM     12  C   UNL A   1      32.179  23.914  25.297  1.00  0.00     0.014 C 
ATOM     13  C   UNL A   1      33.546  25.874  25.417  1.00  0.00     0.019 C 
ATOM     14  C   UNL A   1      34.011  24.153  23.668  1.00  0.00     0.071 C 
ATOM     15  C   UNL A   1      32.774  24.894  26.321  1.00  0.00     0.014 C 
ATOM     16  C   UNL A   1      31.148  22.967  25.873  1.00  0.00     0.018 C 
ATOM     17  C   UNL A   1      33.445  23.233  24.698  1.00  0.00     0.046 C 
ATOM     18  N   UNL A   1      33.892  22.143  25.227  1.00  0.00    -0.181 NA
BRANCH  18  19
ATOM     19  N   UNL A   1      35.003  21.381  25.048  1.00  0.00    -0.243 N 
ATOM     20  C   UNL A   1      35.409  20.074  24.899  1.00  0.00     0.271 C 
ATOM     21  H   UNL A   1      35.792  21.969  25.014  1.00  0.00     0.194 HD
ATOM     22  O   UNL A   1      36.614  19.830  24.793  1.00  0.00    -0.267 OA
BRANCH  20  23
ATOM     23  C   UNL A   1      34.522  18.916  24.880  1.00  0.00     0.041 A 
ATOM     24  C   UNL A   1      34.951  17.741  24.253  1.00  0.00     0.015 A 
ATOM     25  C   UNL A   1      33.237  19.003  25.397  1.00  0.00     0.015 A 
ATOM     26  C   UNL A   1      34.189  16.578  24.366  1.00  0.00     0.021 A 
ATOM     27  C   UNL A   1      32.510  17.821  25.560  1.00  0.00     0.021 A 
ATOM     28  C   UNL A   1      33.007  16.608  25.095  1.00  0.00     0.041 A 
ATOM     29  Cl  UNL A   1      32.192  15.146  25.485  1.00  0.00    -0.084 Cl
ENDBRANCH  20  23
ENDBRANCH  18  19
ENDBRANCH   5   8
ENDBRANCH   3   4
ENDBRANCH   2   3
ENDBRANCH   1   2
BRANCH   1  30
ATOM     30  C   UNL A   1      31.351  30.847  25.748  1.00  0.00     0.002 C 
BRANCH  30  31
ATOM     31  C   UNL A   1      31.199  32.173  26.505  1.00  0.00     0.021 C 
BRANCH  31  32
ATOM     32  C   UNL A   1      32.471  32.680  27.175  1.00  0.00     0.116 C 
BRANCH  32  33
ATOM     33  N   UNL A   1      32.374  34.095  27.499  1.00  0.00    -0.352 N 
ATOM     34  C   UNL A   1      32.999  34.790  28.510  1.00  0.00     0.251 C 
ATOM     35  H   UNL A   1      31.783  34.624  26.918  1.00  0.00     0.163 HD
ATOM     36  O   UNL A   1      32.605  35.900  28.839  1.00  0.00    -0.269 OA
BRANCH  34  37
ATOM     37  C   UNL A   1      34.159  34.187  29.202  1.00  0.00     0.039 A 
ATOM     38  C   UNL A   1      33.946  33.393  30.332  1.00  0.00     0.014 A 
ATOM     39  C   UNL A   1      35.458  34.438  28.752  1.00  0.00     0.014 A 
ATOM     40  C   UNL A   1      35.037  32.812  30.985  1.00  0.00     0.010 A 
ATOM     41  C   UNL A   1      36.539  33.811  29.366  1.00  0.00     0.010 A 
ATOM     42  C   UNL A   1      36.341  33.000  30.495  1.00  0.00    -0.014 A 
BRANCH  42  43
ATOM     43  C   UNL A   1      37.512  32.375  31.163  1.00  0.00     0.031 A 
ATOM     44  C   UNL A   1      38.274  31.275  30.477  1.00  0.00     0.074 A 
ATOM     45  C   UNL A   1      37.854  32.755  32.408  1.00  0.00     0.049 A 
ATOM     46  N   UNL A   1      39.295  30.579  30.908  1.00  0.00    -0.248 NA
ATOM     47  C   UNL A   1      37.805  30.889  29.137  1.00  0.00     0.031 C 
ATOM     48  C   UNL A   1      37.172  33.781  33.195  1.00  0.00     0.029 A 
ATOM     49  N   UNL A   1      38.861  32.316  33.232  1.00  0.00    -0.354 N 
ATOM     50  C   UNL A   1      39.580  29.663  29.902  1.00  0.00     0.074 A 
ATOM     51  C   UNL A   1      38.589  29.856  28.865  1.00  0.00     0.031 C 
ATOM     52  C   UNL A   1      37.799  33.918  34.374  1.00  0.00     0.029 A 
ATOM     53  C   UNL A   1      38.904  32.967  34.441  1.00  0.00     0.049 A 
ATOM     54  H   UNL A   1      39.492  31.603  32.980  1.00  0.00     0.167 HD
ATOM     55  C   UNL A   1      40.588  28.761  29.839  1.00  0.00     0.037 A 
ATOM     56  C   UNL A   1      39.745  32.814  35.481  1.00  0.00     0.037 A 
ATOM     57  C   UNL A   1      41.584  28.586  30.864  1.00  0.00     0.049 A 
ATOM     58  C   UNL A   1      40.845  31.791  35.397  1.00  0.00     0.074 A 
ATOM     59  C   UNL A   1      42.688  27.751  30.865  1.00  0.00     0.029 A 
ATOM     60  N   UNL A   1      41.589  29.257  32.079  1.00  0.00    -0.354 N 
ATOM     61  N   UNL A   1      41.153  30.986  34.411  1.00  0.00    -0.248 NA
ATOM     62  C   UNL A   1      41.715  31.660  36.574  1.00  0.00     0.031 C 
ATOM     63  C   UNL A   1      43.332  27.880  32.101  1.00  0.00     0.029 A 
ATOM     64  C   UNL A   1      42.660  28.832  32.850  1.00  0.00     0.049 A 
ATOM     65  H   UNL A   1      40.931  29.935  32.353  1.00  0.00     0.167 HD
ATOM     66  C   UNL A   1      42.269  30.275  34.831  1.00  0.00     0.074 A 
ATOM     67  C   UNL A   1      42.589  30.752  36.161  1.00  0.00     0.031 C 
ATOM     68  C   UNL A   1      42.968  29.318  34.172  1.00  0.00     0.037 A 
BRANCH  55  69
ATOM     69  C   UNL A   1      40.651  27.885  28.618  1.00  0.00     0.064 A 
ATOM     70  C   UNL A   1      39.988  26.649  28.559  1.00  0.00     0.173 A 
ATOM     71  C   UNL A   1      41.387  28.287  27.493  1.00  0.00     0.173 A 
ATOM     72  F   UNL A   1      39.278  26.214  29.611  1.00  0.00    -0.203 F 
ATOM     73  C   UNL A   1      40.099  25.828  27.440  1.00  0.00     0.198 A 
ATOM     74  C   UNL A   1      41.467  27.478  26.361  1.00  0.00     0.198 A 
ATOM     75  F   UNL A   1      42.033  29.462  27.489  1.00  0.00    -0.203 F 
ATOM     76  F   UNL A   1      39.512  24.623  27.435  1.00  0.00    -0.200 F 
ATOM     77  C   UNL A   1      40.834  26.244  26.340  1.00  0.00     0.200 A 
ATOM     78  F   UNL A   1      42.166  27.888  25.293  1.00  0.00    -0.200 F 
ATOM     79  F   UNL A   1      40.943  25.451  25.266  1.00  0.00    -0.200 F 
ENDBRANCH  55  69
BRANCH  56  80
ATOM     80  C   UNL A   1      39.609  33.691  36.673  1.00  0.00     0.064 A 
ATOM     81  C   UNL A   1      40.252  34.936  36.715  1.00  0.00     0.173 A 
ATOM     82  C   UNL A   1      38.828  33.320  37.776  1.00  0.00     0.173 A 
ATOM     83  F   UNL A   1      41.027  35.325  35.692  1.00  0.00    -0.203 F 
ATOM     84  C   UNL A   1      40.125  35.774  37.822  1.00  0.00     0.198 A 
ATOM     85  C   UNL A   1      38.682  34.170  38.870  1.00  0.00     0.198 A 
ATOM     86  F   UNL A   1      38.190  32.141  37.782  1.00  0.00    -0.203 F 
ATOM     87  F   UNL A   1      40.775  36.946  37.849  1.00  0.00    -0.200 F 
ATOM     88  C   UNL A   1      39.335  35.393  38.895  1.00  0.00     0.200 A 
ATOM     89  F   UNL A   1      37.906  33.804  39.901  1.00  0.00    -0.200 F 
ATOM     90  F   UNL A   1      39.204  36.204  39.954  1.00  0.00    -0.200 F 
ENDBRANCH  56  80
BRANCH  68  91
ATOM     91  C   UNL A   1      44.170  28.744  34.866  1.00  0.00     0.064 A 
ATOM     92  C   UNL A   1      44.097  27.553  35.603  1.00  0.00     0.173 A 
ATOM     93  C   UNL A   1      45.418  29.377  34.761  1.00  0.00     0.173 A 
ATOM     94  F   UNL A   1      42.924  26.920  35.749  1.00  0.00    -0.203 F 
ATOM     95  C   UNL A   1      45.226  27.030  36.231  1.00  0.00     0.198 A 
ATOM     96  C   UNL A   1      46.550  28.835  35.363  1.00  0.00     0.198 A 
ATOM     97  F   UNL A   1      45.543  30.515  34.063  1.00  0.00    -0.203 F 
ATOM     98  F   UNL A   1      45.123  25.917  36.969  1.00  0.00    -0.200 F 
ATOM     99  C   UNL A   1      46.452  27.666  36.103  1.00  0.00     0.200 A 
ATOM    100  F   UNL A   1      47.736  29.444  35.228  1.00  0.00    -0.200 F 
ATOM    101  F   UNL A   1      47.538  27.156  36.700  1.00  0.00    -0.200 F 
ENDBRANCH  68  91
ENDBRANCH  42  43
ENDBRANCH  34  37
ENDBRANCH  32  33
ENDBRANCH  31  32
ENDBRANCH  30  31
ENDBRANCH   1  30
TORSDOF 15
ENDMDL
MODEL 3
REMARK VINA RESULT:     -13.3      2.261      8.075
REMARK SMILES CC1(C)[C@@]2(C(=O)NCCCCCCNC(=O)c3ccc(-c4c5nc(c(-c6c(F)c(F)c(F)c(F)c6F)c6ccc([nH]6)c(-c6c(F)c(F)c(F)c(F)c6F)c6nc(c(-c7c(F)c(F)c(F)c(F)c7F)c7ccc4[nH]7)C=C6)C=C5)cc3)CC[C@]1(C)/C(=N/NC(=O)c1ccc(Cl)cc1)C2
REMARK SMILES IDX 10 1 9 2 8 3 7 4 5 5 6 6 4 8 1 9 2 10 3 11 82 12 80 13 96 14
REMARK SMILES IDX 81 15 83 16 84 17 85 18 86 19 87 20 88 22 89 23 90 24 95 25
REMARK SMILES IDX 91 26 94 27 92 28 93 29 11 30 12 31 13 32 14 33 15 34 16 36
REMARK SMILES IDX 17 37 18 38 79 39 19 40 78 41 20 42 21 43 22 44 72 45 23 46
REMARK SMILES IDX 77 47 71 48 73 49 24 50 76 51 70 52 69 53 25 55 57 56 37 57
REMARK SMILES IDX 56 58 38 59 41 60 55 61 74 62 39 63 40 64 54 66 75 67 42 68
REMARK SMILES IDX 26 69 27 70 35 71 28 72 29 73 33 74 36 75 30 76 31 77 34 78
REMARK SMILES IDX 32 79 58 80 59 81 67 82 60 83 61 84 65 85 68 86 62 87 63 88
REMARK SMILES IDX 66 89 64 90 43 91 44 92 52 93 45 94 46 95 50 96 53 97 47 98
REMARK SMILES IDX 48 99 51 100 49 101
REMARK H PARENT 7 7 86 21 14 35 73 54 41 65
REMARK Flexibility Score: inf
ROOT
ATOM      1  C   UNL A   1      32.329  29.567  27.249  1.00  0.00     0.002 C 
ENDROOT
BRANCH   1   2
ATOM      2  C   UNL A   1      31.755  28.169  27.506  1.00  0.00     0.021 C 
BRANCH   2   3
ATOM      3  C   UNL A   1      31.457  27.267  26.295  1.00  0.00     0.116 C 
BRANCH   3   4
ATOM      4  N   UNL A   1      30.957  25.922  26.538  1.00  0.00    -0.356 N 
ATOM      5  C   UNL A   1      31.639  24.739  26.694  1.00  0.00     0.227 C 
ATOM      6  O   UNL A   1      31.156  23.942  27.502  1.00  0.00    -0.274 OA
ATOM      7  H   UNL A   1      29.978  25.848  26.600  1.00  0.00     0.163 HD
BRANCH   5   8
ATOM      8  C   UNL A   1      32.824  24.328  25.804  1.00  0.00     0.060 C 
ATOM      9  C   UNL A   1      33.932  22.522  27.307  1.00  0.00     0.013 C 
ATOM     10  C   UNL A   1      33.360  22.856  25.909  1.00  0.00    -0.010 C 
ATOM     11  C   UNL A   1      32.400  21.704  25.538  1.00  0.00     0.013 C 
ATOM     12  C   UNL A   1      34.430  23.094  24.791  1.00  0.00     0.014 C 
ATOM     13  C   UNL A   1      34.135  25.167  25.950  1.00  0.00     0.019 C 
ATOM     14  C   UNL A   1      32.401  24.409  24.319  1.00  0.00     0.071 C 
ATOM     15  C   UNL A   1      35.238  24.279  25.343  1.00  0.00     0.014 C 
ATOM     16  C   UNL A   1      35.276  21.919  24.349  1.00  0.00     0.018 C 
ATOM     17  C   UNL A   1      33.575  23.757  23.669  1.00  0.00     0.046 C 
ATOM     18  N   UNL A   1      34.028  23.792  22.461  1.00  0.00    -0.181 NA
BRANCH  18  19
ATOM     19  N   UNL A   1      33.622  24.381  21.306  1.00  0.00    -0.243 N 
ATOM     20  C   UNL A   1      32.904  25.456  20.831  1.00  0.00     0.271 C 
ATOM     21  H   UNL A   1      33.960  23.858  20.543  1.00  0.00     0.194 HD
ATOM     22  O   UNL A   1      32.754  25.585  19.612  1.00  0.00    -0.267 OA
BRANCH  20  23
ATOM     23  C   UNL A   1      32.262  26.470  21.660  1.00  0.00     0.041 A 
ATOM     24  C   UNL A   1      33.037  27.511  22.183  1.00  0.00     0.015 A 
ATOM     25  C   UNL A   1      30.920  26.358  22.001  1.00  0.00     0.015 A 
ATOM     26  C   UNL A   1      32.416  28.575  22.839  1.00  0.00     0.021 A 
ATOM     27  C   UNL A   1      30.299  27.455  22.602  1.00  0.00     0.021 A 
ATOM     28  C   UNL A   1      31.034  28.577  22.971  1.00  0.00     0.041 A 
ATOM     29  Cl  UNL A   1      30.218  29.987  23.520  1.00  0.00    -0.084 Cl
ENDBRANCH  20  23
ENDBRANCH  18  19
ENDBRANCH   5   8
ENDBRANCH   3   4
ENDBRANCH   2   3
ENDBRANCH   1   2
BRANCH   1  30
ATOM     30  C   UNL A   1      31.473  30.426  26.302  1.00  0.00     0.002 C 
BRANCH  30  31
ATOM     31  C   UNL A   1      31.379  31.922  26.627  1.00  0.00     0.021 C 
BRANCH  31  32
ATOM     32  C   UNL A   1      32.714  32.604  26.909  1.00  0.00     0.116 C 
BRANCH  32  33
ATOM     33  N   UNL A   1      32.529  33.985  27.325  1.00  0.00    -0.352 N 
ATOM     34  C   UNL A   1      33.056  34.632  28.419  1.00  0.00     0.251 C 
ATOM     35  H   UNL A   1      31.947  34.529  26.747  1.00  0.00     0.163 HD
ATOM     36  O   UNL A   1      32.590  35.696  28.801  1.00  0.00    -0.269 OA
BRANCH  34  37
ATOM     37  C   UNL A   1      34.202  34.032  29.139  1.00  0.00     0.039 A 
ATOM     38  C   UNL A   1      33.964  33.074  30.128  1.00  0.00     0.014 A 
ATOM     39  C   UNL A   1      35.507  34.446  28.858  1.00  0.00     0.014 A 
ATOM     40  C   UNL A   1      35.042  32.496  30.805  1.00  0.00     0.010 A 
ATOM     41  C   UNL A   1      36.582  33.827  29.490  1.00  0.00     0.010 A 
ATOM     42  C   UNL A   1      36.361  32.854  30.478  1.00  0.00    -0.014 A 
BRANCH  42  43
ATOM     43  C   UNL A   1      37.521  32.237  31.171  1.00  0.00     0.031 A 
ATOM     44  C   UNL A   1      38.292  31.127  30.512  1.00  0.00     0.074 A 
ATOM     45  C   UNL A   1      37.844  32.632  32.416  1.00  0.00     0.049 A 
ATOM     46  N   UNL A   1      39.306  30.435  30.967  1.00  0.00    -0.248 NA
ATOM     47  C   UNL A   1      37.844  30.723  29.170  1.00  0.00     0.031 C 
ATOM     48  C   UNL A   1      37.151  33.669  33.179  1.00  0.00     0.029 A 
ATOM     49  N   UNL A   1      38.838  32.204  33.262  1.00  0.00    -0.354 N 
ATOM     50  C   UNL A   1      39.605  29.507  29.978  1.00  0.00     0.074 A 
ATOM     51  C   UNL A   1      38.631  29.687  28.923  1.00  0.00     0.031 C 
ATOM     52  C   UNL A   1      37.760  33.821  34.366  1.00  0.00     0.029 A 
ATOM     53  C   UNL A   1      38.863  32.870  34.462  1.00  0.00     0.049 A 
ATOM     54  H   UNL A   1      39.471  31.487  33.029  1.00  0.00     0.167 HD
ATOM     55  C   UNL A   1      40.613  28.603  29.942  1.00  0.00     0.037 A 
ATOM     56  C   UNL A   1      39.687  32.730  35.517  1.00  0.00     0.037 A 
ATOM     57  C   UNL A   1      41.594  28.441  30.984  1.00  0.00     0.049 A 
ATOM     58  C   UNL A   1      40.787  31.705  35.463  1.00  0.00     0.074 A 
ATOM     59  C   UNL A   1      42.697  27.605  31.013  1.00  0.00     0.029 A 
ATOM     60  N   UNL A   1      41.581  29.128  32.190  1.00  0.00    -0.354 N 
ATOM     61  N   UNL A   1      41.110  30.887  34.492  1.00  0.00    -0.248 NA
ATOM     62  C   UNL A   1      41.639  31.589  36.655  1.00  0.00     0.031 C 
ATOM     63  C   UNL A   1      43.322  27.749  32.257  1.00  0.00     0.029 A 
ATOM     64  C   UNL A   1      42.639  28.711  32.984  1.00  0.00     0.049 A 
ATOM     65  H   UNL A   1      40.918  29.809  32.445  1.00  0.00     0.167 HD
ATOM     66  C   UNL A   1      42.219  30.181  34.939  1.00  0.00     0.074 A 
ATOM     67  C   UNL A   1      42.519  30.675  36.267  1.00  0.00     0.031 C 
ATOM     68  C   UNL A   1      42.927  29.215  34.304  1.00  0.00     0.037 A 
BRANCH  55  69
ATOM     69  C   UNL A   1      40.695  27.712  28.734  1.00  0.00     0.064 A 
ATOM     70  C   UNL A   1      41.481  28.046  27.619  1.00  0.00     0.173 A 
ATOM     71  C   UNL A   1      39.975  26.507  28.689  1.00  0.00     0.173 A 
ATOM     72  F   UNL A   1      42.180  29.190  27.607  1.00  0.00    -0.203 F 
ATOM     73  C   UNL A   1      41.504  27.234  26.488  1.00  0.00     0.198 A 
ATOM     74  C   UNL A   1      40.030  25.680  27.569  1.00  0.00     0.198 A 
ATOM     75  F   UNL A   1      39.216  26.132  29.729  1.00  0.00    -0.203 F 
ATOM     76  F   UNL A   1      42.208  27.610  25.411  1.00  0.00    -0.200 F 
ATOM     77  C   UNL A   1      40.783  26.050  26.465  1.00  0.00     0.200 A 
ATOM     78  F   UNL A   1      39.344  24.529  27.554  1.00  0.00    -0.200 F 
ATOM     79  F   UNL A   1      40.804  25.272  25.375  1.00  0.00    -0.200 F 
ENDBRANCH  55  69
BRANCH  56  80
ATOM     80  C   UNL A   1      39.534  33.622  36.695  1.00  0.00     0.064 A 
ATOM     81  C   UNL A   1      38.747  33.230  37.787  1.00  0.00     0.173 A 
ATOM     82  C   UNL A   1      40.179  34.865  36.766  1.00  0.00     0.173 A 
ATOM     83  F   UNL A   1      38.095  32.058  37.755  1.00  0.00    -0.203 F 
ATOM     84  C   UNL A   1      38.603  34.052  38.903  1.00  0.00     0.198 A 
ATOM     85  C   UNL A   1      40.053  35.675  37.894  1.00  0.00     0.198 A 
ATOM     86  F   UNL A   1      40.946  35.284  35.751  1.00  0.00    -0.203 F 
ATOM     87  F   UNL A   1      37.819  33.665  39.919  1.00  0.00    -0.200 F 
ATOM     88  C   UNL A   1      39.262  35.270  38.958  1.00  0.00     0.200 A 
ATOM     89  F   UNL A   1      40.703  36.846  37.950  1.00  0.00    -0.200 F 
ATOM     90  F   UNL A   1      39.132  36.055  40.036  1.00  0.00    -0.200 F 
ENDBRANCH  56  80
BRANCH  68  91
ATOM     91  C   UNL A   1      44.118  28.649  35.024  1.00  0.00     0.064 A 
ATOM     92  C   UNL A   1      44.017  27.505  35.829  1.00  0.00     0.173 A 
ATOM     93  C   UNL A   1      45.382  29.240  34.875  1.00  0.00     0.173 A 
ATOM     94  F   UNL A   1      42.828  26.914  36.017  1.00  0.00    -0.203 F 
ATOM     95  C   UNL A   1      45.135  26.989  36.480  1.00  0.00     0.198 A 
ATOM     96  C   UNL A   1      46.503  28.703  35.502  1.00  0.00     0.198 A 
ATOM     97  F   UNL A   1      45.533  30.332  34.112  1.00  0.00    -0.203 F 
ATOM     98  F   UNL A   1      45.008  25.924  37.282  1.00  0.00    -0.200 F 
ATOM     99  C   UNL A   1      46.378  27.582  36.309  1.00  0.00     0.200 A 
ATOM    100  F   UNL A   1      47.704  29.270  35.325  1.00  0.00    -0.200 F 
ATOM    101  F   UNL A   1      47.453  27.078  36.929  1.00  0.00    -0.200 F 
ENDBRANCH  68  91
ENDBRANCH  42  43
ENDBRANCH  34  37
ENDBRANCH  32  33
ENDBRANCH  31  32
ENDBRANCH  30  31
ENDBRANCH   1  30
TORSDOF 15
ENDMDL
