MODEL 1
REMARK VINA RESULT:     -12.2      0.000      0.000
REMARK SMILES COc1ccc2cc([C@@H](O)[C@H](F)C(=O)NCCCCCCNC(=O)c3ccc(-c4c5nc(c(-c6c(F)c(F)c(F)c(F)c6F)c6ccc([nH]6)c(-c6c(F)c(F)c(F)c(F)c6F)c6nc(c(-c7c(F)c(F)c(F)c(F)c7F)c7ccc4[nH]7)C=C6)C=C5)cc3)ccc2c1
REMARK SMILES IDX 18 1 17 2 16 3 15 4 13 5 14 6 11 8 12 9 9 10 8 11 3 12 4 13
REMARK SMILES IDX 91 14 5 15 90 16 6 17 89 18 7 19 88 20 2 21 1 22 10 23 19 25
REMARK SMILES IDX 20 26 21 27 22 28 23 29 24 31 25 32 26 33 87 34 27 35 86 36
REMARK SMILES IDX 28 37 29 38 30 39 80 40 31 41 85 42 79 43 81 44 32 45 84 46
REMARK SMILES IDX 78 47 77 48 33 50 65 51 45 52 64 53 46 54 49 55 63 56 82 57
REMARK SMILES IDX 47 58 48 59 62 61 83 62 50 63 34 64 35 65 43 66 36 67 37 68
REMARK SMILES IDX 41 69 44 70 38 71 39 72 42 73 40 74 66 75 67 76 75 77 68 78
REMARK SMILES IDX 69 79 73 80 76 81 70 82 71 83 74 84 72 85 51 86 52 87 60 88
REMARK SMILES IDX 53 89 54 90 58 91 61 92 55 93 56 94 59 95 57 96
REMARK H PARENT 15 7 10 24 22 30 81 49 49 60
REMARK Flexibility Score: inf
ROOT
ATOM      1  C   UNL A   1      32.208  29.697  25.804  1.00  0.00     0.002 C 
ENDROOT
BRANCH   1   2
ATOM      2  C   UNL A   1      31.737  28.553  26.703  1.00  0.00     0.021 C 
BRANCH   2   3
ATOM      3  C   UNL A   1      32.314  27.191  26.343  1.00  0.00     0.116 C 
BRANCH   3   4
ATOM      4  N   UNL A   1      31.638  26.086  26.996  1.00  0.00    -0.353 N 
ATOM      5  C   UNL A   1      31.433  24.826  26.491  1.00  0.00     0.257 C 
ATOM      6  O   UNL A   1      31.025  23.943  27.251  1.00  0.00    -0.272 OA
ATOM      7  H   UNL A   1      31.288  26.259  27.900  1.00  0.00     0.163 HD
BRANCH   5   8
ATOM      8  C   UNL A   1      31.699  24.546  25.015  1.00  0.00     0.288 C 
ATOM      9  F   UNL A   1      32.238  23.300  24.855  1.00  0.00    -0.234 F 
BRANCH   8  10
ATOM     10  C   UNL A   1      30.446  24.763  24.124  1.00  0.00     0.188 C 
BRANCH  10  11
ATOM     11  C   UNL A   1      30.321  26.147  23.510  1.00  0.00    -0.015 A 
ATOM     12  C   UNL A   1      28.739  30.768  22.095  1.00  0.00     0.119 A 
ATOM     13  C   UNL A   1      27.652  30.160  22.717  1.00  0.00     0.047 A 
ATOM     14  C   UNL A   1      29.947  30.075  21.964  1.00  0.00     0.055 A 
ATOM     15  C   UNL A   1      27.783  28.873  23.238  1.00  0.00     0.012 A 
ATOM     16  C   UNL A   1      30.095  28.778  22.483  1.00  0.00    -0.015 A 
ATOM     17  C   UNL A   1      28.997  28.178  23.127  1.00  0.00    -0.018 A 
ATOM     18  C   UNL A   1      31.299  28.060  22.379  1.00  0.00     0.009 A 
ATOM     19  C   UNL A   1      29.132  26.884  23.643  1.00  0.00     0.015 A 
ATOM     20  C   UNL A   1      31.412  26.760  22.885  1.00  0.00     0.007 A 
BRANCH  12  21
ATOM     21  O   UNL A   1      28.700  32.013  21.530  1.00  0.00    -0.497 OA
ATOM     22  C   UNL A   1      28.030  32.066  20.275  1.00  0.00     0.278 C 
ENDBRANCH  12  21
ENDBRANCH  10  11
BRANCH  10  23
ATOM     23  O   UNL A   1      30.332  23.829  23.041  1.00  0.00    -0.385 OA
ATOM     24  H   UNL A   1      29.509  23.995  22.555  1.00  0.00     0.211 HD
ENDBRANCH  10  23
ENDBRANCH   8  10
ENDBRANCH   5   8
ENDBRANCH   3   4
ENDBRANCH   2   3
ENDBRANCH   1   2
BRANCH   1  25
ATOM     25  C   UNL A   1      31.129  30.715  25.417  1.00  0.00     0.002 C 
BRANCH  25  26
ATOM     26  C   UNL A   1      31.028  31.946  26.322  1.00  0.00     0.021 C 
BRANCH  26  27
ATOM     27  C   UNL A   1      32.356  32.453  26.875  1.00  0.00     0.116 C 
BRANCH  27  28
ATOM     28  N   UNL A   1      32.276  33.830  27.334  1.00  0.00    -0.352 N 
ATOM     29  C   UNL A   1      33.007  34.472  28.301  1.00  0.00     0.251 C 
ATOM     30  H   UNL A   1      31.596  34.383  26.886  1.00  0.00     0.163 HD
ATOM     31  O   UNL A   1      32.681  35.598  28.674  1.00  0.00    -0.269 OA
BRANCH  29  32
ATOM     32  C   UNL A   1      34.175  33.807  28.914  1.00  0.00     0.039 A 
ATOM     33  C   UNL A   1      35.442  34.362  28.722  1.00  0.00     0.014 A 
ATOM     34  C   UNL A   1      34.028  32.635  29.662  1.00  0.00     0.014 A 
ATOM     35  C   UNL A   1      36.556  33.777  29.329  1.00  0.00     0.010 A 
ATOM     36  C   UNL A   1      35.128  32.094  30.325  1.00  0.00     0.010 A 
ATOM     37  C   UNL A   1      36.403  32.657  30.164  1.00  0.00    -0.014 A 
BRANCH  37  38
ATOM     38  C   UNL A   1      37.565  32.069  30.879  1.00  0.00     0.031 A 
ATOM     39  C   UNL A   1      38.396  31.001  30.221  1.00  0.00     0.074 A 
ATOM     40  C   UNL A   1      37.830  32.450  32.144  1.00  0.00     0.049 A 
ATOM     41  N   UNL A   1      39.400  30.316  30.711  1.00  0.00    -0.248 NA
ATOM     42  C   UNL A   1      38.039  30.634  28.841  1.00  0.00     0.031 C 
ATOM     43  C   UNL A   1      37.068  33.441  32.906  1.00  0.00     0.029 A 
ATOM     44  N   UNL A   1      38.805  32.040  33.019  1.00  0.00    -0.354 N 
ATOM     45  C   UNL A   1      39.778  29.430  29.711  1.00  0.00     0.074 A 
ATOM     46  C   UNL A   1      38.873  29.632  28.600  1.00  0.00     0.031 C 
ATOM     47  C   UNL A   1      37.612  33.572  34.128  1.00  0.00     0.029 A 
ATOM     48  C   UNL A   1      38.734  32.647  34.250  1.00  0.00     0.049 A 
ATOM     49  H   UNL A   1      39.493  31.373  32.787  1.00  0.00     0.167 HD
ATOM     50  C   UNL A   1      40.800  28.542  29.714  1.00  0.00     0.037 A 
ATOM     51  C   UNL A   1      39.480  32.467  35.357  1.00  0.00     0.037 A 
ATOM     52  C   UNL A   1      41.725  28.373  30.804  1.00  0.00     0.049 A 
ATOM     53  C   UNL A   1      40.612  31.473  35.325  1.00  0.00     0.074 A 
ATOM     54  C   UNL A   1      42.842  27.559  30.866  1.00  0.00     0.029 A 
ATOM     55  N   UNL A   1      41.637  29.028  32.023  1.00  0.00    -0.354 N 
ATOM     56  N   UNL A   1      41.012  30.704  34.341  1.00  0.00    -0.248 NA
ATOM     57  C   UNL A   1      41.402  31.327  36.557  1.00  0.00     0.031 C 
ATOM     58  C   UNL A   1      43.399  27.677  32.142  1.00  0.00     0.029 A 
ATOM     59  C   UNL A   1      42.665  28.612  32.855  1.00  0.00     0.049 A 
ATOM     60  H   UNL A   1      40.949  29.689  32.262  1.00  0.00     0.167 HD
ATOM     61  C   UNL A   1      42.118  30.015  34.821  1.00  0.00     0.074 A 
ATOM     62  C   UNL A   1      42.336  30.467  36.178  1.00  0.00     0.031 C 
ATOM     63  C   UNL A   1      42.882  29.086  34.196  1.00  0.00     0.037 A 
BRANCH  50  64
ATOM     64  C   UNL A   1      40.991  27.679  28.501  1.00  0.00     0.064 A 
ATOM     65  C   UNL A   1      40.303  26.467  28.343  1.00  0.00     0.173 A 
ATOM     66  C   UNL A   1      41.802  28.116  27.443  1.00  0.00     0.173 A 
ATOM     67  F   UNL A   1      39.522  26.001  29.329  1.00  0.00    -0.203 F 
ATOM     68  C   UNL A   1      40.428  25.720  27.174  1.00  0.00     0.198 A 
ATOM     69  C   UNL A   1      41.902  27.381  26.264  1.00  0.00     0.198 A 
ATOM     70  F   UNL A   1      42.478  29.271  27.541  1.00  0.00    -0.203 F 
ATOM     71  F   UNL A   1      39.782  24.552  27.055  1.00  0.00    -0.200 F 
ATOM     72  C   UNL A   1      41.216  26.184  26.132  1.00  0.00     0.200 A 
ATOM     73  F   UNL A   1      42.653  27.839  25.253  1.00  0.00    -0.200 F 
ATOM     74  F   UNL A   1      41.316  25.476  24.999  1.00  0.00    -0.200 F 
ENDBRANCH  50  64
BRANCH  51  75
ATOM     75  C   UNL A   1      39.190  33.237  36.598  1.00  0.00     0.064 A 
ATOM     76  C   UNL A   1      39.767  34.496  36.819  1.00  0.00     0.173 A 
ATOM     77  C   UNL A   1      38.374  32.710  37.609  1.00  0.00     0.173 A 
ATOM     78  F   UNL A   1      40.571  35.036  35.891  1.00  0.00    -0.203 F 
ATOM     79  C   UNL A   1      39.573  35.178  38.019  1.00  0.00     0.198 A 
ATOM     80  C   UNL A   1      38.152  33.407  38.794  1.00  0.00     0.198 A 
ATOM     81  F   UNL A   1      37.793  31.512  37.448  1.00  0.00    -0.203 F 
ATOM     82  F   UNL A   1      40.196  36.344  38.232  1.00  0.00    -0.200 F 
ATOM     83  C   UNL A   1      38.764  34.633  39.004  1.00  0.00     0.200 A 
ATOM     84  F   UNL A   1      37.357  32.885  39.737  1.00  0.00    -0.200 F 
ATOM     85  F   UNL A   1      38.586  35.283  40.163  1.00  0.00    -0.200 F 
ENDBRANCH  51  75
BRANCH  63  86
ATOM     86  C   UNL A   1      44.057  28.536  34.951  1.00  0.00     0.064 A 
ATOM     87  C   UNL A   1      45.282  29.215  35.011  1.00  0.00     0.173 A 
ATOM     88  C   UNL A   1      43.939  27.329  35.659  1.00  0.00     0.173 A 
ATOM     89  F   UNL A   1      45.450  30.364  34.340  1.00  0.00    -0.203 F 
ATOM     90  C   UNL A   1      46.355  28.691  35.728  1.00  0.00     0.198 A 
ATOM     91  C   UNL A   1      45.003  26.827  36.403  1.00  0.00     0.198 A 
ATOM     92  F   UNL A   1      42.785  26.644  35.643  1.00  0.00    -0.203 F 
ATOM     93  F   UNL A   1      47.533  29.331  35.727  1.00  0.00    -0.200 F 
ATOM     94  C   UNL A   1      46.212  27.504  36.429  1.00  0.00     0.200 A 
ATOM     95  F   UNL A   1      44.857  25.688  37.095  1.00  0.00    -0.200 F 
ATOM     96  F   UNL A   1      47.243  27.008  37.126  1.00  0.00    -0.200 F 
ENDBRANCH  63  86
ENDBRANCH  37  38
ENDBRANCH  29  32
ENDBRANCH  27  28
ENDBRANCH  26  27
ENDBRANCH  25  26
ENDBRANCH   1  25
TORSDOF 17
ENDMDL
MODEL 2
REMARK VINA RESULT:     -12.0      5.841     11.461
REMARK SMILES COc1ccc2cc([C@@H](O)[C@H](F)C(=O)NCCCCCCNC(=O)c3ccc(-c4c5nc(c(-c6c(F)c(F)c(F)c(F)c6F)c6ccc([nH]6)c(-c6c(F)c(F)c(F)c(F)c6F)c6nc(c(-c7c(F)c(F)c(F)c(F)c7F)c7ccc4[nH]7)C=C6)C=C5)cc3)ccc2c1
REMARK SMILES IDX 18 1 17 2 16 3 15 4 13 5 14 6 11 8 12 9 9 10 8 11 3 12 4 13
REMARK SMILES IDX 91 14 5 15 90 16 6 17 89 18 7 19 88 20 2 21 1 22 10 23 19 25
REMARK SMILES IDX 20 26 21 27 22 28 23 29 24 31 25 32 26 33 87 34 27 35 86 36
REMARK SMILES IDX 28 37 29 38 30 39 80 40 31 41 85 42 79 43 81 44 32 45 84 46
REMARK SMILES IDX 78 47 77 48 33 50 65 51 45 52 64 53 46 54 49 55 63 56 82 57
REMARK SMILES IDX 47 58 48 59 62 61 83 62 50 63 34 64 35 65 43 66 36 67 37 68
REMARK SMILES IDX 41 69 44 70 38 71 39 72 42 73 40 74 66 75 67 76 75 77 68 78
REMARK SMILES IDX 69 79 73 80 76 81 70 82 71 83 74 84 72 85 51 86 52 87 60 88
REMARK SMILES IDX 53 89 54 90 58 91 61 92 55 93 56 94 59 95 57 96
REMARK H PARENT 15 7 10 24 22 30 81 49 49 60
REMARK Flexibility Score: inf
ROOT
ATOM      1  C   UNL A   1      36.917  22.030  24.299  1.00  0.00     0.002 C 
ENDROOT
BRANCH   1   2
ATOM      2  C   UNL A   1      35.656  22.857  24.046  1.00  0.00     0.021 C 
BRANCH   2   3
ATOM      3  C   UNL A   1      35.418  23.969  25.059  1.00  0.00     0.116 C 
BRANCH   3   4
ATOM      4  N   UNL A   1      34.601  25.052  24.546  1.00  0.00    -0.353 N 
ATOM      5  C   UNL A   1      33.325  25.381  24.932  1.00  0.00     0.257 C 
ATOM      6  O   UNL A   1      32.848  26.453  24.548  1.00  0.00    -0.272 OA
ATOM      7  H   UNL A   1      35.007  25.614  23.846  1.00  0.00     0.163 HD
BRANCH   5   8
ATOM      8  C   UNL A   1      32.524  24.421  25.806  1.00  0.00     0.288 C 
ATOM      9  F   UNL A   1      31.753  25.116  26.696  1.00  0.00    -0.234 F 
BRANCH   8  10
ATOM     10  C   UNL A   1      31.693  23.401  24.980  1.00  0.00     0.188 C 
BRANCH  10  11
ATOM     11  C   UNL A   1      32.205  21.971  25.017  1.00  0.00    -0.015 A 
ATOM     12  C   UNL A   1      33.584  17.217  23.853  1.00  0.00     0.119 A 
ATOM     13  C   UNL A   1      32.899  17.704  22.743  1.00  0.00     0.047 A 
ATOM     14  C   UNL A   1      33.746  18.024  24.983  1.00  0.00     0.055 A 
ATOM     15  C   UNL A   1      32.406  19.009  22.752  1.00  0.00     0.012 A 
ATOM     16  C   UNL A   1      33.255  19.340  25.009  1.00  0.00    -0.015 A 
ATOM     17  C   UNL A   1      32.581  19.831  23.875  1.00  0.00    -0.018 A 
ATOM     18  C   UNL A   1      33.413  20.180  26.125  1.00  0.00     0.009 A 
ATOM     19  C   UNL A   1      32.083  21.139  23.891  1.00  0.00     0.015 A 
ATOM     20  C   UNL A   1      32.894  21.480  26.130  1.00  0.00     0.007 A 
BRANCH  12  21
ATOM     21  O   UNL A   1      34.079  15.945  23.950  1.00  0.00    -0.497 OA
ATOM     22  C   UNL A   1      34.804  15.688  25.149  1.00  0.00     0.278 C 
ENDBRANCH  12  21
ENDBRANCH  10  11
BRANCH  10  23
ATOM     23  O   UNL A   1      30.308  23.344  25.348  1.00  0.00    -0.385 OA
ATOM     24  H   UNL A   1      29.919  24.231  25.284  1.00  0.00     0.211 HD
ENDBRANCH  10  23
ENDBRANCH   8  10
ENDBRANCH   5   8
ENDBRANCH   3   4
ENDBRANCH   2   3
ENDBRANCH   1   2
BRANCH   1  25
ATOM     25  C   UNL A   1      36.686  20.665  24.956  1.00  0.00     0.002 C 
BRANCH  25  26
ATOM     26  C   UNL A   1      37.888  19.716  24.949  1.00  0.00     0.021 C 
BRANCH  26  27
ATOM     27  C   UNL A   1      39.086  20.185  25.768  1.00  0.00     0.116 C 
BRANCH  27  28
ATOM     28  N   UNL A   1      40.097  19.150  25.914  1.00  0.00    -0.352 N 
ATOM     29  C   UNL A   1      41.447  19.271  26.118  1.00  0.00     0.251 C 
ATOM     30  H   UNL A   1      39.763  18.226  25.857  1.00  0.00     0.163 HD
ATOM     31  O   UNL A   1      42.174  18.281  26.045  1.00  0.00    -0.269 OA
BRANCH  29  32
ATOM     32  C   UNL A   1      42.040  20.594  26.404  1.00  0.00     0.039 A 
ATOM     33  C   UNL A   1      42.376  21.427  25.334  1.00  0.00     0.014 A 
ATOM     34  C   UNL A   1      42.280  21.009  27.717  1.00  0.00     0.014 A 
ATOM     35  C   UNL A   1      42.896  22.699  25.580  1.00  0.00     0.010 A 
ATOM     36  C   UNL A   1      42.732  22.304  27.963  1.00  0.00     0.010 A 
ATOM     37  C   UNL A   1      43.046  23.162  26.898  1.00  0.00    -0.014 A 
BRANCH  37  38
ATOM     38  C   UNL A   1      43.525  24.540  27.177  1.00  0.00     0.031 A 
ATOM     39  C   UNL A   1      42.572  25.583  27.693  1.00  0.00     0.074 A 
ATOM     40  C   UNL A   1      44.804  24.867  26.904  1.00  0.00     0.049 A 
ATOM     41  N   UNL A   1      42.784  26.855  27.926  1.00  0.00    -0.248 NA
ATOM     42  C   UNL A   1      41.191  25.149  27.961  1.00  0.00     0.031 C 
ATOM     43  C   UNL A   1      45.811  23.958  26.356  1.00  0.00     0.029 A 
ATOM     44  N   UNL A   1      45.473  26.060  27.036  1.00  0.00    -0.354 N 
ATOM     45  C   UNL A   1      41.566  27.372  28.345  1.00  0.00     0.074 A 
ATOM     46  C   UNL A   1      40.606  26.291  28.297  1.00  0.00     0.031 C 
ATOM     47  C   UNL A   1      46.972  24.619  26.212  1.00  0.00     0.029 A 
ATOM     48  C   UNL A   1      46.781  26.008  26.618  1.00  0.00     0.049 A 
ATOM     49  H   UNL A   1      45.055  26.876  27.396  1.00  0.00     0.167 HD
ATOM     50  C   UNL A   1      41.279  28.632  28.750  1.00  0.00     0.037 A 
ATOM     51  C   UNL A   1      47.717  26.975  26.555  1.00  0.00     0.037 A 
ATOM     52  C   UNL A   1      42.246  29.696  28.836  1.00  0.00     0.049 A 
ATOM     53  C   UNL A   1      47.365  28.366  27.017  1.00  0.00     0.074 A 
ATOM     54  C   UNL A   1      42.069  30.982  29.315  1.00  0.00     0.029 A 
ATOM     55  N   UNL A   1      43.569  29.597  28.432  1.00  0.00    -0.354 N 
ATOM     56  N   UNL A   1      46.231  28.819  27.494  1.00  0.00    -0.248 NA
ATOM     57  C   UNL A   1      48.428  29.379  26.940  1.00  0.00     0.031 C 
ATOM     58  C   UNL A   1      43.268  31.679  29.147  1.00  0.00     0.029 A 
ATOM     59  C   UNL A   1      44.210  30.810  28.623  1.00  0.00     0.049 A 
ATOM     60  H   UNL A   1      43.989  28.786  28.065  1.00  0.00     0.167 HD
ATOM     61  C   UNL A   1      46.455  30.154  27.806  1.00  0.00     0.074 A 
ATOM     62  C   UNL A   1      47.837  30.433  27.481  1.00  0.00     0.031 C 
ATOM     63  C   UNL A   1      45.592  31.068  28.314  1.00  0.00     0.037 A 
BRANCH  50  64
ATOM     64  C   UNL A   1      39.866  28.946  29.143  1.00  0.00     0.064 A 
ATOM     65  C   UNL A   1      38.915  29.371  28.203  1.00  0.00     0.173 A 
ATOM     66  C   UNL A   1      39.433  28.727  30.460  1.00  0.00     0.173 A 
ATOM     67  F   UNL A   1      39.280  29.602  26.933  1.00  0.00    -0.203 F 
ATOM     68  C   UNL A   1      37.588  29.575  28.569  1.00  0.00     0.198 A 
ATOM     69  C   UNL A   1      38.098  28.905  30.816  1.00  0.00     0.198 A 
ATOM     70  F   UNL A   1      40.300  28.314  31.397  1.00  0.00    -0.203 F 
ATOM     71  F   UNL A   1      36.703  30.008  27.659  1.00  0.00    -0.200 F 
ATOM     72  C   UNL A   1      37.178  29.331  29.871  1.00  0.00     0.200 A 
ATOM     73  F   UNL A   1      37.702  28.653  32.071  1.00  0.00    -0.200 F 
ATOM     74  F   UNL A   1      35.895  29.505  30.215  1.00  0.00    -0.200 F 
ENDBRANCH  50  64
BRANCH  51  75
ATOM     75  C   UNL A   1      49.079  26.676  26.034  1.00  0.00     0.064 A 
ATOM     76  C   UNL A   1      50.082  26.176  26.878  1.00  0.00     0.173 A 
ATOM     77  C   UNL A   1      49.421  26.934  24.699  1.00  0.00     0.173 A 
ATOM     78  F   UNL A   1      49.811  25.932  28.168  1.00  0.00    -0.203 F 
ATOM     79  C   UNL A   1      51.382  25.985  26.416  1.00  0.00     0.198 A 
ATOM     80  C   UNL A   1      50.713  26.710  24.230  1.00  0.00     0.198 A 
ATOM     81  F   UNL A   1      48.499  27.409  23.848  1.00  0.00    -0.203 F 
ATOM     82  F   UNL A   1      52.337  25.576  27.262  1.00  0.00    -0.200 F 
ATOM     83  C   UNL A   1      51.696  26.250  25.092  1.00  0.00     0.200 A 
ATOM     84  F   UNL A   1      51.008  26.952  22.945  1.00  0.00    -0.200 F 
ATOM     85  F   UNL A   1      52.950  26.076  24.650  1.00  0.00    -0.200 F 
ENDBRANCH  51  75
BRANCH  63  86
ATOM     86  C   UNL A   1      46.128  32.440  28.599  1.00  0.00     0.064 A 
ATOM     87  C   UNL A   1      46.719  32.764  29.829  1.00  0.00     0.173 A 
ATOM     88  C   UNL A   1      46.086  33.435  27.609  1.00  0.00     0.173 A 
ATOM     89  F   UNL A   1      46.771  31.853  30.812  1.00  0.00    -0.203 F 
ATOM     90  C   UNL A   1      47.221  34.041  30.067  1.00  0.00     0.198 A 
ATOM     91  C   UNL A   1      46.620  34.700  27.839  1.00  0.00     0.198 A 
ATOM     92  F   UNL A   1      45.539  33.176  26.411  1.00  0.00    -0.203 F 
ATOM     93  F   UNL A   1      47.732  34.342  31.268  1.00  0.00    -0.200 F 
ATOM     94  C   UNL A   1      47.179  35.004  29.070  1.00  0.00     0.200 A 
ATOM     95  F   UNL A   1      46.594  35.624  26.868  1.00  0.00    -0.200 F 
ATOM     96  F   UNL A   1      47.671  36.229  29.299  1.00  0.00    -0.200 F 
ENDBRANCH  63  86
ENDBRANCH  37  38
ENDBRANCH  29  32
ENDBRANCH  27  28
ENDBRANCH  26  27
ENDBRANCH  25  26
ENDBRANCH   1  25
TORSDOF 17
ENDMDL
MODEL 3
REMARK VINA RESULT:     -12.0      0.480      7.168
REMARK SMILES COc1ccc2cc([C@@H](O)[C@H](F)C(=O)NCCCCCCNC(=O)c3ccc(-c4c5nc(c(-c6c(F)c(F)c(F)c(F)c6F)c6ccc([nH]6)c(-c6c(F)c(F)c(F)c(F)c6F)c6nc(c(-c7c(F)c(F)c(F)c(F)c7F)c7ccc4[nH]7)C=C6)C=C5)cc3)ccc2c1
REMARK SMILES IDX 18 1 17 2 16 3 15 4 13 5 14 6 11 8 12 9 9 10 8 11 3 12 4 13
REMARK SMILES IDX 91 14 5 15 90 16 6 17 89 18 7 19 88 20 2 21 1 22 10 23 19 25
REMARK SMILES IDX 20 26 21 27 22 28 23 29 24 31 25 32 26 33 87 34 27 35 86 36
REMARK SMILES IDX 28 37 29 38 30 39 80 40 31 41 85 42 79 43 81 44 32 45 84 46
REMARK SMILES IDX 78 47 77 48 33 50 65 51 45 52 64 53 46 54 49 55 63 56 82 57
REMARK SMILES IDX 47 58 48 59 62 61 83 62 50 63 34 64 35 65 43 66 36 67 37 68
REMARK SMILES IDX 41 69 44 70 38 71 39 72 42 73 40 74 66 75 67 76 75 77 68 78
REMARK SMILES IDX 69 79 73 80 76 81 70 82 71 83 74 84 72 85 51 86 52 87 60 88
REMARK SMILES IDX 53 89 54 90 58 91 61 92 55 93 56 94 59 95 57 96
REMARK H PARENT 15 7 10 24 22 30 81 49 49 60
REMARK Flexibility Score: inf
ROOT
ATOM      1  C   UNL A   1      32.258  29.550  26.477  1.00  0.00     0.002 C 
ENDROOT
BRANCH   1   2
ATOM      2  C   UNL A   1      31.474  28.287  26.839  1.00  0.00     0.021 C 
BRANCH   2   3
ATOM      3  C   UNL A   1      32.194  26.985  26.514  1.00  0.00     0.116 C 
BRANCH   3   4
ATOM      4  N   UNL A   1      31.557  25.814  27.087  1.00  0.00    -0.353 N 
ATOM      5  C   UNL A   1      31.406  24.582  26.500  1.00  0.00     0.257 C 
ATOM      6  O   UNL A   1      31.028  23.636  27.197  1.00  0.00    -0.272 OA
ATOM      7  H   UNL A   1      31.194  25.914  27.997  1.00  0.00     0.163 HD
BRANCH   5   8
ATOM      8  C   UNL A   1      31.694  24.410  25.012  1.00  0.00     0.288 C 
ATOM      9  F   UNL A   1      32.298  23.206  24.778  1.00  0.00    -0.234 F 
BRANCH   8  10
ATOM     10  C   UNL A   1      30.436  24.617  24.125  1.00  0.00     0.188 C 
BRANCH  10  11
ATOM     11  C   UNL A   1      30.246  26.027  23.592  1.00  0.00    -0.015 A 
ATOM     12  C   UNL A   1      28.421  30.619  22.391  1.00  0.00     0.119 A 
ATOM     13  C   UNL A   1      27.351  29.904  22.922  1.00  0.00     0.047 A 
ATOM     14  C   UNL A   1      29.677  30.015  22.275  1.00  0.00     0.055 A 
ATOM     15  C   UNL A   1      27.546  28.597  23.368  1.00  0.00     0.012 A 
ATOM     16  C   UNL A   1      29.889  28.699  22.719  1.00  0.00    -0.015 A 
ATOM     17  C   UNL A   1      28.807  27.990  23.272  1.00  0.00    -0.018 A 
ATOM     18  C   UNL A   1      31.142  28.068  22.629  1.00  0.00     0.009 A 
ATOM     19  C   UNL A   1      29.006  26.677  23.714  1.00  0.00     0.015 A 
ATOM     20  C   UNL A   1      31.319  26.747  23.059  1.00  0.00     0.007 A 
BRANCH  12  21
ATOM     21  O   UNL A   1      28.324  31.893  21.902  1.00  0.00    -0.497 OA
ATOM     22  C   UNL A   1      28.028  31.966  20.511  1.00  0.00     0.278 C 
ENDBRANCH  12  21
ENDBRANCH  10  11
BRANCH  10  23
ATOM     23  O   UNL A   1      30.373  23.744  22.988  1.00  0.00    -0.385 OA
ATOM     24  H   UNL A   1      31.252  23.678  22.582  1.00  0.00     0.211 HD
ENDBRANCH  10  23
ENDBRANCH   8  10
ENDBRANCH   5   8
ENDBRANCH   3   4
ENDBRANCH   2   3
ENDBRANCH   1   2
BRANCH   1  25
ATOM     25  C   UNL A   1      31.455  30.634  25.749  1.00  0.00     0.002 C 
BRANCH  25  26
ATOM     26  C   UNL A   1      31.299  31.958  26.502  1.00  0.00     0.021 C 
BRANCH  26  27
ATOM     27  C   UNL A   1      32.574  32.489  27.148  1.00  0.00     0.116 C 
BRANCH  27  28
ATOM     28  N   UNL A   1      32.470  33.893  27.509  1.00  0.00    -0.352 N 
ATOM     29  C   UNL A   1      33.152  34.602  28.464  1.00  0.00     0.251 C 
ATOM     30  H   UNL A   1      31.813  34.412  26.992  1.00  0.00     0.163 HD
ATOM     31  O   UNL A   1      32.807  35.749  28.745  1.00  0.00    -0.269 OA
BRANCH  29  32
ATOM     32  C   UNL A   1      34.289  33.985  29.177  1.00  0.00     0.039 A 
ATOM     33  C   UNL A   1      34.027  33.130  30.250  1.00  0.00     0.014 A 
ATOM     34  C   UNL A   1      35.609  34.257  28.803  1.00  0.00     0.014 A 
ATOM     35  C   UNL A   1      35.084  32.501  30.911  1.00  0.00     0.010 A 
ATOM     36  C   UNL A   1      36.657  33.574  29.416  1.00  0.00     0.010 A 
ATOM     37  C   UNL A   1      36.407  32.690  30.477  1.00  0.00    -0.014 A 
BRANCH  37  38
ATOM     38  C   UNL A   1      37.536  31.969  31.119  1.00  0.00     0.031 A 
ATOM     39  C   UNL A   1      37.991  32.351  32.501  1.00  0.00     0.074 A 
ATOM     40  C   UNL A   1      38.192  31.014  30.429  1.00  0.00     0.049 A 
ATOM     41  N   UNL A   1      39.002  31.890  33.195  1.00  0.00    -0.248 NA
ATOM     42  C   UNL A   1      37.227  33.407  33.185  1.00  0.00     0.031 C 
ATOM     43  C   UNL A   1      37.877  30.588  29.065  1.00  0.00     0.029 A 
ATOM     44  N   UNL A   1      39.272  30.239  30.776  1.00  0.00    -0.354 N 
ATOM     45  C   UNL A   1      39.006  32.610  34.382  1.00  0.00     0.074 A 
ATOM     46  C   UNL A   1      37.924  33.568  34.302  1.00  0.00     0.031 C 
ATOM     47  C   UNL A   1      38.732  29.619  28.696  1.00  0.00     0.029 A 
ATOM     48  C   UNL A   1      39.681  29.385  29.780  1.00  0.00     0.049 A 
ATOM     49  H   UNL A   1      39.711  30.289  31.656  1.00  0.00     0.167 HD
ATOM     50  C   UNL A   1      39.826  32.472  35.450  1.00  0.00     0.037 A 
ATOM     51  C   UNL A   1      40.714  28.521  29.740  1.00  0.00     0.037 A 
ATOM     52  C   UNL A   1      40.875  31.490  35.544  1.00  0.00     0.049 A 
ATOM     53  C   UNL A   1      41.607  28.390  30.947  1.00  0.00     0.074 A 
ATOM     54  C   UNL A   1      41.704  31.217  36.619  1.00  0.00     0.029 A 
ATOM     55  N   UNL A   1      41.241  30.623  34.525  1.00  0.00    -0.354 N 
ATOM     56  N   UNL A   1      41.544  29.017  32.097  1.00  0.00    -0.248 NA
ATOM     57  C   UNL A   1      42.711  27.423  30.853  1.00  0.00     0.031 C 
ATOM     58  C   UNL A   1      42.609  30.225  36.231  1.00  0.00     0.029 A 
ATOM     59  C   UNL A   1      42.304  29.835  34.938  1.00  0.00     0.049 A 
ATOM     60  H   UNL A   1      40.809  30.574  33.643  1.00  0.00     0.167 HD
ATOM     61  C   UNL A   1      42.572  28.495  32.872  1.00  0.00     0.074 A 
ATOM     62  C   UNL A   1      43.232  27.489  32.069  1.00  0.00     0.031 C 
ATOM     63  C   UNL A   1      42.938  28.823  34.135  1.00  0.00     0.037 A 
BRANCH  50  64
ATOM     64  C   UNL A   1      39.632  33.394  36.617  1.00  0.00     0.064 A 
ATOM     65  C   UNL A   1      38.781  33.067  37.683  1.00  0.00     0.173 A 
ATOM     66  C   UNL A   1      40.381  34.578  36.715  1.00  0.00     0.173 A 
ATOM     67  F   UNL A   1      38.037  31.952  37.634  1.00  0.00    -0.203 F 
ATOM     68  C   UNL A   1      38.678  33.896  38.798  1.00  0.00     0.198 A 
ATOM     69  C   UNL A   1      40.297  35.389  37.844  1.00  0.00     0.198 A 
ATOM     70  F   UNL A   1      41.215  34.934  35.726  1.00  0.00    -0.203 F 
ATOM     71  F   UNL A   1      37.837  33.577  39.791  1.00  0.00    -0.200 F 
ATOM     72  C   UNL A   1      39.445  35.048  38.882  1.00  0.00     0.200 A 
ATOM     73  F   UNL A   1      41.050  36.494  37.930  1.00  0.00    -0.200 F 
ATOM     74  F   UNL A   1      39.362  35.831  39.966  1.00  0.00    -0.200 F 
ENDBRANCH  50  64
BRANCH  51  75
ATOM     75  C   UNL A   1      40.974  27.710  28.519  1.00  0.00     0.064 A 
ATOM     76  C   UNL A   1      41.836  28.172  27.514  1.00  0.00     0.173 A 
ATOM     77  C   UNL A   1      40.326  26.485  28.307  1.00  0.00     0.173 A 
ATOM     78  F   UNL A   1      42.464  29.348  27.659  1.00  0.00    -0.203 F 
ATOM     79  C   UNL A   1      42.008  27.460  26.328  1.00  0.00     0.198 A 
ATOM     80  C   UNL A   1      40.525  25.757  27.136  1.00  0.00     0.198 A 
ATOM     81  F   UNL A   1      39.494  25.994  29.238  1.00  0.00    -0.203 F 
ATOM     82  F   UNL A   1      42.780  27.961  25.355  1.00  0.00    -0.200 F 
ATOM     83  C   UNL A   1      41.353  26.252  26.141  1.00  0.00     0.200 A 
ATOM     84  F   UNL A   1      39.903  24.582  26.966  1.00  0.00    -0.200 F 
ATOM     85  F   UNL A   1      41.510  25.573  24.997  1.00  0.00    -0.200 F 
ENDBRANCH  51  75
BRANCH  63  86
ATOM     86  C   UNL A   1      44.071  28.053  34.748  1.00  0.00     0.064 A 
ATOM     87  C   UNL A   1      45.397  28.503  34.672  1.00  0.00     0.173 A 
ATOM     88  C   UNL A   1      43.819  26.868  35.457  1.00  0.00     0.173 A 
ATOM     89  F   UNL A   1      45.693  29.622  33.995  1.00  0.00    -0.203 F 
ATOM     90  C   UNL A   1      46.432  27.779  35.259  1.00  0.00     0.198 A 
ATOM     91  C   UNL A   1      44.851  26.166  36.072  1.00  0.00     0.198 A 
ATOM     92  F   UNL A   1      42.567  26.398  35.567  1.00  0.00    -0.203 F 
ATOM     93  F   UNL A   1      47.697  28.200  35.129  1.00  0.00    -0.200 F 
ATOM     94  C   UNL A   1      46.157  26.617  35.965  1.00  0.00     0.200 A 
ATOM     95  F   UNL A   1      44.582  25.053  36.768  1.00  0.00    -0.200 F 
ATOM     96  F   UNL A   1      47.154  25.928  36.536  1.00  0.00    -0.200 F 
ENDBRANCH  63  86
ENDBRANCH  37  38
ENDBRANCH  29  32
ENDBRANCH  27  28
ENDBRANCH  26  27
ENDBRANCH  25  26
ENDBRANCH   1  25
TORSDOF 17
ENDMDL
