MODEL 1
REMARK VINA RESULT:     -12.2      0.000      0.000
REMARK SMILES O=C(CC1(NC(=O)c2ccncc2Cl)CCCCC1)NCCCCCCNC(=O)c1ccc(-c2c3nc(c(-c4c(F)c(F)c(F)c(F)c4F)c4ccc([nH]4)c(-c4c(F)c(F)c(F)c(F)c4F)c4nc(c(-c5c(F)c(F)c(F)c(F)c5F)c5ccc2[nH]5)C=C4)C=C3)cc1
REMARK SMILES IDX 23 1 22 2 21 3 20 4 1 5 2 6 3 8 4 9 15 10 19 11 16 12 18 13
REMARK SMILES IDX 17 14 5 15 6 16 7 18 8 19 9 20 13 21 10 22 12 23 14 24 11 25
REMARK SMILES IDX 24 26 25 27 26 28 27 29 28 30 29 32 30 33 31 34 92 35 32 36
REMARK SMILES IDX 91 37 33 38 34 39 35 40 85 41 36 42 90 43 84 44 86 45 37 46
REMARK SMILES IDX 89 47 83 48 82 49 38 51 70 52 50 53 69 54 51 55 54 56 68 57
REMARK SMILES IDX 87 58 52 59 53 60 67 62 88 63 55 64 39 65 40 66 48 67 41 68
REMARK SMILES IDX 42 69 46 70 49 71 43 72 44 73 47 74 45 75 71 76 72 77 80 78
REMARK SMILES IDX 73 79 74 80 78 81 81 82 75 83 76 84 79 85 77 86 56 87 57 88
REMARK SMILES IDX 65 89 58 90 59 91 63 92 66 93 60 94 61 95 64 96 62 97
REMARK H PARENT 20 7 5 17 27 31 86 50 54 61
REMARK Flexibility Score: inf
ROOT
ATOM      1  C   UNL A   1      32.183  29.927  27.166  1.00  0.00     0.002 C 
ENDROOT
BRANCH   1   2
ATOM      2  C   UNL A   1      31.914  28.418  27.034  1.00  0.00     0.021 C 
BRANCH   2   3
ATOM      3  C   UNL A   1      32.534  27.785  25.791  1.00  0.00     0.116 C 
BRANCH   3   4
ATOM      4  N   UNL A   1      33.241  26.576  26.147  1.00  0.00    -0.356 N 
ATOM      5  O   UNL A   1      34.103  26.168  24.091  1.00  0.00    -0.275 OA
ATOM      6  C   UNL A   1      34.027  25.871  25.279  1.00  0.00     0.222 C 
ATOM      7  H   UNL A   1      33.151  26.242  27.068  1.00  0.00     0.163 HD
BRANCH   6   8
ATOM      8  C   UNL A   1      34.651  24.602  25.845  1.00  0.00     0.128 C 
BRANCH   8   9
ATOM      9  C   UNL A   1      35.005  23.387  24.921  1.00  0.00     0.049 C 
ATOM     10  C   UNL A   1      36.314  23.585  24.107  1.00  0.00     0.029 C 
ATOM     11  C   UNL A   1      35.211  22.185  25.907  1.00  0.00     0.029 C 
ATOM     12  C   UNL A   1      36.897  22.314  23.490  1.00  0.00     0.002 C 
ATOM     13  C   UNL A   1      35.860  20.939  25.301  1.00  0.00     0.002 C 
ATOM     14  C   UNL A   1      37.153  21.277  24.574  1.00  0.00     0.000 C 
BRANCH   9  15
ATOM     15  N   UNL A   1      33.952  22.956  23.948  1.00  0.00    -0.346 N 
ATOM     16  C   UNL A   1      32.594  22.875  23.862  1.00  0.00     0.253 C 
ATOM     17  H   UNL A   1      34.368  22.632  23.116  1.00  0.00     0.164 HD
ATOM     18  O   UNL A   1      32.088  22.374  22.859  1.00  0.00    -0.269 OA
BRANCH  16  19
ATOM     19  C   UNL A   1      31.698  23.297  24.931  1.00  0.00     0.061 A 
ATOM     20  C   UNL A   1      31.592  22.458  26.045  1.00  0.00     0.035 A 
ATOM     21  C   UNL A   1      30.883  24.415  24.809  1.00  0.00     0.072 A 
ATOM     22  C   UNL A   1      30.719  22.826  27.050  1.00  0.00     0.112 A 
ATOM     23  C   UNL A   1      30.061  24.707  25.887  1.00  0.00     0.132 A 
ATOM     24  Cl  UNL A   1      30.872  25.426  23.414  1.00  0.00    -0.082 Cl
ATOM     25  N   UNL A   1      29.961  23.940  27.005  1.00  0.00    -0.263 NA
ENDBRANCH  16  19
ENDBRANCH   9  15
ENDBRANCH   8   9
ENDBRANCH   6   8
ENDBRANCH   3   4
ENDBRANCH   2   3
ENDBRANCH   1   2
BRANCH   1  26
ATOM     26  C   UNL A   1      31.503  30.804  26.110  1.00  0.00     0.002 C 
BRANCH  26  27
ATOM     27  C   UNL A   1      31.351  32.273  26.502  1.00  0.00     0.021 C 
BRANCH  27  28
ATOM     28  C   UNL A   1      32.531  32.839  27.282  1.00  0.00     0.116 C 
BRANCH  28  29
ATOM     29  N   UNL A   1      32.321  34.225  27.667  1.00  0.00    -0.352 N 
ATOM     30  C   UNL A   1      32.962  34.964  28.630  1.00  0.00     0.251 C 
ATOM     31  H   UNL A   1      31.619  34.701  27.167  1.00  0.00     0.163 HD
ATOM     32  O   UNL A   1      32.532  36.064  28.953  1.00  0.00    -0.269 OA
BRANCH  30  33
ATOM     33  C   UNL A   1      34.161  34.411  29.293  1.00  0.00     0.039 A 
ATOM     34  C   UNL A   1      33.998  33.697  30.481  1.00  0.00     0.014 A 
ATOM     35  C   UNL A   1      35.435  34.592  28.746  1.00  0.00     0.014 A 
ATOM     36  C   UNL A   1      35.110  33.114  31.089  1.00  0.00     0.010 A 
ATOM     37  C   UNL A   1      36.529  33.940  29.308  1.00  0.00     0.010 A 
ATOM     38  C   UNL A   1      36.378  33.200  30.489  1.00  0.00    -0.014 A 
BRANCH  38  39
ATOM     39  C   UNL A   1      37.540  32.494  31.083  1.00  0.00     0.031 A 
ATOM     40  C   UNL A   1      38.044  32.858  32.451  1.00  0.00     0.074 A 
ATOM     41  C   UNL A   1      38.164  31.541  30.363  1.00  0.00     0.049 A 
ATOM     42  N   UNL A   1      39.021  32.323  33.141  1.00  0.00    -0.248 NA
ATOM     43  C   UNL A   1      37.381  33.984  33.124  1.00  0.00     0.031 C 
ATOM     44  C   UNL A   1      37.808  31.144  29.000  1.00  0.00     0.029 A 
ATOM     45  N   UNL A   1      39.223  30.728  30.680  1.00  0.00    -0.354 N 
ATOM     46  C   UNL A   1      39.094  33.052  34.320  1.00  0.00     0.074 A 
ATOM     47  C   UNL A   1      38.104  34.103  34.228  1.00  0.00     0.031 C 
ATOM     48  C   UNL A   1      38.598  30.132  28.617  1.00  0.00     0.029 A 
ATOM     49  C   UNL A   1      39.542  29.832  29.688  1.00  0.00     0.049 A 
ATOM     50  H   UNL A   1      39.707  30.780  31.535  1.00  0.00     0.167 HD
ATOM     51  C   UNL A   1      39.897  32.847  35.392  1.00  0.00     0.037 A 
ATOM     52  C   UNL A   1      40.486  28.873  29.652  1.00  0.00     0.037 A 
ATOM     53  C   UNL A   1      40.873  31.791  35.480  1.00  0.00     0.049 A 
ATOM     54  C   UNL A   1      41.369  28.673  30.852  1.00  0.00     0.074 A 
ATOM     55  C   UNL A   1      41.683  31.451  36.548  1.00  0.00     0.029 A 
ATOM     56  N   UNL A   1      41.181  30.913  34.451  1.00  0.00    -0.354 N 
ATOM     57  N   UNL A   1      41.364  29.303  32.001  1.00  0.00    -0.248 NA
ATOM     58  C   UNL A   1      42.387  27.619  30.749  1.00  0.00     0.031 C 
ATOM     59  C   UNL A   1      42.528  30.412  36.143  1.00  0.00     0.029 A 
ATOM     60  C   UNL A   1      42.199  30.056  34.845  1.00  0.00     0.049 A 
ATOM     61  H   UNL A   1      40.742  30.899  33.569  1.00  0.00     0.167 HD
ATOM     62  C   UNL A   1      42.358  28.709  32.767  1.00  0.00     0.074 A 
ATOM     63  C   UNL A   1      42.924  27.649  31.959  1.00  0.00     0.031 C 
ATOM     64  C   UNL A   1      42.765  29.014  34.025  1.00  0.00     0.037 A 
BRANCH  51  65
ATOM     65  C   UNL A   1      39.762  33.796  36.552  1.00  0.00     0.064 A 
ATOM     66  C   UNL A   1      38.944  33.506  37.656  1.00  0.00     0.173 A 
ATOM     67  C   UNL A   1      40.477  35.003  36.569  1.00  0.00     0.173 A 
ATOM     68  F   UNL A   1      38.230  32.371  37.689  1.00  0.00    -0.203 F 
ATOM     69  C   UNL A   1      38.817  34.406  38.712  1.00  0.00     0.198 A 
ATOM     70  C   UNL A   1      40.376  35.884  37.643  1.00  0.00     0.198 A 
ATOM     71  F   UNL A   1      41.279  35.330  35.544  1.00  0.00    -0.203 F 
ATOM     72  F   UNL A   1      37.981  34.136  39.725  1.00  0.00    -0.200 F 
ATOM     73  C   UNL A   1      39.538  35.591  38.708  1.00  0.00     0.200 A 
ATOM     74  F   UNL A   1      41.085  37.021  37.644  1.00  0.00    -0.200 F 
ATOM     75  F   UNL A   1      39.418  36.454  39.725  1.00  0.00    -0.200 F 
ENDBRANCH  51  65
BRANCH  52  76
ATOM     76  C   UNL A   1      40.613  28.004  28.453  1.00  0.00     0.064 A 
ATOM     77  C   UNL A   1      41.386  28.406  27.354  1.00  0.00     0.173 A 
ATOM     78  C   UNL A   1      39.973  26.758  28.380  1.00  0.00     0.173 A 
ATOM     79  F   UNL A   1      42.002  29.597  27.368  1.00  0.00    -0.203 F 
ATOM     80  C   UNL A   1      41.496  27.604  26.220  1.00  0.00     0.198 A 
ATOM     81  C   UNL A   1      40.111  25.943  27.258  1.00  0.00     0.198 A 
ATOM     82  F   UNL A   1      39.228  26.323  29.407  1.00  0.00    -0.203 F 
ATOM     83  F   UNL A   1      42.203  28.034  25.165  1.00  0.00    -0.200 F 
ATOM     84  C   UNL A   1      40.865  26.371  26.176  1.00  0.00     0.200 A 
ATOM     85  F   UNL A   1      39.515  24.744  27.227  1.00  0.00    -0.200 F 
ATOM     86  F   UNL A   1      40.978  25.596  25.088  1.00  0.00    -0.200 F 
ENDBRANCH  52  76
BRANCH  64  87
ATOM     87  C   UNL A   1      43.868  28.173  34.606  1.00  0.00     0.064 A 
ATOM     88  C   UNL A   1      45.216  28.553  34.509  1.00  0.00     0.173 A 
ATOM     89  C   UNL A   1      43.573  26.973  35.272  1.00  0.00     0.173 A 
ATOM     90  F   UNL A   1      45.555  29.683  33.871  1.00  0.00    -0.203 F 
ATOM     91  C   UNL A   1      46.228  27.742  35.015  1.00  0.00     0.198 A 
ATOM     92  C   UNL A   1      44.584  26.184  35.811  1.00  0.00     0.198 A 
ATOM     93  F   UNL A   1      42.301  26.565  35.402  1.00  0.00    -0.203 F 
ATOM     94  F   UNL A   1      47.510  28.089  34.846  1.00  0.00    -0.200 F 
ATOM     95  C   UNL A   1      45.911  26.561  35.671  1.00  0.00     0.200 A 
ATOM     96  F   UNL A   1      44.276  25.052  36.459  1.00  0.00    -0.200 F 
ATOM     97  F   UNL A   1      46.887  25.781  36.156  1.00  0.00    -0.200 F 
ENDBRANCH  64  87
ENDBRANCH  38  39
ENDBRANCH  30  33
ENDBRANCH  28  29
ENDBRANCH  27  28
ENDBRANCH  26  27
ENDBRANCH   1  26
TORSDOF 16
ENDMDL
MODEL 2
REMARK VINA RESULT:     -12.0      1.853      3.219
REMARK SMILES O=C(CC1(NC(=O)c2ccncc2Cl)CCCCC1)NCCCCCCNC(=O)c1ccc(-c2c3nc(c(-c4c(F)c(F)c(F)c(F)c4F)c4ccc([nH]4)c(-c4c(F)c(F)c(F)c(F)c4F)c4nc(c(-c5c(F)c(F)c(F)c(F)c5F)c5ccc2[nH]5)C=C4)C=C3)cc1
REMARK SMILES IDX 23 1 22 2 21 3 20 4 1 5 2 6 3 8 4 9 15 10 19 11 16 12 18 13
REMARK SMILES IDX 17 14 5 15 6 16 7 18 8 19 9 20 13 21 10 22 12 23 14 24 11 25
REMARK SMILES IDX 24 26 25 27 26 28 27 29 28 30 29 32 30 33 31 34 92 35 32 36
REMARK SMILES IDX 91 37 33 38 34 39 35 40 85 41 36 42 90 43 84 44 86 45 37 46
REMARK SMILES IDX 89 47 83 48 82 49 38 51 70 52 50 53 69 54 51 55 54 56 68 57
REMARK SMILES IDX 87 58 52 59 53 60 67 62 88 63 55 64 39 65 40 66 48 67 41 68
REMARK SMILES IDX 42 69 46 70 49 71 43 72 44 73 47 74 45 75 71 76 72 77 80 78
REMARK SMILES IDX 73 79 74 80 78 81 81 82 75 83 76 84 79 85 77 86 56 87 57 88
REMARK SMILES IDX 65 89 58 90 59 91 63 92 66 93 60 94 61 95 64 96 62 97
REMARK H PARENT 20 7 5 17 27 31 86 50 54 61
REMARK Flexibility Score: inf
ROOT
ATOM      1  C   UNL A   1      34.983  32.500  28.055  1.00  0.00     0.002 C 
ENDROOT
BRANCH   1   2
ATOM      2  C   UNL A   1      34.016  31.373  27.657  1.00  0.00     0.021 C 
BRANCH   2   3
ATOM      3  C   UNL A   1      34.595  29.971  27.824  1.00  0.00     0.116 C 
BRANCH   3   4
ATOM      4  N   UNL A   1      33.586  28.977  27.541  1.00  0.00    -0.356 N 
ATOM      5  O   UNL A   1      34.264  28.516  25.428  1.00  0.00    -0.275 OA
ATOM      6  C   UNL A   1      33.519  28.273  26.372  1.00  0.00     0.222 C 
ATOM      7  H   UNL A   1      32.907  28.797  28.231  1.00  0.00     0.163 HD
BRANCH   6   8
ATOM      8  C   UNL A   1      32.351  27.301  26.259  1.00  0.00     0.128 C 
BRANCH   8   9
ATOM      9  C   UNL A   1      31.625  27.055  24.893  1.00  0.00     0.049 C 
ATOM     10  C   UNL A   1      30.466  26.023  24.981  1.00  0.00     0.029 C 
ATOM     11  C   UNL A   1      31.020  28.449  24.508  1.00  0.00     0.029 C 
ATOM     12  C   UNL A   1      29.501  26.022  23.796  1.00  0.00     0.002 C 
ATOM     13  C   UNL A   1      30.001  28.432  23.366  1.00  0.00     0.002 C 
ATOM     14  C   UNL A   1      28.902  27.408  23.609  1.00  0.00     0.000 C 
BRANCH   9  15
ATOM     15  N   UNL A   1      32.486  26.638  23.742  1.00  0.00    -0.346 N 
ATOM     16  C   UNL A   1      33.359  25.644  23.409  1.00  0.00     0.253 C 
ATOM     17  H   UNL A   1      32.395  27.276  22.997  1.00  0.00     0.164 HD
ATOM     18  O   UNL A   1      33.943  25.700  22.328  1.00  0.00    -0.269 OA
BRANCH  16  19
ATOM     19  C   UNL A   1      33.692  24.540  24.301  1.00  0.00     0.061 A 
ATOM     20  C   UNL A   1      34.805  24.701  25.131  1.00  0.00     0.035 A 
ATOM     21  C   UNL A   1      33.018  23.326  24.249  1.00  0.00     0.072 A 
ATOM     22  C   UNL A   1      35.154  23.649  25.954  1.00  0.00     0.112 A 
ATOM     23  C   UNL A   1      33.435  22.345  25.136  1.00  0.00     0.132 A 
ATOM     24  Cl  UNL A   1      31.715  23.016  23.165  1.00  0.00    -0.082 Cl
ATOM     25  N   UNL A   1      34.485  22.478  25.988  1.00  0.00    -0.263 NA
ENDBRANCH  16  19
ENDBRANCH   9  15
ENDBRANCH   8   9
ENDBRANCH   6   8
ENDBRANCH   3   4
ENDBRANCH   2   3
ENDBRANCH   1   2
BRANCH   1  26
ATOM     26  C   UNL A   1      34.522  33.370  29.229  1.00  0.00     0.002 C 
BRANCH  26  27
ATOM     27  C   UNL A   1      33.369  34.320  28.905  1.00  0.00     0.021 C 
BRANCH  27  28
ATOM     28  C   UNL A   1      33.484  35.691  29.560  1.00  0.00     0.116 C 
BRANCH  28  29
ATOM     29  N   UNL A   1      32.552  35.851  30.665  1.00  0.00    -0.352 N 
ATOM     30  C   UNL A   1      32.646  35.387  31.953  1.00  0.00     0.251 C 
ATOM     31  H   UNL A   1      31.737  36.365  30.460  1.00  0.00     0.163 HD
ATOM     32  O   UNL A   1      31.682  35.452  32.705  1.00  0.00    -0.269 OA
BRANCH  30  33
ATOM     33  C   UNL A   1      33.912  34.784  32.418  1.00  0.00     0.039 A 
ATOM     34  C   UNL A   1      33.889  33.480  32.913  1.00  0.00     0.014 A 
ATOM     35  C   UNL A   1      35.113  35.498  32.362  1.00  0.00     0.014 A 
ATOM     36  C   UNL A   1      35.083  32.870  33.299  1.00  0.00     0.010 A 
ATOM     37  C   UNL A   1      36.312  34.860  32.669  1.00  0.00     0.010 A 
ATOM     38  C   UNL A   1      36.308  33.542  33.146  1.00  0.00    -0.014 A 
BRANCH  38  39
ATOM     39  C   UNL A   1      37.586  32.856  33.461  1.00  0.00     0.031 A 
ATOM     40  C   UNL A   1      38.329  33.160  34.730  1.00  0.00     0.074 A 
ATOM     41  C   UNL A   1      38.092  31.978  32.573  1.00  0.00     0.049 A 
ATOM     42  N   UNL A   1      39.438  32.632  35.185  1.00  0.00    -0.248 NA
ATOM     43  C   UNL A   1      37.769  34.213  35.591  1.00  0.00     0.031 C 
ATOM     44  C   UNL A   1      37.495  31.647  31.278  1.00  0.00     0.029 A 
ATOM     45  N   UNL A   1      39.219  31.197  32.629  1.00  0.00    -0.354 N 
ATOM     46  C   UNL A   1      39.710  33.291  36.377  1.00  0.00     0.074 A 
ATOM     47  C   UNL A   1      38.685  34.299  36.544  1.00  0.00     0.031 C 
ATOM     48  C   UNL A   1      38.231  30.696  30.686  1.00  0.00     0.029 A 
ATOM     49  C   UNL A   1      39.373  30.378  31.537  1.00  0.00     0.049 A 
ATOM     50  H   UNL A   1      39.856  31.220  33.379  1.00  0.00     0.167 HD
ATOM     51  C   UNL A   1      40.709  33.060  37.261  1.00  0.00     0.037 A 
ATOM     52  C   UNL A   1      40.324  29.468  31.259  1.00  0.00     0.037 A 
ATOM     53  C   UNL A   1      41.719  32.047  37.092  1.00  0.00     0.049 A 
ATOM     54  C   UNL A   1      41.427  29.237  32.254  1.00  0.00     0.074 A 
ATOM     55  C   UNL A   1      42.730  31.682  37.962  1.00  0.00     0.029 A 
ATOM     56  N   UNL A   1      41.855  31.247  35.967  1.00  0.00    -0.354 N 
ATOM     57  N   UNL A   1      41.621  29.796  33.424  1.00  0.00    -0.248 NA
ATOM     58  C   UNL A   1      42.442  28.239  31.890  1.00  0.00     0.031 C 
ATOM     59  C   UNL A   1      43.517  30.708  37.337  1.00  0.00     0.029 A 
ATOM     60  C   UNL A   1      42.958  30.416  36.103  1.00  0.00     0.049 A 
ATOM     61  H   UNL A   1      41.256  31.265  35.185  1.00  0.00     0.167 HD
ATOM     62  C   UNL A   1      42.762  29.204  33.947  1.00  0.00     0.074 A 
ATOM     63  C   UNL A   1      43.199  28.222  32.976  1.00  0.00     0.031 C 
ATOM     64  C   UNL A   1      43.391  29.452  35.122  1.00  0.00     0.037 A 
BRANCH  51  65
ATOM     65  C   UNL A   1      40.767  33.930  38.487  1.00  0.00     0.064 A 
ATOM     66  C   UNL A   1      40.079  33.599  39.666  1.00  0.00     0.173 A 
ATOM     67  C   UNL A   1      41.538  35.103  38.490  1.00  0.00     0.173 A 
ATOM     68  F   UNL A   1      39.319  32.495  39.717  1.00  0.00    -0.203 F 
ATOM     69  C   UNL A   1      40.128  34.428  40.784  1.00  0.00     0.198 A 
ATOM     70  C   UNL A   1      41.614  35.911  39.622  1.00  0.00     0.198 A 
ATOM     71  F   UNL A   1      42.222  35.467  37.395  1.00  0.00    -0.203 F 
ATOM     72  F   UNL A   1      39.413  34.122  41.876  1.00  0.00    -0.200 F 
ATOM     73  C   UNL A   1      40.901  35.579  40.764  1.00  0.00     0.200 A 
ATOM     74  F   UNL A   1      42.374  37.015  39.606  1.00  0.00    -0.200 F 
ATOM     75  F   UNL A   1      40.951  36.374  41.841  1.00  0.00    -0.200 F 
ENDBRANCH  51  65
BRANCH  52  76
ATOM     76  C   UNL A   1      40.250  28.678  30.002  1.00  0.00     0.064 A 
ATOM     77  C   UNL A   1      40.854  29.143  28.825  1.00  0.00     0.173 A 
ATOM     78  C   UNL A   1      39.579  27.447  29.948  1.00  0.00     0.173 A 
ATOM     79  F   UNL A   1      41.491  30.323  28.821  1.00  0.00    -0.203 F 
ATOM     80  C   UNL A   1      40.774  28.417  27.639  1.00  0.00     0.198 A 
ATOM     81  C   UNL A   1      39.527  26.707  28.769  1.00  0.00     0.198 A 
ATOM     82  F   UNL A   1      38.990  26.954  31.047  1.00  0.00    -0.203 F 
ATOM     83  F   UNL A   1      41.322  28.907  26.518  1.00  0.00    -0.200 F 
ATOM     84  C   UNL A   1      40.118  27.196  27.613  1.00  0.00     0.200 A 
ATOM     85  F   UNL A   1      38.908  25.519  28.753  1.00  0.00    -0.200 F 
ATOM     86  F   UNL A   1      40.047  26.494  26.474  1.00  0.00    -0.200 F 
ENDBRANCH  52  76
BRANCH  64  87
ATOM     87  C   UNL A   1      44.613  28.630  35.427  1.00  0.00     0.064 A 
ATOM     88  C   UNL A   1      45.900  29.056  35.062  1.00  0.00     0.173 A 
ATOM     89  C   UNL A   1      44.496  27.401  36.095  1.00  0.00     0.173 A 
ATOM     90  F   UNL A   1      46.068  30.216  34.409  1.00  0.00    -0.203 F 
ATOM     91  C   UNL A   1      47.016  28.262  35.314  1.00  0.00     0.198 A 
ATOM     92  C   UNL A   1      45.618  26.629  36.380  1.00  0.00     0.198 A 
ATOM     93  F   UNL A   1      43.292  26.949  36.476  1.00  0.00    -0.203 F 
ATOM     94  F   UNL A   1      48.225  28.656  34.891  1.00  0.00    -0.200 F 
ATOM     95  C   UNL A   1      46.876  27.053  35.978  1.00  0.00     0.200 A 
ATOM     96  F   UNL A   1      45.483  25.468  37.037  1.00  0.00    -0.200 F 
ATOM     97  F   UNL A   1      47.951  26.290  36.217  1.00  0.00    -0.200 F 
ENDBRANCH  64  87
ENDBRANCH  38  39
ENDBRANCH  30  33
ENDBRANCH  28  29
ENDBRANCH  27  28
ENDBRANCH  26  27
ENDBRANCH   1  26
TORSDOF 16
ENDMDL
MODEL 3
REMARK VINA RESULT:     -12.0      5.957     11.305
REMARK SMILES O=C(CC1(NC(=O)c2ccncc2Cl)CCCCC1)NCCCCCCNC(=O)c1ccc(-c2c3nc(c(-c4c(F)c(F)c(F)c(F)c4F)c4ccc([nH]4)c(-c4c(F)c(F)c(F)c(F)c4F)c4nc(c(-c5c(F)c(F)c(F)c(F)c5F)c5ccc2[nH]5)C=C4)C=C3)cc1
REMARK SMILES IDX 23 1 22 2 21 3 20 4 1 5 2 6 3 8 4 9 15 10 19 11 16 12 18 13
REMARK SMILES IDX 17 14 5 15 6 16 7 18 8 19 9 20 13 21 10 22 12 23 14 24 11 25
REMARK SMILES IDX 24 26 25 27 26 28 27 29 28 30 29 32 30 33 31 34 92 35 32 36
REMARK SMILES IDX 91 37 33 38 34 39 35 40 85 41 36 42 90 43 84 44 86 45 37 46
REMARK SMILES IDX 89 47 83 48 82 49 38 51 70 52 50 53 69 54 51 55 54 56 68 57
REMARK SMILES IDX 87 58 52 59 53 60 67 62 88 63 55 64 39 65 40 66 48 67 41 68
REMARK SMILES IDX 42 69 46 70 49 71 43 72 44 73 47 74 45 75 71 76 72 77 80 78
REMARK SMILES IDX 73 79 74 80 78 81 81 82 75 83 76 84 79 85 77 86 56 87 57 88
REMARK SMILES IDX 65 89 58 90 59 91 63 92 66 93 60 94 61 95 64 96 62 97
REMARK H PARENT 20 7 5 17 27 31 86 50 54 61
REMARK Flexibility Score: inf
ROOT
ATOM      1  C   UNL A   1      41.378  21.785  26.506  1.00  0.00     0.002 C 
ENDROOT
BRANCH   1   2
ATOM      2  C   UNL A   1      39.964  22.373  26.652  1.00  0.00     0.021 C 
BRANCH   2   3
ATOM      3  C   UNL A   1      38.888  21.593  25.901  1.00  0.00     0.116 C 
BRANCH   3   4
ATOM      4  N   UNL A   1      37.599  22.221  26.082  1.00  0.00    -0.356 N 
ATOM      5  O   UNL A   1      37.004  22.221  23.895  1.00  0.00    -0.275 OA
ATOM      6  C   UNL A   1      36.715  22.448  25.066  1.00  0.00     0.222 C 
ATOM      7  H   UNL A   1      37.345  22.503  26.990  1.00  0.00     0.163 HD
BRANCH   6   8
ATOM      8  C   UNL A   1      35.428  23.160  25.464  1.00  0.00     0.128 C 
BRANCH   8   9
ATOM      9  C   UNL A   1      34.033  22.461  25.323  1.00  0.00     0.049 C 
ATOM     10  C   UNL A   1      33.506  22.414  23.862  1.00  0.00     0.029 C 
ATOM     11  C   UNL A   1      34.274  20.991  25.811  1.00  0.00     0.029 C 
ATOM     12  C   UNL A   1      32.357  21.436  23.613  1.00  0.00     0.002 C 
ATOM     13  C   UNL A   1      33.151  20.000  25.497  1.00  0.00     0.002 C 
ATOM     14  C   UNL A   1      32.770  20.031  24.024  1.00  0.00     0.000 C 
BRANCH   9  15
ATOM     15  N   UNL A   1      32.922  23.006  26.164  1.00  0.00    -0.346 N 
ATOM     16  C   UNL A   1      32.215  24.162  26.323  1.00  0.00     0.253 C 
ATOM     17  H   UNL A   1      32.605  22.322  26.798  1.00  0.00     0.164 HD
ATOM     18  O   UNL A   1      31.378  24.231  27.222  1.00  0.00    -0.269 OA
BRANCH  16  19
ATOM     19  C   UNL A   1      32.442  25.355  25.517  1.00  0.00     0.061 A 
ATOM     20  C   UNL A   1      33.342  26.301  26.016  1.00  0.00     0.035 A 
ATOM     21  C   UNL A   1      31.709  25.614  24.366  1.00  0.00     0.072 A 
ATOM     22  C   UNL A   1      33.539  27.455  25.283  1.00  0.00     0.112 A 
ATOM     23  C   UNL A   1      32.004  26.791  23.692  1.00  0.00     0.132 A 
ATOM     24  Cl  UNL A   1      30.497  24.550  23.759  1.00  0.00    -0.082 Cl
ATOM     25  N   UNL A   1      32.902  27.716  24.122  1.00  0.00    -0.263 NA
ENDBRANCH  16  19
ENDBRANCH   9  15
ENDBRANCH   8   9
ENDBRANCH   6   8
ENDBRANCH   3   4
ENDBRANCH   2   3
ENDBRANCH   1   2
BRANCH   1  26
ATOM     26  C   UNL A   1      41.560  20.379  27.085  1.00  0.00     0.002 C 
BRANCH  26  27
ATOM     27  C   UNL A   1      41.902  19.303  26.055  1.00  0.00     0.021 C 
BRANCH  27  28
ATOM     28  C   UNL A   1      43.316  18.749  26.173  1.00  0.00     0.116 C 
BRANCH  28  29
ATOM     29  N   UNL A   1      43.995  18.697  24.888  1.00  0.00    -0.352 N 
ATOM     30  C   UNL A   1      44.499  19.725  24.132  1.00  0.00     0.251 C 
ATOM     31  H   UNL A   1      44.108  17.797  24.506  1.00  0.00     0.163 HD
ATOM     32  O   UNL A   1      44.874  19.523  22.984  1.00  0.00    -0.269 OA
BRANCH  30  33
ATOM     33  C   UNL A   1      44.564  21.086  24.705  1.00  0.00     0.039 A 
ATOM     34  C   UNL A   1      45.158  21.258  25.955  1.00  0.00     0.014 A 
ATOM     35  C   UNL A   1      44.046  22.185  24.011  1.00  0.00     0.014 A 
ATOM     36  C   UNL A   1      45.285  22.542  26.486  1.00  0.00     0.010 A 
ATOM     37  C   UNL A   1      44.248  23.471  24.503  1.00  0.00     0.010 A 
ATOM     38  C   UNL A   1      44.864  23.662  25.748  1.00  0.00    -0.014 A 
BRANCH  38  39
ATOM     39  C   UNL A   1      45.092  25.033  26.267  1.00  0.00     0.031 A 
ATOM     40  C   UNL A   1      46.452  25.666  26.196  1.00  0.00     0.074 A 
ATOM     41  C   UNL A   1      44.066  25.695  26.837  1.00  0.00     0.049 A 
ATOM     42  N   UNL A   1      46.825  26.867  26.566  1.00  0.00    -0.248 NA
ATOM     43  C   UNL A   1      47.543  24.837  25.664  1.00  0.00     0.031 C 
ATOM     44  C   UNL A   1      42.715  25.161  27.021  1.00  0.00     0.029 A 
ATOM     45  N   UNL A   1      43.996  26.962  27.360  1.00  0.00    -0.354 N 
ATOM     46  C   UNL A   1      48.190  26.931  26.319  1.00  0.00     0.074 A 
ATOM     47  C   UNL A   1      48.591  25.631  25.825  1.00  0.00     0.031 C 
ATOM     48  C   UNL A   1      41.939  26.108  27.566  1.00  0.00     0.029 A 
ATOM     49  C   UNL A   1      42.743  27.302  27.808  1.00  0.00     0.049 A 
ATOM     50  H   UNL A   1      44.769  27.569  27.408  1.00  0.00     0.167 HD
ATOM     51  C   UNL A   1      49.027  27.986  26.468  1.00  0.00     0.037 A 
ATOM     52  C   UNL A   1      42.293  28.451  28.346  1.00  0.00     0.037 A 
ATOM     53  C   UNL A   1      48.617  29.280  26.950  1.00  0.00     0.049 A 
ATOM     54  C   UNL A   1      43.245  29.603  28.508  1.00  0.00     0.074 A 
ATOM     55  C   UNL A   1      49.368  30.436  27.068  1.00  0.00     0.029 A 
ATOM     56  N   UNL A   1      47.343  29.585  27.411  1.00  0.00    -0.354 N 
ATOM     57  N   UNL A   1      44.511  29.686  28.179  1.00  0.00    -0.248 NA
ATOM     58  C   UNL A   1      42.698  30.826  29.111  1.00  0.00     0.031 C 
ATOM     59  C   UNL A   1      48.569  31.420  27.662  1.00  0.00     0.029 A 
ATOM     60  C   UNL A   1      47.299  30.899  27.852  1.00  0.00     0.049 A 
ATOM     61  H   UNL A   1      46.582  28.960  27.423  1.00  0.00     0.167 HD
ATOM     62  C   UNL A   1      44.908  30.975  28.512  1.00  0.00     0.074 A 
ATOM     63  C   UNL A   1      43.738  31.644  29.041  1.00  0.00     0.031 C 
ATOM     64  C   UNL A   1      46.130  31.550  28.391  1.00  0.00     0.037 A 
BRANCH  51  65
ATOM     65  C   UNL A   1      50.475  27.779  26.117  1.00  0.00     0.064 A 
ATOM     66  C   UNL A   1      50.940  27.877  24.796  1.00  0.00     0.173 A 
ATOM     67  C   UNL A   1      51.415  27.498  27.121  1.00  0.00     0.173 A 
ATOM     68  F   UNL A   1      50.084  28.133  23.795  1.00  0.00    -0.203 F 
ATOM     69  C   UNL A   1      52.281  27.661  24.489  1.00  0.00     0.198 A 
ATOM     70  C   UNL A   1      52.762  27.319  26.815  1.00  0.00     0.198 A 
ATOM     71  F   UNL A   1      51.030  27.399  28.402  1.00  0.00    -0.203 F 
ATOM     72  F   UNL A   1      52.690  27.698  23.212  1.00  0.00    -0.200 F 
ATOM     73  C   UNL A   1      53.192  27.390  25.498  1.00  0.00     0.200 A 
ATOM     74  F   UNL A   1      53.643  27.072  27.793  1.00  0.00    -0.200 F 
ATOM     75  F   UNL A   1      54.483  27.187  25.202  1.00  0.00    -0.200 F 
ENDBRANCH  51  65
BRANCH  52  76
ATOM     76  C   UNL A   1      40.863  28.578  28.731  1.00  0.00     0.064 A 
ATOM     77  C   UNL A   1      40.436  28.251  30.025  1.00  0.00     0.173 A 
ATOM     78  C   UNL A   1      39.897  29.031  27.820  1.00  0.00     0.173 A 
ATOM     79  F   UNL A   1      41.318  27.796  30.926  1.00  0.00    -0.203 F 
ATOM     80  C   UNL A   1      39.095  28.352  30.388  1.00  0.00     0.198 A 
ATOM     81  C   UNL A   1      38.561  29.162  28.194  1.00  0.00     0.198 A 
ATOM     82  F   UNL A   1      40.254  29.364  26.571  1.00  0.00    -0.203 F 
ATOM     83  F   UNL A   1      38.707  27.988  31.618  1.00  0.00    -0.200 F 
ATOM     84  C   UNL A   1      38.160  28.814  29.475  1.00  0.00     0.200 A 
ATOM     85  F   UNL A   1      37.664  29.627  27.314  1.00  0.00    -0.200 F 
ATOM     86  F   UNL A   1      36.871  28.920  29.826  1.00  0.00    -0.200 F 
ENDBRANCH  52  76
BRANCH  64  87
ATOM     87  C   UNL A   1      46.253  32.984  28.826  1.00  0.00     0.064 A 
ATOM     88  C   UNL A   1      46.015  34.048  27.941  1.00  0.00     0.173 A 
ATOM     89  C   UNL A   1      46.611  33.300  30.146  1.00  0.00     0.173 A 
ATOM     90  F   UNL A   1      45.684  33.802  26.664  1.00  0.00    -0.203 F 
ATOM     91  C   UNL A   1      46.175  35.369  28.348  1.00  0.00     0.198 A 
ATOM     92  C   UNL A   1      46.732  34.623  30.560  1.00  0.00     0.198 A 
ATOM     93  F   UNL A   1      46.842  32.324  31.037  1.00  0.00    -0.203 F 
ATOM     94  F   UNL A   1      46.013  36.365  27.466  1.00  0.00    -0.200 F 
ATOM     95  C   UNL A   1      46.527  35.657  29.659  1.00  0.00     0.200 A 
ATOM     96  F   UNL A   1      47.056  34.900  31.831  1.00  0.00    -0.200 F 
ATOM     97  F   UNL A   1      46.683  36.929  30.048  1.00  0.00    -0.200 F 
ENDBRANCH  64  87
ENDBRANCH  38  39
ENDBRANCH  30  33
ENDBRANCH  28  29
ENDBRANCH  27  28
ENDBRANCH  26  27
ENDBRANCH   1  26
TORSDOF 16
ENDMDL
