MODEL 1
REMARK VINA RESULT:     -12.0      0.000      0.000
REMARK SMILES O=C(NCCCCCCNC(=O)c1cc(N2CCN(c3ccc(F)cc3)CC2)ccc1NC(=O)C1CCCC1)c1ccc(-c2c3nc(c(-c4c(F)c(F)c(F)c(F)c4F)c4ccc([nH]4)c(-c4c(F)c(F)c(F)c(F)c4F)c4nc(c(-c5c(F)c(F)c(F)c(F)c5F)c5ccc2[nH]5)C=C4)C=C3)cc1
REMARK SMILES IDX 6 1 5 2 4 3 3 4 1 5 2 6 40 8 41 9 102 10 42 11 101 12 43 13
REMARK SMILES IDX 44 14 45 15 95 16 46 17 100 18 94 19 96 20 47 21 99 22 93 23
REMARK SMILES IDX 92 24 48 26 80 27 60 28 79 29 61 30 64 31 78 32 97 33 62 34
REMARK SMILES IDX 63 35 77 37 98 38 65 39 49 40 50 41 58 42 51 43 52 44 56 45
REMARK SMILES IDX 59 46 53 47 54 48 57 49 55 50 81 51 82 52 90 53 83 54 84 55
REMARK SMILES IDX 88 56 91 57 85 58 86 59 89 60 87 61 66 62 67 63 75 64 68 65
REMARK SMILES IDX 69 66 73 67 76 68 70 69 71 70 74 71 72 72 7 73 8 74 9 75
REMARK SMILES IDX 10 76 11 77 12 79 13 80 14 81 31 82 15 83 30 84 29 85 32 86
REMARK SMILES IDX 33 87 34 89 35 90 36 91 39 92 37 93 38 94 16 95 17 96 28 97
REMARK SMILES IDX 18 98 27 99 19 100 20 101 21 102 26 103 22 104 25 105 23 106
REMARK SMILES IDX 24 107
REMARK H PARENT 3 7 96 25 64 36 10 78 32 88
REMARK Flexibility Score: inf
ROOT
ATOM      1  C   UNL A   1      46.118  26.204  39.117  1.00  0.00     0.002 C 
ENDROOT
BRANCH   1   2
ATOM      2  C   UNL A   1      47.331  27.089  39.391  1.00  0.00     0.021 C 
BRANCH   2   3
ATOM      3  C   UNL A   1      47.819  27.887  38.192  1.00  0.00     0.116 C 
BRANCH   3   4
ATOM      4  N   UNL A   1      48.638  27.099  37.289  1.00  0.00    -0.352 N 
ATOM      5  O   UNL A   1      49.068  25.873  35.439  1.00  0.00    -0.269 OA
ATOM      6  C   UNL A   1      48.335  26.658  36.022  1.00  0.00     0.251 C 
ATOM      7  H   UNL A   1      49.527  26.846  37.627  1.00  0.00     0.163 HD
BRANCH   6   8
ATOM      8  C   UNL A   1      47.096  27.139  35.372  1.00  0.00     0.039 A 
ATOM      9  C   UNL A   1      47.089  28.352  34.678  1.00  0.00     0.014 A 
ATOM     10  C   UNL A   1      45.938  26.363  35.448  1.00  0.00     0.014 A 
ATOM     11  C   UNL A   1      45.900  28.845  34.158  1.00  0.00     0.010 A 
ATOM     12  C   UNL A   1      44.761  26.816  34.844  1.00  0.00     0.010 A 
ATOM     13  C   UNL A   1      44.734  28.063  34.199  1.00  0.00    -0.014 A 
BRANCH  13  14
ATOM     14  C   UNL A   1      43.546  28.507  33.431  1.00  0.00     0.031 A 
ATOM     15  C   UNL A   1      43.332  28.101  32.003  1.00  0.00     0.074 A 
ATOM     16  C   UNL A   1      42.653  29.297  34.061  1.00  0.00     0.049 A 
ATOM     17  N   UNL A   1      42.352  28.426  31.198  1.00  0.00    -0.248 NA
ATOM     18  C   UNL A   1      44.344  27.226  31.393  1.00  0.00     0.031 C 
ATOM     19  C   UNL A   1      42.779  29.768  35.444  1.00  0.00     0.029 A 
ATOM     20  N   UNL A   1      41.472  29.843  33.634  1.00  0.00    -0.354 N 
ATOM     21  C   UNL A   1      42.635  27.814  29.984  1.00  0.00     0.074 A 
ATOM     22  C   UNL A   1      43.887  27.107  30.151  1.00  0.00     0.031 C 
ATOM     23  C   UNL A   1      41.706  30.504  35.760  1.00  0.00     0.029 A 
ATOM     24  C   UNL A   1      40.856  30.622  34.584  1.00  0.00     0.049 A 
ATOM     25  H   UNL A   1      41.100  29.693  32.735  1.00  0.00     0.167 HD
ATOM     26  C   UNL A   1      41.909  27.846  28.841  1.00  0.00     0.037 A 
ATOM     27  C   UNL A   1      39.749  31.381  34.506  1.00  0.00     0.037 A 
ATOM     28  C   UNL A   1      40.653  28.541  28.697  1.00  0.00     0.049 A 
ATOM     29  C   UNL A   1      38.991  31.419  33.210  1.00  0.00     0.074 A 
ATOM     30  C   UNL A   1      39.806  28.571  27.602  1.00  0.00     0.029 A 
ATOM     31  N   UNL A   1      40.072  29.341  29.671  1.00  0.00    -0.354 N 
ATOM     32  N   UNL A   1      39.230  30.777  32.094  1.00  0.00    -0.248 NA
ATOM     33  C   UNL A   1      37.811  32.293  33.161  1.00  0.00     0.031 C 
ATOM     34  C   UNL A   1      38.750  29.439  27.888  1.00  0.00     0.029 A 
ATOM     35  C   UNL A   1      38.903  29.903  29.184  1.00  0.00     0.049 A 
ATOM     36  H   UNL A   1      40.437  29.486  30.575  1.00  0.00     0.167 HD
ATOM     37  C   UNL A   1      38.228  31.157  31.215  1.00  0.00     0.074 A 
ATOM     38  C   UNL A   1      37.357  32.060  31.939  1.00  0.00     0.031 C 
ATOM     39  C   UNL A   1      38.051  30.803  29.919  1.00  0.00     0.037 A 
BRANCH  26  40
ATOM     40  C   UNL A   1      42.442  27.130  27.634  1.00  0.00     0.064 A 
ATOM     41  C   UNL A   1      43.376  27.724  26.774  1.00  0.00     0.173 A 
ATOM     42  C   UNL A   1      42.098  25.787  27.404  1.00  0.00     0.173 A 
ATOM     43  F   UNL A   1      43.735  29.005  26.947  1.00  0.00    -0.203 F 
ATOM     44  C   UNL A   1      43.944  27.001  25.726  1.00  0.00     0.198 A 
ATOM     45  C   UNL A   1      42.686  25.062  26.372  1.00  0.00     0.198 A 
ATOM     46  F   UNL A   1      41.216  25.169  28.204  1.00  0.00    -0.203 F 
ATOM     47  F   UNL A   1      44.823  27.593  24.905  1.00  0.00    -0.200 F 
ATOM     48  C   UNL A   1      43.608  25.669  25.533  1.00  0.00     0.200 A 
ATOM     49  F   UNL A   1      42.374  23.770  26.200  1.00  0.00    -0.200 F 
ATOM     50  F   UNL A   1      44.175  24.969  24.542  1.00  0.00    -0.200 F 
ENDBRANCH  26  40
BRANCH  27  51
ATOM     51  C   UNL A   1      39.321  32.201  35.670  1.00  0.00     0.064 A 
ATOM     52  C   UNL A   1      38.388  31.718  36.596  1.00  0.00     0.173 A 
ATOM     53  C   UNL A   1      39.819  33.499  35.864  1.00  0.00     0.173 A 
ATOM     54  F   UNL A   1      37.869  30.490  36.445  1.00  0.00    -0.203 F 
ATOM     55  C   UNL A   1      37.942  32.513  37.650  1.00  0.00     0.198 A 
ATOM     56  C   UNL A   1      39.403  34.278  36.940  1.00  0.00     0.198 A 
ATOM     57  F   UNL A   1      40.720  34.009  35.012  1.00  0.00    -0.203 F 
ATOM     58  F   UNL A   1      36.999  32.049  38.482  1.00  0.00    -0.200 F 
ATOM     59  C   UNL A   1      38.453  33.790  37.824  1.00  0.00     0.200 A 
ATOM     60  F   UNL A   1      39.916  35.504  37.115  1.00  0.00    -0.200 F 
ATOM     61  F   UNL A   1      38.022  34.555  38.836  1.00  0.00    -0.200 F 
ENDBRANCH  27  51
BRANCH  39  62
ATOM     62  C   UNL A   1      36.861  31.384  29.211  1.00  0.00     0.064 A 
ATOM     63  C   UNL A   1      35.737  30.602  28.907  1.00  0.00     0.173 A 
ATOM     64  C   UNL A   1      36.836  32.741  28.855  1.00  0.00     0.173 A 
ATOM     65  F   UNL A   1      35.721  29.295  29.209  1.00  0.00    -0.203 F 
ATOM     66  C   UNL A   1      34.643  31.151  28.246  1.00  0.00     0.198 A 
ATOM     67  C   UNL A   1      35.725  33.294  28.225  1.00  0.00     0.198 A 
ATOM     68  F   UNL A   1      37.884  33.532  29.128  1.00  0.00    -0.203 F 
ATOM     69  F   UNL A   1      33.603  30.373  27.915  1.00  0.00    -0.200 F 
ATOM     70  C   UNL A   1      34.634  32.497  27.913  1.00  0.00     0.200 A 
ATOM     71  F   UNL A   1      35.712  34.599  27.918  1.00  0.00    -0.200 F 
ATOM     72  F   UNL A   1      33.576  33.027  27.283  1.00  0.00    -0.200 F 
ENDBRANCH  39  62
ENDBRANCH  13  14
ENDBRANCH   6   8
ENDBRANCH   3   4
ENDBRANCH   2   3
ENDBRANCH   1   2
BRANCH   1  73
ATOM     73  C   UNL A   1      46.374  24.694  39.180  1.00  0.00     0.002 C 
BRANCH  73  74
ATOM     74  C   UNL A   1      45.263  23.846  39.813  1.00  0.00     0.021 C 
BRANCH  74  75
ATOM     75  C   UNL A   1      45.640  22.397  40.106  1.00  0.00     0.116 C 
BRANCH  75  76
ATOM     76  N   UNL A   1      47.018  22.108  39.754  1.00  0.00    -0.352 N 
ATOM     77  C   UNL A   1      47.552  21.067  39.043  1.00  0.00     0.253 C 
ATOM     78  H   UNL A   1      47.675  22.767  40.080  1.00  0.00     0.163 HD
ATOM     79  O   UNL A   1      48.771  20.916  39.033  1.00  0.00    -0.269 OA
BRANCH  77  80
ATOM     80  C   UNL A   1      46.699  20.131  38.271  1.00  0.00     0.065 A 
ATOM     81  C   UNL A   1      46.129  19.073  39.014  1.00  0.00     0.042 A 
ATOM     82  C   UNL A   1      46.564  20.188  36.866  1.00  0.00     0.054 A 
ATOM     83  C   UNL A   1      45.437  18.035  38.387  1.00  0.00     0.038 A 
ATOM     84  C   UNL A   1      45.859  19.149  36.263  1.00  0.00     0.029 A 
ATOM     85  C   UNL A   1      45.294  18.111  37.006  1.00  0.00     0.028 A 
BRANCH  82  86
ATOM     86  N   UNL A   1      47.158  21.247  36.138  1.00  0.00    -0.325 N 
ATOM     87  C   UNL A   1      46.663  22.290  35.399  1.00  0.00     0.227 C 
ATOM     88  H   UNL A   1      48.143  21.231  36.169  1.00  0.00     0.169 HD
ATOM     89  O   UNL A   1      47.460  23.154  35.022  1.00  0.00    -0.274 OA
BRANCH  87  90
ATOM     90  C   UNL A   1      45.192  22.389  35.066  1.00  0.00     0.079 C 
ATOM     91  C   UNL A   1      44.341  23.289  35.955  1.00  0.00     0.013 C 
ATOM     92  C   UNL A   1      45.005  23.055  33.702  1.00  0.00     0.013 C 
ATOM     93  C   UNL A   1      43.066  23.426  35.124  1.00  0.00     0.001 C 
ATOM     94  C   UNL A   1      43.532  23.447  33.667  1.00  0.00     0.001 C 
ENDBRANCH  87  90
ENDBRANCH  82  86
BRANCH  83  95
ATOM     95  N   UNL A   1      45.027  16.923  39.085  1.00  0.00    -0.368 N 
ATOM     96  C   UNL A   1      45.468  16.665  40.467  1.00  0.00     0.138 C 
ATOM     97  C   UNL A   1      43.802  16.220  38.664  1.00  0.00     0.138 C 
ATOM     98  C   UNL A   1      44.302  16.845  41.484  1.00  0.00     0.138 C 
ATOM     99  C   UNL A   1      42.653  16.459  39.659  1.00  0.00     0.138 C 
ATOM    100  N   UNL A   1      43.075  16.155  41.034  1.00  0.00    -0.368 N 
BRANCH 100 101
ATOM    101  C   UNL A   1      42.632  15.017  41.675  1.00  0.00     0.037 A 
ATOM    102  C   UNL A   1      42.869  14.844  43.047  1.00  0.00     0.029 A 
ATOM    103  C   UNL A   1      41.900  14.020  41.010  1.00  0.00     0.029 A 
ATOM    104  C   UNL A   1      42.379  13.729  43.735  1.00  0.00     0.041 A 
ATOM    105  C   UNL A   1      41.423  12.894  41.686  1.00  0.00     0.041 A 
ATOM    106  C   UNL A   1      41.661  12.763  43.045  1.00  0.00     0.123 A 
ATOM    107  F   UNL A   1      41.189  11.694  43.698  1.00  0.00    -0.207 F 
ENDBRANCH 100 101
ENDBRANCH  83  95
ENDBRANCH  77  80
ENDBRANCH  75  76
ENDBRANCH  74  75
ENDBRANCH  73  74
ENDBRANCH   1  73
TORSDOF 17
ENDMDL
MODEL 2
REMARK VINA RESULT:     -11.9      5.379      9.878
REMARK SMILES O=C(NCCCCCCNC(=O)c1cc(N2CCN(c3ccc(F)cc3)CC2)ccc1NC(=O)C1CCCC1)c1ccc(-c2c3nc(c(-c4c(F)c(F)c(F)c(F)c4F)c4ccc([nH]4)c(-c4c(F)c(F)c(F)c(F)c4F)c4nc(c(-c5c(F)c(F)c(F)c(F)c5F)c5ccc2[nH]5)C=C4)C=C3)cc1
REMARK SMILES IDX 6 1 5 2 4 3 3 4 1 5 2 6 40 8 41 9 102 10 42 11 101 12 43 13
REMARK SMILES IDX 44 14 45 15 95 16 46 17 100 18 94 19 96 20 47 21 99 22 93 23
REMARK SMILES IDX 92 24 48 26 80 27 60 28 79 29 61 30 64 31 78 32 97 33 62 34
REMARK SMILES IDX 63 35 77 37 98 38 65 39 49 40 50 41 58 42 51 43 52 44 56 45
REMARK SMILES IDX 59 46 53 47 54 48 57 49 55 50 81 51 82 52 90 53 83 54 84 55
REMARK SMILES IDX 88 56 91 57 85 58 86 59 89 60 87 61 66 62 67 63 75 64 68 65
REMARK SMILES IDX 69 66 73 67 76 68 70 69 71 70 74 71 72 72 7 73 8 74 9 75
REMARK SMILES IDX 10 76 11 77 12 79 13 80 14 81 31 82 15 83 30 84 29 85 32 86
REMARK SMILES IDX 33 87 34 89 35 90 36 91 39 92 37 93 38 94 16 95 17 96 28 97
REMARK SMILES IDX 18 98 27 99 19 100 20 101 21 102 26 103 22 104 25 105 23 106
REMARK SMILES IDX 24 107
REMARK H PARENT 3 7 96 25 64 36 10 78 32 88
REMARK Flexibility Score: inf
ROOT
ATOM      1  C   UNL A   1      45.424  24.066  33.365  1.00  0.00     0.002 C 
ENDROOT
BRANCH   1   2
ATOM      2  C   UNL A   1      44.941  23.056  34.404  1.00  0.00     0.021 C 
BRANCH   2   3
ATOM      3  C   UNL A   1      43.494  23.230  34.835  1.00  0.00     0.116 C 
BRANCH   3   4
ATOM      4  N   UNL A   1      43.369  23.697  36.204  1.00  0.00    -0.352 N 
ATOM      5  O   UNL A   1      43.467  25.208  37.882  1.00  0.00    -0.269 OA
ATOM      6  C   UNL A   1      43.440  24.985  36.681  1.00  0.00     0.251 C 
ATOM      7  H   UNL A   1      43.212  22.999  36.881  1.00  0.00     0.163 HD
BRANCH   6   8
ATOM      8  C   UNL A   1      43.496  26.104  35.716  1.00  0.00     0.039 A 
ATOM      9  C   UNL A   1      42.356  26.476  35.000  1.00  0.00     0.014 A 
ATOM     10  C   UNL A   1      44.698  26.793  35.537  1.00  0.00     0.014 A 
ATOM     11  C   UNL A   1      42.442  27.460  34.024  1.00  0.00     0.010 A 
ATOM     12  C   UNL A   1      44.761  27.847  34.620  1.00  0.00     0.010 A 
ATOM     13  C   UNL A   1      43.634  28.184  33.855  1.00  0.00    -0.014 A 
BRANCH  13  14
ATOM     14  C   UNL A   1      43.627  29.381  32.978  1.00  0.00     0.031 A 
ATOM     15  C   UNL A   1      44.012  29.301  31.531  1.00  0.00     0.074 A 
ATOM     16  C   UNL A   1      43.264  30.557  33.528  1.00  0.00     0.049 A 
ATOM     17  N   UNL A   1      44.072  30.263  30.646  1.00  0.00    -0.248 NA
ATOM     18  C   UNL A   1      44.382  27.979  31.004  1.00  0.00     0.031 C 
ATOM     19  C   UNL A   1      42.892  30.746  34.934  1.00  0.00     0.029 A 
ATOM     20  N   UNL A   1      43.143  31.808  32.984  1.00  0.00    -0.354 N 
ATOM     21  C   UNL A   1      44.503  29.672  29.466  1.00  0.00     0.074 A 
ATOM     22  C   UNL A   1      44.704  28.267  29.749  1.00  0.00     0.031 C 
ATOM     23  C   UNL A   1      42.556  32.027  35.133  1.00  0.00     0.029 A 
ATOM     24  C   UNL A   1      42.762  32.764  33.894  1.00  0.00     0.049 A 
ATOM     25  H   UNL A   1      43.312  32.004  32.035  1.00  0.00     0.167 HD
ATOM     26  C   UNL A   1      44.710  30.259  28.262  1.00  0.00     0.037 A 
ATOM     27  C   UNL A   1      42.630  34.096  33.758  1.00  0.00     0.037 A 
ATOM     28  C   UNL A   1      44.488  31.658  27.993  1.00  0.00     0.049 A 
ATOM     29  C   UNL A   1      42.903  34.714  32.417  1.00  0.00     0.074 A 
ATOM     30  C   UNL A   1      44.597  32.331  26.788  1.00  0.00     0.029 A 
ATOM     31  N   UNL A   1      44.127  32.602  28.945  1.00  0.00    -0.354 N 
ATOM     32  N   UNL A   1      43.238  34.132  31.292  1.00  0.00    -0.248 NA
ATOM     33  C   UNL A   1      42.785  36.175  32.327  1.00  0.00     0.031 C 
ATOM     34  C   UNL A   1      44.369  33.689  27.022  1.00  0.00     0.029 A 
ATOM     35  C   UNL A   1      44.055  33.857  28.361  1.00  0.00     0.049 A 
ATOM     36  H   UNL A   1      43.948  32.407  29.894  1.00  0.00     0.167 HD
ATOM     37  C   UNL A   1      43.360  35.150  30.360  1.00  0.00     0.074 A 
ATOM     38  C   UNL A   1      43.028  36.384  31.042  1.00  0.00     0.031 C 
ATOM     39  C   UNL A   1      43.727  35.074  29.058  1.00  0.00     0.037 A 
BRANCH  26  40
ATOM     40  C   UNL A   1      45.217  29.412  27.132  1.00  0.00     0.064 A 
ATOM     41  C   UNL A   1      46.585  29.304  26.845  1.00  0.00     0.173 A 
ATOM     42  C   UNL A   1      44.328  28.608  26.400  1.00  0.00     0.173 A 
ATOM     43  F   UNL A   1      47.477  30.053  27.511  1.00  0.00    -0.203 F 
ATOM     44  C   UNL A   1      47.044  28.425  25.865  1.00  0.00     0.198 A 
ATOM     45  C   UNL A   1      44.791  27.713  25.441  1.00  0.00     0.198 A 
ATOM     46  F   UNL A   1      43.010  28.666  26.642  1.00  0.00    -0.203 F 
ATOM     47  F   UNL A   1      48.355  28.349  25.595  1.00  0.00    -0.200 F 
ATOM     48  C   UNL A   1      46.149  27.622  25.173  1.00  0.00     0.200 A 
ATOM     49  F   UNL A   1      43.926  26.926  24.786  1.00  0.00    -0.200 F 
ATOM     50  F   UNL A   1      46.594  26.758  24.251  1.00  0.00    -0.200 F 
ENDBRANCH  26  40
BRANCH  27  51
ATOM     51  C   UNL A   1      42.270  34.935  34.932  1.00  0.00     0.064 A 
ATOM     52  C   UNL A   1      43.254  35.503  35.749  1.00  0.00     0.173 A 
ATOM     53  C   UNL A   1      40.928  35.162  35.274  1.00  0.00     0.173 A 
ATOM     54  F   UNL A   1      44.552  35.301  35.474  1.00  0.00    -0.203 F 
ATOM     55  C   UNL A   1      42.913  36.236  36.884  1.00  0.00     0.198 A 
ATOM     56  C   UNL A   1      40.587  35.927  36.386  1.00  0.00     0.198 A 
ATOM     57  F   UNL A   1      39.944  34.647  34.522  1.00  0.00    -0.203 F 
ATOM     58  F   UNL A   1      43.876  36.712  37.685  1.00  0.00    -0.200 F 
ATOM     59  C   UNL A   1      41.579  36.452  37.199  1.00  0.00     0.200 A 
ATOM     60  F   UNL A   1      39.297  36.150  36.673  1.00  0.00    -0.200 F 
ATOM     61  F   UNL A   1      41.252  37.154  38.291  1.00  0.00    -0.200 F 
ENDBRANCH  27  51
BRANCH  39  62
ATOM     62  C   UNL A   1      43.772  36.362  28.288  1.00  0.00     0.064 A 
ATOM     63  C   UNL A   1      44.972  37.067  28.110  1.00  0.00     0.173 A 
ATOM     64  C   UNL A   1      42.609  36.884  27.702  1.00  0.00     0.173 A 
ATOM     65  F   UNL A   1      46.108  36.618  28.666  1.00  0.00    -0.203 F 
ATOM     66  C   UNL A   1      45.000  38.262  27.398  1.00  0.00     0.198 A 
ATOM     67  C   UNL A   1      42.648  38.062  26.962  1.00  0.00     0.198 A 
ATOM     68  F   UNL A   1      41.437  36.247  27.839  1.00  0.00    -0.203 F 
ATOM     69  F   UNL A   1      46.146  38.947  27.288  1.00  0.00    -0.200 F 
ATOM     70  C   UNL A   1      43.840  38.754  26.818  1.00  0.00     0.200 A 
ATOM     71  F   UNL A   1      41.529  38.528  26.390  1.00  0.00    -0.200 F 
ATOM     72  F   UNL A   1      43.870  39.902  26.127  1.00  0.00    -0.200 F 
ENDBRANCH  39  62
ENDBRANCH  13  14
ENDBRANCH   6   8
ENDBRANCH   3   4
ENDBRANCH   2   3
ENDBRANCH   1   2
BRANCH   1  73
ATOM     73  C   UNL A   1      44.415  24.417  32.266  1.00  0.00     0.002 C 
BRANCH  73  74
ATOM     74  C   UNL A   1      44.153  23.328  31.217  1.00  0.00     0.021 C 
BRANCH  74  75
ATOM     75  C   UNL A   1      43.552  23.823  29.905  1.00  0.00     0.116 C 
BRANCH  75  76
ATOM     76  N   UNL A   1      42.692  22.830  29.288  1.00  0.00    -0.352 N 
ATOM     77  C   UNL A   1      41.695  22.974  28.361  1.00  0.00     0.253 C 
ATOM     78  H   UNL A   1      42.851  21.904  29.584  1.00  0.00     0.163 HD
ATOM     79  O   UNL A   1      40.960  22.018  28.123  1.00  0.00    -0.269 OA
BRANCH  77  80
ATOM     80  C   UNL A   1      41.492  24.244  27.623  1.00  0.00     0.065 A 
ATOM     81  C   UNL A   1      40.958  25.310  28.382  1.00  0.00     0.042 A 
ATOM     82  C   UNL A   1      41.678  24.368  26.228  1.00  0.00     0.054 A 
ATOM     83  C   UNL A   1      40.571  26.508  27.780  1.00  0.00     0.038 A 
ATOM     84  C   UNL A   1      41.297  25.577  25.651  1.00  0.00     0.029 A 
ATOM     85  C   UNL A   1      40.776  26.625  26.410  1.00  0.00     0.028 A 
BRANCH  82  86
ATOM     86  N   UNL A   1      42.198  23.281  25.483  1.00  0.00    -0.325 N 
ATOM     87  C   UNL A   1      43.464  22.869  25.159  1.00  0.00     0.227 C 
ATOM     88  H   UNL A   1      41.497  22.694  25.118  1.00  0.00     0.169 HD
ATOM     89  O   UNL A   1      43.586  21.764  24.623  1.00  0.00    -0.274 OA
BRANCH  87  90
ATOM     90  C   UNL A   1      44.671  23.728  25.456  1.00  0.00     0.079 C 
ATOM     91  C   UNL A   1      45.354  23.519  26.803  1.00  0.00     0.013 C 
ATOM     92  C   UNL A   1      45.809  23.390  24.491  1.00  0.00     0.013 C 
ATOM     93  C   UNL A   1      46.680  24.250  26.593  1.00  0.00     0.001 C 
ATOM     94  C   UNL A   1      47.048  24.009  25.128  1.00  0.00     0.001 C 
ENDBRANCH  87  90
ENDBRANCH  82  86
BRANCH  83  95
ATOM     95  N   UNL A   1      39.899  27.480  28.485  1.00  0.00    -0.368 N 
ATOM     96  C   UNL A   1      39.465  27.272  29.877  1.00  0.00     0.138 C 
ATOM     97  C   UNL A   1      40.003  28.885  28.052  1.00  0.00     0.138 C 
ATOM     98  C   UNL A   1      40.293  28.139  30.873  1.00  0.00     0.138 C 
ATOM     99  C   UNL A   1      40.870  29.705  29.025  1.00  0.00     0.138 C 
ATOM    100  N   UNL A   1      40.409  29.538  30.410  1.00  0.00    -0.368 N 
BRANCH 100 101
ATOM    101  C   UNL A   1      39.734  30.552  31.057  1.00  0.00     0.037 A 
ATOM    102  C   UNL A   1      38.915  31.429  30.330  1.00  0.00     0.029 A 
ATOM    103  C   UNL A   1      39.797  30.724  32.449  1.00  0.00     0.029 A 
ATOM    104  C   UNL A   1      38.172  32.428  30.968  1.00  0.00     0.041 A 
ATOM    105  C   UNL A   1      39.072  31.731  33.093  1.00  0.00     0.041 A 
ATOM    106  C   UNL A   1      38.260  32.570  32.345  1.00  0.00     0.123 A 
ATOM    107  F   UNL A   1      37.551  33.524  32.961  1.00  0.00    -0.207 F 
ENDBRANCH 100 101
ENDBRANCH  83  95
ENDBRANCH  77  80
ENDBRANCH  75  76
ENDBRANCH  74  75
ENDBRANCH  73  74
ENDBRANCH   1  73
TORSDOF 17
ENDMDL
MODEL 3
REMARK VINA RESULT:     -11.6      6.139     12.974
REMARK SMILES O=C(NCCCCCCNC(=O)c1cc(N2CCN(c3ccc(F)cc3)CC2)ccc1NC(=O)C1CCCC1)c1ccc(-c2c3nc(c(-c4c(F)c(F)c(F)c(F)c4F)c4ccc([nH]4)c(-c4c(F)c(F)c(F)c(F)c4F)c4nc(c(-c5c(F)c(F)c(F)c(F)c5F)c5ccc2[nH]5)C=C4)C=C3)cc1
REMARK SMILES IDX 6 1 5 2 4 3 3 4 1 5 2 6 40 8 41 9 102 10 42 11 101 12 43 13
REMARK SMILES IDX 44 14 45 15 95 16 46 17 100 18 94 19 96 20 47 21 99 22 93 23
REMARK SMILES IDX 92 24 48 26 80 27 60 28 79 29 61 30 64 31 78 32 97 33 62 34
REMARK SMILES IDX 63 35 77 37 98 38 65 39 49 40 50 41 58 42 51 43 52 44 56 45
REMARK SMILES IDX 59 46 53 47 54 48 57 49 55 50 81 51 82 52 90 53 83 54 84 55
REMARK SMILES IDX 88 56 91 57 85 58 86 59 89 60 87 61 66 62 67 63 75 64 68 65
REMARK SMILES IDX 69 66 73 67 76 68 70 69 71 70 74 71 72 72 7 73 8 74 9 75
REMARK SMILES IDX 10 76 11 77 12 79 13 80 14 81 31 82 15 83 30 84 29 85 32 86
REMARK SMILES IDX 33 87 34 89 35 90 36 91 39 92 37 93 38 94 16 95 17 96 28 97
REMARK SMILES IDX 18 98 27 99 19 100 20 101 21 102 26 103 22 104 25 105 23 106
REMARK SMILES IDX 24 107
REMARK H PARENT 3 7 96 25 64 36 10 78 32 88
REMARK Flexibility Score: inf
ROOT
ATOM      1  C   UNL A   1      37.523  33.346  28.857  1.00  0.00     0.002 C 
ENDROOT
BRANCH   1   2
ATOM      2  C   UNL A   1      36.015  33.389  28.617  1.00  0.00     0.021 C 
BRANCH   2   3
ATOM      3  C   UNL A   1      35.203  32.465  29.510  1.00  0.00     0.116 C 
BRANCH   3   4
ATOM      4  N   UNL A   1      34.449  31.478  28.759  1.00  0.00    -0.352 N 
ATOM      5  O   UNL A   1      34.176  29.674  27.425  1.00  0.00    -0.269 OA
ATOM      6  C   UNL A   1      34.905  30.330  28.154  1.00  0.00     0.251 C 
ATOM      7  H   UNL A   1      33.484  31.652  28.671  1.00  0.00     0.163 HD
BRANCH   6   8
ATOM      8  C   UNL A   1      36.302  29.903  28.385  1.00  0.00     0.039 A 
ATOM      9  C   UNL A   1      37.254  30.020  27.369  1.00  0.00     0.014 A 
ATOM     10  C   UNL A   1      36.664  29.393  29.635  1.00  0.00     0.014 A 
ATOM     11  C   UNL A   1      38.536  29.525  27.561  1.00  0.00     0.010 A 
ATOM     12  C   UNL A   1      37.980  28.979  29.857  1.00  0.00     0.010 A 
ATOM     13  C   UNL A   1      38.924  29.039  28.820  1.00  0.00    -0.014 A 
BRANCH  13  14
ATOM     14  C   UNL A   1      40.356  28.740  29.063  1.00  0.00     0.031 A 
ATOM     15  C   UNL A   1      41.269  29.731  29.722  1.00  0.00     0.074 A 
ATOM     16  C   UNL A   1      40.821  27.538  28.667  1.00  0.00     0.049 A 
ATOM     17  N   UNL A   1      42.546  29.620  29.984  1.00  0.00    -0.248 NA
ATOM     18  C   UNL A   1      40.682  31.014  30.137  1.00  0.00     0.031 C 
ATOM     19  C   UNL A   1      40.020  26.509  27.995  1.00  0.00     0.029 A 
ATOM     20  N   UNL A   1      42.064  26.972  28.767  1.00  0.00    -0.354 N 
ATOM     21  C   UNL A   1      42.922  30.818  30.575  1.00  0.00     0.074 A 
ATOM     22  C   UNL A   1      41.740  31.652  30.623  1.00  0.00     0.031 C 
ATOM     23  C   UNL A   1      40.782  25.431  27.773  1.00  0.00     0.029 A 
ATOM     24  C   UNL A   1      42.140  25.717  28.214  1.00  0.00     0.049 A 
ATOM     25  H   UNL A   1      42.829  27.421  29.195  1.00  0.00     0.167 HD
ATOM     26  C   UNL A   1      44.145  31.178  31.033  1.00  0.00     0.037 A 
ATOM     27  C   UNL A   1      43.195  24.901  28.042  1.00  0.00     0.037 A 
ATOM     28  C   UNL A   1      45.308  30.328  30.994  1.00  0.00     0.049 A 
ATOM     29  C   UNL A   1      44.541  25.351  28.531  1.00  0.00     0.074 A 
ATOM     30  C   UNL A   1      46.574  30.575  31.500  1.00  0.00     0.029 A 
ATOM     31  N   UNL A   1      45.355  29.073  30.403  1.00  0.00    -0.354 N 
ATOM     32  N   UNL A   1      44.867  26.456  29.155  1.00  0.00    -0.248 NA
ATOM     33  C   UNL A   1      45.670  24.443  28.286  1.00  0.00     0.031 C 
ATOM     34  C   UNL A   1      47.400  29.503  31.158  1.00  0.00     0.029 A 
ATOM     35  C   UNL A   1      46.638  28.556  30.492  1.00  0.00     0.049 A 
ATOM     36  H   UNL A   1      44.589  28.617  29.983  1.00  0.00     0.167 HD
ATOM     37  C   UNL A   1      46.231  26.374  29.388  1.00  0.00     0.074 A 
ATOM     38  C   UNL A   1      46.666  25.093  28.869  1.00  0.00     0.031 C 
ATOM     39  C   UNL A   1      47.054  27.281  29.967  1.00  0.00     0.037 A 
BRANCH  26  40
ATOM     40  C   UNL A   1      44.317  32.555  31.606  1.00  0.00     0.064 A 
ATOM     41  C   UNL A   1      44.295  33.700  30.798  1.00  0.00     0.173 A 
ATOM     42  C   UNL A   1      44.389  32.735  32.997  1.00  0.00     0.173 A 
ATOM     43  F   UNL A   1      44.232  33.584  29.463  1.00  0.00    -0.203 F 
ATOM     44  C   UNL A   1      44.342  34.974  31.361  1.00  0.00     0.198 A 
ATOM     45  C   UNL A   1      44.411  34.009  33.557  1.00  0.00     0.198 A 
ATOM     46  F   UNL A   1      44.404  31.672  33.815  1.00  0.00    -0.203 F 
ATOM     47  F   UNL A   1      44.336  36.056  30.569  1.00  0.00    -0.200 F 
ATOM     48  C   UNL A   1      44.387  35.128  32.739  1.00  0.00     0.200 A 
ATOM     49  F   UNL A   1      44.436  34.154  34.889  1.00  0.00    -0.200 F 
ATOM     50  F   UNL A   1      44.405  36.354  33.278  1.00  0.00    -0.200 F 
ENDBRANCH  26  40
BRANCH  27  51
ATOM     51  C   UNL A   1      43.028  23.602  27.338  1.00  0.00     0.064 A 
ATOM     52  C   UNL A   1      42.505  22.481  27.994  1.00  0.00     0.173 A 
ATOM     53  C   UNL A   1      43.417  23.450  25.998  1.00  0.00     0.173 A 
ATOM     54  F   UNL A   1      42.135  22.570  29.280  1.00  0.00    -0.203 F 
ATOM     55  C   UNL A   1      42.410  21.250  27.350  1.00  0.00     0.198 A 
ATOM     56  C   UNL A   1      43.284  22.230  25.342  1.00  0.00     0.198 A 
ATOM     57  F   UNL A   1      43.918  24.493  25.319  1.00  0.00    -0.203 F 
ATOM     58  F   UNL A   1      41.967  20.178  28.022  1.00  0.00    -0.200 F 
ATOM     59  C   UNL A   1      42.795  21.126  26.023  1.00  0.00     0.200 A 
ATOM     60  F   UNL A   1      43.639  22.121  24.054  1.00  0.00    -0.200 F 
ATOM     61  F   UNL A   1      42.706  19.941  25.405  1.00  0.00    -0.200 F 
ENDBRANCH  27  51
BRANCH  39  62
ATOM     62  C   UNL A   1      48.503  26.909  30.081  1.00  0.00     0.064 A 
ATOM     63  C   UNL A   1      49.443  27.327  29.126  1.00  0.00     0.173 A 
ATOM     64  C   UNL A   1      48.961  26.148  31.167  1.00  0.00     0.173 A 
ATOM     65  F   UNL A   1      49.051  28.040  28.059  1.00  0.00    -0.203 F 
ATOM     66  C   UNL A   1      50.783  26.971  29.241  1.00  0.00     0.198 A 
ATOM     67  C   UNL A   1      50.309  25.825  31.295  1.00  0.00     0.198 A 
ATOM     68  F   UNL A   1      48.104  25.728  32.109  1.00  0.00    -0.203 F 
ATOM     69  F   UNL A   1      51.654  27.333  28.288  1.00  0.00    -0.200 F 
ATOM     70  C   UNL A   1      51.216  26.228  30.328  1.00  0.00     0.200 A 
ATOM     71  F   UNL A   1      50.728  25.119  32.355  1.00  0.00    -0.200 F 
ATOM     72  F   UNL A   1      52.509  25.892  30.441  1.00  0.00    -0.200 F 
ENDBRANCH  39  62
ENDBRANCH  13  14
ENDBRANCH   6   8
ENDBRANCH   3   4
ENDBRANCH   2   3
ENDBRANCH   1   2
BRANCH   1  73
ATOM     73  C   UNL A   1      38.094  34.502  29.684  1.00  0.00     0.002 C 
BRANCH  73  74
ATOM     74  C   UNL A   1      38.530  34.158  31.114  1.00  0.00     0.021 C 
BRANCH  74  75
ATOM     75  C   UNL A   1      38.044  32.809  31.635  1.00  0.00     0.116 C 
BRANCH  75  76
ATOM     76  N   UNL A   1      37.403  32.922  32.933  1.00  0.00    -0.352 N 
ATOM     77  C   UNL A   1      37.852  32.566  34.176  1.00  0.00     0.253 C 
ATOM     78  H   UNL A   1      36.501  33.318  32.916  1.00  0.00     0.163 HD
ATOM     79  O   UNL A   1      37.063  32.570  35.118  1.00  0.00    -0.269 OA
BRANCH  77  80
ATOM     80  C   UNL A   1      39.267  32.195  34.419  1.00  0.00     0.065 A 
ATOM     81  C   UNL A   1      39.584  30.834  34.211  1.00  0.00     0.042 A 
ATOM     82  C   UNL A   1      40.220  33.089  34.958  1.00  0.00     0.054 A 
ATOM     83  C   UNL A   1      40.835  30.319  34.552  1.00  0.00     0.038 A 
ATOM     84  C   UNL A   1      41.465  32.555  35.279  1.00  0.00     0.029 A 
ATOM     85  C   UNL A   1      41.771  31.211  35.063  1.00  0.00     0.028 A 
BRANCH  82  86
ATOM     86  N   UNL A   1      39.876  34.445  35.175  1.00  0.00    -0.325 N 
ATOM     87  C   UNL A   1      39.705  35.216  36.296  1.00  0.00     0.227 C 
ATOM     88  H   UNL A   1      39.727  34.944  34.338  1.00  0.00     0.169 HD
ATOM     89  O   UNL A   1      39.566  36.433  36.137  1.00  0.00    -0.274 OA
BRANCH  87  90
ATOM     90  C   UNL A   1      39.698  34.605  37.677  1.00  0.00     0.079 C 
ATOM     91  C   UNL A   1      41.053  34.286  38.299  1.00  0.00     0.013 C 
ATOM     92  C   UNL A   1      39.133  35.601  38.691  1.00  0.00     0.013 C 
ATOM     93  C   UNL A   1      40.674  34.052  39.761  1.00  0.00     0.001 C 
ATOM     94  C   UNL A   1      39.540  35.038  40.048  1.00  0.00     0.001 C 
ENDBRANCH  87  90
ENDBRANCH  82  86
BRANCH  83  95
ATOM     95  N   UNL A   1      41.091  28.968  34.507  1.00  0.00    -0.368 N 
ATOM     96  C   UNL A   1      41.274  28.253  33.232  1.00  0.00     0.138 C 
ATOM     97  C   UNL A   1      41.643  28.299  35.698  1.00  0.00     0.138 C 
ATOM     98  C   UNL A   1      42.754  27.809  33.030  1.00  0.00     0.138 C 
ATOM     99  C   UNL A   1      43.120  27.919  35.490  1.00  0.00     0.138 C 
ATOM    100  N   UNL A   1      43.299  27.163  34.243  1.00  0.00    -0.368 N 
BRANCH 100 101
ATOM    101  C   UNL A   1      43.546  25.806  34.267  1.00  0.00     0.037 A 
ATOM    102  C   UNL A   1      43.094  25.028  35.343  1.00  0.00     0.029 A 
ATOM    103  C   UNL A   1      44.210  25.147  33.221  1.00  0.00     0.029 A 
ATOM    104  C   UNL A   1      43.278  23.641  35.366  1.00  0.00     0.041 A 
ATOM    105  C   UNL A   1      44.414  23.765  33.244  1.00  0.00     0.041 A 
ATOM    106  C   UNL A   1      43.939  23.024  34.315  1.00  0.00     0.123 A 
ATOM    107  F   UNL A   1      44.118  21.697  34.331  1.00  0.00    -0.207 F 
ENDBRANCH 100 101
ENDBRANCH  83  95
ENDBRANCH  77  80
ENDBRANCH  75  76
ENDBRANCH  74  75
ENDBRANCH  73  74
ENDBRANCH   1  73
TORSDOF 17
ENDMDL
