MODEL 1
REMARK VINA RESULT:     -13.0      0.000      0.000
REMARK SMILES O=C(NCCCCCCNC(=O)[C@@H]1CS[C@H](c2ncc(-c3ccccc3)s2)[NH2+]1)c1ccc(-c2c3nc(c(-c4c(F)c(F)c(F)c(F)c4F)c4ccc([nH]4)c(-c4c(F)c(F)c(F)c(F)c4F)c4nc(c(-c5c(F)c(F)c(F)c(F)c5F)c5ccc2[nH]5)C=C4)C=C3)cc1
REMARK SMILES IDX 6 1 5 2 4 3 3 4 1 5 2 6 29 8 30 9 91 10 31 11 90 12 32 13
REMARK SMILES IDX 33 14 34 15 84 16 35 17 89 18 83 19 85 20 36 21 88 22 82 23
REMARK SMILES IDX 81 24 37 26 69 27 49 28 68 29 50 30 53 31 67 32 86 33 51 34
REMARK SMILES IDX 52 35 66 37 87 38 54 39 38 40 39 41 47 42 40 43 41 44 45 45
REMARK SMILES IDX 48 46 42 47 43 48 46 49 44 50 70 51 71 52 79 53 72 54 73 55
REMARK SMILES IDX 77 56 80 57 74 58 75 59 78 60 76 61 55 62 56 63 64 64 57 65
REMARK SMILES IDX 58 66 62 67 65 68 59 69 60 70 63 71 61 72 7 73 8 74 9 75
REMARK SMILES IDX 10 76 11 77 12 79 13 80 14 81 28 82 15 83 16 84 17 87 18 88
REMARK SMILES IDX 27 89 19 90 20 91 21 92 22 93 26 94 23 95 25 96 24 97
REMARK H PARENT 3 7 85 25 53 36 10 78 28 85 28 86
REMARK Flexibility Score: inf
ROOT
ATOM      1  C   UNL A   1      31.762  30.403  26.044  1.00  0.00     0.002 C 
ENDROOT
BRANCH   1   2
ATOM      2  C   UNL A   1      31.474  31.820  26.529  1.00  0.00     0.021 C 
BRANCH   2   3
ATOM      3  C   UNL A   1      32.633  32.501  27.245  1.00  0.00     0.116 C 
BRANCH   3   4
ATOM      4  N   UNL A   1      32.371  33.900  27.549  1.00  0.00    -0.352 N 
ATOM      5  O   UNL A   1      32.583  35.830  28.721  1.00  0.00    -0.269 OA
ATOM      6  C   UNL A   1      32.998  34.702  28.474  1.00  0.00     0.251 C 
ATOM      7  H   UNL A   1      31.654  34.326  27.025  1.00  0.00     0.163 HD
BRANCH   6   8
ATOM      8  C   UNL A   1      34.172  34.169  29.194  1.00  0.00     0.039 A 
ATOM      9  C   UNL A   1      35.458  34.536  28.793  1.00  0.00     0.014 A 
ATOM     10  C   UNL A   1      33.988  33.254  30.234  1.00  0.00     0.014 A 
ATOM     11  C   UNL A   1      36.553  33.867  29.317  1.00  0.00     0.010 A 
ATOM     12  C   UNL A   1      35.102  32.658  30.835  1.00  0.00     0.010 A 
ATOM     13  C   UNL A   1      36.393  32.936  30.359  1.00  0.00    -0.014 A 
BRANCH  13  14
ATOM     14  C   UNL A   1      37.609  32.341  30.970  1.00  0.00     0.031 A 
ATOM     15  C   UNL A   1      38.064  32.708  32.353  1.00  0.00     0.074 A 
ATOM     16  C   UNL A   1      38.269  31.401  30.265  1.00  0.00     0.049 A 
ATOM     17  N   UNL A   1      39.066  32.222  33.045  1.00  0.00    -0.248 NA
ATOM     18  C   UNL A   1      37.308  33.757  33.055  1.00  0.00     0.031 C 
ATOM     19  C   UNL A   1      37.931  30.987  28.900  1.00  0.00     0.029 A 
ATOM     20  N   UNL A   1      39.328  30.599  30.601  1.00  0.00    -0.354 N 
ATOM     21  C   UNL A   1      39.071  32.911  34.250  1.00  0.00     0.074 A 
ATOM     22  C   UNL A   1      37.988  33.869  34.189  1.00  0.00     0.031 C 
ATOM     23  C   UNL A   1      38.717  29.965  28.542  1.00  0.00     0.029 A 
ATOM     24  C   UNL A   1      39.659  29.695  29.621  1.00  0.00     0.049 A 
ATOM     25  H   UNL A   1      39.803  30.664  31.461  1.00  0.00     0.167 HD
ATOM     26  C   UNL A   1      39.901  32.749  35.310  1.00  0.00     0.037 A 
ATOM     27  C   UNL A   1      40.623  28.759  29.587  1.00  0.00     0.037 A 
ATOM     28  C   UNL A   1      40.971  31.785  35.364  1.00  0.00     0.049 A 
ATOM     29  C   UNL A   1      41.514  28.595  30.783  1.00  0.00     0.074 A 
ATOM     30  C   UNL A   1      41.865  31.542  36.395  1.00  0.00     0.029 A 
ATOM     31  N   UNL A   1      41.291  30.899  34.345  1.00  0.00    -0.354 N 
ATOM     32  N   UNL A   1      41.499  29.246  31.919  1.00  0.00    -0.248 NA
ATOM     33  C   UNL A   1      42.559  27.568  30.690  1.00  0.00     0.031 C 
ATOM     34  C   UNL A   1      42.745  30.533  35.985  1.00  0.00     0.029 A 
ATOM     35  C   UNL A   1      42.373  30.116  34.718  1.00  0.00     0.049 A 
ATOM     36  H   UNL A   1      40.818  30.836  33.484  1.00  0.00     0.167 HD
ATOM     37  C   UNL A   1      42.530  28.714  32.676  1.00  0.00     0.074 A 
ATOM     38  C   UNL A   1      43.123  27.655  31.885  1.00  0.00     0.031 C 
ATOM     39  C   UNL A   1      42.958  29.077  33.909  1.00  0.00     0.037 A 
BRANCH  26  40
ATOM     40  C   UNL A   1      39.695  33.637  36.504  1.00  0.00     0.064 A 
ATOM     41  C   UNL A   1      40.284  34.908  36.585  1.00  0.00     0.173 A 
ATOM     42  C   UNL A   1      38.844  33.243  37.548  1.00  0.00     0.173 A 
ATOM     43  F   UNL A   1      41.113  35.328  35.618  1.00  0.00    -0.203 F 
ATOM     44  C   UNL A   1      40.040  35.744  37.672  1.00  0.00     0.198 A 
ATOM     45  C   UNL A   1      38.583  34.091  38.622  1.00  0.00     0.198 A 
ATOM     46  F   UNL A   1      38.249  32.040  37.519  1.00  0.00    -0.203 F 
ATOM     47  F   UNL A   1      40.639  36.941  37.741  1.00  0.00    -0.200 F 
ATOM     48  C   UNL A   1      39.184  35.339  38.685  1.00  0.00     0.200 A 
ATOM     49  F   UNL A   1      37.745  33.703  39.594  1.00  0.00    -0.200 F 
ATOM     50  F   UNL A   1      38.941  36.151  39.723  1.00  0.00    -0.200 F 
ENDBRANCH  26  40
BRANCH  27  51
ATOM     51  C   UNL A   1      40.789  27.919  28.375  1.00  0.00     0.064 A 
ATOM     52  C   UNL A   1      40.146  26.680  28.254  1.00  0.00     0.173 A 
ATOM     53  C   UNL A   1      41.584  28.351  27.301  1.00  0.00     0.173 A 
ATOM     54  F   UNL A   1      39.390  26.216  29.260  1.00  0.00    -0.203 F 
ATOM     55  C   UNL A   1      40.303  25.899  27.111  1.00  0.00     0.198 A 
ATOM     56  C   UNL A   1      41.712  27.585  26.146  1.00  0.00     0.198 A 
ATOM     57  F   UNL A   1      42.213  29.535  27.364  1.00  0.00    -0.203 F 
ATOM     58  F   UNL A   1      39.712  24.699  27.037  1.00  0.00    -0.200 F 
ATOM     59  C   UNL A   1      41.079  26.355  26.055  1.00  0.00     0.200 A 
ATOM     60  F   UNL A   1      42.446  28.040  25.121  1.00  0.00    -0.200 F 
ATOM     61  F   UNL A   1      41.220  25.607  24.953  1.00  0.00    -0.200 F 
ENDBRANCH  27  51
BRANCH  39  62
ATOM     62  C   UNL A   1      44.124  28.316  34.466  1.00  0.00     0.064 A 
ATOM     63  C   UNL A   1      45.443  28.755  34.270  1.00  0.00     0.173 A 
ATOM     64  C   UNL A   1      43.923  27.137  35.197  1.00  0.00     0.173 A 
ATOM     65  F   UNL A   1      45.685  29.869  33.562  1.00  0.00    -0.203 F 
ATOM     66  C   UNL A   1      46.519  28.021  34.756  1.00  0.00     0.198 A 
ATOM     67  C   UNL A   1      45.002  26.419  35.705  1.00  0.00     0.198 A 
ATOM     68  F   UNL A   1      42.681  26.678  35.415  1.00  0.00    -0.203 F 
ATOM     69  F   UNL A   1      47.772  28.427  34.506  1.00  0.00    -0.200 F 
ATOM     70  C   UNL A   1      46.298  26.856  35.475  1.00  0.00     0.200 A 
ATOM     71  F   UNL A   1      44.788  25.298  36.407  1.00  0.00    -0.200 F 
ATOM     72  F   UNL A   1      47.337  26.145  35.937  1.00  0.00    -0.200 F 
ENDBRANCH  39  62
ENDBRANCH  13  14
ENDBRANCH   6   8
ENDBRANCH   3   4
ENDBRANCH   2   3
ENDBRANCH   1   2
BRANCH   1  73
ATOM     73  C   UNL A   1      32.395  29.479  27.085  1.00  0.00     0.002 C 
BRANCH  73  74
ATOM     74  C   UNL A   1      31.594  28.217  27.423  1.00  0.00     0.021 C 
BRANCH  74  75
ATOM     75  C   UNL A   1      31.703  27.087  26.407  1.00  0.00     0.116 C 
BRANCH  75  76
ATOM     76  N   UNL A   1      30.973  25.907  26.830  1.00  0.00    -0.351 N 
ATOM     77  C   UNL A   1      30.842  24.638  26.383  1.00  0.00     0.279 C 
ATOM     78  H   UNL A   1      30.442  26.072  27.642  1.00  0.00     0.163 HD
ATOM     79  O   UNL A   1      30.060  23.941  27.051  1.00  0.00    -0.268 OA
BRANCH  77  80
ATOM     80  C   UNL A   1      31.546  24.000  25.164  1.00  0.00     0.284 C 
ATOM     81  C   UNL A   1      32.954  24.380  24.762  1.00  0.00     0.151 C 
ATOM     82  N   UNL A   1      30.665  23.994  23.965  1.00  0.00    -0.319 N 
ATOM     83  S   UNL A   1      32.767  25.519  23.372  1.00  0.00    -0.085 SA
ATOM     84  C   UNL A   1      31.004  25.133  23.097  1.00  0.00     0.303 C 
ATOM     85  H   UNL A   1      29.691  24.070  24.259  1.00  0.00     0.348 HD
ATOM     86  H   UNL A   1      30.800  23.124  23.451  1.00  0.00     0.348 HD
BRANCH  84  87
ATOM     87  C   UNL A   1      30.117  26.364  23.224  1.00  0.00     0.162 A 
ATOM     88  N   UNL A   1      28.895  26.345  23.734  1.00  0.00    -0.242 NA
ATOM     89  S   UNL A   1      30.670  27.943  22.787  1.00  0.00    -0.112 S 
ATOM     90  C   UNL A   1      28.324  27.600  23.651  1.00  0.00     0.132 A 
ATOM     91  C   UNL A   1      29.103  28.583  23.073  1.00  0.00     0.055 A 
BRANCH  91  92
ATOM     92  C   UNL A   1      28.742  29.950  22.694  1.00  0.00    -0.007 A 
ATOM     93  C   UNL A   1      28.941  31.021  23.581  1.00  0.00     0.009 A 
ATOM     94  C   UNL A   1      28.281  30.233  21.400  1.00  0.00     0.009 A 
ATOM     95  C   UNL A   1      28.715  32.340  23.178  1.00  0.00     0.001 A 
ATOM     96  C   UNL A   1      28.040  31.552  21.002  1.00  0.00     0.001 A 
ATOM     97  C   UNL A   1      28.267  32.604  21.888  1.00  0.00     0.000 A 
ENDBRANCH  91  92
ENDBRANCH  84  87
ENDBRANCH  77  80
ENDBRANCH  75  76
ENDBRANCH  74  75
ENDBRANCH  73  74
ENDBRANCH   1  73
TORSDOF 15
ENDMDL
MODEL 2
REMARK VINA RESULT:     -13.0      0.120      1.120
REMARK SMILES O=C(NCCCCCCNC(=O)[C@@H]1CS[C@H](c2ncc(-c3ccccc3)s2)[NH2+]1)c1ccc(-c2c3nc(c(-c4c(F)c(F)c(F)c(F)c4F)c4ccc([nH]4)c(-c4c(F)c(F)c(F)c(F)c4F)c4nc(c(-c5c(F)c(F)c(F)c(F)c5F)c5ccc2[nH]5)C=C4)C=C3)cc1
REMARK SMILES IDX 6 1 5 2 4 3 3 4 1 5 2 6 29 8 30 9 91 10 31 11 90 12 32 13
REMARK SMILES IDX 33 14 34 15 84 16 35 17 89 18 83 19 85 20 36 21 88 22 82 23
REMARK SMILES IDX 81 24 37 26 69 27 49 28 68 29 50 30 53 31 67 32 86 33 51 34
REMARK SMILES IDX 52 35 66 37 87 38 54 39 38 40 39 41 47 42 40 43 41 44 45 45
REMARK SMILES IDX 48 46 42 47 43 48 46 49 44 50 70 51 71 52 79 53 72 54 73 55
REMARK SMILES IDX 77 56 80 57 74 58 75 59 78 60 76 61 55 62 56 63 64 64 57 65
REMARK SMILES IDX 58 66 62 67 65 68 59 69 60 70 63 71 61 72 7 73 8 74 9 75
REMARK SMILES IDX 10 76 11 77 12 79 13 80 14 81 28 82 15 83 16 84 17 87 18 88
REMARK SMILES IDX 27 89 19 90 20 91 21 92 22 93 26 94 23 95 25 96 24 97
REMARK H PARENT 3 7 85 25 53 36 10 78 28 85 28 86
REMARK Flexibility Score: inf
ROOT
ATOM      1  C   UNL A   1      31.737  30.580  26.040  1.00  0.00     0.002 C 
ENDROOT
BRANCH   1   2
ATOM      2  C   UNL A   1      31.432  31.968  26.596  1.00  0.00     0.021 C 
BRANCH   2   3
ATOM      3  C   UNL A   1      32.608  32.663  27.269  1.00  0.00     0.116 C 
BRANCH   3   4
ATOM      4  N   UNL A   1      32.334  34.053  27.601  1.00  0.00    -0.352 N 
ATOM      5  O   UNL A   1      32.530  35.961  28.810  1.00  0.00    -0.269 OA
ATOM      6  C   UNL A   1      32.954  34.842  28.541  1.00  0.00     0.251 C 
ATOM      7  H   UNL A   1      31.612  34.483  27.087  1.00  0.00     0.163 HD
BRANCH   6   8
ATOM      8  C   UNL A   1      34.134  34.305  29.249  1.00  0.00     0.039 A 
ATOM      9  C   UNL A   1      35.414  34.545  28.745  1.00  0.00     0.014 A 
ATOM     10  C   UNL A   1      33.958  33.512  30.385  1.00  0.00     0.014 A 
ATOM     11  C   UNL A   1      36.496  33.860  29.276  1.00  0.00     0.010 A 
ATOM     12  C   UNL A   1      35.067  32.905  30.983  1.00  0.00     0.010 A 
ATOM     13  C   UNL A   1      36.342  33.048  30.414  1.00  0.00    -0.014 A 
BRANCH  13  14
ATOM     14  C   UNL A   1      37.554  32.437  31.017  1.00  0.00     0.031 A 
ATOM     15  C   UNL A   1      38.023  32.798  32.397  1.00  0.00     0.074 A 
ATOM     16  C   UNL A   1      38.196  31.488  30.308  1.00  0.00     0.049 A 
ATOM     17  N   UNL A   1      39.023  32.299  33.082  1.00  0.00    -0.248 NA
ATOM     18  C   UNL A   1      37.286  33.858  33.103  1.00  0.00     0.031 C 
ATOM     19  C   UNL A   1      37.843  31.079  28.946  1.00  0.00     0.029 A 
ATOM     20  N   UNL A   1      39.246  30.671  30.637  1.00  0.00    -0.354 N 
ATOM     21  C   UNL A   1      39.045  32.988  34.287  1.00  0.00     0.074 A 
ATOM     22  C   UNL A   1      37.975  33.961  34.233  1.00  0.00     0.031 C 
ATOM     23  C   UNL A   1      38.613  30.045  28.583  1.00  0.00     0.029 A 
ATOM     24  C   UNL A   1      39.558  29.763  29.656  1.00  0.00     0.049 A 
ATOM     25  H   UNL A   1      39.728  30.730  31.494  1.00  0.00     0.167 HD
ATOM     26  C   UNL A   1      39.879  32.815  35.341  1.00  0.00     0.037 A 
ATOM     27  C   UNL A   1      40.509  28.813  29.616  1.00  0.00     0.037 A 
ATOM     28  C   UNL A   1      40.937  31.836  35.389  1.00  0.00     0.049 A 
ATOM     29  C   UNL A   1      41.405  28.638  30.805  1.00  0.00     0.074 A 
ATOM     30  C   UNL A   1      41.834  31.581  36.414  1.00  0.00     0.029 A 
ATOM     31  N   UNL A   1      41.238  30.946  34.368  1.00  0.00    -0.354 N 
ATOM     32  N   UNL A   1      41.407  29.290  31.941  1.00  0.00    -0.248 NA
ATOM     33  C   UNL A   1      42.435  27.596  30.706  1.00  0.00     0.031 C 
ATOM     34  C   UNL A   1      42.697  30.560  35.999  1.00  0.00     0.029 A 
ATOM     35  C   UNL A   1      42.312  30.148  34.734  1.00  0.00     0.049 A 
ATOM     36  H   UNL A   1      40.758  30.889  33.510  1.00  0.00     0.167 HD
ATOM     37  C   UNL A   1      42.435  28.743  32.692  1.00  0.00     0.074 A 
ATOM     38  C   UNL A   1      43.009  27.676  31.898  1.00  0.00     0.031 C 
ATOM     39  C   UNL A   1      42.877  29.101  33.922  1.00  0.00     0.037 A 
BRANCH  26  40
ATOM     40  C   UNL A   1      39.693  33.706  36.536  1.00  0.00     0.064 A 
ATOM     41  C   UNL A   1      40.279  34.979  36.602  1.00  0.00     0.173 A 
ATOM     42  C   UNL A   1      38.866  33.311  37.599  1.00  0.00     0.173 A 
ATOM     43  F   UNL A   1      41.086  35.401  35.617  1.00  0.00    -0.203 F 
ATOM     44  C   UNL A   1      40.053  35.818  37.691  1.00  0.00     0.198 A 
ATOM     45  C   UNL A   1      38.623  34.162  38.675  1.00  0.00     0.198 A 
ATOM     46  F   UNL A   1      38.276  32.106  37.586  1.00  0.00    -0.203 F 
ATOM     47  F   UNL A   1      40.648  37.018  37.744  1.00  0.00    -0.200 F 
ATOM     48  C   UNL A   1      39.219  35.413  38.722  1.00  0.00     0.200 A 
ATOM     49  F   UNL A   1      37.806  33.773  39.665  1.00  0.00    -0.200 F 
ATOM     50  F   UNL A   1      38.993  36.227  39.762  1.00  0.00    -0.200 F 
ENDBRANCH  26  40
BRANCH  27  51
ATOM     51  C   UNL A   1      40.656  27.972  28.402  1.00  0.00     0.064 A 
ATOM     52  C   UNL A   1      41.433  28.392  27.315  1.00  0.00     0.173 A 
ATOM     53  C   UNL A   1      40.034  26.716  28.314  1.00  0.00     0.173 A 
ATOM     54  F   UNL A   1      42.033  29.591  27.344  1.00  0.00    -0.203 F 
ATOM     55  C   UNL A   1      41.571  27.596  26.181  1.00  0.00     0.198 A 
ATOM     56  C   UNL A   1      40.200  25.907  27.194  1.00  0.00     0.198 A 
ATOM     57  F   UNL A   1      39.287  26.264  29.333  1.00  0.00    -0.203 F 
ATOM     58  F   UNL A   1      42.284  28.039  25.137  1.00  0.00    -0.200 F 
ATOM     59  C   UNL A   1      40.960  26.351  26.124  1.00  0.00     0.200 A 
ATOM     60  F   UNL A   1      39.626  24.697  27.154  1.00  0.00    -0.200 F 
ATOM     61  F   UNL A   1      41.103  25.582  25.036  1.00  0.00    -0.200 F 
ENDBRANCH  27  51
BRANCH  39  62
ATOM     62  C   UNL A   1      44.035  28.324  34.472  1.00  0.00     0.064 A 
ATOM     63  C   UNL A   1      45.359  28.745  34.267  1.00  0.00     0.173 A 
ATOM     64  C   UNL A   1      43.823  27.148  35.203  1.00  0.00     0.173 A 
ATOM     65  F   UNL A   1      45.612  29.856  33.558  1.00  0.00    -0.203 F 
ATOM     66  C   UNL A   1      46.428  27.996  34.746  1.00  0.00     0.198 A 
ATOM     67  C   UNL A   1      44.896  26.415  35.704  1.00  0.00     0.198 A 
ATOM     68  F   UNL A   1      42.577  26.706  35.429  1.00  0.00    -0.203 F 
ATOM     69  F   UNL A   1      47.685  28.386  34.488  1.00  0.00    -0.200 F 
ATOM     70  C   UNL A   1      46.196  26.834  35.467  1.00  0.00     0.200 A 
ATOM     71  F   UNL A   1      44.671  25.297  36.408  1.00  0.00    -0.200 F 
ATOM     72  F   UNL A   1      47.229  26.110  35.922  1.00  0.00    -0.200 F 
ENDBRANCH  39  62
ENDBRANCH  13  14
ENDBRANCH   6   8
ENDBRANCH   3   4
ENDBRANCH   2   3
ENDBRANCH   1   2
BRANCH   1  73
ATOM     73  C   UNL A   1      32.420  29.627  27.021  1.00  0.00     0.002 C 
BRANCH  73  74
ATOM     74  C   UNL A   1      31.625  28.368  27.381  1.00  0.00     0.021 C 
BRANCH  74  75
ATOM     75  C   UNL A   1      31.837  27.178  26.453  1.00  0.00     0.116 C 
BRANCH  75  76
ATOM     76  N   UNL A   1      31.075  26.019  26.877  1.00  0.00    -0.351 N 
ATOM     77  C   UNL A   1      30.918  24.751  26.437  1.00  0.00     0.279 C 
ATOM     78  H   UNL A   1      30.543  26.201  27.685  1.00  0.00     0.163 HD
ATOM     79  O   UNL A   1      30.114  24.077  27.102  1.00  0.00    -0.268 OA
BRANCH  77  80
ATOM     80  C   UNL A   1      31.614  24.089  25.227  1.00  0.00     0.284 C 
ATOM     81  C   UNL A   1      33.013  24.474  24.797  1.00  0.00     0.151 C 
ATOM     82  N   UNL A   1      30.719  24.041  24.038  1.00  0.00    -0.319 N 
ATOM     83  S   UNL A   1      32.796  25.574  23.380  1.00  0.00    -0.085 SA
ATOM     84  C   UNL A   1      31.035  25.160  23.137  1.00  0.00     0.303 C 
ATOM     85  H   UNL A   1      29.749  24.113  24.342  1.00  0.00     0.348 HD
ATOM     86  H   UNL A   1      30.859  23.159  23.546  1.00  0.00     0.348 HD
BRANCH  84  87
ATOM     87  C   UNL A   1      30.135  26.384  23.242  1.00  0.00     0.162 A 
ATOM     88  N   UNL A   1      28.893  26.350  23.700  1.00  0.00    -0.242 NA
ATOM     89  S   UNL A   1      30.695  27.971  22.849  1.00  0.00    -0.112 S 
ATOM     90  C   UNL A   1      28.317  27.603  23.609  1.00  0.00     0.132 A 
ATOM     91  C   UNL A   1      29.113  28.598  23.077  1.00  0.00     0.055 A 
BRANCH  91  92
ATOM     92  C   UNL A   1      28.758  29.968  22.700  1.00  0.00    -0.007 A 
ATOM     93  C   UNL A   1      28.948  31.034  23.595  1.00  0.00     0.009 A 
ATOM     94  C   UNL A   1      28.315  30.258  21.402  1.00  0.00     0.009 A 
ATOM     95  C   UNL A   1      28.729  32.355  23.196  1.00  0.00     0.001 A 
ATOM     96  C   UNL A   1      28.080  31.579  21.008  1.00  0.00     0.001 A 
ATOM     97  C   UNL A   1      28.298  32.627  21.901  1.00  0.00     0.000 A 
ENDBRANCH  91  92
ENDBRANCH  84  87
ENDBRANCH  77  80
ENDBRANCH  75  76
ENDBRANCH  74  75
ENDBRANCH  73  74
ENDBRANCH   1  73
TORSDOF 15
ENDMDL
MODEL 3
REMARK VINA RESULT:     -12.5      5.625     11.272
REMARK SMILES O=C(NCCCCCCNC(=O)[C@@H]1CS[C@H](c2ncc(-c3ccccc3)s2)[NH2+]1)c1ccc(-c2c3nc(c(-c4c(F)c(F)c(F)c(F)c4F)c4ccc([nH]4)c(-c4c(F)c(F)c(F)c(F)c4F)c4nc(c(-c5c(F)c(F)c(F)c(F)c5F)c5ccc2[nH]5)C=C4)C=C3)cc1
REMARK SMILES IDX 6 1 5 2 4 3 3 4 1 5 2 6 29 8 30 9 91 10 31 11 90 12 32 13
REMARK SMILES IDX 33 14 34 15 84 16 35 17 89 18 83 19 85 20 36 21 88 22 82 23
REMARK SMILES IDX 81 24 37 26 69 27 49 28 68 29 50 30 53 31 67 32 86 33 51 34
REMARK SMILES IDX 52 35 66 37 87 38 54 39 38 40 39 41 47 42 40 43 41 44 45 45
REMARK SMILES IDX 48 46 42 47 43 48 46 49 44 50 70 51 71 52 79 53 72 54 73 55
REMARK SMILES IDX 77 56 80 57 74 58 75 59 78 60 76 61 55 62 56 63 64 64 57 65
REMARK SMILES IDX 58 66 62 67 65 68 59 69 60 70 63 71 61 72 7 73 8 74 9 75
REMARK SMILES IDX 10 76 11 77 12 79 13 80 14 81 28 82 15 83 16 84 17 87 18 88
REMARK SMILES IDX 27 89 19 90 20 91 21 92 22 93 26 94 23 95 25 96 24 97
REMARK H PARENT 3 7 85 25 53 36 10 78 28 85 28 86
REMARK Flexibility Score: inf
ROOT
ATOM      1  C   UNL A   1      36.456  20.124  24.997  1.00  0.00     0.002 C 
ENDROOT
BRANCH   1   2
ATOM      2  C   UNL A   1      37.892  19.703  24.699  1.00  0.00     0.021 C 
BRANCH   2   3
ATOM      3  C   UNL A   1      38.896  20.028  25.797  1.00  0.00     0.116 C 
BRANCH   3   4
ATOM      4  N   UNL A   1      40.014  19.097  25.841  1.00  0.00    -0.352 N 
ATOM      5  O   UNL A   1      42.199  18.503  25.963  1.00  0.00    -0.269 OA
ATOM      6  C   UNL A   1      41.339  19.368  26.091  1.00  0.00     0.251 C 
ATOM      7  H   UNL A   1      39.793  18.153  25.669  1.00  0.00     0.163 HD
BRANCH   6   8
ATOM      8  C   UNL A   1      41.718  20.738  26.493  1.00  0.00     0.039 A 
ATOM      9  C   UNL A   1      41.786  21.749  25.532  1.00  0.00     0.014 A 
ATOM     10  C   UNL A   1      42.063  20.999  27.821  1.00  0.00     0.014 A 
ATOM     11  C   UNL A   1      42.354  22.969  25.865  1.00  0.00     0.010 A 
ATOM     12  C   UNL A   1      42.537  22.266  28.177  1.00  0.00     0.010 A 
ATOM     13  C   UNL A   1      42.717  23.252  27.194  1.00  0.00    -0.014 A 
BRANCH  13  14
ATOM     14  C   UNL A   1      43.203  24.617  27.519  1.00  0.00     0.031 A 
ATOM     15  C   UNL A   1      44.598  25.063  27.187  1.00  0.00     0.074 A 
ATOM     16  C   UNL A   1      42.327  25.480  28.069  1.00  0.00     0.049 A 
ATOM     17  N   UNL A   1      45.144  26.245  27.348  1.00  0.00    -0.248 NA
ATOM     18  C   UNL A   1      45.506  24.061  26.608  1.00  0.00     0.031 C 
ATOM     19  C   UNL A   1      40.954  25.146  28.459  1.00  0.00     0.029 A 
ATOM     20  N   UNL A   1      42.438  26.815  28.362  1.00  0.00    -0.354 N 
ATOM     21  C   UNL A   1      46.455  26.126  26.906  1.00  0.00     0.074 A 
ATOM     22  C   UNL A   1      46.634  24.750  26.493  1.00  0.00     0.031 C 
ATOM     23  C   UNL A   1      40.331  26.256  28.872  1.00  0.00     0.029 A 
ATOM     24  C   UNL A   1      41.275  27.366  28.843  1.00  0.00     0.049 A 
ATOM     25  H   UNL A   1      43.269  27.328  28.238  1.00  0.00     0.167 HD
ATOM     26  C   UNL A   1      47.413  27.083  26.844  1.00  0.00     0.037 A 
ATOM     27  C   UNL A   1      41.000  28.623  29.231  1.00  0.00     0.037 A 
ATOM     28  C   UNL A   1      47.221  28.453  27.249  1.00  0.00     0.049 A 
ATOM     29  C   UNL A   1      42.078  29.661  29.135  1.00  0.00     0.074 A 
ATOM     30  C   UNL A   1      48.129  29.499  27.222  1.00  0.00     0.029 A 
ATOM     31  N   UNL A   1      46.035  28.971  27.751  1.00  0.00    -0.354 N 
ATOM     32  N   UNL A   1      43.309  29.536  28.705  1.00  0.00    -0.248 NA
ATOM     33  C   UNL A   1      41.730  31.015  29.584  1.00  0.00     0.031 C 
ATOM     34  C   UNL A   1      47.503  30.639  27.739  1.00  0.00     0.029 A 
ATOM     35  C   UNL A   1      46.191  30.317  28.046  1.00  0.00     0.049 A 
ATOM     36  H   UNL A   1      45.204  28.458  27.878  1.00  0.00     0.167 HD
ATOM     37  C   UNL A   1      43.885  30.789  28.832  1.00  0.00     0.074 A 
ATOM     38  C   UNL A   1      42.855  31.672  29.340  1.00  0.00     0.031 C 
ATOM     39  C   UNL A   1      45.157  31.174  28.566  1.00  0.00     0.037 A 
BRANCH  26  40
ATOM     40  C   UNL A   1      48.766  26.687  26.326  1.00  0.00     0.064 A 
ATOM     41  C   UNL A   1      49.129  26.896  24.987  1.00  0.00     0.173 A 
ATOM     42  C   UNL A   1      49.735  26.157  27.191  1.00  0.00     0.173 A 
ATOM     43  F   UNL A   1      48.237  27.391  24.116  1.00  0.00    -0.203 F 
ATOM     44  C   UNL A   1      50.406  26.576  24.532  1.00  0.00     0.198 A 
ATOM     45  C   UNL A   1      51.018  25.861  26.739  1.00  0.00     0.198 A 
ATOM     46  F   UNL A   1      49.443  25.942  28.483  1.00  0.00    -0.203 F 
ATOM     47  F   UNL A   1      50.720  26.756  23.241  1.00  0.00    -0.200 F 
ATOM     48  C   UNL A   1      51.352  26.067  25.408  1.00  0.00     0.200 A 
ATOM     49  F   UNL A   1      51.935  25.381  27.591  1.00  0.00    -0.200 F 
ATOM     50  F   UNL A   1      52.584  25.773  24.971  1.00  0.00    -0.200 F 
ENDBRANCH  26  40
BRANCH  27  51
ATOM     51  C   UNL A   1      39.649  28.953  29.749  1.00  0.00     0.064 A 
ATOM     52  C   UNL A   1      38.646  29.446  28.903  1.00  0.00     0.173 A 
ATOM     53  C   UNL A   1      39.327  28.762  31.102  1.00  0.00     0.173 A 
ATOM     54  F   UNL A   1      38.909  29.662  27.606  1.00  0.00    -0.203 F 
ATOM     55  C   UNL A   1      37.379  29.750  29.394  1.00  0.00     0.198 A 
ATOM     56  C   UNL A   1      38.050  29.034  31.584  1.00  0.00     0.198 A 
ATOM     57  F   UNL A   1      40.250  28.283  31.950  1.00  0.00    -0.203 F 
ATOM     58  F   UNL A   1      36.450  30.261  28.575  1.00  0.00    -0.200 F 
ATOM     59  C   UNL A   1      37.079  29.537  30.733  1.00  0.00     0.200 A 
ATOM     60  F   UNL A   1      37.761  28.806  32.872  1.00  0.00    -0.200 F 
ATOM     61  F   UNL A   1      35.857  29.819  31.201  1.00  0.00    -0.200 F 
ENDBRANCH  27  51
BRANCH  39  62
ATOM     62  C   UNL A   1      45.491  32.613  28.824  1.00  0.00     0.064 A 
ATOM     63  C   UNL A   1      46.001  33.033  30.063  1.00  0.00     0.173 A 
ATOM     64  C   UNL A   1      45.296  33.581  27.829  1.00  0.00     0.173 A 
ATOM     65  F   UNL A   1      46.187  32.144  31.052  1.00  0.00    -0.203 F 
ATOM     66  C   UNL A   1      46.269  34.375  30.306  1.00  0.00     0.198 A 
ATOM     67  C   UNL A   1      45.591  34.920  28.068  1.00  0.00     0.198 A 
ATOM     68  F   UNL A   1      44.815  33.229  26.627  1.00  0.00    -0.203 F 
ATOM     69  F   UNL A   1      46.699  34.762  31.516  1.00  0.00    -0.200 F 
ATOM     70  C   UNL A   1      46.067  35.317  29.309  1.00  0.00     0.200 A 
ATOM     71  F   UNL A   1      45.405  35.828  27.101  1.00  0.00    -0.200 F 
ATOM     72  F   UNL A   1      46.320  36.612  29.547  1.00  0.00    -0.200 F 
ENDBRANCH  39  62
ENDBRANCH  13  14
ENDBRANCH   6   8
ENDBRANCH   3   4
ENDBRANCH   2   3
ENDBRANCH   1   2
BRANCH   1  73
ATOM     73  C   UNL A   1      36.260  21.619  25.247  1.00  0.00     0.002 C 
BRANCH  73  74
ATOM     74  C   UNL A   1      35.662  22.412  24.080  1.00  0.00     0.021 C 
BRANCH  74  75
ATOM     75  C   UNL A   1      35.094  23.778  24.445  1.00  0.00     0.116 C 
BRANCH  75  76
ATOM     76  N   UNL A   1      34.690  24.528  23.271  1.00  0.00    -0.351 N 
ATOM     77  C   UNL A   1      33.635  25.301  22.933  1.00  0.00     0.279 C 
ATOM     78  H   UNL A   1      35.346  24.454  22.541  1.00  0.00     0.163 HD
ATOM     79  O   UNL A   1      33.674  25.737  21.771  1.00  0.00    -0.268 OA
BRANCH  77  80
ATOM     80  C   UNL A   1      32.429  25.677  23.824  1.00  0.00     0.284 C 
ATOM     81  C   UNL A   1      32.564  25.865  25.319  1.00  0.00     0.151 C 
ATOM     82  N   UNL A   1      31.244  24.825  23.530  1.00  0.00    -0.319 N 
ATOM     83  S   UNL A   1      31.938  24.338  26.055  1.00  0.00    -0.085 SA
ATOM     84  C   UNL A   1      31.161  23.737  24.516  1.00  0.00     0.303 C 
ATOM     85  H   UNL A   1      31.335  24.430  22.594  1.00  0.00     0.348 HD
ATOM     86  H   UNL A   1      30.399  25.394  23.580  1.00  0.00     0.348 HD
BRANCH  84  87
ATOM     87  C   UNL A   1      31.715  22.388  24.078  1.00  0.00     0.162 A 
ATOM     88  N   UNL A   1      31.893  22.038  22.814  1.00  0.00    -0.242 NA
ATOM     89  S   UNL A   1      32.255  21.204  25.217  1.00  0.00    -0.112 S 
ATOM     90  C   UNL A   1      32.344  20.734  22.739  1.00  0.00     0.132 A 
ATOM     91  C   UNL A   1      32.510  20.080  23.945  1.00  0.00     0.055 A 
BRANCH  91  92
ATOM     92  C   UNL A   1      32.811  18.670  24.203  1.00  0.00    -0.007 A 
ATOM     93  C   UNL A   1      33.403  17.867  23.214  1.00  0.00     0.009 A 
ATOM     94  C   UNL A   1      32.604  18.119  25.475  1.00  0.00     0.009 A 
ATOM     95  C   UNL A   1      33.806  16.560  23.497  1.00  0.00     0.001 A 
ATOM     96  C   UNL A   1      32.992  16.805  25.753  1.00  0.00     0.001 A 
ATOM     97  C   UNL A   1      33.602  16.030  24.767  1.00  0.00     0.000 A 
ENDBRANCH  91  92
ENDBRANCH  84  87
ENDBRANCH  77  80
ENDBRANCH  75  76
ENDBRANCH  74  75
ENDBRANCH  73  74
ENDBRANCH   1  73
TORSDOF 15
ENDMDL
