MODEL 1
REMARK VINA RESULT:     -13.1      0.000      0.000
REMARK SMILES O=C(NCCCCCCNC(=O)[C@@H]1[C@@H](C(=O)NCc2ccccc2OCc2ccccc2)[C@@H]2C=C[C@H]1C2)c1ccc(-c2c3nc(c(-c4c(F)c(F)c(F)c(F)c4F)c4ccc([nH]4)c(-c4c(F)c(F)c(F)c(F)c4F)c4nc(c(-c5c(F)c(F)c(F)c(F)c5F)c5ccc2[nH]5)C=C4)C=C3)cc1
REMARK SMILES IDX 8 1 7 2 6 3 5 4 4 5 3 6 1 7 2 8 38 10 39 11 100 12 40 13
REMARK SMILES IDX 99 14 41 15 42 16 43 17 93 18 44 19 98 20 92 21 94 22 45 23
REMARK SMILES IDX 97 24 91 25 90 26 46 28 78 29 58 30 77 31 59 32 62 33 76 34
REMARK SMILES IDX 95 35 60 36 61 37 75 39 96 40 63 41 47 42 48 43 56 44 49 45
REMARK SMILES IDX 50 46 54 47 57 48 51 49 52 50 55 51 53 52 79 53 80 54 88 55
REMARK SMILES IDX 81 56 82 57 86 58 89 59 83 60 84 61 87 62 85 63 64 64 65 65
REMARK SMILES IDX 73 66 66 67 67 68 71 69 74 70 68 71 69 72 72 73 70 74 9 75
REMARK SMILES IDX 10 76 11 77 12 79 13 80 14 81 36 82 33 83 35 84 37 85 34 86
REMARK SMILES IDX 15 87 16 88 17 89 18 91 19 92 20 93 24 94 21 95 23 96 22 97
REMARK SMILES IDX 25 98 26 99 27 100 28 101 32 102 29 103 31 104 30 105
REMARK H PARENT 3 9 94 27 62 38 10 78 17 90
REMARK Flexibility Score: inf
ROOT
ATOM      1  C   UNL A   1      37.033  23.196  24.091  1.00  0.00     0.021 C 
ENDROOT
BRANCH   1   2
ATOM      2  C   UNL A   1      37.578  22.092  25.003  1.00  0.00     0.002 C 
BRANCH   2   3
ATOM      3  C   UNL A   1      37.106  20.687  24.624  1.00  0.00     0.002 C 
BRANCH   3   4
ATOM      4  C   UNL A   1      38.082  19.578  25.017  1.00  0.00     0.021 C 
BRANCH   4   5
ATOM      5  C   UNL A   1      39.291  20.092  25.784  1.00  0.00     0.116 C 
BRANCH   5   6
ATOM      6  N   UNL A   1      40.276  19.035  25.964  1.00  0.00    -0.352 N 
ATOM      7  O   UNL A   1      42.378  18.198  25.923  1.00  0.00    -0.269 OA
ATOM      8  C   UNL A   1      41.631  19.163  26.089  1.00  0.00     0.251 C 
ATOM      9  H   UNL A   1      39.923  18.117  25.999  1.00  0.00     0.163 HD
BRANCH   8  10
ATOM     10  C   UNL A   1      42.186  20.480  26.443  1.00  0.00     0.039 A 
ATOM     11  C   UNL A   1      42.514  21.383  25.425  1.00  0.00     0.014 A 
ATOM     12  C   UNL A   1      42.357  20.823  27.784  1.00  0.00     0.014 A 
ATOM     13  C   UNL A   1      43.097  22.599  25.745  1.00  0.00     0.010 A 
ATOM     14  C   UNL A   1      42.859  22.082  28.108  1.00  0.00     0.010 A 
ATOM     15  C   UNL A   1      43.227  22.978  27.089  1.00  0.00    -0.014 A 
BRANCH  15  16
ATOM     16  C   UNL A   1      43.602  24.374  27.406  1.00  0.00     0.031 A 
ATOM     17  C   UNL A   1      42.585  25.367  27.873  1.00  0.00     0.074 A 
ATOM     18  C   UNL A   1      44.891  24.729  27.235  1.00  0.00     0.049 A 
ATOM     19  N   UNL A   1      42.741  26.640  28.131  1.00  0.00    -0.248 NA
ATOM     20  C   UNL A   1      41.210  24.878  28.068  1.00  0.00     0.031 C 
ATOM     21  C   UNL A   1      45.954  23.833  26.769  1.00  0.00     0.029 A 
ATOM     22  N   UNL A   1      45.529  25.926  27.424  1.00  0.00    -0.354 N 
ATOM     23  C   UNL A   1      41.487  27.111  28.495  1.00  0.00     0.074 A 
ATOM     24  C   UNL A   1      40.574  25.990  28.416  1.00  0.00     0.031 C 
ATOM     25  C   UNL A   1      47.112  24.504  26.726  1.00  0.00     0.029 A 
ATOM     26  C   UNL A   1      46.859  25.893  27.084  1.00  0.00     0.049 A 
ATOM     27  H   UNL A   1      45.079  26.731  27.769  1.00  0.00     0.167 HD
ATOM     28  C   UNL A   1      41.144  28.369  28.858  1.00  0.00     0.037 A 
ATOM     29  C   UNL A   1      47.766  26.884  27.020  1.00  0.00     0.037 A 
ATOM     30  C   UNL A   1      42.075  29.465  28.948  1.00  0.00     0.049 A 
ATOM     31  C   UNL A   1      47.338  28.274  27.388  1.00  0.00     0.074 A 
ATOM     32  C   UNL A   1      41.844  30.757  29.385  1.00  0.00     0.029 A 
ATOM     33  N   UNL A   1      43.412  29.401  28.578  1.00  0.00    -0.354 N 
ATOM     34  N   UNL A   1      46.168  28.694  27.806  1.00  0.00    -0.248 NA
ATOM     35  C   UNL A   1      48.350  29.332  27.271  1.00  0.00     0.031 C 
ATOM     36  C   UNL A   1      43.018  31.494  29.213  1.00  0.00     0.029 A 
ATOM     37  C   UNL A   1      44.002  30.647  28.728  1.00  0.00     0.049 A 
ATOM     38  H   UNL A   1      43.872  28.592  28.257  1.00  0.00     0.167 HD
ATOM     39  C   UNL A   1      46.305  30.057  28.012  1.00  0.00     0.074 A 
ATOM     40  C   UNL A   1      47.680  30.391  27.703  1.00  0.00     0.031 C 
ATOM     41  C   UNL A   1      45.373  30.956  28.413  1.00  0.00     0.037 A 
BRANCH  28  42
ATOM     42  C   UNL A   1      39.702  28.656  29.160  1.00  0.00     0.064 A 
ATOM     43  C   UNL A   1      39.170  28.509  30.448  1.00  0.00     0.173 A 
ATOM     44  C   UNL A   1      38.866  29.177  28.160  1.00  0.00     0.173 A 
ATOM     45  F   UNL A   1      39.923  28.009  31.439  1.00  0.00    -0.203 F 
ATOM     46  C   UNL A   1      37.851  28.867  30.722  1.00  0.00     0.198 A 
ATOM     47  C   UNL A   1      37.557  29.558  28.443  1.00  0.00     0.198 A 
ATOM     48  F   UNL A   1      39.328  29.344  26.911  1.00  0.00    -0.203 F 
ATOM     49  F   UNL A   1      37.355  28.696  31.956  1.00  0.00    -0.200 F 
ATOM     50  C   UNL A   1      37.051  29.402  29.723  1.00  0.00     0.200 A 
ATOM     51  F   UNL A   1      36.792  30.090  27.480  1.00  0.00    -0.200 F 
ATOM     52  F   UNL A   1      35.789  29.766  29.995  1.00  0.00    -0.200 F 
ENDBRANCH  28  42
BRANCH  29  53
ATOM     53  C   UNL A   1      49.145  26.601  26.539  1.00  0.00     0.064 A 
ATOM     54  C   UNL A   1      50.138  26.142  27.412  1.00  0.00     0.173 A 
ATOM     55  C   UNL A   1      49.500  26.802  25.195  1.00  0.00     0.173 A 
ATOM     56  F   UNL A   1      49.853  25.951  28.709  1.00  0.00    -0.203 F 
ATOM     57  C   UNL A   1      51.440  25.923  26.969  1.00  0.00     0.198 A 
ATOM     58  C   UNL A   1      50.791  26.544  24.744  1.00  0.00     0.198 A 
ATOM     59  F   UNL A   1      48.585  27.232  24.314  1.00  0.00    -0.203 F 
ATOM     60  F   UNL A   1      52.386  25.541  27.838  1.00  0.00    -0.200 F 
ATOM     61  C   UNL A   1      51.764  26.119  25.634  1.00  0.00     0.200 A 
ATOM     62  F   UNL A   1      51.094  26.716  23.451  1.00  0.00    -0.200 F 
ATOM     63  F   UNL A   1      53.017  25.908  25.209  1.00  0.00    -0.200 F 
ENDBRANCH  29  53
BRANCH  41  64
ATOM     64  C   UNL A   1      45.815  32.383  28.551  1.00  0.00     0.064 A 
ATOM     65  C   UNL A   1      45.717  33.286  27.482  1.00  0.00     0.173 A 
ATOM     66  C   UNL A   1      46.298  32.862  29.777  1.00  0.00     0.173 A 
ATOM     67  F   UNL A   1      45.282  32.869  26.283  1.00  0.00    -0.203 F 
ATOM     68  C   UNL A   1      46.102  34.615  27.634  1.00  0.00     0.198 A 
ATOM     69  C   UNL A   1      46.649  34.200  29.934  1.00  0.00     0.198 A 
ATOM     70  F   UNL A   1      46.407  32.039  30.830  1.00  0.00    -0.203 F 
ATOM     71  F   UNL A   1      46.042  35.450  26.588  1.00  0.00    -0.200 F 
ATOM     72  C   UNL A   1      46.556  35.073  28.862  1.00  0.00     0.200 A 
ATOM     73  F   UNL A   1      47.074  34.644  31.125  1.00  0.00    -0.200 F 
ATOM     74  F   UNL A   1      46.912  36.356  29.009  1.00  0.00    -0.200 F 
ENDBRANCH  41  64
ENDBRANCH  15  16
ENDBRANCH   8  10
ENDBRANCH   5   6
ENDBRANCH   4   5
ENDBRANCH   3   4
ENDBRANCH   2   3
ENDBRANCH   1   2
BRANCH   1  75
ATOM     75  C   UNL A   1      35.776  23.861  24.659  1.00  0.00     0.116 C 
BRANCH  75  76
ATOM     76  N   UNL A   1      34.719  23.802  23.676  1.00  0.00    -0.356 N 
ATOM     77  C   UNL A   1      33.447  24.270  23.734  1.00  0.00     0.224 C 
ATOM     78  H   UNL A   1      34.958  23.353  22.833  1.00  0.00     0.163 HD
ATOM     79  O   UNL A   1      32.648  23.772  22.933  1.00  0.00    -0.275 OA
BRANCH  77  80
ATOM     80  C   UNL A   1      33.042  25.489  24.558  1.00  0.00     0.098 C 
ATOM     81  C   UNL A   1      31.579  25.967  24.718  1.00  0.00     0.098 C 
ATOM     82  C   UNL A   1      33.718  26.775  23.981  1.00  0.00     0.025 C 
ATOM     83  C   UNL A   1      31.609  27.449  24.269  1.00  0.00     0.025 C 
ATOM     84  C   UNL A   1      33.144  27.040  22.604  1.00  0.00    -0.027 C 
ATOM     85  C   UNL A   1      32.991  27.907  24.712  1.00  0.00     0.017 C 
ATOM     86  C   UNL A   1      31.874  27.443  22.775  1.00  0.00    -0.027 C 
BRANCH  81  87
ATOM     87  C   UNL A   1      30.900  25.760  26.068  1.00  0.00     0.224 C 
ATOM     88  O   UNL A   1      30.688  26.762  26.769  1.00  0.00    -0.275 OA
ATOM     89  N   UNL A   1      30.523  24.582  26.607  1.00  0.00    -0.352 N 
ATOM     90  H   UNL A   1      30.144  24.691  27.508  1.00  0.00     0.163 HD
BRANCH  89  91
ATOM     91  C   UNL A   1      30.542  23.191  26.184  1.00  0.00     0.155 C 
BRANCH  91  92
ATOM     92  C   UNL A   1      31.826  22.488  26.536  1.00  0.00     0.013 A 
ATOM     93  C   UNL A   1      32.608  23.062  27.567  1.00  0.00     0.009 A 
ATOM     94  C   UNL A   1      32.365  21.408  25.829  1.00  0.00     0.124 A 
ATOM     95  C   UNL A   1      33.922  22.668  27.804  1.00  0.00     0.001 A 
ATOM     96  C   UNL A   1      33.712  21.062  26.036  1.00  0.00     0.047 A 
ATOM     97  C   UNL A   1      34.490  21.690  27.005  1.00  0.00     0.004 A 
BRANCH  94  98
ATOM     98  O   UNL A   1      31.774  20.567  24.942  1.00  0.00    -0.489 OA
BRANCH  98  99
ATOM     99  C   UNL A   1      32.457  19.684  24.051  1.00  0.00     0.265 C 
BRANCH  99 100
ATOM    100  C   UNL A   1      32.919  18.286  24.441  1.00  0.00    -0.011 A 
ATOM    101  C   UNL A   1      32.459  17.558  25.543  1.00  0.00     0.007 A 
ATOM    102  C   UNL A   1      33.846  17.662  23.585  1.00  0.00     0.007 A 
ATOM    103  C   UNL A   1      32.793  16.209  25.702  1.00  0.00     0.000 A 
ATOM    104  C   UNL A   1      34.224  16.331  23.773  1.00  0.00     0.000 A 
ATOM    105  C   UNL A   1      33.666  15.592  24.810  1.00  0.00     0.000 A 
ENDBRANCH  99 100
ENDBRANCH  98  99
ENDBRANCH  94  98
ENDBRANCH  91  92
ENDBRANCH  89  91
ENDBRANCH  81  87
ENDBRANCH  77  80
ENDBRANCH  75  76
ENDBRANCH   1  75
TORSDOF 19
ENDMDL
MODEL 2
REMARK VINA RESULT:     -12.7      1.717      8.127
REMARK SMILES O=C(NCCCCCCNC(=O)[C@@H]1[C@@H](C(=O)NCc2ccccc2OCc2ccccc2)[C@@H]2C=C[C@H]1C2)c1ccc(-c2c3nc(c(-c4c(F)c(F)c(F)c(F)c4F)c4ccc([nH]4)c(-c4c(F)c(F)c(F)c(F)c4F)c4nc(c(-c5c(F)c(F)c(F)c(F)c5F)c5ccc2[nH]5)C=C4)C=C3)cc1
REMARK SMILES IDX 8 1 7 2 6 3 5 4 4 5 3 6 1 7 2 8 38 10 39 11 100 12 40 13
REMARK SMILES IDX 99 14 41 15 42 16 43 17 93 18 44 19 98 20 92 21 94 22 45 23
REMARK SMILES IDX 97 24 91 25 90 26 46 28 78 29 58 30 77 31 59 32 62 33 76 34
REMARK SMILES IDX 95 35 60 36 61 37 75 39 96 40 63 41 47 42 48 43 56 44 49 45
REMARK SMILES IDX 50 46 54 47 57 48 51 49 52 50 55 51 53 52 79 53 80 54 88 55
REMARK SMILES IDX 81 56 82 57 86 58 89 59 83 60 84 61 87 62 85 63 64 64 65 65
REMARK SMILES IDX 73 66 66 67 67 68 71 69 74 70 68 71 69 72 72 73 70 74 9 75
REMARK SMILES IDX 10 76 11 77 12 79 13 80 14 81 36 82 33 83 35 84 37 85 34 86
REMARK SMILES IDX 15 87 16 88 17 89 18 91 19 92 20 93 24 94 21 95 23 96 22 97
REMARK SMILES IDX 25 98 26 99 27 100 28 101 32 102 29 103 31 104 30 105
REMARK H PARENT 3 9 94 27 62 38 10 78 17 90
REMARK Flexibility Score: inf
ROOT
ATOM      1  C   UNL A   1      36.322  22.857  26.070  1.00  0.00     0.021 C 
ENDROOT
BRANCH   1   2
ATOM      2  C   UNL A   1      36.131  21.441  25.517  1.00  0.00     0.002 C 
BRANCH   2   3
ATOM      3  C   UNL A   1      37.188  21.030  24.490  1.00  0.00     0.002 C 
BRANCH   3   4
ATOM      4  C   UNL A   1      38.099  19.895  24.959  1.00  0.00     0.021 C 
BRANCH   4   5
ATOM      5  C   UNL A   1      39.250  20.376  25.831  1.00  0.00     0.116 C 
BRANCH   5   6
ATOM      6  N   UNL A   1      40.242  19.325  26.002  1.00  0.00    -0.352 N 
ATOM      7  O   UNL A   1      42.347  18.498  25.935  1.00  0.00    -0.269 OA
ATOM      8  C   UNL A   1      41.599  19.460  26.106  1.00  0.00     0.251 C 
ATOM      9  H   UNL A   1      39.895  18.405  26.049  1.00  0.00     0.163 HD
BRANCH   8  10
ATOM     10  C   UNL A   1      42.152  20.782  26.444  1.00  0.00     0.039 A 
ATOM     11  C   UNL A   1      42.540  21.647  25.415  1.00  0.00     0.014 A 
ATOM     12  C   UNL A   1      42.262  21.167  27.780  1.00  0.00     0.014 A 
ATOM     13  C   UNL A   1      43.123  22.867  25.724  1.00  0.00     0.010 A 
ATOM     14  C   UNL A   1      42.764  22.431  28.087  1.00  0.00     0.010 A 
ATOM     15  C   UNL A   1      43.192  23.289  27.059  1.00  0.00    -0.014 A 
BRANCH  15  16
ATOM     16  C   UNL A   1      43.568  24.690  27.349  1.00  0.00     0.031 A 
ATOM     17  C   UNL A   1      44.999  25.128  27.356  1.00  0.00     0.074 A 
ATOM     18  C   UNL A   1      42.576  25.557  27.632  1.00  0.00     0.049 A 
ATOM     19  N   UNL A   1      45.496  26.302  27.651  1.00  0.00    -0.248 NA
ATOM     20  C   UNL A   1      46.010  24.120  26.996  1.00  0.00     0.031 C 
ATOM     21  C   UNL A   1      41.149  25.220  27.664  1.00  0.00     0.029 A 
ATOM     22  N   UNL A   1      42.606  26.889  27.951  1.00  0.00    -0.354 N 
ATOM     23  C   UNL A   1      46.873  26.171  27.537  1.00  0.00     0.074 A 
ATOM     24  C   UNL A   1      47.139  24.800  27.155  1.00  0.00     0.031 C 
ATOM     25  C   UNL A   1      40.441  26.316  27.965  1.00  0.00     0.029 A 
ATOM     26  C   UNL A   1      41.365  27.411  28.225  1.00  0.00     0.049 A 
ATOM     27  H   UNL A   1      43.435  27.420  27.981  1.00  0.00     0.167 HD
ATOM     28  C   UNL A   1      47.817  27.120  27.739  1.00  0.00     0.037 A 
ATOM     29  C   UNL A   1      41.014  28.626  28.682  1.00  0.00     0.037 A 
ATOM     30  C   UNL A   1      47.527  28.484  28.100  1.00  0.00     0.049 A 
ATOM     31  C   UNL A   1      42.093  29.638  28.935  1.00  0.00     0.074 A 
ATOM     32  C   UNL A   1      48.406  29.542  28.246  1.00  0.00     0.029 A 
ATOM     33  N   UNL A   1      46.260  28.975  28.388  1.00  0.00    -0.354 N 
ATOM     34  N   UNL A   1      43.387  29.529  28.750  1.00  0.00    -0.248 NA
ATOM     35  C   UNL A   1      41.670  30.939  29.467  1.00  0.00     0.031 C 
ATOM     36  C   UNL A   1      47.684  30.652  28.692  1.00  0.00     0.029 A 
ATOM     37  C   UNL A   1      46.345  30.307  28.763  1.00  0.00     0.049 A 
ATOM     38  H   UNL A   1      45.426  28.455  28.334  1.00  0.00     0.167 HD
ATOM     39  C   UNL A   1      43.929  30.745  29.130  1.00  0.00     0.074 A 
ATOM     40  C   UNL A   1      42.822  31.591  29.529  1.00  0.00     0.031 C 
ATOM     41  C   UNL A   1      45.229  31.128  29.156  1.00  0.00     0.037 A 
BRANCH  28  42
ATOM     42  C   UNL A   1      49.260  26.728  27.607  1.00  0.00     0.064 A 
ATOM     43  C   UNL A   1      50.062  26.459  28.724  1.00  0.00     0.173 A 
ATOM     44  C   UNL A   1      49.818  26.528  26.334  1.00  0.00     0.173 A 
ATOM     45  F   UNL A   1      49.580  26.640  29.962  1.00  0.00    -0.203 F 
ATOM     46  C   UNL A   1      51.373  26.010  28.572  1.00  0.00     0.198 A 
ATOM     47  C   UNL A   1      51.119  26.054  26.186  1.00  0.00     0.198 A 
ATOM     48  F   UNL A   1      49.091  26.765  25.232  1.00  0.00    -0.203 F 
ATOM     49  F   UNL A   1      52.131  25.781  29.654  1.00  0.00    -0.200 F 
ATOM     50  C   UNL A   1      51.895  25.797  27.304  1.00  0.00     0.200 A 
ATOM     51  F   UNL A   1      51.615  25.834  24.961  1.00  0.00    -0.200 F 
ATOM     52  F   UNL A   1      53.149  25.345  27.161  1.00  0.00    -0.200 F 
ENDBRANCH  28  42
BRANCH  29  53
ATOM     53  C   UNL A   1      39.588  28.926  28.979  1.00  0.00     0.064 A 
ATOM     54  C   UNL A   1      39.068  28.769  30.269  1.00  0.00     0.173 A 
ATOM     55  C   UNL A   1      38.713  29.360  27.970  1.00  0.00     0.173 A 
ATOM     56  F   UNL A   1      39.859  28.341  31.264  1.00  0.00    -0.203 F 
ATOM     57  C   UNL A   1      37.721  29.006  30.534  1.00  0.00     0.198 A 
ATOM     58  C   UNL A   1      37.376  29.634  28.245  1.00  0.00     0.198 A 
ATOM     59  F   UNL A   1      39.161  29.534  26.719  1.00  0.00    -0.203 F 
ATOM     60  F   UNL A   1      37.235  28.790  31.764  1.00  0.00    -0.200 F 
ATOM     61  C   UNL A   1      36.877  29.443  29.523  1.00  0.00     0.200 A 
ATOM     62  F   UNL A   1      36.571  30.076  27.269  1.00  0.00    -0.200 F 
ATOM     63  F   UNL A   1      35.582  29.670  29.780  1.00  0.00    -0.200 F 
ENDBRANCH  29  53
BRANCH  41  64
ATOM     64  C   UNL A   1      45.521  32.524  29.620  1.00  0.00     0.064 A 
ATOM     65  C   UNL A   1      45.828  32.802  30.961  1.00  0.00     0.173 A 
ATOM     66  C   UNL A   1      45.539  33.588  28.706  1.00  0.00     0.173 A 
ATOM     67  F   UNL A   1      45.802  31.821  31.876  1.00  0.00    -0.203 F 
ATOM     68  C   UNL A   1      46.128  34.097  31.371  1.00  0.00     0.198 A 
ATOM     69  C   UNL A   1      45.872  34.876  29.114  1.00  0.00     0.198 A 
ATOM     70  F   UNL A   1      45.255  33.375  27.413  1.00  0.00    -0.203 F 
ATOM     71  F   UNL A   1      46.375  34.348  32.664  1.00  0.00    -0.200 F 
ATOM     72  C   UNL A   1      46.160  35.131  30.446  1.00  0.00     0.200 A 
ATOM     73  F   UNL A   1      45.917  35.871  28.217  1.00  0.00    -0.200 F 
ATOM     74  F   UNL A   1      46.463  36.374  30.841  1.00  0.00    -0.200 F 
ENDBRANCH  41  64
ENDBRANCH  15  16
ENDBRANCH   8  10
ENDBRANCH   5   6
ENDBRANCH   4   5
ENDBRANCH   3   4
ENDBRANCH   2   3
ENDBRANCH   1   2
BRANCH   1  75
ATOM     75  C   UNL A   1      34.993  23.568  26.340  1.00  0.00     0.116 C 
BRANCH  75  76
ATOM     76  N   UNL A   1      34.910  24.754  25.519  1.00  0.00    -0.356 N 
ATOM     77  C   UNL A   1      34.047  25.064  24.520  1.00  0.00     0.224 C 
ATOM     78  H   UNL A   1      35.584  25.444  25.715  1.00  0.00     0.163 HD
ATOM     79  O   UNL A   1      34.413  25.952  23.741  1.00  0.00    -0.275 OA
BRANCH  77  80
ATOM     80  C   UNL A   1      32.615  24.540  24.460  1.00  0.00     0.098 C 
ATOM     81  C   UNL A   1      32.025  23.541  25.482  1.00  0.00     0.098 C 
ATOM     82  C   UNL A   1      32.378  23.776  23.118  1.00  0.00     0.025 C 
ATOM     83  C   UNL A   1      31.492  22.374  24.613  1.00  0.00     0.025 C 
ATOM     84  C   UNL A   1      33.238  22.528  23.121  1.00  0.00    -0.027 C 
ATOM     85  C   UNL A   1      31.033  23.081  23.346  1.00  0.00     0.017 C 
ATOM     86  C   UNL A   1      32.708  21.684  24.023  1.00  0.00    -0.027 C 
BRANCH  81  87
ATOM     87  C   UNL A   1      31.001  24.059  26.487  1.00  0.00     0.224 C 
ATOM     88  O   UNL A   1      30.737  23.344  27.465  1.00  0.00    -0.275 OA
ATOM     89  N   UNL A   1      30.315  25.218  26.410  1.00  0.00    -0.352 N 
ATOM     90  H   UNL A   1      29.676  25.320  27.151  1.00  0.00     0.163 HD
BRANCH  89  91
ATOM     91  C   UNL A   1      30.287  26.353  25.502  1.00  0.00     0.155 C 
BRANCH  91  92
ATOM     92  C   UNL A   1      31.365  27.364  25.792  1.00  0.00     0.013 A 
ATOM     93  C   UNL A   1      31.714  27.554  27.151  1.00  0.00     0.009 A 
ATOM     94  C   UNL A   1      31.935  28.220  24.843  1.00  0.00     0.124 A 
ATOM     95  C   UNL A   1      32.494  28.629  27.569  1.00  0.00     0.001 A 
ATOM     96  C   UNL A   1      32.669  29.335  25.285  1.00  0.00     0.047 A 
ATOM     97  C   UNL A   1      32.938  29.549  26.634  1.00  0.00     0.004 A 
BRANCH  94  98
ATOM     98  O   UNL A   1      31.925  28.145  23.487  1.00  0.00    -0.489 OA
BRANCH  98  99
ATOM     99  C   UNL A   1      31.115  28.934  22.617  1.00  0.00     0.265 C 
BRANCH  99 100
ATOM    100  C   UNL A   1      29.787  29.552  23.032  1.00  0.00    -0.011 A 
ATOM    101  C   UNL A   1      29.618  30.843  23.543  1.00  0.00     0.007 A 
ATOM    102  C   UNL A   1      28.632  28.772  22.832  1.00  0.00     0.007 A 
ATOM    103  C   UNL A   1      28.341  31.390  23.705  1.00  0.00     0.000 A 
ATOM    104  C   UNL A   1      27.356  29.297  23.045  1.00  0.00     0.000 A 
ATOM    105  C   UNL A   1      27.210  30.621  23.445  1.00  0.00     0.000 A 
ENDBRANCH  99 100
ENDBRANCH  98  99
ENDBRANCH  94  98
ENDBRANCH  91  92
ENDBRANCH  89  91
ENDBRANCH  81  87
ENDBRANCH  77  80
ENDBRANCH  75  76
ENDBRANCH   1  75
TORSDOF 19
ENDMDL
MODEL 3
REMARK VINA RESULT:     -12.7      1.293      4.194
REMARK SMILES O=C(NCCCCCCNC(=O)[C@@H]1[C@@H](C(=O)NCc2ccccc2OCc2ccccc2)[C@@H]2C=C[C@H]1C2)c1ccc(-c2c3nc(c(-c4c(F)c(F)c(F)c(F)c4F)c4ccc([nH]4)c(-c4c(F)c(F)c(F)c(F)c4F)c4nc(c(-c5c(F)c(F)c(F)c(F)c5F)c5ccc2[nH]5)C=C4)C=C3)cc1
REMARK SMILES IDX 8 1 7 2 6 3 5 4 4 5 3 6 1 7 2 8 38 10 39 11 100 12 40 13
REMARK SMILES IDX 99 14 41 15 42 16 43 17 93 18 44 19 98 20 92 21 94 22 45 23
REMARK SMILES IDX 97 24 91 25 90 26 46 28 78 29 58 30 77 31 59 32 62 33 76 34
REMARK SMILES IDX 95 35 60 36 61 37 75 39 96 40 63 41 47 42 48 43 56 44 49 45
REMARK SMILES IDX 50 46 54 47 57 48 51 49 52 50 55 51 53 52 79 53 80 54 88 55
REMARK SMILES IDX 81 56 82 57 86 58 89 59 83 60 84 61 87 62 85 63 64 64 65 65
REMARK SMILES IDX 73 66 66 67 67 68 71 69 74 70 68 71 69 72 72 73 70 74 9 75
REMARK SMILES IDX 10 76 11 77 12 79 13 80 14 81 36 82 33 83 35 84 37 85 34 86
REMARK SMILES IDX 15 87 16 88 17 89 18 91 19 92 20 93 24 94 21 95 23 96 22 97
REMARK SMILES IDX 25 98 26 99 27 100 28 101 32 102 29 103 31 104 30 105
REMARK H PARENT 3 9 94 27 62 38 10 78 17 90
REMARK Flexibility Score: inf
ROOT
ATOM      1  C   UNL A   1      37.048  23.715  25.140  1.00  0.00     0.021 C 
ENDROOT
BRANCH   1   2
ATOM      2  C   UNL A   1      37.414  22.326  25.672  1.00  0.00     0.002 C 
BRANCH   2   3
ATOM      3  C   UNL A   1      37.400  21.230  24.604  1.00  0.00     0.002 C 
BRANCH   3   4
ATOM      4  C   UNL A   1      38.162  19.966  25.002  1.00  0.00     0.021 C 
BRANCH   4   5
ATOM      5  C   UNL A   1      39.169  20.203  26.117  1.00  0.00     0.116 C 
BRANCH   5   6
ATOM      6  N   UNL A   1      40.195  19.170  26.114  1.00  0.00    -0.352 N 
ATOM      7  O   UNL A   1      42.292  18.401  25.757  1.00  0.00    -0.269 OA
ATOM      8  C   UNL A   1      41.551  19.334  26.065  1.00  0.00     0.251 C 
ATOM      9  H   UNL A   1      39.873  18.241  26.152  1.00  0.00     0.163 HD
BRANCH   8  10
ATOM     10  C   UNL A   1      42.116  20.651  26.405  1.00  0.00     0.039 A 
ATOM     11  C   UNL A   1      42.410  21.557  25.381  1.00  0.00     0.014 A 
ATOM     12  C   UNL A   1      42.329  20.990  27.742  1.00  0.00     0.014 A 
ATOM     13  C   UNL A   1      43.003  22.772  25.685  1.00  0.00     0.010 A 
ATOM     14  C   UNL A   1      42.840  22.249  28.053  1.00  0.00     0.010 A 
ATOM     15  C   UNL A   1      43.175  23.148  27.025  1.00  0.00    -0.014 A 
BRANCH  15  16
ATOM     16  C   UNL A   1      43.558  24.543  27.334  1.00  0.00     0.031 A 
ATOM     17  C   UNL A   1      42.550  25.541  27.812  1.00  0.00     0.074 A 
ATOM     18  C   UNL A   1      44.846  24.894  27.146  1.00  0.00     0.049 A 
ATOM     19  N   UNL A   1      42.714  26.814  28.065  1.00  0.00    -0.248 NA
ATOM     20  C   UNL A   1      41.177  25.057  28.026  1.00  0.00     0.031 C 
ATOM     21  C   UNL A   1      45.900  23.993  26.667  1.00  0.00     0.029 A 
ATOM     22  N   UNL A   1      45.490  26.089  27.323  1.00  0.00    -0.354 N 
ATOM     23  C   UNL A   1      41.466  27.290  28.444  1.00  0.00     0.074 A 
ATOM     24  C   UNL A   1      40.549  26.171  28.380  1.00  0.00     0.031 C 
ATOM     25  C   UNL A   1      47.059  24.661  26.608  1.00  0.00     0.029 A 
ATOM     26  C   UNL A   1      46.816  26.051  26.965  1.00  0.00     0.049 A 
ATOM     27  H   UNL A   1      45.047  26.897  27.672  1.00  0.00     0.167 HD
ATOM     28  C   UNL A   1      41.132  28.550  28.809  1.00  0.00     0.037 A 
ATOM     29  C   UNL A   1      47.725  27.039  26.888  1.00  0.00     0.037 A 
ATOM     30  C   UNL A   1      42.068  29.643  28.885  1.00  0.00     0.049 A 
ATOM     31  C   UNL A   1      47.306  28.432  27.259  1.00  0.00     0.074 A 
ATOM     32  C   UNL A   1      41.846  30.936  29.322  1.00  0.00     0.029 A 
ATOM     33  N   UNL A   1      43.400  29.574  28.497  1.00  0.00    -0.354 N 
ATOM     34  N   UNL A   1      46.143  28.856  27.690  1.00  0.00    -0.248 NA
ATOM     35  C   UNL A   1      48.319  29.486  27.126  1.00  0.00     0.031 C 
ATOM     36  C   UNL A   1      43.021  31.669  29.132  1.00  0.00     0.029 A 
ATOM     37  C   UNL A   1      43.996  30.818  28.637  1.00  0.00     0.049 A 
ATOM     38  H   UNL A   1      43.853  28.763  28.172  1.00  0.00     0.167 HD
ATOM     39  C   UNL A   1      46.287  30.219  27.891  1.00  0.00     0.074 A 
ATOM     40  C   UNL A   1      47.659  30.548  27.563  1.00  0.00     0.031 C 
ATOM     41  C   UNL A   1      45.363  31.122  28.303  1.00  0.00     0.037 A 
BRANCH  28  42
ATOM     42  C   UNL A   1      39.695  28.841  29.130  1.00  0.00     0.064 A 
ATOM     43  C   UNL A   1      39.198  28.777  30.438  1.00  0.00     0.173 A 
ATOM     44  C   UNL A   1      38.828  29.286  28.119  1.00  0.00     0.173 A 
ATOM     45  F   UNL A   1      39.983  28.352  31.440  1.00  0.00    -0.203 F 
ATOM     46  C   UNL A   1      37.883  29.139  30.723  1.00  0.00     0.198 A 
ATOM     47  C   UNL A   1      37.522  29.673  28.411  1.00  0.00     0.198 A 
ATOM     48  F   UNL A   1      39.256  29.373  26.850  1.00  0.00    -0.203 F 
ATOM     49  F   UNL A   1      37.421  29.047  31.978  1.00  0.00    -0.200 F 
ATOM     50  C   UNL A   1      37.051  29.598  29.711  1.00  0.00     0.200 A 
ATOM     51  F   UNL A   1      36.726  30.130  27.435  1.00  0.00    -0.200 F 
ATOM     52  F   UNL A   1      35.793  29.967  29.991  1.00  0.00    -0.200 F 
ENDBRANCH  28  42
BRANCH  29  53
ATOM     53  C   UNL A   1      49.096  26.751  26.389  1.00  0.00     0.064 A 
ATOM     54  C   UNL A   1      49.430  26.928  25.041  1.00  0.00     0.173 A 
ATOM     55  C   UNL A   1      50.097  26.276  27.252  1.00  0.00     0.173 A 
ATOM     56  F   UNL A   1      48.504  27.363  24.173  1.00  0.00    -0.203 F 
ATOM     57  C   UNL A   1      50.702  26.613  24.568  1.00  0.00     0.198 A 
ATOM     58  C   UNL A   1      51.379  25.999  26.786  1.00  0.00     0.198 A 
ATOM     59  F   UNL A   1      49.833  26.096  28.555  1.00  0.00    -0.203 F 
ATOM     60  F   UNL A   1      50.977  26.734  23.262  1.00  0.00    -0.200 F 
ATOM     61  C   UNL A   1      51.677  26.154  25.441  1.00  0.00     0.200 A 
ATOM     62  F   UNL A   1      52.322  25.575  27.638  1.00  0.00    -0.200 F 
ATOM     63  F   UNL A   1      52.900  25.851  24.985  1.00  0.00    -0.200 F 
ENDBRANCH  29  53
BRANCH  41  64
ATOM     64  C   UNL A   1      45.812  32.547  28.432  1.00  0.00     0.064 A 
ATOM     65  C   UNL A   1      45.642  33.466  27.385  1.00  0.00     0.173 A 
ATOM     66  C   UNL A   1      46.374  33.010  29.630  1.00  0.00     0.173 A 
ATOM     67  F   UNL A   1      45.128  33.066  26.212  1.00  0.00    -0.203 F 
ATOM     68  C   UNL A   1      46.034  34.793  27.530  1.00  0.00     0.198 A 
ATOM     69  C   UNL A   1      46.733  34.346  29.782  1.00  0.00     0.198 A 
ATOM     70  F   UNL A   1      46.555  32.172  30.662  1.00  0.00    -0.203 F 
ATOM     71  F   UNL A   1      45.903  35.644  26.503  1.00  0.00    -0.200 F 
ATOM     72  C   UNL A   1      46.569  35.234  28.731  1.00  0.00     0.200 A 
ATOM     73  F   UNL A   1      47.237  34.774  30.949  1.00  0.00    -0.200 F 
ATOM     74  F   UNL A   1      46.932  36.516  28.873  1.00  0.00    -0.200 F 
ENDBRANCH  41  64
ENDBRANCH  15  16
ENDBRANCH   8  10
ENDBRANCH   5   6
ENDBRANCH   4   5
ENDBRANCH   3   4
ENDBRANCH   2   3
ENDBRANCH   1   2
BRANCH   1  75
ATOM     75  C   UNL A   1      35.544  23.995  25.212  1.00  0.00     0.116 C 
BRANCH  75  76
ATOM     76  N   UNL A   1      35.008  24.071  23.873  1.00  0.00    -0.356 N 
ATOM     77  C   UNL A   1      34.033  23.336  23.281  1.00  0.00     0.224 C 
ATOM     78  H   UNL A   1      35.411  24.763  23.301  1.00  0.00     0.163 HD
ATOM     79  O   UNL A   1      34.023  23.343  22.045  1.00  0.00    -0.275 OA
BRANCH  77  80
ATOM     80  C   UNL A   1      32.870  22.716  24.050  1.00  0.00     0.098 C 
ATOM     81  C   UNL A   1      32.658  22.893  25.572  1.00  0.00     0.098 C 
ATOM     82  C   UNL A   1      32.917  21.159  23.930  1.00  0.00     0.025 C 
ATOM     83  C   UNL A   1      32.565  21.446  26.116  1.00  0.00     0.025 C 
ATOM     84  C   UNL A   1      34.155  20.661  24.649  1.00  0.00    -0.027 C 
ATOM     85  C   UNL A   1      31.894  20.699  24.973  1.00  0.00     0.017 C 
ATOM     86  C   UNL A   1      33.946  20.835  25.965  1.00  0.00    -0.027 C 
BRANCH  81  87
ATOM     87  C   UNL A   1      31.515  23.787  26.040  1.00  0.00     0.224 C 
ATOM     88  O   UNL A   1      31.259  23.811  27.254  1.00  0.00    -0.275 OA
ATOM     89  N   UNL A   1      30.718  24.546  25.261  1.00  0.00    -0.352 N 
ATOM     90  H   UNL A   1      30.019  25.005  25.781  1.00  0.00     0.163 HD
BRANCH  89  91
ATOM     91  C   UNL A   1      30.635  24.853  23.842  1.00  0.00     0.155 C 
BRANCH  91  92
ATOM     92  C   UNL A   1      30.219  26.275  23.572  1.00  0.00     0.013 A 
ATOM     93  C   UNL A   1      28.898  26.633  23.931  1.00  0.00     0.009 A 
ATOM     94  C   UNL A   1      30.984  27.212  22.870  1.00  0.00     0.124 A 
ATOM     95  C   UNL A   1      28.312  27.821  23.501  1.00  0.00     0.001 A 
ATOM     96  C   UNL A   1      30.361  28.378  22.389  1.00  0.00     0.047 A 
ATOM     97  C   UNL A   1      29.035  28.678  22.690  1.00  0.00     0.004 A 
BRANCH  94  98
ATOM     98  O   UNL A   1      32.309  27.206  22.573  1.00  0.00    -0.489 OA
BRANCH  98  99
ATOM     99  C   UNL A   1      33.373  27.324  23.517  1.00  0.00     0.265 C 
BRANCH  99 100
ATOM    100  C   UNL A   1      33.291  28.178  24.776  1.00  0.00    -0.011 A 
ATOM    101  C   UNL A   1      32.831  29.497  24.832  1.00  0.00     0.007 A 
ATOM    102  C   UNL A   1      33.661  27.562  25.987  1.00  0.00     0.007 A 
ATOM    103  C   UNL A   1      32.604  30.127  26.060  1.00  0.00     0.000 A 
ATOM    104  C   UNL A   1      33.486  28.209  27.212  1.00  0.00     0.000 A 
ATOM    105  C   UNL A   1      32.921  29.479  27.250  1.00  0.00     0.000 A 
ENDBRANCH  99 100
ENDBRANCH  98  99
ENDBRANCH  94  98
ENDBRANCH  91  92
ENDBRANCH  89  91
ENDBRANCH  81  87
ENDBRANCH  77  80
ENDBRANCH  75  76
ENDBRANCH   1  75
TORSDOF 19
ENDMDL
