MODEL 1
REMARK VINA RESULT:     -12.6      0.000      0.000
REMARK SMILES O=C(NCCCCCCNC(=O)[C@H]1C[C@H]2CCCC[C@@H]2[N@@H+]1C1CCSCC1)c1ccc(-c2c3nc(c(-c4c(F)c(F)c(F)c(F)c4F)c4ccc([nH]4)c(-c4c(F)c(F)c(F)c(F)c4F)c4nc(c(-c5c(F)c(F)c(F)c(F)c5F)c5ccc2[nH]5)C=C4)C=C3)cc1
REMARK SMILES IDX 6 1 5 2 4 3 3 4 1 5 2 6 28 8 29 9 90 10 30 11 89 12 31 13
REMARK SMILES IDX 32 14 33 15 83 16 34 17 88 18 82 19 84 20 35 21 87 22 81 23
REMARK SMILES IDX 80 24 36 26 68 27 48 28 67 29 49 30 52 31 66 32 85 33 50 34
REMARK SMILES IDX 51 35 65 37 86 38 53 39 37 40 38 41 46 42 39 43 40 44 44 45
REMARK SMILES IDX 47 46 41 47 42 48 45 49 43 50 69 51 70 52 78 53 71 54 72 55
REMARK SMILES IDX 76 56 79 57 73 58 74 59 77 60 75 61 54 62 55 63 63 64 56 65
REMARK SMILES IDX 57 66 61 67 64 68 58 69 59 70 62 71 60 72 7 73 8 74 9 75
REMARK SMILES IDX 10 76 11 77 12 79 13 80 14 81 21 82 15 83 20 84 16 86 19 87
REMARK SMILES IDX 17 88 18 89 22 90 23 91 27 92 24 93 26 94 25 95
REMARK H PARENT 3 7 84 25 52 36 10 78 21 85
REMARK Flexibility Score: inf
ROOT
ATOM      1  C   UNL A   1      31.401  30.808  26.001  1.00  0.00     0.002 C 
ENDROOT
BRANCH   1   2
ATOM      2  C   UNL A   1      31.307  32.250  26.500  1.00  0.00     0.021 C 
BRANCH   2   3
ATOM      3  C   UNL A   1      32.593  32.818  27.082  1.00  0.00     0.116 C 
BRANCH   3   4
ATOM      4  N   UNL A   1      32.425  34.161  27.608  1.00  0.00    -0.352 N 
ATOM      5  O   UNL A   1      32.721  35.870  29.051  1.00  0.00    -0.269 OA
ATOM      6  C   UNL A   1      33.095  34.778  28.634  1.00  0.00     0.251 C 
ATOM      7  H   UNL A   1      31.732  34.704  27.167  1.00  0.00     0.163 HD
BRANCH   6   8
ATOM      8  C   UNL A   1      34.260  34.114  29.254  1.00  0.00     0.039 A 
ATOM      9  C   UNL A   1      34.087  33.100  30.200  1.00  0.00     0.014 A 
ATOM     10  C   UNL A   1      35.546  34.503  28.870  1.00  0.00     0.014 A 
ATOM     11  C   UNL A   1      35.193  32.563  30.849  1.00  0.00     0.010 A 
ATOM     12  C   UNL A   1      36.660  33.905  29.465  1.00  0.00     0.010 A 
ATOM     13  C   UNL A   1      36.491  32.947  30.475  1.00  0.00    -0.014 A 
BRANCH  13  14
ATOM     14  C   UNL A   1      37.656  32.274  31.101  1.00  0.00     0.031 A 
ATOM     15  C   UNL A   1      38.110  32.629  32.487  1.00  0.00     0.074 A 
ATOM     16  C   UNL A   1      38.297  31.318  30.401  1.00  0.00     0.049 A 
ATOM     17  N   UNL A   1      39.102  32.132  33.182  1.00  0.00    -0.248 NA
ATOM     18  C   UNL A   1      37.359  33.684  33.185  1.00  0.00     0.031 C 
ATOM     19  C   UNL A   1      37.953  30.903  29.039  1.00  0.00     0.029 A 
ATOM     20  N   UNL A   1      39.356  30.517  30.735  1.00  0.00    -0.354 N 
ATOM     21  C   UNL A   1      39.108  32.821  34.387  1.00  0.00     0.074 A 
ATOM     22  C   UNL A   1      38.033  33.790  34.322  1.00  0.00     0.031 C 
ATOM     23  C   UNL A   1      38.757  29.897  28.670  1.00  0.00     0.029 A 
ATOM     24  C   UNL A   1      39.711  29.637  29.742  1.00  0.00     0.049 A 
ATOM     25  H   UNL A   1      39.819  30.565  31.603  1.00  0.00     0.167 HD
ATOM     26  C   UNL A   1      39.930  32.652  35.451  1.00  0.00     0.037 A 
ATOM     27  C   UNL A   1      40.705  28.732  29.693  1.00  0.00     0.037 A 
ATOM     28  C   UNL A   1      40.989  31.676  35.511  1.00  0.00     0.049 A 
ATOM     29  C   UNL A   1      41.613  28.582  30.878  1.00  0.00     0.074 A 
ATOM     30  C   UNL A   1      41.850  31.400  36.560  1.00  0.00     0.029 A 
ATOM     31  N   UNL A   1      41.336  30.820  34.475  1.00  0.00    -0.354 N 
ATOM     32  N   UNL A   1      41.581  29.212  32.026  1.00  0.00    -0.248 NA
ATOM     33  C   UNL A   1      42.696  27.599  30.758  1.00  0.00     0.031 C 
ATOM     34  C   UNL A   1      42.745  30.410  36.142  1.00  0.00     0.029 A 
ATOM     35  C   UNL A   1      42.413  30.033  34.851  1.00  0.00     0.049 A 
ATOM     36  H   UNL A   1      40.883  30.778  33.602  1.00  0.00     0.167 HD
ATOM     37  C   UNL A   1      42.630  28.695  32.772  1.00  0.00     0.074 A 
ATOM     38  C   UNL A   1      43.264  27.682  31.953  1.00  0.00     0.031 C 
ATOM     39  C   UNL A   1      43.034  29.033  34.021  1.00  0.00     0.037 A 
BRANCH  26  40
ATOM     40  C   UNL A   1      39.732  33.551  36.637  1.00  0.00     0.064 A 
ATOM     41  C   UNL A   1      40.387  34.788  36.741  1.00  0.00     0.173 A 
ATOM     42  C   UNL A   1      38.836  33.196  37.658  1.00  0.00     0.173 A 
ATOM     43  F   UNL A   1      41.260  35.171  35.799  1.00  0.00    -0.203 F 
ATOM     44  C   UNL A   1      40.167  35.625  37.833  1.00  0.00     0.198 A 
ATOM     45  C   UNL A   1      38.601  34.046  38.734  1.00  0.00     0.198 A 
ATOM     46  F   UNL A   1      38.180  32.027  37.603  1.00  0.00    -0.203 F 
ATOM     47  F   UNL A   1      40.833  36.785  37.931  1.00  0.00    -0.200 F 
ATOM     48  C   UNL A   1      39.270  35.257  38.825  1.00  0.00     0.200 A 
ATOM     49  F   UNL A   1      37.724  33.694  39.685  1.00  0.00    -0.200 F 
ATOM     50  F   UNL A   1      39.055  36.068  39.870  1.00  0.00    -0.200 F 
ENDBRANCH  26  40
BRANCH  27  51
ATOM     51  C   UNL A   1      40.884  27.904  28.473  1.00  0.00     0.064 A 
ATOM     52  C   UNL A   1      40.247  26.663  28.343  1.00  0.00     0.173 A 
ATOM     53  C   UNL A   1      41.676  28.348  27.404  1.00  0.00     0.173 A 
ATOM     54  F   UNL A   1      39.493  26.190  29.346  1.00  0.00    -0.203 F 
ATOM     55  C   UNL A   1      40.405  25.891  27.195  1.00  0.00     0.198 A 
ATOM     56  C   UNL A   1      41.811  27.589  26.245  1.00  0.00     0.198 A 
ATOM     57  F   UNL A   1      42.302  29.532  27.478  1.00  0.00    -0.203 F 
ATOM     58  F   UNL A   1      39.815  24.692  27.110  1.00  0.00    -0.200 F 
ATOM     59  C   UNL A   1      41.181  26.358  26.143  1.00  0.00     0.200 A 
ATOM     60  F   UNL A   1      42.546  28.052  25.224  1.00  0.00    -0.200 F 
ATOM     61  F   UNL A   1      41.324  25.620  25.034  1.00  0.00    -0.200 F 
ENDBRANCH  27  51
BRANCH  39  62
ATOM     62  C   UNL A   1      44.206  28.282  34.581  1.00  0.00     0.064 A 
ATOM     63  C   UNL A   1      44.041  27.069  35.265  1.00  0.00     0.173 A 
ATOM     64  C   UNL A   1      45.510  28.771  34.411  1.00  0.00     0.173 A 
ATOM     65  F   UNL A   1      42.811  26.571  35.467  1.00  0.00    -0.203 F 
ATOM     66  C   UNL A   1      45.137  26.385  35.782  1.00  0.00     0.198 A 
ATOM     67  C   UNL A   1      46.606  28.070  34.905  1.00  0.00     0.198 A 
ATOM     68  F   UNL A   1      45.721  29.925  33.761  1.00  0.00    -0.203 F 
ATOM     69  F   UNL A   1      44.953  25.253  36.474  1.00  0.00    -0.200 F 
ATOM     70  C   UNL A   1      46.419  26.882  35.596  1.00  0.00     0.200 A 
ATOM     71  F   UNL A   1      47.845  28.547  34.716  1.00  0.00    -0.200 F 
ATOM     72  F   UNL A   1      47.473  26.221  36.092  1.00  0.00    -0.200 F 
ENDBRANCH  39  62
ENDBRANCH  13  14
ENDBRANCH   6   8
ENDBRANCH   3   4
ENDBRANCH   2   3
ENDBRANCH   1   2
BRANCH   1  73
ATOM     73  C   UNL A   1      32.384  29.907  26.753  1.00  0.00     0.002 C 
BRANCH  73  74
ATOM     74  C   UNL A   1      31.806  28.598  27.298  1.00  0.00     0.021 C 
BRANCH  74  75
ATOM     75  C   UNL A   1      31.838  27.424  26.327  1.00  0.00     0.116 C 
BRANCH  75  76
ATOM     76  N   UNL A   1      31.305  26.209  26.907  1.00  0.00    -0.351 N 
ATOM     77  C   UNL A   1      31.664  24.913  26.637  1.00  0.00     0.278 C 
ATOM     78  H   UNL A   1      30.595  26.328  27.579  1.00  0.00     0.163 HD
ATOM     79  O   UNL A   1      31.138  24.018  27.299  1.00  0.00    -0.268 OA
BRANCH  77  80
ATOM     80  C   UNL A   1      32.695  24.679  25.516  1.00  0.00     0.275 C 
ATOM     81  C   UNL A   1      34.112  24.550  26.102  1.00  0.00     0.085 C 
ATOM     82  N   UNL A   1      32.426  23.427  24.772  1.00  0.00    -0.320 N 
ATOM     83  C   UNL A   1      34.701  23.391  25.327  1.00  0.00     0.054 C 
ATOM     84  C   UNL A   1      33.487  22.486  25.153  1.00  0.00     0.188 C 
ATOM     85  H   UNL A   1      31.522  23.050  25.058  1.00  0.00     0.349 HD
ATOM     86  C   UNL A   1      35.864  22.668  25.986  1.00  0.00     0.010 C 
ATOM     87  C   UNL A   1      33.829  21.258  24.311  1.00  0.00     0.065 C 
ATOM     88  C   UNL A   1      36.228  21.428  25.166  1.00  0.00     0.001 C 
ATOM     89  C   UNL A   1      35.020  20.514  24.933  1.00  0.00     0.006 C 
BRANCH  82  90
ATOM     90  C   UNL A   1      31.999  23.501  23.367  1.00  0.00     0.186 C 
ATOM     91  C   UNL A   1      30.611  24.154  23.188  1.00  0.00     0.076 C 
ATOM     92  C   UNL A   1      32.997  24.036  22.322  1.00  0.00     0.076 C 
ATOM     93  C   UNL A   1      30.553  25.674  23.182  1.00  0.00     0.075 C 
ATOM     94  C   UNL A   1      33.189  25.543  22.255  1.00  0.00     0.075 C 
ATOM     95  S   UNL A   1      31.644  26.445  21.948  1.00  0.00    -0.162 SA
ENDBRANCH  82  90
ENDBRANCH  77  80
ENDBRANCH  75  76
ENDBRANCH  74  75
ENDBRANCH  73  74
ENDBRANCH   1  73
TORSDOF 14
ENDMDL
MODEL 2
REMARK VINA RESULT:     -12.6      0.122      1.127
REMARK SMILES O=C(NCCCCCCNC(=O)[C@H]1C[C@H]2CCCC[C@@H]2[N@@H+]1C1CCSCC1)c1ccc(-c2c3nc(c(-c4c(F)c(F)c(F)c(F)c4F)c4ccc([nH]4)c(-c4c(F)c(F)c(F)c(F)c4F)c4nc(c(-c5c(F)c(F)c(F)c(F)c5F)c5ccc2[nH]5)C=C4)C=C3)cc1
REMARK SMILES IDX 6 1 5 2 4 3 3 4 1 5 2 6 28 8 29 9 90 10 30 11 89 12 31 13
REMARK SMILES IDX 32 14 33 15 83 16 34 17 88 18 82 19 84 20 35 21 87 22 81 23
REMARK SMILES IDX 80 24 36 26 68 27 48 28 67 29 49 30 52 31 66 32 85 33 50 34
REMARK SMILES IDX 51 35 65 37 86 38 53 39 37 40 38 41 46 42 39 43 40 44 44 45
REMARK SMILES IDX 47 46 41 47 42 48 45 49 43 50 69 51 70 52 78 53 71 54 72 55
REMARK SMILES IDX 76 56 79 57 73 58 74 59 77 60 75 61 54 62 55 63 63 64 56 65
REMARK SMILES IDX 57 66 61 67 64 68 58 69 59 70 62 71 60 72 7 73 8 74 9 75
REMARK SMILES IDX 10 76 11 77 12 79 13 80 14 81 21 82 15 83 20 84 16 86 19 87
REMARK SMILES IDX 17 88 18 89 22 90 23 91 27 92 24 93 26 94 25 95
REMARK H PARENT 3 7 84 25 52 36 10 78 21 85
REMARK Flexibility Score: inf
ROOT
ATOM      1  C   UNL A   1      31.399  30.790  25.993  1.00  0.00     0.002 C 
ENDROOT
BRANCH   1   2
ATOM      2  C   UNL A   1      31.286  32.214  26.537  1.00  0.00     0.021 C 
BRANCH   2   3
ATOM      3  C   UNL A   1      32.578  32.801  27.087  1.00  0.00     0.116 C 
BRANCH   3   4
ATOM      4  N   UNL A   1      32.401  34.139  27.623  1.00  0.00    -0.352 N 
ATOM      5  O   UNL A   1      32.689  35.841  29.076  1.00  0.00    -0.269 OA
ATOM      6  C   UNL A   1      33.070  34.754  28.651  1.00  0.00     0.251 C 
ATOM      7  H   UNL A   1      31.704  34.680  27.187  1.00  0.00     0.163 HD
BRANCH   6   8
ATOM      8  C   UNL A   1      34.240  34.093  29.265  1.00  0.00     0.039 A 
ATOM      9  C   UNL A   1      34.076  33.084  30.218  1.00  0.00     0.014 A 
ATOM     10  C   UNL A   1      35.523  34.480  28.867  1.00  0.00     0.014 A 
ATOM     11  C   UNL A   1      35.187  32.552  30.860  1.00  0.00     0.010 A 
ATOM     12  C   UNL A   1      36.643  33.886  29.456  1.00  0.00     0.010 A 
ATOM     13  C   UNL A   1      36.483  32.933  30.472  1.00  0.00    -0.014 A 
BRANCH  13  14
ATOM     14  C   UNL A   1      37.653  32.264  31.092  1.00  0.00     0.031 A 
ATOM     15  C   UNL A   1      38.119  32.627  32.472  1.00  0.00     0.074 A 
ATOM     16  C   UNL A   1      38.288  31.304  30.391  1.00  0.00     0.049 A 
ATOM     17  N   UNL A   1      39.118  32.134  33.161  1.00  0.00    -0.248 NA
ATOM     18  C   UNL A   1      37.374  33.686  33.170  1.00  0.00     0.031 C 
ATOM     19  C   UNL A   1      37.932  30.881  29.035  1.00  0.00     0.029 A 
ATOM     20  N   UNL A   1      39.350  30.505  30.721  1.00  0.00    -0.354 N 
ATOM     21  C   UNL A   1      39.134  32.830  34.362  1.00  0.00     0.074 A 
ATOM     22  C   UNL A   1      38.058  33.798  34.301  1.00  0.00     0.031 C 
ATOM     23  C   UNL A   1      38.733  29.874  28.664  1.00  0.00     0.029 A 
ATOM     24  C   UNL A   1      39.696  29.619  29.729  1.00  0.00     0.049 A 
ATOM     25  H   UNL A   1      39.820  30.558  31.584  1.00  0.00     0.167 HD
ATOM     26  C   UNL A   1      39.965  32.666  35.419  1.00  0.00     0.037 A 
ATOM     27  C   UNL A   1      40.690  28.714  29.676  1.00  0.00     0.037 A 
ATOM     28  C   UNL A   1      41.025  31.691  35.476  1.00  0.00     0.049 A 
ATOM     29  C   UNL A   1      41.609  28.571  30.854  1.00  0.00     0.074 A 
ATOM     30  C   UNL A   1      41.895  31.421  36.518  1.00  0.00     0.029 A 
ATOM     31  N   UNL A   1      41.363  30.829  34.441  1.00  0.00    -0.354 N 
ATOM     32  N   UNL A   1      41.587  29.208  31.999  1.00  0.00    -0.248 NA
ATOM     33  C   UNL A   1      42.691  27.587  30.730  1.00  0.00     0.031 C 
ATOM     34  C   UNL A   1      42.787  30.428  36.098  1.00  0.00     0.029 A 
ATOM     35  C   UNL A   1      42.444  30.044  34.812  1.00  0.00     0.049 A 
ATOM     36  H   UNL A   1      40.902  30.782  33.572  1.00  0.00     0.167 HD
ATOM     37  C   UNL A   1      42.642  28.694  32.738  1.00  0.00     0.074 A 
ATOM     38  C   UNL A   1      43.269  27.677  31.919  1.00  0.00     0.031 C 
ATOM     39  C   UNL A   1      43.057  29.039  33.982  1.00  0.00     0.037 A 
BRANCH  26  40
ATOM     40  C   UNL A   1      39.778  33.572  36.602  1.00  0.00     0.064 A 
ATOM     41  C   UNL A   1      40.426  34.813  36.690  1.00  0.00     0.173 A 
ATOM     42  C   UNL A   1      38.898  33.218  37.637  1.00  0.00     0.173 A 
ATOM     43  F   UNL A   1      41.285  35.196  35.733  1.00  0.00    -0.203 F 
ATOM     44  C   UNL A   1      40.216  35.656  37.779  1.00  0.00     0.198 A 
ATOM     45  C   UNL A   1      38.672  34.073  38.711  1.00  0.00     0.198 A 
ATOM     46  F   UNL A   1      38.248  32.045  37.598  1.00  0.00    -0.203 F 
ATOM     47  F   UNL A   1      40.876  36.820  37.860  1.00  0.00    -0.200 F 
ATOM     48  C   UNL A   1      39.335  35.289  38.784  1.00  0.00     0.200 A 
ATOM     49  F   UNL A   1      37.810  33.723  39.676  1.00  0.00    -0.200 F 
ATOM     50  F   UNL A   1      39.128  36.105  39.827  1.00  0.00    -0.200 F 
ENDBRANCH  26  40
BRANCH  27  51
ATOM     51  C   UNL A   1      40.858  27.880  28.459  1.00  0.00     0.064 A 
ATOM     52  C   UNL A   1      40.195  26.653  28.328  1.00  0.00     0.173 A 
ATOM     53  C   UNL A   1      41.667  28.304  27.395  1.00  0.00     0.173 A 
ATOM     54  F   UNL A   1      39.424  26.199  29.328  1.00  0.00    -0.203 F 
ATOM     55  C   UNL A   1      40.343  25.875  27.183  1.00  0.00     0.198 A 
ATOM     56  C   UNL A   1      41.792  27.539  26.238  1.00  0.00     0.198 A 
ATOM     57  F   UNL A   1      42.318  29.474  27.469  1.00  0.00    -0.203 F 
ATOM     58  F   UNL A   1      39.727  24.689  27.097  1.00  0.00    -0.200 F 
ATOM     59  C   UNL A   1      41.136  26.322  26.135  1.00  0.00     0.200 A 
ATOM     60  F   UNL A   1      42.544  27.983  25.221  1.00  0.00    -0.200 F 
ATOM     61  F   UNL A   1      41.270  25.578  25.029  1.00  0.00    -0.200 F 
ENDBRANCH  27  51
BRANCH  39  62
ATOM     62  C   UNL A   1      44.235  28.292  34.535  1.00  0.00     0.064 A 
ATOM     63  C   UNL A   1      45.544  28.772  34.385  1.00  0.00     0.173 A 
ATOM     64  C   UNL A   1      44.049  27.096  35.243  1.00  0.00     0.173 A 
ATOM     65  F   UNL A   1      45.773  29.903  33.700  1.00  0.00    -0.203 F 
ATOM     66  C   UNL A   1      46.627  28.067  34.901  1.00  0.00     0.198 A 
ATOM     67  C   UNL A   1      45.131  26.408  35.782  1.00  0.00     0.198 A 
ATOM     68  F   UNL A   1      42.816  26.597  35.417  1.00  0.00    -0.203 F 
ATOM     69  F   UNL A   1      47.873  28.518  34.704  1.00  0.00    -0.200 F 
ATOM     70  C   UNL A   1      46.420  26.890  35.603  1.00  0.00     0.200 A 
ATOM     71  F   UNL A   1      44.929  25.275  36.469  1.00  0.00    -0.200 F 
ATOM     72  F   UNL A   1      47.464  26.213  36.102  1.00  0.00    -0.200 F 
ENDBRANCH  39  62
ENDBRANCH  13  14
ENDBRANCH   6   8
ENDBRANCH   3   4
ENDBRANCH   2   3
ENDBRANCH   1   2
BRANCH   1  73
ATOM     73  C   UNL A   1      32.427  29.892  26.688  1.00  0.00     0.002 C 
BRANCH  73  74
ATOM     74  C   UNL A   1      31.885  28.583  27.268  1.00  0.00     0.021 C 
BRANCH  74  75
ATOM     75  C   UNL A   1      31.743  27.443  26.268  1.00  0.00     0.116 C 
BRANCH  75  76
ATOM     76  N   UNL A   1      31.322  26.206  26.891  1.00  0.00    -0.351 N 
ATOM     77  C   UNL A   1      31.781  24.936  26.648  1.00  0.00     0.278 C 
ATOM     78  H   UNL A   1      30.618  26.285  27.575  1.00  0.00     0.163 HD
ATOM     79  O   UNL A   1      31.343  24.021  27.345  1.00  0.00    -0.268 OA
BRANCH  77  80
ATOM     80  C   UNL A   1      32.806  24.755  25.512  1.00  0.00     0.275 C 
ATOM     81  C   UNL A   1      34.239  24.733  26.074  1.00  0.00     0.085 C 
ATOM     82  N   UNL A   1      32.612  23.475  24.793  1.00  0.00    -0.320 N 
ATOM     83  C   UNL A   1      34.893  23.604  25.307  1.00  0.00     0.054 C 
ATOM     84  C   UNL A   1      33.742  22.616  25.169  1.00  0.00     0.188 C 
ATOM     85  H   UNL A   1      31.741  23.042  25.101  1.00  0.00     0.349 HD
ATOM     86  C   UNL A   1      36.114  22.974  25.956  1.00  0.00     0.010 C 
ATOM     87  C   UNL A   1      34.152  21.400  24.339  1.00  0.00     0.065 C 
ATOM     88  C   UNL A   1      36.549  21.749  25.148  1.00  0.00     0.001 C 
ATOM     89  C   UNL A   1      35.402  20.750  24.951  1.00  0.00     0.006 C 
BRANCH  82  90
ATOM     90  C   UNL A   1      32.157  23.496  23.395  1.00  0.00     0.186 C 
ATOM     91  C   UNL A   1      30.713  24.020  23.235  1.00  0.00     0.076 C 
ATOM     92  C   UNL A   1      33.085  24.110  22.328  1.00  0.00     0.076 C 
ATOM     93  C   UNL A   1      30.517  25.528  23.217  1.00  0.00     0.075 C 
ATOM     94  C   UNL A   1      33.138  25.627  22.246  1.00  0.00     0.075 C 
ATOM     95  S   UNL A   1      31.513  26.382  21.958  1.00  0.00    -0.162 SA
ENDBRANCH  82  90
ENDBRANCH  77  80
ENDBRANCH  75  76
ENDBRANCH  74  75
ENDBRANCH  73  74
ENDBRANCH   1  73
TORSDOF 14
ENDMDL
MODEL 3
REMARK VINA RESULT:     -12.6      0.251      1.150
REMARK SMILES O=C(NCCCCCCNC(=O)[C@H]1C[C@H]2CCCC[C@@H]2[N@@H+]1C1CCSCC1)c1ccc(-c2c3nc(c(-c4c(F)c(F)c(F)c(F)c4F)c4ccc([nH]4)c(-c4c(F)c(F)c(F)c(F)c4F)c4nc(c(-c5c(F)c(F)c(F)c(F)c5F)c5ccc2[nH]5)C=C4)C=C3)cc1
REMARK SMILES IDX 6 1 5 2 4 3 3 4 1 5 2 6 28 8 29 9 90 10 30 11 89 12 31 13
REMARK SMILES IDX 32 14 33 15 83 16 34 17 88 18 82 19 84 20 35 21 87 22 81 23
REMARK SMILES IDX 80 24 36 26 68 27 48 28 67 29 49 30 52 31 66 32 85 33 50 34
REMARK SMILES IDX 51 35 65 37 86 38 53 39 37 40 38 41 46 42 39 43 40 44 44 45
REMARK SMILES IDX 47 46 41 47 42 48 45 49 43 50 69 51 70 52 78 53 71 54 72 55
REMARK SMILES IDX 76 56 79 57 73 58 74 59 77 60 75 61 54 62 55 63 63 64 56 65
REMARK SMILES IDX 57 66 61 67 64 68 58 69 59 70 62 71 60 72 7 73 8 74 9 75
REMARK SMILES IDX 10 76 11 77 12 79 13 80 14 81 21 82 15 83 20 84 16 86 19 87
REMARK SMILES IDX 17 88 18 89 22 90 23 91 27 92 24 93 26 94 25 95
REMARK H PARENT 3 7 84 25 52 36 10 78 21 85
REMARK Flexibility Score: inf
ROOT
ATOM      1  C   UNL A   1      31.411  30.786  25.998  1.00  0.00     0.002 C 
ENDROOT
BRANCH   1   2
ATOM      2  C   UNL A   1      31.292  32.224  26.502  1.00  0.00     0.021 C 
BRANCH   2   3
ATOM      3  C   UNL A   1      32.582  32.835  27.028  1.00  0.00     0.116 C 
BRANCH   3   4
ATOM      4  N   UNL A   1      32.388  34.162  27.584  1.00  0.00    -0.352 N 
ATOM      5  O   UNL A   1      32.647  35.844  29.065  1.00  0.00    -0.269 OA
ATOM      6  C   UNL A   1      33.043  34.768  28.626  1.00  0.00     0.251 C 
ATOM      7  H   UNL A   1      31.687  34.702  27.152  1.00  0.00     0.163 HD
BRANCH   6   8
ATOM      8  C   UNL A   1      34.217  34.111  29.236  1.00  0.00     0.039 A 
ATOM      9  C   UNL A   1      34.058  33.115  30.203  1.00  0.00     0.014 A 
ATOM     10  C   UNL A   1      35.497  34.489  28.820  1.00  0.00     0.014 A 
ATOM     11  C   UNL A   1      35.174  32.586  30.841  1.00  0.00     0.010 A 
ATOM     12  C   UNL A   1      36.620  33.897  29.406  1.00  0.00     0.010 A 
ATOM     13  C   UNL A   1      36.467  32.958  30.436  1.00  0.00    -0.014 A 
BRANCH  13  14
ATOM     14  C   UNL A   1      37.641  32.292  31.052  1.00  0.00     0.031 A 
ATOM     15  C   UNL A   1      38.111  32.658  32.430  1.00  0.00     0.074 A 
ATOM     16  C   UNL A   1      38.276  31.333  30.350  1.00  0.00     0.049 A 
ATOM     17  N   UNL A   1      39.113  32.168  33.116  1.00  0.00    -0.248 NA
ATOM     18  C   UNL A   1      37.365  33.715  33.130  1.00  0.00     0.031 C 
ATOM     19  C   UNL A   1      37.916  30.908  28.996  1.00  0.00     0.029 A 
ATOM     20  N   UNL A   1      39.341  30.537  30.677  1.00  0.00    -0.354 N 
ATOM     21  C   UNL A   1      39.131  32.865  34.317  1.00  0.00     0.074 A 
ATOM     22  C   UNL A   1      38.053  33.830  34.258  1.00  0.00     0.031 C 
ATOM     23  C   UNL A   1      38.719  29.903  28.623  1.00  0.00     0.029 A 
ATOM     24  C   UNL A   1      39.686  29.651  29.685  1.00  0.00     0.049 A 
ATOM     25  H   UNL A   1      39.814  30.592  31.539  1.00  0.00     0.167 HD
ATOM     26  C   UNL A   1      39.966  32.705  35.371  1.00  0.00     0.037 A 
ATOM     27  C   UNL A   1      40.682  28.749  29.630  1.00  0.00     0.037 A 
ATOM     28  C   UNL A   1      41.029  31.732  35.425  1.00  0.00     0.049 A 
ATOM     29  C   UNL A   1      41.605  28.609  30.805  1.00  0.00     0.074 A 
ATOM     30  C   UNL A   1      41.903  31.465  36.465  1.00  0.00     0.029 A 
ATOM     31  N   UNL A   1      41.365  30.870  34.391  1.00  0.00    -0.354 N 
ATOM     32  N   UNL A   1      41.585  29.247  31.949  1.00  0.00    -0.248 NA
ATOM     33  C   UNL A   1      42.689  27.628  30.678  1.00  0.00     0.031 C 
ATOM     34  C   UNL A   1      42.796  30.474  36.043  1.00  0.00     0.029 A 
ATOM     35  C   UNL A   1      42.449  30.088  34.759  1.00  0.00     0.049 A 
ATOM     36  H   UNL A   1      40.902  30.821  33.523  1.00  0.00     0.167 HD
ATOM     37  C   UNL A   1      42.644  28.737  32.686  1.00  0.00     0.074 A 
ATOM     38  C   UNL A   1      43.271  27.720  31.866  1.00  0.00     0.031 C 
ATOM     39  C   UNL A   1      43.063  29.084  33.928  1.00  0.00     0.037 A 
BRANCH  26  40
ATOM     40  C   UNL A   1      39.780  33.611  36.554  1.00  0.00     0.064 A 
ATOM     41  C   UNL A   1      40.449  34.840  36.652  1.00  0.00     0.173 A 
ATOM     42  C   UNL A   1      38.882  33.270  37.577  1.00  0.00     0.173 A 
ATOM     43  F   UNL A   1      41.326  35.210  35.707  1.00  0.00    -0.203 F 
ATOM     44  C   UNL A   1      40.241  35.684  37.741  1.00  0.00     0.198 A 
ATOM     45  C   UNL A   1      38.658  34.127  38.651  1.00  0.00     0.198 A 
ATOM     46  F   UNL A   1      38.212  32.109  37.528  1.00  0.00    -0.203 F 
ATOM     47  F   UNL A   1      40.920  36.837  37.832  1.00  0.00    -0.200 F 
ATOM     48  C   UNL A   1      39.341  35.331  38.735  1.00  0.00     0.200 A 
ATOM     49  F   UNL A   1      37.779  33.790  39.604  1.00  0.00    -0.200 F 
ATOM     50  F   UNL A   1      39.137  36.149  39.777  1.00  0.00    -0.200 F 
ENDBRANCH  26  40
BRANCH  27  51
ATOM     51  C   UNL A   1      40.848  27.914  28.413  1.00  0.00     0.064 A 
ATOM     52  C   UNL A   1      41.645  28.347  27.345  1.00  0.00     0.173 A 
ATOM     53  C   UNL A   1      40.233  26.659  28.303  1.00  0.00     0.173 A 
ATOM     54  F   UNL A   1      42.240  29.548  27.397  1.00  0.00    -0.203 F 
ATOM     55  C   UNL A   1      41.812  27.560  26.208  1.00  0.00     0.198 A 
ATOM     56  C   UNL A   1      40.423  25.860  27.179  1.00  0.00     0.198 A 
ATOM     57  F   UNL A   1      39.466  26.197  29.302  1.00  0.00    -0.203 F 
ATOM     58  F   UNL A   1      42.549  28.012  25.185  1.00  0.00    -0.200 F 
ATOM     59  C   UNL A   1      41.206  26.314  26.128  1.00  0.00     0.200 A 
ATOM     60  F   UNL A   1      39.851  24.650  27.115  1.00  0.00    -0.200 F 
ATOM     61  F   UNL A   1      41.375  25.553  25.039  1.00  0.00    -0.200 F 
ENDBRANCH  27  51
BRANCH  39  62
ATOM     62  C   UNL A   1      44.243  28.340  34.478  1.00  0.00     0.064 A 
ATOM     63  C   UNL A   1      44.088  27.140  35.188  1.00  0.00     0.173 A 
ATOM     64  C   UNL A   1      45.545  28.820  34.273  1.00  0.00     0.173 A 
ATOM     65  F   UNL A   1      42.861  26.651  35.425  1.00  0.00    -0.203 F 
ATOM     66  C   UNL A   1      45.192  26.463  35.696  1.00  0.00     0.198 A 
ATOM     67  C   UNL A   1      46.649  28.126  34.757  1.00  0.00     0.198 A 
ATOM     68  F   UNL A   1      45.747  29.962  33.597  1.00  0.00    -0.203 F 
ATOM     69  F   UNL A   1      45.018  25.345  36.413  1.00  0.00    -0.200 F 
ATOM     70  C   UNL A   1      46.471  26.952  35.475  1.00  0.00     0.200 A 
ATOM     71  F   UNL A   1      47.885  28.594  34.535  1.00  0.00    -0.200 F 
ATOM     72  F   UNL A   1      47.534  26.296  35.962  1.00  0.00    -0.200 F 
ENDBRANCH  39  62
ENDBRANCH  13  14
ENDBRANCH   6   8
ENDBRANCH   3   4
ENDBRANCH   2   3
ENDBRANCH   1   2
BRANCH   1  73
ATOM     73  C   UNL A   1      32.407  29.898  26.751  1.00  0.00     0.002 C 
BRANCH  73  74
ATOM     74  C   UNL A   1      31.843  28.591  27.313  1.00  0.00     0.021 C 
BRANCH  74  75
ATOM     75  C   UNL A   1      31.508  27.531  26.271  1.00  0.00     0.116 C 
BRANCH  75  76
ATOM     76  N   UNL A   1      31.181  26.252  26.865  1.00  0.00    -0.351 N 
ATOM     77  C   UNL A   1      31.747  25.029  26.608  1.00  0.00     0.278 C 
ATOM     78  H   UNL A   1      30.461  26.260  27.537  1.00  0.00     0.163 HD
ATOM     79  O   UNL A   1      31.375  24.068  27.281  1.00  0.00    -0.268 OA
BRANCH  77  80
ATOM     80  C   UNL A   1      32.803  24.954  25.488  1.00  0.00     0.275 C 
ATOM     81  C   UNL A   1      34.222  25.052  26.075  1.00  0.00     0.085 C 
ATOM     82  N   UNL A   1      32.735  23.672  24.750  1.00  0.00    -0.320 N 
ATOM     83  C   UNL A   1      34.987  23.996  25.306  1.00  0.00     0.054 C 
ATOM     84  C   UNL A   1      33.930  22.912  25.136  1.00  0.00     0.188 C 
ATOM     85  H   UNL A   1      31.901  23.160  25.038  1.00  0.00     0.349 HD
ATOM     86  C   UNL A   1      36.248  23.467  25.969  1.00  0.00     0.010 C 
ATOM     87  C   UNL A   1      34.461  21.748  24.299  1.00  0.00     0.065 C 
ATOM     88  C   UNL A   1      36.803  22.297  25.153  1.00  0.00     0.001 C 
ATOM     89  C   UNL A   1      35.753  21.203  24.925  1.00  0.00     0.006 C 
BRANCH  82  90
ATOM     90  C   UNL A   1      32.303  23.672  23.345  1.00  0.00     0.186 C 
ATOM     91  C   UNL A   1      30.817  24.053  23.167  1.00  0.00     0.076 C 
ATOM     92  C   UNL A   1      33.182  24.392  22.304  1.00  0.00     0.076 C 
ATOM     93  C   UNL A   1      30.473  25.534  23.168  1.00  0.00     0.075 C 
ATOM     94  C   UNL A   1      33.087  25.908  22.246  1.00  0.00     0.075 C 
ATOM     95  S   UNL A   1      31.400  26.504  21.941  1.00  0.00    -0.162 SA
ENDBRANCH  82  90
ENDBRANCH  77  80
ENDBRANCH  75  76
ENDBRANCH  74  75
ENDBRANCH  73  74
ENDBRANCH   1  73
TORSDOF 14
ENDMDL
