MODEL 1
REMARK VINA RESULT:     -12.0      0.000      0.000
REMARK SMILES C[C@@H](C(=O)NCCCCCCNC(=O)c1ccc(-c2c3nc(c(-c4c(F)c(F)c(F)c(F)c4F)c4ccc([nH]4)c(-c4c(F)c(F)c(F)c(F)c4F)c4nc(c(-c5c(F)c(F)c(F)c(F)c5F)c5ccc2[nH]5)C=C4)C=C3)cc1)c1ccn(C(F)F)c(=O)c1
REMARK SMILES IDX 8 1 7 2 6 3 5 4 3 5 4 6 2 8 1 9 78 10 79 11 87 12 80 13
REMARK SMILES IDX 85 14 81 15 86 16 82 17 83 18 84 19 9 20 10 21 11 22 12 23
REMARK SMILES IDX 13 24 14 26 15 27 16 28 77 29 17 30 76 31 18 32 19 33 20 34
REMARK SMILES IDX 70 35 21 36 75 37 69 38 71 39 22 40 74 41 68 42 67 43 23 45
REMARK SMILES IDX 55 46 35 47 54 48 36 49 39 50 53 51 72 52 37 53 38 54 52 56
REMARK SMILES IDX 73 57 40 58 24 59 25 60 33 61 26 62 27 63 31 64 34 65 28 66
REMARK SMILES IDX 29 67 32 68 30 69 56 70 57 71 65 72 58 73 59 74 63 75 66 76
REMARK SMILES IDX 60 77 61 78 64 79 62 80 41 81 42 82 50 83 43 84 44 85 48 86
REMARK SMILES IDX 51 87 45 88 46 89 49 90 47 91
REMARK H PARENT 5 7 12 25 71 44 39 55
REMARK Flexibility Score: inf
ROOT
ATOM      1  C   UNL A   1      32.936  30.123  26.570  1.00  0.00     0.002 C 
ENDROOT
BRANCH   1   2
ATOM      2  C   UNL A   1      32.858  28.773  27.297  1.00  0.00     0.021 C 
BRANCH   2   3
ATOM      3  C   UNL A   1      32.089  27.682  26.538  1.00  0.00     0.116 C 
BRANCH   3   4
ATOM      4  N   UNL A   1      32.678  27.472  25.232  1.00  0.00    -0.356 N 
ATOM      5  C   UNL A   1      32.259  26.656  24.222  1.00  0.00     0.227 C 
ATOM      6  O   UNL A   1      33.140  26.227  23.476  1.00  0.00    -0.274 OA
ATOM      7  H   UNL A   1      33.495  27.990  25.048  1.00  0.00     0.163 HD
BRANCH   5   8
ATOM      8  C   UNL A   1      30.756  26.310  24.076  1.00  0.00     0.105 C 
ATOM      9  C   UNL A   1      30.645  25.004  23.272  1.00  0.00     0.023 C 
BRANCH   8  10
ATOM     10  C   UNL A   1      29.886  27.410  23.445  1.00  0.00    -0.029 A 
ATOM     11  C   UNL A   1      30.578  28.453  22.697  1.00  0.00     0.023 A 
ATOM     12  C   UNL A   1      28.546  27.511  23.545  1.00  0.00     0.076 A 
ATOM     13  C   UNL A   1      29.937  29.561  22.303  1.00  0.00     0.095 A 
ATOM     14  C   UNL A   1      27.806  28.716  23.075  1.00  0.00     0.255 A 
ATOM     15  N   UNL A   1      28.584  29.718  22.524  1.00  0.00    -0.258 N 
ATOM     16  O   UNL A   1      26.589  28.761  23.229  1.00  0.00    -0.269 OA
BRANCH  15  17
ATOM     17  C   UNL A   1      27.921  30.954  22.205  1.00  0.00     0.451 C 
ATOM     18  F   UNL A   1      27.553  31.625  23.322  1.00  0.00    -0.185 F 
ATOM     19  F   UNL A   1      28.734  31.761  21.477  1.00  0.00    -0.185 F 
ENDBRANCH  15  17
ENDBRANCH   8  10
ENDBRANCH   5   8
ENDBRANCH   3   4
ENDBRANCH   2   3
ENDBRANCH   1   2
BRANCH   1  20
ATOM     20  C   UNL A   1      31.587  30.732  26.180  1.00  0.00     0.002 C 
BRANCH  20  21
ATOM     21  C   UNL A   1      31.396  32.190  26.599  1.00  0.00     0.021 C 
BRANCH  21  22
ATOM     22  C   UNL A   1      32.592  32.809  27.315  1.00  0.00     0.116 C 
BRANCH  22  23
ATOM     23  N   UNL A   1      32.375  34.208  27.645  1.00  0.00    -0.352 N 
ATOM     24  C   UNL A   1      32.987  34.978  28.601  1.00  0.00     0.251 C 
ATOM     25  H   UNL A   1      31.691  34.669  27.106  1.00  0.00     0.163 HD
ATOM     26  O   UNL A   1      32.552  36.099  28.867  1.00  0.00    -0.269 OA
BRANCH  24  27
ATOM     27  C   UNL A   1      34.157  34.454  29.335  1.00  0.00     0.039 A 
ATOM     28  C   UNL A   1      33.959  33.857  30.582  1.00  0.00     0.014 A 
ATOM     29  C   UNL A   1      35.444  34.553  28.799  1.00  0.00     0.014 A 
ATOM     30  C   UNL A   1      35.044  33.303  31.265  1.00  0.00     0.010 A 
ATOM     31  C   UNL A   1      36.514  33.941  29.449  1.00  0.00     0.010 A 
ATOM     32  C   UNL A   1      36.325  33.310  30.688  1.00  0.00    -0.014 A 
BRANCH  32  33
ATOM     33  C   UNL A   1      37.473  32.654  31.362  1.00  0.00     0.031 A 
ATOM     34  C   UNL A   1      38.188  31.509  30.700  1.00  0.00     0.074 A 
ATOM     35  C   UNL A   1      37.833  33.050  32.598  1.00  0.00     0.049 A 
ATOM     36  N   UNL A   1      39.170  30.773  31.156  1.00  0.00    -0.248 NA
ATOM     37  C   UNL A   1      37.721  31.124  29.360  1.00  0.00     0.031 C 
ATOM     38  C   UNL A   1      37.186  34.117  33.365  1.00  0.00     0.029 A 
ATOM     39  N   UNL A   1      38.824  32.597  33.432  1.00  0.00    -0.354 N 
ATOM     40  C   UNL A   1      39.431  29.834  30.166  1.00  0.00     0.074 A 
ATOM     41  C   UNL A   1      38.469  30.060  29.107  1.00  0.00     0.031 C 
ATOM     42  C   UNL A   1      37.810  34.249  34.546  1.00  0.00     0.029 A 
ATOM     43  C   UNL A   1      38.875  33.255  34.637  1.00  0.00     0.049 A 
ATOM     44  H   UNL A   1      39.440  31.868  33.190  1.00  0.00     0.167 HD
ATOM     45  C   UNL A   1      40.398  28.887  30.132  1.00  0.00     0.037 A 
ATOM     46  C   UNL A   1      39.685  33.074  35.697  1.00  0.00     0.037 A 
ATOM     47  C   UNL A   1      41.368  28.681  31.176  1.00  0.00     0.049 A 
ATOM     48  C   UNL A   1      40.750  32.011  35.634  1.00  0.00     0.074 A 
ATOM     49  C   UNL A   1      42.424  27.788  31.209  1.00  0.00     0.029 A 
ATOM     50  N   UNL A   1      41.400  29.380  32.374  1.00  0.00    -0.354 N 
ATOM     51  N   UNL A   1      41.029  31.176  34.663  1.00  0.00    -0.248 NA
ATOM     52  C   UNL A   1      41.615  31.870  36.813  1.00  0.00     0.031 C 
ATOM     53  C   UNL A   1      43.068  27.915  32.444  1.00  0.00     0.029 A 
ATOM     54  C   UNL A   1      42.443  28.922  33.161  1.00  0.00     0.049 A 
ATOM     55  H   UNL A   1      40.773  30.097  32.627  1.00  0.00     0.167 HD
ATOM     56  C   UNL A   1      42.116  30.432  35.101  1.00  0.00     0.074 A 
ATOM     57  C   UNL A   1      42.456  30.926  36.419  1.00  0.00     0.031 C 
ATOM     58  C   UNL A   1      42.773  29.429  34.469  1.00  0.00     0.037 A 
BRANCH  45  59
ATOM     59  C   UNL A   1      40.461  28.000  28.923  1.00  0.00     0.064 A 
ATOM     60  C   UNL A   1      39.753  26.790  28.861  1.00  0.00     0.173 A 
ATOM     61  C   UNL A   1      41.200  28.385  27.794  1.00  0.00     0.173 A 
ATOM     62  F   UNL A   1      39.040  26.371  29.918  1.00  0.00    -0.203 F 
ATOM     63  C   UNL A   1      39.803  25.986  27.726  1.00  0.00     0.198 A 
ATOM     64  C   UNL A   1      41.224  27.593  26.648  1.00  0.00     0.198 A 
ATOM     65  F   UNL A   1      41.890  29.534  27.797  1.00  0.00    -0.203 F 
ATOM     66  F   UNL A   1      39.155  24.813  27.708  1.00  0.00    -0.200 F 
ATOM     67  C   UNL A   1      40.531  26.391  26.618  1.00  0.00     0.200 A 
ATOM     68  F   UNL A   1      41.918  27.992  25.574  1.00  0.00    -0.200 F 
ATOM     69  F   UNL A   1      40.572  25.622  25.521  1.00  0.00    -0.200 F 
ENDBRANCH  45  59
BRANCH  46  70
ATOM     70  C   UNL A   1      39.539  33.931  36.901  1.00  0.00     0.064 A 
ATOM     71  C   UNL A   1      38.781  33.504  38.001  1.00  0.00     0.173 A 
ATOM     72  C   UNL A   1      40.141  35.195  36.975  1.00  0.00     0.173 A 
ATOM     73  F   UNL A   1      38.169  32.312  37.969  1.00  0.00    -0.203 F 
ATOM     74  C   UNL A   1      38.611  34.319  39.119  1.00  0.00     0.198 A 
ATOM     75  C   UNL A   1      39.994  35.998  38.105  1.00  0.00     0.198 A 
ATOM     76  F   UNL A   1      40.880  35.649  35.952  1.00  0.00    -0.203 F 
ATOM     77  F   UNL A   1      37.842  33.907  40.134  1.00  0.00    -0.200 F 
ATOM     78  C   UNL A   1      39.222  35.563  39.172  1.00  0.00     0.200 A 
ATOM     79  F   UNL A   1      40.599  37.192  38.159  1.00  0.00    -0.200 F 
ATOM     80  F   UNL A   1      39.061  36.345  40.247  1.00  0.00    -0.200 F 
ENDBRANCH  46  70
BRANCH  58  81
ATOM     81  C   UNL A   1      43.946  28.820  35.182  1.00  0.00     0.064 A 
ATOM     82  C   UNL A   1      43.790  27.749  36.073  1.00  0.00     0.173 A 
ATOM     83  C   UNL A   1      45.245  29.294  34.942  1.00  0.00     0.173 A 
ATOM     84  F   UNL A   1      42.566  27.272  36.347  1.00  0.00    -0.203 F 
ATOM     85  C   UNL A   1      44.889  27.191  36.720  1.00  0.00     0.198 A 
ATOM     86  C   UNL A   1      46.345  28.713  35.567  1.00  0.00     0.198 A 
ATOM     87  F   UNL A   1      45.448  30.311  34.092  1.00  0.00    -0.203 F 
ATOM     88  F   UNL A   1      44.712  26.202  37.605  1.00  0.00    -0.200 F 
ATOM     89  C   UNL A   1      46.166  27.669  36.461  1.00  0.00     0.200 A 
ATOM     90  F   UNL A   1      47.578  29.167  35.307  1.00  0.00    -0.200 F 
ATOM     91  F   UNL A   1      47.224  27.127  37.081  1.00  0.00    -0.200 F 
ENDBRANCH  58  81
ENDBRANCH  32  33
ENDBRANCH  24  27
ENDBRANCH  22  23
ENDBRANCH  21  22
ENDBRANCH  20  21
ENDBRANCH   1  20
TORSDOF 15
ENDMDL
MODEL 2
REMARK VINA RESULT:     -12.0      6.229     10.511
REMARK SMILES C[C@@H](C(=O)NCCCCCCNC(=O)c1ccc(-c2c3nc(c(-c4c(F)c(F)c(F)c(F)c4F)c4ccc([nH]4)c(-c4c(F)c(F)c(F)c(F)c4F)c4nc(c(-c5c(F)c(F)c(F)c(F)c5F)c5ccc2[nH]5)C=C4)C=C3)cc1)c1ccn(C(F)F)c(=O)c1
REMARK SMILES IDX 8 1 7 2 6 3 5 4 3 5 4 6 2 8 1 9 78 10 79 11 87 12 80 13
REMARK SMILES IDX 85 14 81 15 86 16 82 17 83 18 84 19 9 20 10 21 11 22 12 23
REMARK SMILES IDX 13 24 14 26 15 27 16 28 77 29 17 30 76 31 18 32 19 33 20 34
REMARK SMILES IDX 70 35 21 36 75 37 69 38 71 39 22 40 74 41 68 42 67 43 23 45
REMARK SMILES IDX 55 46 35 47 54 48 36 49 39 50 53 51 72 52 37 53 38 54 52 56
REMARK SMILES IDX 73 57 40 58 24 59 25 60 33 61 26 62 27 63 31 64 34 65 28 66
REMARK SMILES IDX 29 67 32 68 30 69 56 70 57 71 65 72 58 73 59 74 63 75 66 76
REMARK SMILES IDX 60 77 61 78 64 79 62 80 41 81 42 82 50 83 43 84 44 85 48 86
REMARK SMILES IDX 51 87 45 88 46 89 49 90 47 91
REMARK H PARENT 5 7 12 25 71 44 39 55
REMARK Flexibility Score: inf
ROOT
ATOM      1  C   UNL A   1      37.122  21.961  24.451  1.00  0.00     0.002 C 
ENDROOT
BRANCH   1   2
ATOM      2  C   UNL A   1      36.153  22.656  23.484  1.00  0.00     0.021 C 
BRANCH   2   3
ATOM      3  C   UNL A   1      35.377  23.832  24.091  1.00  0.00     0.116 C 
BRANCH   3   4
ATOM      4  N   UNL A   1      34.520  23.366  25.161  1.00  0.00    -0.356 N 
ATOM      5  C   UNL A   1      33.230  22.927  25.099  1.00  0.00     0.227 C 
ATOM      6  O   UNL A   1      32.551  23.103  26.111  1.00  0.00    -0.274 OA
ATOM      7  H   UNL A   1      34.925  23.368  26.059  1.00  0.00     0.163 HD
BRANCH   5   8
ATOM      8  C   UNL A   1      32.696  22.267  23.802  1.00  0.00     0.105 C 
ATOM      9  C   UNL A   1      31.318  22.874  23.493  1.00  0.00     0.023 C 
BRANCH   8  10
ATOM     10  C   UNL A   1      32.618  20.732  23.830  1.00  0.00    -0.029 A 
ATOM     11  C   UNL A   1      32.955  20.074  25.088  1.00  0.00     0.023 A 
ATOM     12  C   UNL A   1      32.292  19.940  22.790  1.00  0.00     0.076 A 
ATOM     13  C   UNL A   1      33.130  18.748  25.148  1.00  0.00     0.095 A 
ATOM     14  C   UNL A   1      32.437  18.457  22.848  1.00  0.00     0.255 A 
ATOM     15  N   UNL A   1      32.920  17.951  24.041  1.00  0.00    -0.258 N 
ATOM     16  O   UNL A   1      32.158  17.796  21.854  1.00  0.00    -0.269 OA
BRANCH  15  17
ATOM     17  C   UNL A   1      33.219  16.544  24.077  1.00  0.00     0.451 C 
ATOM     18  F   UNL A   1      34.312  16.247  23.335  1.00  0.00    -0.185 F 
ATOM     19  F   UNL A   1      33.448  16.133  25.349  1.00  0.00    -0.185 F 
ENDBRANCH  15  17
ENDBRANCH   8  10
ENDBRANCH   5   8
ENDBRANCH   3   4
ENDBRANCH   2   3
ENDBRANCH   1   2
BRANCH   1  20
ATOM     20  C   UNL A   1      36.735  20.533  24.845  1.00  0.00     0.002 C 
BRANCH  20  21
ATOM     21  C   UNL A   1      37.911  19.565  24.985  1.00  0.00     0.021 C 
BRANCH  21  22
ATOM     22  C   UNL A   1      39.112  20.126  25.739  1.00  0.00     0.116 C 
BRANCH  22  23
ATOM     23  N   UNL A   1      40.172  19.144  25.898  1.00  0.00    -0.352 N 
ATOM     24  C   UNL A   1      41.511  19.343  26.120  1.00  0.00     0.251 C 
ATOM     25  H   UNL A   1      39.890  18.202  25.836  1.00  0.00     0.163 HD
ATOM     26  O   UNL A   1      42.299  18.400  26.048  1.00  0.00    -0.269 OA
BRANCH  24  27
ATOM     27  C   UNL A   1      42.017  20.698  26.422  1.00  0.00     0.039 A 
ATOM     28  C   UNL A   1      42.253  21.581  25.366  1.00  0.00     0.014 A 
ATOM     29  C   UNL A   1      42.261  21.096  27.740  1.00  0.00     0.014 A 
ATOM     30  C   UNL A   1      42.675  22.885  25.635  1.00  0.00     0.010 A 
ATOM     31  C   UNL A   1      42.618  22.415  28.010  1.00  0.00     0.010 A 
ATOM     32  C   UNL A   1      42.828  23.323  26.961  1.00  0.00    -0.014 A 
BRANCH  32  33
ATOM     33  C   UNL A   1      43.196  24.728  27.266  1.00  0.00     0.031 A 
ATOM     34  C   UNL A   1      44.599  25.213  27.029  1.00  0.00     0.074 A 
ATOM     35  C   UNL A   1      42.281  25.551  27.813  1.00  0.00     0.049 A 
ATOM     36  N   UNL A   1      45.125  26.383  27.288  1.00  0.00    -0.248 NA
ATOM     37  C   UNL A   1      45.543  24.246  26.448  1.00  0.00     0.031 C 
ATOM     38  C   UNL A   1      40.901  25.185  28.134  1.00  0.00     0.029 A 
ATOM     39  N   UNL A   1      42.376  26.863  28.204  1.00  0.00    -0.354 N 
ATOM     40  C   UNL A   1      46.459  26.291  26.913  1.00  0.00     0.074 A 
ATOM     41  C   UNL A   1      46.676  24.934  26.457  1.00  0.00     0.031 C 
ATOM     42  C   UNL A   1      40.273  26.251  28.654  1.00  0.00     0.029 A 
ATOM     43  C   UNL A   1      41.213  27.365  28.737  1.00  0.00     0.049 A 
ATOM     44  H   UNL A   1      43.199  27.395  28.112  1.00  0.00     0.167 HD
ATOM     45  C   UNL A   1      47.410  27.256  26.925  1.00  0.00     0.037 A 
ATOM     46  C   UNL A   1      40.938  28.583  29.240  1.00  0.00     0.037 A 
ATOM     47  C   UNL A   1      47.184  28.611  27.355  1.00  0.00     0.049 A 
ATOM     48  C   UNL A   1      42.015  29.636  29.244  1.00  0.00     0.074 A 
ATOM     49  C   UNL A   1      48.067  29.677  27.349  1.00  0.00     0.029 A 
ATOM     50  N   UNL A   1      45.988  29.087  27.871  1.00  0.00    -0.354 N 
ATOM     51  N   UNL A   1      43.253  29.554  28.822  1.00  0.00    -0.248 NA
ATOM     52  C   UNL A   1      41.652  30.951  29.790  1.00  0.00     0.031 C 
ATOM     53  C   UNL A   1      47.419  30.786  27.902  1.00  0.00     0.029 A 
ATOM     54  C   UNL A   1      46.116  30.425  28.207  1.00  0.00     0.049 A 
ATOM     55  H   UNL A   1      45.168  28.553  27.982  1.00  0.00     0.167 HD
ATOM     56  C   UNL A   1      43.807  30.811  29.024  1.00  0.00     0.074 A 
ATOM     57  C   UNL A   1      42.765  31.641  29.592  1.00  0.00     0.031 C 
ATOM     58  C   UNL A   1      45.067  31.239  28.765  1.00  0.00     0.037 A 
BRANCH  45  59
ATOM     59  C   UNL A   1      48.784  26.883  26.452  1.00  0.00     0.064 A 
ATOM     60  C   UNL A   1      49.739  26.337  27.324  1.00  0.00     0.173 A 
ATOM     61  C   UNL A   1      49.138  27.029  25.102  1.00  0.00     0.173 A 
ATOM     62  F   UNL A   1      49.454  26.186  28.626  1.00  0.00    -0.203 F 
ATOM     63  C   UNL A   1      51.004  25.977  26.868  1.00  0.00     0.198 A 
ATOM     64  C   UNL A   1      50.395  26.640  24.643  1.00  0.00     0.198 A 
ATOM     65  F   UNL A   1      48.263  27.541  24.224  1.00  0.00    -0.203 F 
ATOM     66  F   UNL A   1      51.913  25.499  27.729  1.00  0.00    -0.200 F 
ATOM     67  C   UNL A   1      51.328  26.120  25.528  1.00  0.00     0.200 A 
ATOM     68  F   UNL A   1      50.702  26.767  23.345  1.00  0.00    -0.200 F 
ATOM     69  F   UNL A   1      52.543  25.764  25.088  1.00  0.00    -0.200 F 
ENDBRANCH  45  59
BRANCH  46  70
ATOM     70  C   UNL A   1      39.580  28.884  29.762  1.00  0.00     0.064 A 
ATOM     71  C   UNL A   1      38.599  29.447  28.934  1.00  0.00     0.173 A 
ATOM     72  C   UNL A   1      39.237  28.625  31.097  1.00  0.00     0.173 A 
ATOM     73  F   UNL A   1      38.886  29.732  27.655  1.00  0.00    -0.203 F 
ATOM     74  C   UNL A   1      37.335  29.764  29.428  1.00  0.00     0.198 A 
ATOM     75  C   UNL A   1      37.964  28.916  31.582  1.00  0.00     0.198 A 
ATOM     76  F   UNL A   1      40.138  28.083  31.929  1.00  0.00    -0.203 F 
ATOM     77  F   UNL A   1      36.433  30.347  28.628  1.00  0.00    -0.200 F 
ATOM     78  C   UNL A   1      37.016  29.493  30.750  1.00  0.00     0.200 A 
ATOM     79  F   UNL A   1      37.655  28.638  32.856  1.00  0.00    -0.200 F 
ATOM     80  F   UNL A   1      35.801  29.795  31.224  1.00  0.00    -0.200 F 
ENDBRANCH  46  70
BRANCH  58  81
ATOM     81  C   UNL A   1      45.379  32.677  29.063  1.00  0.00     0.064 A 
ATOM     82  C   UNL A   1      45.920  33.073  30.294  1.00  0.00     0.173 A 
ATOM     83  C   UNL A   1      45.165  33.666  28.090  1.00  0.00     0.173 A 
ATOM     84  F   UNL A   1      46.127  32.167  31.263  1.00  0.00    -0.203 F 
ATOM     85  C   UNL A   1      46.210  34.410  30.551  1.00  0.00     0.198 A 
ATOM     86  C   UNL A   1      45.485  34.997  28.339  1.00  0.00     0.198 A 
ATOM     87  F   UNL A   1      44.657  33.337  26.893  1.00  0.00    -0.203 F 
ATOM     88  F   UNL A   1      46.679  34.773  31.753  1.00  0.00    -0.200 F 
ATOM     89  C   UNL A   1      46.000  35.370  29.572  1.00  0.00     0.200 A 
ATOM     90  F   UNL A   1      45.294  35.920  27.387  1.00  0.00    -0.200 F 
ATOM     91  F   UNL A   1      46.284  36.656  29.819  1.00  0.00    -0.200 F 
ENDBRANCH  58  81
ENDBRANCH  32  33
ENDBRANCH  24  27
ENDBRANCH  22  23
ENDBRANCH  21  22
ENDBRANCH  20  21
ENDBRANCH   1  20
TORSDOF 15
ENDMDL
MODEL 3
REMARK VINA RESULT:     -11.9      6.353     11.768
REMARK SMILES C[C@@H](C(=O)NCCCCCCNC(=O)c1ccc(-c2c3nc(c(-c4c(F)c(F)c(F)c(F)c4F)c4ccc([nH]4)c(-c4c(F)c(F)c(F)c(F)c4F)c4nc(c(-c5c(F)c(F)c(F)c(F)c5F)c5ccc2[nH]5)C=C4)C=C3)cc1)c1ccn(C(F)F)c(=O)c1
REMARK SMILES IDX 8 1 7 2 6 3 5 4 3 5 4 6 2 8 1 9 78 10 79 11 87 12 80 13
REMARK SMILES IDX 85 14 81 15 86 16 82 17 83 18 84 19 9 20 10 21 11 22 12 23
REMARK SMILES IDX 13 24 14 26 15 27 16 28 77 29 17 30 76 31 18 32 19 33 20 34
REMARK SMILES IDX 70 35 21 36 75 37 69 38 71 39 22 40 74 41 68 42 67 43 23 45
REMARK SMILES IDX 55 46 35 47 54 48 36 49 39 50 53 51 72 52 37 53 38 54 52 56
REMARK SMILES IDX 73 57 40 58 24 59 25 60 33 61 26 62 27 63 31 64 34 65 28 66
REMARK SMILES IDX 29 67 32 68 30 69 56 70 57 71 65 72 58 73 59 74 63 75 66 76
REMARK SMILES IDX 60 77 61 78 64 79 62 80 41 81 42 82 50 83 43 84 44 85 48 86
REMARK SMILES IDX 51 87 45 88 46 89 49 90 47 91
REMARK H PARENT 5 7 12 25 71 44 39 55
REMARK Flexibility Score: inf
ROOT
ATOM      1  C   UNL A   1      37.753  22.578  25.323  1.00  0.00     0.002 C 
ENDROOT
BRANCH   1   2
ATOM      2  C   UNL A   1      36.659  23.578  25.722  1.00  0.00     0.021 C 
BRANCH   2   3
ATOM      3  C   UNL A   1      35.398  23.528  24.850  1.00  0.00     0.116 C 
BRANCH   3   4
ATOM      4  N   UNL A   1      34.250  23.159  25.651  1.00  0.00    -0.356 N 
ATOM      5  C   UNL A   1      32.989  22.830  25.247  1.00  0.00     0.227 C 
ATOM      6  O   UNL A   1      32.084  23.084  26.042  1.00  0.00    -0.274 OA
ATOM      7  H   UNL A   1      34.400  23.146  26.625  1.00  0.00     0.163 HD
BRANCH   5   8
ATOM      8  C   UNL A   1      32.764  22.189  23.854  1.00  0.00     0.105 C 
ATOM      9  C   UNL A   1      31.481  22.790  23.257  1.00  0.00     0.023 C 
BRANCH   8  10
ATOM     10  C   UNL A   1      32.701  20.653  23.839  1.00  0.00    -0.029 A 
ATOM     11  C   UNL A   1      33.168  19.959  25.034  1.00  0.00     0.023 A 
ATOM     12  C   UNL A   1      32.279  19.891  22.811  1.00  0.00     0.076 A 
ATOM     13  C   UNL A   1      33.359  18.634  25.033  1.00  0.00     0.095 A 
ATOM     14  C   UNL A   1      32.441  18.409  22.806  1.00  0.00     0.255 A 
ATOM     15  N   UNL A   1      33.046  17.870  23.927  1.00  0.00    -0.258 N 
ATOM     16  O   UNL A   1      32.070  17.776  21.822  1.00  0.00    -0.269 OA
BRANCH  15  17
ATOM     17  C   UNL A   1      33.357  16.466  23.887  1.00  0.00     0.451 C 
ATOM     18  F   UNL A   1      34.323  16.197  22.976  1.00  0.00    -0.185 F 
ATOM     19  F   UNL A   1      33.787  16.034  25.098  1.00  0.00    -0.185 F 
ENDBRANCH  15  17
ENDBRANCH   8  10
ENDBRANCH   5   8
ENDBRANCH   3   4
ENDBRANCH   2   3
ENDBRANCH   1   2
BRANCH   1  20
ATOM     20  C   UNL A   1      37.252  21.304  24.637  1.00  0.00     0.002 C 
BRANCH  20  21
ATOM     21  C   UNL A   1      38.086  20.053  24.918  1.00  0.00     0.021 C 
BRANCH  21  22
ATOM     22  C   UNL A   1      39.109  20.208  26.039  1.00  0.00     0.116 C 
BRANCH  22  23
ATOM     23  N   UNL A   1      40.142  19.186  25.989  1.00  0.00    -0.352 N 
ATOM     24  C   UNL A   1      41.505  19.329  26.045  1.00  0.00     0.251 C 
ATOM     25  H   UNL A   1      39.817  18.260  25.902  1.00  0.00     0.163 HD
ATOM     26  O   UNL A   1      42.239  18.370  25.806  1.00  0.00    -0.269 OA
BRANCH  24  27
ATOM     27  C   UNL A   1      42.098  20.643  26.367  1.00  0.00     0.039 A 
ATOM     28  C   UNL A   1      42.412  21.516  25.323  1.00  0.00     0.014 A 
ATOM     29  C   UNL A   1      42.348  21.012  27.692  1.00  0.00     0.014 A 
ATOM     30  C   UNL A   1      42.919  22.785  25.611  1.00  0.00     0.010 A 
ATOM     31  C   UNL A   1      42.790  22.301  27.981  1.00  0.00     0.010 A 
ATOM     32  C   UNL A   1      43.080  23.201  26.943  1.00  0.00    -0.014 A 
BRANCH  32  33
ATOM     33  C   UNL A   1      43.540  24.574  27.267  1.00  0.00     0.031 A 
ATOM     34  C   UNL A   1      42.574  25.588  27.814  1.00  0.00     0.074 A 
ATOM     35  C   UNL A   1      44.815  24.926  27.012  1.00  0.00     0.049 A 
ATOM     36  N   UNL A   1      42.773  26.850  28.100  1.00  0.00    -0.248 NA
ATOM     37  C   UNL A   1      41.196  25.131  28.045  1.00  0.00     0.031 C 
ATOM     38  C   UNL A   1      45.835  24.046  26.438  1.00  0.00     0.029 A 
ATOM     39  N   UNL A   1      45.469  26.119  27.193  1.00  0.00    -0.354 N 
ATOM     40  C   UNL A   1      41.547  27.338  28.534  1.00  0.00     0.074 A 
ATOM     41  C   UNL A   1      40.597  26.251  28.423  1.00  0.00     0.031 C 
ATOM     42  C   UNL A   1      46.989  24.722  26.333  1.00  0.00     0.029 A 
ATOM     43  C   UNL A   1      46.785  26.091  26.797  1.00  0.00     0.049 A 
ATOM     44  H   UNL A   1      45.037  26.919  27.570  1.00  0.00     0.167 HD
ATOM     45  C   UNL A   1      41.247  28.573  29.003  1.00  0.00     0.037 A 
ATOM     46  C   UNL A   1      47.718  27.062  26.803  1.00  0.00     0.037 A 
ATOM     47  C   UNL A   1      42.199  29.644  29.135  1.00  0.00     0.049 A 
ATOM     48  C   UNL A   1      47.356  28.426  27.327  1.00  0.00     0.074 A 
ATOM     49  C   UNL A   1      42.006  30.912  29.655  1.00  0.00     0.029 A 
ATOM     50  N   UNL A   1      43.527  29.573  28.741  1.00  0.00    -0.354 N 
ATOM     51  N   UNL A   1      46.210  28.853  27.798  1.00  0.00    -0.248 NA
ATOM     52  C   UNL A   1      48.419  29.439  27.324  1.00  0.00     0.031 C 
ATOM     53  C   UNL A   1      43.205  31.622  29.535  1.00  0.00     0.029 A 
ATOM     54  C   UNL A   1      44.159  30.782  28.986  1.00  0.00     0.049 A 
ATOM     55  H   UNL A   1      43.958  28.780  28.345  1.00  0.00     0.167 HD
ATOM     56  C   UNL A   1      46.421  30.173  28.173  1.00  0.00     0.074 A 
ATOM     57  C   UNL A   1      47.810  30.471  27.890  1.00  0.00     0.031 C 
ATOM     58  C   UNL A   1      45.544  31.060  28.704  1.00  0.00     0.037 A 
BRANCH  45  59
ATOM     59  C   UNL A   1      39.828  28.833  29.417  1.00  0.00     0.064 A 
ATOM     60  C   UNL A   1      38.873  29.313  28.507  1.00  0.00     0.173 A 
ATOM     61  C   UNL A   1      39.404  28.555  30.726  1.00  0.00     0.173 A 
ATOM     62  F   UNL A   1      39.229  29.604  27.247  1.00  0.00    -0.203 F 
ATOM     63  C   UNL A   1      37.555  29.531  28.899  1.00  0.00     0.198 A 
ATOM     64  C   UNL A   1      38.077  28.746  31.106  1.00  0.00     0.198 A 
ATOM     65  F   UNL A   1      40.274  28.089  31.634  1.00  0.00    -0.203 F 
ATOM     66  F   UNL A   1      36.672  30.032  28.024  1.00  0.00    -0.200 F 
ATOM     67  C   UNL A   1      37.156  29.240  30.194  1.00  0.00     0.200 A 
ATOM     68  F   UNL A   1      37.691  28.452  32.355  1.00  0.00    -0.200 F 
ATOM     69  F   UNL A   1      35.885  29.440  30.568  1.00  0.00    -0.200 F 
ENDBRANCH  45  59
BRANCH  46  70
ATOM     70  C   UNL A   1      49.093  26.775  26.317  1.00  0.00     0.064 A 
ATOM     71  C   UNL A   1      49.444  26.997  24.977  1.00  0.00     0.173 A 
ATOM     72  C   UNL A   1      50.078  26.266  27.173  1.00  0.00     0.173 A 
ATOM     73  F   UNL A   1      48.529  27.464  24.115  1.00  0.00    -0.203 F 
ATOM     74  C   UNL A   1      50.720  26.697  24.508  1.00  0.00     0.198 A 
ATOM     75  C   UNL A   1      51.364  25.993  26.710  1.00  0.00     0.198 A 
ATOM     76  F   UNL A   1      49.796  26.040  28.464  1.00  0.00    -0.203 F 
ATOM     77  F   UNL A   1      51.014  26.872  23.213  1.00  0.00    -0.200 F 
ATOM     78  C   UNL A   1      51.682  26.201  25.376  1.00  0.00     0.200 A 
ATOM     79  F   UNL A   1      52.294  25.528  27.555  1.00  0.00    -0.200 F 
ATOM     80  F   UNL A   1      52.910  25.915  24.926  1.00  0.00    -0.200 F 
ENDBRANCH  46  70
BRANCH  58  81
ATOM     81  C   UNL A   1      46.067  32.426  29.042  1.00  0.00     0.064 A 
ATOM     82  C   UNL A   1      46.011  33.483  28.123  1.00  0.00     0.173 A 
ATOM     83  C   UNL A   1      46.601  32.686  30.314  1.00  0.00     0.173 A 
ATOM     84  F   UNL A   1      45.525  33.280  26.889  1.00  0.00    -0.203 F 
ATOM     85  C   UNL A   1      46.494  34.746  28.455  1.00  0.00     0.198 A 
ATOM     86  C   UNL A   1      47.055  33.958  30.653  1.00  0.00     0.198 A 
ATOM     87  F   UNL A   1      46.670  31.710  31.231  1.00  0.00    -0.203 F 
ATOM     88  F   UNL A   1      46.476  35.729  27.545  1.00  0.00    -0.200 F 
ATOM     89  C   UNL A   1      47.009  34.984  29.722  1.00  0.00     0.200 A 
ATOM     90  F   UNL A   1      47.540  34.189  31.880  1.00  0.00    -0.200 F 
ATOM     91  F   UNL A   1      47.469  36.201  30.041  1.00  0.00    -0.200 F 
ENDBRANCH  58  81
ENDBRANCH  32  33
ENDBRANCH  24  27
ENDBRANCH  22  23
ENDBRANCH  21  22
ENDBRANCH  20  21
ENDBRANCH   1  20
TORSDOF 15
ENDMDL
