MODEL 1
REMARK VINA RESULT:     -12.1      0.000      0.000
REMARK SMILES O=C(NCCCCCCNC(=O)c1ccc(-c2c3nc(c(-c4c(F)c(F)c(F)c(F)c4F)c4ccc([nH]4)c(-c4c(F)c(F)c(F)c(F)c4F)c4nc(c(-c5c(F)c(F)c(F)c(F)c5F)c5ccc2[nH]5)C=C4)C=C3)cc1)C1=NN=C2C=CC=C[C@@H]21
REMARK SMILES IDX 7 1 6 2 5 3 4 4 3 5 1 6 2 7 76 9 77 10 84 11 78 12 79 13
REMARK SMILES IDX 83 14 80 15 82 16 81 17 8 18 9 19 10 20 11 21 12 23 13 24
REMARK SMILES IDX 14 25 75 26 15 27 74 28 16 29 17 30 18 31 68 32 19 33 73 34
REMARK SMILES IDX 67 35 69 36 20 37 72 38 66 39 65 40 21 42 53 43 33 44 52 45
REMARK SMILES IDX 34 46 37 47 51 48 70 49 35 50 36 51 50 53 71 54 38 55 22 56
REMARK SMILES IDX 23 57 31 58 24 59 25 60 29 61 32 62 26 63 27 64 30 65 28 66
REMARK SMILES IDX 54 67 55 68 63 69 56 70 57 71 61 72 64 73 58 74 59 75 62 76
REMARK SMILES IDX 60 77 39 78 40 79 48 80 41 81 42 82 46 83 49 84 43 85 44 86
REMARK SMILES IDX 47 87 45 88
REMARK H PARENT 3 8 10 22 69 41 37 52
REMARK Flexibility Score: inf
ROOT
ATOM      1  C   UNL A   1      31.545  30.709  26.214  1.00  0.00     0.002 C 
ENDROOT
BRANCH   1   2
ATOM      2  C   UNL A   1      32.403  29.891  27.182  1.00  0.00     0.002 C 
BRANCH   2   3
ATOM      3  C   UNL A   1      31.984  28.436  27.383  1.00  0.00     0.021 C 
BRANCH   3   4
ATOM      4  C   UNL A   1      32.627  27.419  26.448  1.00  0.00     0.116 C 
BRANCH   4   5
ATOM      5  N   UNL A   1      31.737  26.883  25.436  1.00  0.00    -0.351 N 
ATOM      6  O   UNL A   1      30.443  25.293  24.456  1.00  0.00    -0.268 OA
ATOM      7  C   UNL A   1      31.292  25.587  25.286  1.00  0.00     0.268 C 
ATOM      8  H   UNL A   1      31.407  27.529  24.770  1.00  0.00     0.163 HD
BRANCH   7   9
ATOM      9  C   UNL A   1      31.864  24.513  26.164  1.00  0.00     0.140 C 
ATOM     10  N   UNL A   1      31.264  24.033  27.213  1.00  0.00    -0.148 NA
ATOM     11  C   UNL A   1      33.106  23.785  25.789  1.00  0.00     0.120 C 
ATOM     12  N   UNL A   1      32.057  22.936  27.708  1.00  0.00    -0.154 NA
ATOM     13  C   UNL A   1      33.093  22.818  26.941  1.00  0.00     0.076 C 
ATOM     14  C   UNL A   1      34.464  24.396  25.724  1.00  0.00    -0.010 C 
ATOM     15  C   UNL A   1      34.191  21.839  27.021  1.00  0.00     0.027 C 
ATOM     16  C   UNL A   1      35.517  23.583  25.933  1.00  0.00    -0.003 C 
ATOM     17  C   UNL A   1      35.314  22.208  26.379  1.00  0.00     0.002 C 
ENDBRANCH   7   9
ENDBRANCH   4   5
ENDBRANCH   3   4
ENDBRANCH   2   3
ENDBRANCH   1   2
BRANCH   1  18
ATOM     18  C   UNL A   1      31.405  32.197  26.540  1.00  0.00     0.021 C 
BRANCH  18  19
ATOM     19  C   UNL A   1      32.584  32.816  27.285  1.00  0.00     0.116 C 
BRANCH  19  20
ATOM     20  N   UNL A   1      32.358  34.210  27.630  1.00  0.00    -0.352 N 
ATOM     21  C   UNL A   1      32.966  34.985  28.587  1.00  0.00     0.251 C 
ATOM     22  H   UNL A   1      31.668  34.668  27.097  1.00  0.00     0.163 HD
ATOM     23  O   UNL A   1      32.524  36.101  28.847  1.00  0.00    -0.269 OA
BRANCH  21  24
ATOM     24  C   UNL A   1      34.138  34.469  29.328  1.00  0.00     0.039 A 
ATOM     25  C   UNL A   1      33.934  33.848  30.562  1.00  0.00     0.014 A 
ATOM     26  C   UNL A   1      35.430  34.599  28.815  1.00  0.00     0.014 A 
ATOM     27  C   UNL A   1      35.020  33.300  31.250  1.00  0.00     0.010 A 
ATOM     28  C   UNL A   1      36.498  33.979  29.459  1.00  0.00     0.010 A 
ATOM     29  C   UNL A   1      36.306  33.324  30.684  1.00  0.00    -0.014 A 
BRANCH  29  30
ATOM     30  C   UNL A   1      37.453  32.665  31.359  1.00  0.00     0.031 A 
ATOM     31  C   UNL A   1      38.152  31.502  30.711  1.00  0.00     0.074 A 
ATOM     32  C   UNL A   1      37.832  33.077  32.586  1.00  0.00     0.049 A 
ATOM     33  N   UNL A   1      39.132  30.762  31.170  1.00  0.00    -0.248 NA
ATOM     34  C   UNL A   1      37.668  31.099  29.382  1.00  0.00     0.031 C 
ATOM     35  C   UNL A   1      37.205  34.161  33.341  1.00  0.00     0.029 A 
ATOM     36  N   UNL A   1      38.826  32.624  33.417  1.00  0.00    -0.354 N 
ATOM     37  C   UNL A   1      39.376  29.810  30.190  1.00  0.00     0.074 A 
ATOM     38  C   UNL A   1      38.397  30.019  29.145  1.00  0.00     0.031 C 
ATOM     39  C   UNL A   1      37.842  34.307  34.513  1.00  0.00     0.029 A 
ATOM     40  C   UNL A   1      38.890  33.295  34.613  1.00  0.00     0.049 A 
ATOM     41  H   UNL A   1      39.435  31.888  33.178  1.00  0.00     0.167 HD
ATOM     42  C   UNL A   1      40.345  28.864  30.150  1.00  0.00     0.037 A 
ATOM     43  C   UNL A   1      39.693  33.109  35.680  1.00  0.00     0.037 A 
ATOM     44  C   UNL A   1      41.318  28.659  31.193  1.00  0.00     0.049 A 
ATOM     45  C   UNL A   1      40.740  32.028  35.629  1.00  0.00     0.074 A 
ATOM     46  C   UNL A   1      42.365  27.755  31.233  1.00  0.00     0.029 A 
ATOM     47  N   UNL A   1      41.353  29.362  32.390  1.00  0.00    -0.354 N 
ATOM     48  N   UNL A   1      41.005  31.176  34.669  1.00  0.00    -0.248 NA
ATOM     49  C   UNL A   1      41.603  31.889  36.810  1.00  0.00     0.031 C 
ATOM     50  C   UNL A   1      42.992  27.865  32.478  1.00  0.00     0.029 A 
ATOM     51  C   UNL A   1      42.386  28.889  33.187  1.00  0.00     0.049 A 
ATOM     52  H   UNL A   1      40.737  30.089  32.637  1.00  0.00     0.167 HD
ATOM     53  C   UNL A   1      42.082  30.421  35.115  1.00  0.00     0.074 A 
ATOM     54  C   UNL A   1      42.430  30.928  36.426  1.00  0.00     0.031 C 
ATOM     55  C   UNL A   1      42.724  29.402  34.492  1.00  0.00     0.037 A 
BRANCH  42  56
ATOM     56  C   UNL A   1      40.394  27.973  28.939  1.00  0.00     0.064 A 
ATOM     57  C   UNL A   1      41.150  28.310  27.805  1.00  0.00     0.173 A 
ATOM     58  C   UNL A   1      39.691  26.759  28.917  1.00  0.00     0.173 A 
ATOM     59  F   UNL A   1      41.835  29.461  27.767  1.00  0.00    -0.203 F 
ATOM     60  C   UNL A   1      41.162  27.488  26.679  1.00  0.00     0.198 A 
ATOM     61  C   UNL A   1      39.739  25.920  27.806  1.00  0.00     0.198 A 
ATOM     62  F   UNL A   1      38.958  26.380  29.976  1.00  0.00    -0.203 F 
ATOM     63  F   UNL A   1      41.836  27.866  25.584  1.00  0.00    -0.200 F 
ATOM     64  C   UNL A   1      40.462  26.292  26.684  1.00  0.00     0.200 A 
ATOM     65  F   UNL A   1      39.075  24.756  27.819  1.00  0.00    -0.200 F 
ATOM     66  F   UNL A   1      40.477  25.501  25.602  1.00  0.00    -0.200 F 
ENDBRANCH  42  56
BRANCH  43  67
ATOM     67  C   UNL A   1      39.540  33.974  36.880  1.00  0.00     0.064 A 
ATOM     68  C   UNL A   1      38.782  33.555  37.983  1.00  0.00     0.173 A 
ATOM     69  C   UNL A   1      40.154  35.233  36.951  1.00  0.00     0.173 A 
ATOM     70  F   UNL A   1      38.160  32.369  37.956  1.00  0.00    -0.203 F 
ATOM     71  C   UNL A   1      38.628  34.373  39.101  1.00  0.00     0.198 A 
ATOM     72  C   UNL A   1      40.028  36.034  38.084  1.00  0.00     0.198 A 
ATOM     73  F   UNL A   1      40.895  35.678  35.926  1.00  0.00    -0.203 F 
ATOM     74  F   UNL A   1      37.860  33.969  40.122  1.00  0.00    -0.200 F 
ATOM     75  C   UNL A   1      39.257  35.608  39.155  1.00  0.00     0.200 A 
ATOM     76  F   UNL A   1      40.653  37.218  38.139  1.00  0.00    -0.200 F 
ATOM     77  F   UNL A   1      39.118  36.387  40.235  1.00  0.00    -0.200 F 
ENDBRANCH  43  67
BRANCH  55  78
ATOM     78  C   UNL A   1      43.896  28.785  35.204  1.00  0.00     0.064 A 
ATOM     79  C   UNL A   1      45.205  29.259  35.029  1.00  0.00     0.173 A 
ATOM     80  C   UNL A   1      43.699  27.725  36.105  1.00  0.00     0.173 A 
ATOM     81  F   UNL A   1      45.452  30.260  34.171  1.00  0.00    -0.203 F 
ATOM     82  C   UNL A   1      46.274  28.677  35.705  1.00  0.00     0.198 A 
ATOM     83  C   UNL A   1      44.766  27.171  36.807  1.00  0.00     0.198 A 
ATOM     84  F   UNL A   1      42.468  27.237  36.317  1.00  0.00    -0.203 F 
ATOM     85  F   UNL A   1      47.523  29.109  35.479  1.00  0.00    -0.200 F 
ATOM     86  C   UNL A   1      46.053  27.640  36.599  1.00  0.00     0.200 A 
ATOM     87  F   UNL A   1      44.546  26.182  37.684  1.00  0.00    -0.200 F 
ATOM     88  F   UNL A   1      47.083  27.088  37.256  1.00  0.00    -0.200 F 
ENDBRANCH  55  78
ENDBRANCH  29  30
ENDBRANCH  21  24
ENDBRANCH  19  20
ENDBRANCH  18  19
ENDBRANCH   1  18
TORSDOF 13
ENDMDL
MODEL 2
REMARK VINA RESULT:     -12.0      0.151      1.646
REMARK SMILES O=C(NCCCCCCNC(=O)c1ccc(-c2c3nc(c(-c4c(F)c(F)c(F)c(F)c4F)c4ccc([nH]4)c(-c4c(F)c(F)c(F)c(F)c4F)c4nc(c(-c5c(F)c(F)c(F)c(F)c5F)c5ccc2[nH]5)C=C4)C=C3)cc1)C1=NN=C2C=CC=C[C@@H]21
REMARK SMILES IDX 7 1 6 2 5 3 4 4 3 5 1 6 2 7 76 9 77 10 84 11 78 12 79 13
REMARK SMILES IDX 83 14 80 15 82 16 81 17 8 18 9 19 10 20 11 21 12 23 13 24
REMARK SMILES IDX 14 25 75 26 15 27 74 28 16 29 17 30 18 31 68 32 19 33 73 34
REMARK SMILES IDX 67 35 69 36 20 37 72 38 66 39 65 40 21 42 53 43 33 44 52 45
REMARK SMILES IDX 34 46 37 47 51 48 70 49 35 50 36 51 50 53 71 54 38 55 22 56
REMARK SMILES IDX 23 57 31 58 24 59 25 60 29 61 32 62 26 63 27 64 30 65 28 66
REMARK SMILES IDX 54 67 55 68 63 69 56 70 57 71 61 72 64 73 58 74 59 75 62 76
REMARK SMILES IDX 60 77 39 78 40 79 48 80 41 81 42 82 46 83 49 84 43 85 44 86
REMARK SMILES IDX 47 87 45 88
REMARK H PARENT 3 8 10 22 69 41 37 52
REMARK Flexibility Score: inf
ROOT
ATOM      1  C   UNL A   1      31.591  30.801  26.117  1.00  0.00     0.002 C 
ENDROOT
BRANCH   1   2
ATOM      2  C   UNL A   1      32.469  29.887  26.975  1.00  0.00     0.002 C 
BRANCH   2   3
ATOM      3  C   UNL A   1      31.820  28.590  27.453  1.00  0.00     0.021 C 
BRANCH   3   4
ATOM      4  C   UNL A   1      32.332  27.307  26.809  1.00  0.00     0.116 C 
BRANCH   4   5
ATOM      5  N   UNL A   1      31.465  26.759  25.784  1.00  0.00    -0.351 N 
ATOM      6  O   UNL A   1      30.308  25.119  24.719  1.00  0.00    -0.268 OA
ATOM      7  C   UNL A   1      31.153  25.438  25.544  1.00  0.00     0.268 C 
ATOM      8  H   UNL A   1      31.044  27.414  25.182  1.00  0.00     0.163 HD
BRANCH   7   9
ATOM      9  C   UNL A   1      31.867  24.367  26.315  1.00  0.00     0.140 C 
ATOM     10  N   UNL A   1      31.385  23.788  27.375  1.00  0.00    -0.148 NA
ATOM     11  C   UNL A   1      33.127  23.758  25.811  1.00  0.00     0.120 C 
ATOM     12  N   UNL A   1      32.291  22.731  27.748  1.00  0.00    -0.154 NA
ATOM     13  C   UNL A   1      33.272  22.734  26.904  1.00  0.00     0.076 C 
ATOM     14  C   UNL A   1      34.428  24.474  25.684  1.00  0.00    -0.010 C 
ATOM     15  C   UNL A   1      34.442  21.840  26.848  1.00  0.00     0.027 C 
ATOM     16  C   UNL A   1      35.550  23.736  25.770  1.00  0.00    -0.003 C 
ATOM     17  C   UNL A   1      35.483  22.328  26.149  1.00  0.00     0.002 C 
ENDBRANCH   7   9
ENDBRANCH   4   5
ENDBRANCH   3   4
ENDBRANCH   2   3
ENDBRANCH   1   2
BRANCH   1  18
ATOM     18  C   UNL A   1      31.372  32.215  26.656  1.00  0.00     0.021 C 
BRANCH  18  19
ATOM     19  C   UNL A   1      32.604  32.883  27.258  1.00  0.00     0.116 C 
BRANCH  19  20
ATOM     20  N   UNL A   1      32.366  34.268  27.631  1.00  0.00    -0.352 N 
ATOM     21  C   UNL A   1      32.964  35.028  28.605  1.00  0.00     0.251 C 
ATOM     22  H   UNL A   1      31.672  34.730  27.106  1.00  0.00     0.163 HD
ATOM     23  O   UNL A   1      32.511  36.135  28.887  1.00  0.00    -0.269 OA
BRANCH  21  24
ATOM     24  C   UNL A   1      34.138  34.508  29.339  1.00  0.00     0.039 A 
ATOM     25  C   UNL A   1      33.941  33.897  30.580  1.00  0.00     0.014 A 
ATOM     26  C   UNL A   1      35.427  34.623  28.813  1.00  0.00     0.014 A 
ATOM     27  C   UNL A   1      35.028  33.344  31.261  1.00  0.00     0.010 A 
ATOM     28  C   UNL A   1      36.496  33.998  29.452  1.00  0.00     0.010 A 
ATOM     29  C   UNL A   1      36.309  33.354  30.684  1.00  0.00    -0.014 A 
BRANCH  29  30
ATOM     30  C   UNL A   1      37.457  32.689  31.353  1.00  0.00     0.031 A 
ATOM     31  C   UNL A   1      38.158  31.535  30.693  1.00  0.00     0.074 A 
ATOM     32  C   UNL A   1      37.834  33.089  32.584  1.00  0.00     0.049 A 
ATOM     33  N   UNL A   1      39.139  30.792  31.145  1.00  0.00    -0.248 NA
ATOM     34  C   UNL A   1      37.676  31.144  29.360  1.00  0.00     0.031 C 
ATOM     35  C   UNL A   1      37.205  34.165  33.349  1.00  0.00     0.029 A 
ATOM     36  N   UNL A   1      38.828  32.630  33.411  1.00  0.00    -0.354 N 
ATOM     37  C   UNL A   1      39.386  29.850  30.156  1.00  0.00     0.074 A 
ATOM     38  C   UNL A   1      38.407  30.068  29.112  1.00  0.00     0.031 C 
ATOM     39  C   UNL A   1      37.840  34.299  34.523  1.00  0.00     0.029 A 
ATOM     40  C   UNL A   1      38.890  33.289  34.614  1.00  0.00     0.049 A 
ATOM     41  H   UNL A   1      39.439  31.898  33.165  1.00  0.00     0.167 HD
ATOM     42  C   UNL A   1      40.357  28.906  30.107  1.00  0.00     0.037 A 
ATOM     43  C   UNL A   1      39.692  33.093  35.679  1.00  0.00     0.037 A 
ATOM     44  C   UNL A   1      41.329  28.692  31.149  1.00  0.00     0.049 A 
ATOM     45  C   UNL A   1      40.741  32.014  35.619  1.00  0.00     0.074 A 
ATOM     46  C   UNL A   1      42.377  27.790  31.179  1.00  0.00     0.029 A 
ATOM     47  N   UNL A   1      41.362  29.383  32.353  1.00  0.00    -0.354 N 
ATOM     48  N   UNL A   1      41.009  31.173  34.650  1.00  0.00    -0.248 NA
ATOM     49  C   UNL A   1      41.604  31.865  36.798  1.00  0.00     0.031 C 
ATOM     50  C   UNL A   1      43.003  27.888  32.426  1.00  0.00     0.029 A 
ATOM     51  C   UNL A   1      42.395  28.904  33.146  1.00  0.00     0.049 A 
ATOM     52  H   UNL A   1      40.744  30.106  32.607  1.00  0.00     0.167 HD
ATOM     53  C   UNL A   1      42.087  30.415  35.089  1.00  0.00     0.074 A 
ATOM     54  C   UNL A   1      42.433  30.909  36.405  1.00  0.00     0.031 C 
ATOM     55  C   UNL A   1      42.731  29.403  34.456  1.00  0.00     0.037 A 
BRANCH  42  56
ATOM     56  C   UNL A   1      40.408  28.028  28.887  1.00  0.00     0.064 A 
ATOM     57  C   UNL A   1      39.705  26.814  28.821  1.00  0.00     0.173 A 
ATOM     58  C   UNL A   1      41.155  28.410  27.762  1.00  0.00     0.173 A 
ATOM     59  F   UNL A   1      38.981  26.395  29.870  1.00  0.00    -0.203 F 
ATOM     60  C   UNL A   1      39.785  25.996  27.696  1.00  0.00     0.198 A 
ATOM     61  C   UNL A   1      41.200  27.609  26.623  1.00  0.00     0.198 A 
ATOM     62  F   UNL A   1      41.841  29.564  27.763  1.00  0.00    -0.203 F 
ATOM     63  F   UNL A   1      39.160  24.811  27.685  1.00  0.00    -0.200 F 
ATOM     64  C   UNL A   1      40.527  26.398  26.596  1.00  0.00     0.200 A 
ATOM     65  F   UNL A   1      41.904  28.008  25.554  1.00  0.00    -0.200 F 
ATOM     66  F   UNL A   1      40.601  25.612  25.513  1.00  0.00    -0.200 F 
ENDBRANCH  42  56
BRANCH  43  67
ATOM     67  C   UNL A   1      39.537  33.945  36.888  1.00  0.00     0.064 A 
ATOM     68  C   UNL A   1      38.772  33.518  37.983  1.00  0.00     0.173 A 
ATOM     69  C   UNL A   1      40.156  35.201  36.977  1.00  0.00     0.173 A 
ATOM     70  F   UNL A   1      38.144  32.335  37.939  1.00  0.00    -0.203 F 
ATOM     71  C   UNL A   1      38.615  34.324  39.109  1.00  0.00     0.198 A 
ATOM     72  C   UNL A   1      40.028  35.990  38.118  1.00  0.00     0.198 A 
ATOM     73  F   UNL A   1      40.905  35.654  35.960  1.00  0.00    -0.203 F 
ATOM     74  F   UNL A   1      37.840  33.912  40.121  1.00  0.00    -0.200 F 
ATOM     75  C   UNL A   1      39.249  35.555  39.179  1.00  0.00     0.200 A 
ATOM     76  F   UNL A   1      40.659  37.170  38.189  1.00  0.00    -0.200 F 
ATOM     77  F   UNL A   1      39.108  36.323  40.267  1.00  0.00    -0.200 F 
ENDBRANCH  43  67
BRANCH  55  78
ATOM     78  C   UNL A   1      43.904  28.781  35.163  1.00  0.00     0.064 A 
ATOM     79  C   UNL A   1      43.751  27.705  36.049  1.00  0.00     0.173 A 
ATOM     80  C   UNL A   1      45.206  29.249  34.919  1.00  0.00     0.173 A 
ATOM     81  F   UNL A   1      42.529  27.228  36.329  1.00  0.00    -0.203 F 
ATOM     82  C   UNL A   1      44.853  27.139  36.686  1.00  0.00     0.198 A 
ATOM     83  C   UNL A   1      46.308  28.657  35.529  1.00  0.00     0.198 A 
ATOM     84  F   UNL A   1      45.411  30.270  34.074  1.00  0.00    -0.203 F 
ATOM     85  F   UNL A   1      44.677  26.149  37.573  1.00  0.00    -0.200 F 
ATOM     86  C   UNL A   1      46.130  27.609  36.419  1.00  0.00     0.200 A 
ATOM     87  F   UNL A   1      47.542  29.100  35.254  1.00  0.00    -0.200 F 
ATOM     88  F   UNL A   1      47.190  27.058  37.027  1.00  0.00    -0.200 F 
ENDBRANCH  55  78
ENDBRANCH  29  30
ENDBRANCH  21  24
ENDBRANCH  19  20
ENDBRANCH  18  19
ENDBRANCH   1  18
TORSDOF 13
ENDMDL
MODEL 3
REMARK VINA RESULT:     -12.0      1.756      8.087
REMARK SMILES O=C(NCCCCCCNC(=O)c1ccc(-c2c3nc(c(-c4c(F)c(F)c(F)c(F)c4F)c4ccc([nH]4)c(-c4c(F)c(F)c(F)c(F)c4F)c4nc(c(-c5c(F)c(F)c(F)c(F)c5F)c5ccc2[nH]5)C=C4)C=C3)cc1)C1=NN=C2C=CC=C[C@@H]21
REMARK SMILES IDX 7 1 6 2 5 3 4 4 3 5 1 6 2 7 76 9 77 10 84 11 78 12 79 13
REMARK SMILES IDX 83 14 80 15 82 16 81 17 8 18 9 19 10 20 11 21 12 23 13 24
REMARK SMILES IDX 14 25 75 26 15 27 74 28 16 29 17 30 18 31 68 32 19 33 73 34
REMARK SMILES IDX 67 35 69 36 20 37 72 38 66 39 65 40 21 42 53 43 33 44 52 45
REMARK SMILES IDX 34 46 37 47 51 48 70 49 35 50 36 51 50 53 71 54 38 55 22 56
REMARK SMILES IDX 23 57 31 58 24 59 25 60 29 61 32 62 26 63 27 64 30 65 28 66
REMARK SMILES IDX 54 67 55 68 63 69 56 70 57 71 61 72 64 73 58 74 59 75 62 76
REMARK SMILES IDX 60 77 39 78 40 79 48 80 41 81 42 82 46 83 49 84 43 85 44 86
REMARK SMILES IDX 47 87 45 88
REMARK H PARENT 3 8 10 22 69 41 37 52
REMARK Flexibility Score: inf
ROOT
ATOM      1  C   UNL A   1      31.402  30.866  25.966  1.00  0.00     0.002 C 
ENDROOT
BRANCH   1   2
ATOM      2  C   UNL A   1      32.515  30.016  26.584  1.00  0.00     0.002 C 
BRANCH   2   3
ATOM      3  C   UNL A   1      32.060  28.811  27.405  1.00  0.00     0.021 C 
BRANCH   3   4
ATOM      4  C   UNL A   1      31.642  27.579  26.613  1.00  0.00     0.116 C 
BRANCH   4   5
ATOM      5  N   UNL A   1      32.455  27.309  25.443  1.00  0.00    -0.351 N 
ATOM      6  O   UNL A   1      32.875  27.126  23.218  1.00  0.00    -0.268 OA
ATOM      7  C   UNL A   1      32.061  27.242  24.124  1.00  0.00     0.268 C 
ATOM      8  H   UNL A   1      33.412  27.154  25.612  1.00  0.00     0.163 HD
BRANCH   7   9
ATOM      9  C   UNL A   1      30.600  27.314  23.793  1.00  0.00     0.140 C 
ATOM     10  N   UNL A   1      29.774  26.318  23.919  1.00  0.00    -0.148 NA
ATOM     11  C   UNL A   1      29.945  28.607  23.455  1.00  0.00     0.120 C 
ATOM     12  N   UNL A   1      28.448  26.809  23.637  1.00  0.00    -0.154 NA
ATOM     13  C   UNL A   1      28.545  28.067  23.348  1.00  0.00     0.076 C 
ATOM     14  C   UNL A   1      30.219  29.404  22.226  1.00  0.00    -0.010 C 
ATOM     15  C   UNL A   1      27.473  29.018  23.003  1.00  0.00     0.027 C 
ATOM     16  C   UNL A   1      29.227  30.191  21.767  1.00  0.00    -0.003 C 
ATOM     17  C   UNL A   1      27.893  30.118  22.353  1.00  0.00     0.002 C 
ENDBRANCH   7   9
ENDBRANCH   4   5
ENDBRANCH   3   4
ENDBRANCH   2   3
ENDBRANCH   1   2
BRANCH   1  18
ATOM     18  C   UNL A   1      31.276  32.292  26.503  1.00  0.00     0.021 C 
BRANCH  18  19
ATOM     19  C   UNL A   1      32.502  32.824  27.238  1.00  0.00     0.116 C 
BRANCH  19  20
ATOM     20  N   UNL A   1      32.356  34.214  27.638  1.00  0.00    -0.352 N 
ATOM     21  C   UNL A   1      33.022  34.921  28.608  1.00  0.00     0.251 C 
ATOM     22  H   UNL A   1      31.679  34.726  27.138  1.00  0.00     0.163 HD
ATOM     23  O   UNL A   1      32.643  36.048  28.918  1.00  0.00    -0.269 OA
BRANCH  21  24
ATOM     24  C   UNL A   1      34.181  34.320  29.303  1.00  0.00     0.039 A 
ATOM     25  C   UNL A   1      33.951  33.496  30.408  1.00  0.00     0.014 A 
ATOM     26  C   UNL A   1      35.487  34.567  28.875  1.00  0.00     0.014 A 
ATOM     27  C   UNL A   1      35.027  32.869  31.041  1.00  0.00     0.010 A 
ATOM     28  C   UNL A   1      36.550  33.876  29.453  1.00  0.00     0.010 A 
ATOM     29  C   UNL A   1      36.332  33.021  30.544  1.00  0.00    -0.014 A 
BRANCH  29  30
ATOM     30  C   UNL A   1      37.474  32.288  31.149  1.00  0.00     0.031 A 
ATOM     31  C   UNL A   1      37.984  32.665  32.512  1.00  0.00     0.074 A 
ATOM     32  C   UNL A   1      38.091  31.318  30.445  1.00  0.00     0.049 A 
ATOM     33  N   UNL A   1      39.004  32.183  33.179  1.00  0.00    -0.248 NA
ATOM     34  C   UNL A   1      37.271  33.747  33.207  1.00  0.00     0.031 C 
ATOM     35  C   UNL A   1      37.723  30.890  29.096  1.00  0.00     0.029 A 
ATOM     36  N   UNL A   1      39.165  30.524  30.763  1.00  0.00    -0.354 N 
ATOM     37  C   UNL A   1      39.054  32.903  34.365  1.00  0.00     0.074 A 
ATOM     38  C   UNL A   1      38.009  33.902  34.296  1.00  0.00     0.031 C 
ATOM     39  C   UNL A   1      38.540  29.899  28.710  1.00  0.00     0.029 A 
ATOM     40  C   UNL A   1      39.520  29.652  29.764  1.00  0.00     0.049 A 
ATOM     41  H   UNL A   1      39.637  30.575  31.627  1.00  0.00     0.167 HD
ATOM     42  C   UNL A   1      39.877  32.730  35.427  1.00  0.00     0.037 A 
ATOM     43  C   UNL A   1      40.530  28.763  29.695  1.00  0.00     0.037 A 
ATOM     44  C   UNL A   1      40.917  31.735  35.490  1.00  0.00     0.049 A 
ATOM     45  C   UNL A   1      41.456  28.613  30.872  1.00  0.00     0.074 A 
ATOM     46  C   UNL A   1      41.779  31.452  36.535  1.00  0.00     0.029 A 
ATOM     47  N   UNL A   1      41.244  30.866  34.457  1.00  0.00    -0.354 N 
ATOM     48  N   UNL A   1      41.452  29.254  32.016  1.00  0.00    -0.248 NA
ATOM     49  C   UNL A   1      42.522  27.610  30.751  1.00  0.00     0.031 C 
ATOM     50  C   UNL A   1      42.669  30.459  36.112  1.00  0.00     0.029 A 
ATOM     51  C   UNL A   1      42.316  30.068  34.830  1.00  0.00     0.049 A 
ATOM     52  H   UNL A   1      40.783  30.823  33.589  1.00  0.00     0.167 HD
ATOM     53  C   UNL A   1      42.492  28.713  32.761  1.00  0.00     0.074 A 
ATOM     54  C   UNL A   1      43.094  27.680  31.944  1.00  0.00     0.031 C 
ATOM     55  C   UNL A   1      42.908  29.043  34.008  1.00  0.00     0.037 A 
BRANCH  42  56
ATOM     56  C   UNL A   1      39.689  33.647  36.604  1.00  0.00     0.064 A 
ATOM     57  C   UNL A   1      38.872  33.296  37.690  1.00  0.00     0.173 A 
ATOM     58  C   UNL A   1      40.347  34.886  36.657  1.00  0.00     0.173 A 
ATOM     59  F   UNL A   1      38.212  32.129  37.690  1.00  0.00    -0.203 F 
ATOM     60  C   UNL A   1      38.684  34.168  38.761  1.00  0.00     0.198 A 
ATOM     61  C   UNL A   1      40.190  35.737  37.749  1.00  0.00     0.198 A 
ATOM     62  F   UNL A   1      41.149  35.272  35.652  1.00  0.00    -0.203 F 
ATOM     63  F   UNL A   1      37.845  33.838  39.752  1.00  0.00    -0.200 F 
ATOM     64  C   UNL A   1      39.348  35.384  38.792  1.00  0.00     0.200 A 
ATOM     65  F   UNL A   1      40.846  36.905  37.784  1.00  0.00    -0.200 F 
ATOM     66  F   UNL A   1      39.170  36.221  39.823  1.00  0.00    -0.200 F 
ENDBRANCH  42  56
BRANCH  43  67
ATOM     67  C   UNL A   1      40.709  27.942  28.468  1.00  0.00     0.064 A 
ATOM     68  C   UNL A   1      41.485  28.403  27.395  1.00  0.00     0.173 A 
ATOM     69  C   UNL A   1      40.115  26.677  28.346  1.00  0.00     0.173 A 
ATOM     70  F   UNL A   1      42.058  29.612  27.454  1.00  0.00    -0.203 F 
ATOM     71  C   UNL A   1      41.641  27.638  26.240  1.00  0.00     0.198 A 
ATOM     72  C   UNL A   1      40.301  25.899  27.205  1.00  0.00     0.198 A 
ATOM     73  F   UNL A   1      39.369  26.187  29.347  1.00  0.00    -0.203 F 
ATOM     74  F   UNL A   1      42.349  28.122  25.209  1.00  0.00    -0.200 F 
ATOM     75  C   UNL A   1      41.056  26.384  26.149  1.00  0.00     0.200 A 
ATOM     76  F   UNL A   1      39.749  24.680  27.131  1.00  0.00    -0.200 F 
ATOM     77  F   UNL A   1      41.216  25.646  25.043  1.00  0.00    -0.200 F 
ENDBRANCH  43  67
BRANCH  55  78
ATOM     78  C   UNL A   1      44.050  28.254  34.588  1.00  0.00     0.064 A 
ATOM     79  C   UNL A   1      45.381  28.683  34.477  1.00  0.00     0.173 A 
ATOM     80  C   UNL A   1      43.802  27.067  35.298  1.00  0.00     0.173 A 
ATOM     81  F   UNL A   1      45.676  29.802  33.798  1.00  0.00    -0.203 F 
ATOM     82  C   UNL A   1      46.422  27.940  35.028  1.00  0.00     0.198 A 
ATOM     83  C   UNL A   1      44.842  26.347  35.879  1.00  0.00     0.198 A 
ATOM     84  F   UNL A   1      42.548  26.614  35.442  1.00  0.00    -0.203 F 
ATOM     85  F   UNL A   1      47.691  28.340  34.860  1.00  0.00    -0.200 F 
ATOM     86  C   UNL A   1      46.151  26.779  35.736  1.00  0.00     0.200 A 
ATOM     87  F   UNL A   1      44.575  25.236  36.579  1.00  0.00    -0.200 F 
ATOM     88  F   UNL A   1      47.154  26.070  36.273  1.00  0.00    -0.200 F 
ENDBRANCH  55  78
ENDBRANCH  29  30
ENDBRANCH  21  24
ENDBRANCH  19  20
ENDBRANCH  18  19
ENDBRANCH   1  18
TORSDOF 13
ENDMDL
