MODEL 1
REMARK VINA RESULT:     -12.1      0.000      0.000
REMARK SMILES CN(C(=O)N1CCC(C(=O)NCCCCCCNC(=O)c2ccc(-c3c4nc(c(-c5c(F)c(F)c(F)c(F)c5F)c5ccc([nH]5)c(-c5c(F)c(F)c(F)c(F)c5F)c5nc(c(-c6c(F)c(F)c(F)c(F)c6F)c6ccc3[nH]6)C=C5)C=C4)cc2)CC1)[C@H]1CCSC1
REMARK SMILES IDX 14 1 13 2 12 3 11 4 9 5 10 6 8 8 3 9 4 10 5 11 6 12 85 13
REMARK SMILES IDX 7 14 84 15 2 16 1 17 86 18 87 19 90 20 88 21 89 22 15 23
REMARK SMILES IDX 16 24 17 25 18 26 19 27 20 29 21 30 22 31 83 32 23 33 82 34
REMARK SMILES IDX 24 35 25 36 26 37 76 38 27 39 81 40 75 41 77 42 28 43 80 44
REMARK SMILES IDX 74 45 73 46 29 48 61 49 41 50 60 51 42 52 45 53 59 54 78 55
REMARK SMILES IDX 43 56 44 57 58 59 79 60 46 61 30 62 31 63 39 64 32 65 33 66
REMARK SMILES IDX 37 67 40 68 34 69 35 70 38 71 36 72 62 73 63 74 71 75 64 76
REMARK SMILES IDX 65 77 69 78 72 79 66 80 67 81 70 82 68 83 47 84 48 85 56 86
REMARK SMILES IDX 49 87 50 88 54 89 57 90 51 91 52 92 55 93 53 94
REMARK H PARENT 11 7 18 28 77 47 45 58
REMARK Flexibility Score: inf
ROOT
ATOM      1  C   UNL A   1      31.501  29.938  25.253  1.00  0.00     0.002 C 
ENDROOT
BRANCH   1   2
ATOM      2  C   UNL A   1      30.390  30.273  24.253  1.00  0.00     0.021 C 
BRANCH   2   3
ATOM      3  C   UNL A   1      30.338  29.330  23.053  1.00  0.00     0.116 C 
BRANCH   3   4
ATOM      4  N   UNL A   1      29.327  28.303  23.241  1.00  0.00    -0.356 N 
ATOM      5  C   UNL A   1      29.415  27.055  23.773  1.00  0.00     0.223 C 
ATOM      6  O   UNL A   1      28.402  26.353  23.769  1.00  0.00    -0.275 OA
ATOM      7  H   UNL A   1      28.427  28.553  22.930  1.00  0.00     0.163 HD
BRANCH   5   8
ATOM      8  C   UNL A   1      30.706  26.540  24.391  1.00  0.00     0.082 C 
ATOM      9  C   UNL A   1      32.010  23.173  26.311  1.00  0.00     0.320 C 
ATOM     10  O   UNL A   1      31.151  22.995  27.175  1.00  0.00    -0.248 OA
ATOM     11  N   UNL A   1      32.132  24.410  25.707  1.00  0.00    -0.325 N 
ATOM     12  C   UNL A   1      31.788  25.599  26.477  1.00  0.00     0.122 C 
ATOM     13  C   UNL A   1      32.400  24.635  24.292  1.00  0.00     0.122 C 
ATOM     14  C   UNL A   1      30.583  26.329  25.905  1.00  0.00     0.035 C 
ATOM     15  C   UNL A   1      31.233  25.332  23.605  1.00  0.00     0.035 C 
BRANCH   9  16
ATOM     16  N   UNL A   1      32.916  22.180  25.963  1.00  0.00    -0.324 N 
ATOM     17  C   UNL A   1      34.231  22.028  26.576  1.00  0.00     0.149 C 
BRANCH  16  18
ATOM     18  C   UNL A   1      32.459  20.996  25.209  1.00  0.00     0.097 C 
ATOM     19  C   UNL A   1      32.705  21.116  23.702  1.00  0.00     0.037 C 
ATOM     20  C   UNL A   1      33.030  19.640  25.638  1.00  0.00     0.094 C 
ATOM     21  C   UNL A   1      32.191  19.829  23.081  1.00  0.00     0.072 C 
ATOM     22  S   UNL A   1      32.635  18.517  24.255  1.00  0.00    -0.160 SA
ENDBRANCH  16  18
ENDBRANCH   9  16
ENDBRANCH   5   8
ENDBRANCH   3   4
ENDBRANCH   2   3
ENDBRANCH   1   2
BRANCH   1  23
ATOM     23  C   UNL A   1      31.393  30.656  26.602  1.00  0.00     0.002 C 
BRANCH  23  24
ATOM     24  C   UNL A   1      31.452  32.183  26.529  1.00  0.00     0.021 C 
BRANCH  24  25
ATOM     25  C   UNL A   1      32.650  32.804  27.237  1.00  0.00     0.116 C 
BRANCH  25  26
ATOM     26  N   UNL A   1      32.411  34.192  27.598  1.00  0.00    -0.352 N 
ATOM     27  C   UNL A   1      32.992  34.944  28.584  1.00  0.00     0.251 C 
ATOM     28  H   UNL A   1      31.734  34.659  27.055  1.00  0.00     0.163 HD
ATOM     29  O   UNL A   1      32.531  36.045  28.881  1.00  0.00    -0.269 OA
BRANCH  27  30
ATOM     30  C   UNL A   1      34.165  34.420  29.311  1.00  0.00     0.039 A 
ATOM     31  C   UNL A   1      33.972  33.787  30.542  1.00  0.00     0.014 A 
ATOM     32  C   UNL A   1      35.453  34.554  28.783  1.00  0.00     0.014 A 
ATOM     33  C   UNL A   1      35.063  33.238  31.215  1.00  0.00     0.010 A 
ATOM     34  C   UNL A   1      36.528  33.940  29.418  1.00  0.00     0.010 A 
ATOM     35  C   UNL A   1      36.345  33.281  30.644  1.00  0.00    -0.014 A 
BRANCH  35  36
ATOM     36  C   UNL A   1      37.507  32.643  31.312  1.00  0.00     0.031 A 
ATOM     37  C   UNL A   1      38.236  31.512  30.641  1.00  0.00     0.074 A 
ATOM     38  C   UNL A   1      37.865  33.039  32.548  1.00  0.00     0.049 A 
ATOM     39  N   UNL A   1      39.228  30.784  31.088  1.00  0.00    -0.248 NA
ATOM     40  C   UNL A   1      37.771  31.132  29.297  1.00  0.00     0.031 C 
ATOM     41  C   UNL A   1      37.206  34.093  33.320  1.00  0.00     0.029 A 
ATOM     42  N   UNL A   1      38.863  32.594  33.377  1.00  0.00    -0.354 N 
ATOM     43  C   UNL A   1      39.495  29.856  30.091  1.00  0.00     0.074 A 
ATOM     44  C   UNL A   1      38.527  30.075  29.038  1.00  0.00     0.031 C 
ATOM     45  C   UNL A   1      37.829  34.227  34.502  1.00  0.00     0.029 A 
ATOM     46  C   UNL A   1      38.904  33.243  34.587  1.00  0.00     0.049 A 
ATOM     47  H   UNL A   1      39.491  31.878  33.129  1.00  0.00     0.167 HD
ATOM     48  C   UNL A   1      40.473  28.921  30.048  1.00  0.00     0.037 A 
ATOM     49  C   UNL A   1      39.709  33.056  35.651  1.00  0.00     0.037 A 
ATOM     50  C   UNL A   1      41.445  28.718  31.090  1.00  0.00     0.049 A 
ATOM     51  C   UNL A   1      40.777  31.997  35.584  1.00  0.00     0.074 A 
ATOM     52  C   UNL A   1      42.512  27.838  31.118  1.00  0.00     0.029 A 
ATOM     53  N   UNL A   1      41.462  29.405  32.298  1.00  0.00    -0.354 N 
ATOM     54  N   UNL A   1      41.070  31.176  34.605  1.00  0.00    -0.248 NA
ATOM     55  C   UNL A   1      41.634  31.846  36.768  1.00  0.00     0.031 C 
ATOM     56  C   UNL A   1      43.143  27.953  32.360  1.00  0.00     0.029 A 
ATOM     57  C   UNL A   1      42.507  28.948  33.086  1.00  0.00     0.049 A 
ATOM     58  H   UNL A   1      40.826  30.111  32.555  1.00  0.00     0.167 HD
ATOM     59  C   UNL A   1      42.159  30.433  35.041  1.00  0.00     0.074 A 
ATOM     60  C   UNL A   1      42.485  30.913  36.367  1.00  0.00     0.031 C 
ATOM     61  C   UNL A   1      42.827  29.443  34.400  1.00  0.00     0.037 A 
BRANCH  48  62
ATOM     62  C   UNL A   1      40.544  28.042  28.831  1.00  0.00     0.064 A 
ATOM     63  C   UNL A   1      39.835  26.833  28.754  1.00  0.00     0.173 A 
ATOM     64  C   UNL A   1      41.298  28.432  27.713  1.00  0.00     0.173 A 
ATOM     65  F   UNL A   1      39.106  26.409  29.798  1.00  0.00    -0.203 F 
ATOM     66  C   UNL A   1      39.905  26.032  27.617  1.00  0.00     0.198 A 
ATOM     67  C   UNL A   1      41.338  27.643  26.565  1.00  0.00     0.198 A 
ATOM     68  F   UNL A   1      41.988  29.581  27.729  1.00  0.00    -0.203 F 
ATOM     69  F   UNL A   1      39.261  24.857  27.588  1.00  0.00    -0.200 F 
ATOM     70  C   UNL A   1      40.649  26.441  26.521  1.00  0.00     0.200 A 
ATOM     71  F   UNL A   1      42.045  28.049  25.501  1.00  0.00    -0.200 F 
ATOM     72  F   UNL A   1      40.707  25.674  25.425  1.00  0.00    -0.200 F 
ENDBRANCH  48  62
BRANCH  49  73
ATOM     73  C   UNL A   1      39.549  33.901  36.863  1.00  0.00     0.064 A 
ATOM     74  C   UNL A   1      38.793  33.456  37.956  1.00  0.00     0.173 A 
ATOM     75  C   UNL A   1      40.142  35.170  36.953  1.00  0.00     0.173 A 
ATOM     76  F   UNL A   1      38.191  32.259  37.911  1.00  0.00    -0.203 F 
ATOM     77  C   UNL A   1      38.616  34.257  39.083  1.00  0.00     0.198 A 
ATOM     78  C   UNL A   1      39.989  35.956  38.093  1.00  0.00     0.198 A 
ATOM     79  F   UNL A   1      40.881  35.640  35.938  1.00  0.00    -0.203 F 
ATOM     80  F   UNL A   1      37.847  33.827  40.093  1.00  0.00    -0.200 F 
ATOM     81  C   UNL A   1      39.219  35.503  39.153  1.00  0.00     0.200 A 
ATOM     82  F   UNL A   1      40.587  37.153  38.163  1.00  0.00    -0.200 F 
ATOM     83  F   UNL A   1      39.050  36.272  40.238  1.00  0.00    -0.200 F 
ENDBRANCH  49  73
BRANCH  61  84
ATOM     84  C   UNL A   1      44.006  28.838  35.106  1.00  0.00     0.064 A 
ATOM     85  C   UNL A   1      45.299  29.366  34.973  1.00  0.00     0.173 A 
ATOM     86  C   UNL A   1      43.831  27.738  35.962  1.00  0.00     0.173 A 
ATOM     87  F   UNL A   1      45.523  30.405  34.155  1.00  0.00    -0.203 F 
ATOM     88  C   UNL A   1      46.376  28.799  35.648  1.00  0.00     0.198 A 
ATOM     89  C   UNL A   1      44.904  27.196  36.661  1.00  0.00     0.198 A 
ATOM     90  F   UNL A   1      42.614  27.200  36.131  1.00  0.00    -0.203 F 
ATOM     91  F   UNL A   1      47.611  29.288  35.466  1.00  0.00    -0.200 F 
ATOM     92  C   UNL A   1      46.178  27.721  36.498  1.00  0.00     0.200 A 
ATOM     93  F   UNL A   1      44.707  26.165  37.494  1.00  0.00    -0.200 F 
ATOM     94  F   UNL A   1      47.214  27.183  37.155  1.00  0.00    -0.200 F 
ENDBRANCH  61  84
ENDBRANCH  35  36
ENDBRANCH  27  30
ENDBRANCH  25  26
ENDBRANCH  24  25
ENDBRANCH  23  24
ENDBRANCH   1  23
TORSDOF 15
ENDMDL
MODEL 2
REMARK VINA RESULT:     -12.0      1.188      1.854
REMARK SMILES CN(C(=O)N1CCC(C(=O)NCCCCCCNC(=O)c2ccc(-c3c4nc(c(-c5c(F)c(F)c(F)c(F)c5F)c5ccc([nH]5)c(-c5c(F)c(F)c(F)c(F)c5F)c5nc(c(-c6c(F)c(F)c(F)c(F)c6F)c6ccc3[nH]6)C=C5)C=C4)cc2)CC1)[C@H]1CCSC1
REMARK SMILES IDX 14 1 13 2 12 3 11 4 9 5 10 6 8 8 3 9 4 10 5 11 6 12 85 13
REMARK SMILES IDX 7 14 84 15 2 16 1 17 86 18 87 19 90 20 88 21 89 22 15 23
REMARK SMILES IDX 16 24 17 25 18 26 19 27 20 29 21 30 22 31 83 32 23 33 82 34
REMARK SMILES IDX 24 35 25 36 26 37 76 38 27 39 81 40 75 41 77 42 28 43 80 44
REMARK SMILES IDX 74 45 73 46 29 48 61 49 41 50 60 51 42 52 45 53 59 54 78 55
REMARK SMILES IDX 43 56 44 57 58 59 79 60 46 61 30 62 31 63 39 64 32 65 33 66
REMARK SMILES IDX 37 67 40 68 34 69 35 70 38 71 36 72 62 73 63 74 71 75 64 76
REMARK SMILES IDX 65 77 69 78 72 79 66 80 67 81 70 82 68 83 47 84 48 85 56 86
REMARK SMILES IDX 49 87 50 88 54 89 57 90 51 91 52 92 55 93 53 94
REMARK H PARENT 11 7 18 28 77 47 45 58
REMARK Flexibility Score: inf
ROOT
ATOM      1  C   UNL A   1      32.934  30.038  26.801  1.00  0.00     0.002 C 
ENDROOT
BRANCH   1   2
ATOM      2  C   UNL A   1      33.120  28.558  26.451  1.00  0.00     0.021 C 
BRANCH   2   3
ATOM      3  C   UNL A   1      33.511  28.313  24.997  1.00  0.00     0.116 C 
BRANCH   3   4
ATOM      4  N   UNL A   1      32.525  27.486  24.323  1.00  0.00    -0.356 N 
ATOM      5  C   UNL A   1      32.586  26.196  23.899  1.00  0.00     0.223 C 
ATOM      6  O   UNL A   1      31.611  25.738  23.299  1.00  0.00    -0.275 OA
ATOM      7  H   UNL A   1      31.668  27.935  24.144  1.00  0.00     0.163 HD
BRANCH   5   8
ATOM      8  C   UNL A   1      33.798  25.320  24.179  1.00  0.00     0.082 C 
ATOM      9  C   UNL A   1      34.552  21.569  25.620  1.00  0.00     0.320 C 
ATOM     10  O   UNL A   1      33.885  21.528  26.655  1.00  0.00    -0.248 OA
ATOM     11  N   UNL A   1      34.863  22.788  25.049  1.00  0.00    -0.325 N 
ATOM     12  C   UNL A   1      35.019  23.946  25.919  1.00  0.00     0.122 C 
ATOM     13  C   UNL A   1      34.867  23.073  23.619  1.00  0.00     0.122 C 
ATOM     14  C   UNL A   1      33.955  25.004  25.671  1.00  0.00     0.035 C 
ATOM     15  C   UNL A   1      33.805  24.099  23.249  1.00  0.00     0.035 C 
BRANCH   9  16
ATOM     16  N   UNL A   1      35.067  20.419  25.035  1.00  0.00    -0.324 N 
ATOM     17  C   UNL A   1      36.493  20.120  24.948  1.00  0.00     0.149 C 
BRANCH  16  18
ATOM     18  C   UNL A   1      34.190  19.258  24.793  1.00  0.00     0.097 C 
ATOM     19  C   UNL A   1      33.060  19.560  23.803  1.00  0.00     0.037 C 
ATOM     20  C   UNL A   1      34.863  17.970  24.307  1.00  0.00     0.094 C 
ATOM     21  C   UNL A   1      32.262  18.276  23.660  1.00  0.00     0.072 C 
ATOM     22  S   UNL A   1      33.491  16.939  23.687  1.00  0.00    -0.160 SA
ENDBRANCH  16  18
ENDBRANCH   9  16
ENDBRANCH   5   8
ENDBRANCH   3   4
ENDBRANCH   2   3
ENDBRANCH   1   2
BRANCH   1  23
ATOM     23  C   UNL A   1      31.622  30.658  26.308  1.00  0.00     0.002 C 
BRANCH  23  24
ATOM     24  C   UNL A   1      31.459  32.149  26.606  1.00  0.00     0.021 C 
BRANCH  24  25
ATOM     25  C   UNL A   1      32.688  32.810  27.219  1.00  0.00     0.116 C 
BRANCH  25  26
ATOM     26  N   UNL A   1      32.432  34.191  27.598  1.00  0.00    -0.352 N 
ATOM     27  C   UNL A   1      32.994  34.931  28.604  1.00  0.00     0.251 C 
ATOM     28  H   UNL A   1      31.759  34.661  27.054  1.00  0.00     0.163 HD
ATOM     29  O   UNL A   1      32.520  36.024  28.911  1.00  0.00    -0.269 OA
BRANCH  27  30
ATOM     30  C   UNL A   1      34.161  34.406  29.339  1.00  0.00     0.039 A 
ATOM     31  C   UNL A   1      33.952  33.705  30.530  1.00  0.00     0.014 A 
ATOM     32  C   UNL A   1      35.459  34.605  28.857  1.00  0.00     0.014 A 
ATOM     33  C   UNL A   1      35.040  33.154  31.207  1.00  0.00     0.010 A 
ATOM     34  C   UNL A   1      36.534  33.991  29.492  1.00  0.00     0.010 A 
ATOM     35  C   UNL A   1      36.336  33.265  30.677  1.00  0.00    -0.014 A 
BRANCH  35  36
ATOM     36  C   UNL A   1      37.498  32.627  31.347  1.00  0.00     0.031 A 
ATOM     37  C   UNL A   1      38.217  31.485  30.686  1.00  0.00     0.074 A 
ATOM     38  C   UNL A   1      37.864  33.035  32.577  1.00  0.00     0.049 A 
ATOM     39  N   UNL A   1      39.207  30.756  31.137  1.00  0.00    -0.248 NA
ATOM     40  C   UNL A   1      37.744  31.092  29.348  1.00  0.00     0.031 C 
ATOM     41  C   UNL A   1      37.214  34.102  33.340  1.00  0.00     0.029 A 
ATOM     42  N   UNL A   1      38.863  32.594  33.406  1.00  0.00    -0.354 N 
ATOM     43  C   UNL A   1      39.464  29.815  30.148  1.00  0.00     0.074 A 
ATOM     44  C   UNL A   1      38.492  30.028  29.098  1.00  0.00     0.031 C 
ATOM     45  C   UNL A   1      37.844  34.245  34.518  1.00  0.00     0.029 A 
ATOM     46  C   UNL A   1      38.913  33.256  34.609  1.00  0.00     0.049 A 
ATOM     47  H   UNL A   1      39.486  31.871  33.164  1.00  0.00     0.167 HD
ATOM     48  C   UNL A   1      40.437  28.874  30.111  1.00  0.00     0.037 A 
ATOM     49  C   UNL A   1      39.722  33.076  35.670  1.00  0.00     0.037 A 
ATOM     50  C   UNL A   1      41.412  28.677  31.151  1.00  0.00     0.049 A 
ATOM     51  C   UNL A   1      40.784  32.011  35.610  1.00  0.00     0.074 A 
ATOM     52  C   UNL A   1      42.474  27.791  31.183  1.00  0.00     0.029 A 
ATOM     53  N   UNL A   1      41.439  29.377  32.351  1.00  0.00    -0.354 N 
ATOM     54  N   UNL A   1      41.068  31.176  34.640  1.00  0.00    -0.248 NA
ATOM     55  C   UNL A   1      41.646  31.868  36.792  1.00  0.00     0.031 C 
ATOM     56  C   UNL A   1      43.112  27.917  32.422  1.00  0.00     0.029 A 
ATOM     57  C   UNL A   1      42.485  28.923  33.139  1.00  0.00     0.049 A 
ATOM     58  H   UNL A   1      40.808  30.090  32.603  1.00  0.00     0.167 HD
ATOM     59  C   UNL A   1      42.154  30.432  35.079  1.00  0.00     0.074 A 
ATOM     60  C   UNL A   1      42.490  30.926  36.398  1.00  0.00     0.031 C 
ATOM     61  C   UNL A   1      42.814  29.431  34.446  1.00  0.00     0.037 A 
BRANCH  48  62
ATOM     62  C   UNL A   1      40.496  27.981  28.904  1.00  0.00     0.064 A 
ATOM     63  C   UNL A   1      39.770  26.782  28.839  1.00  0.00     0.173 A 
ATOM     64  C   UNL A   1      41.258  28.347  27.784  1.00  0.00     0.173 A 
ATOM     65  F   UNL A   1      39.033  26.380  29.886  1.00  0.00    -0.203 F 
ATOM     66  C   UNL A   1      39.829  25.968  27.711  1.00  0.00     0.198 A 
ATOM     67  C   UNL A   1      41.288  27.546  26.644  1.00  0.00     0.198 A 
ATOM     68  F   UNL A   1      41.965  29.486  27.789  1.00  0.00    -0.203 F 
ATOM     69  F   UNL A   1      39.168  24.802  27.693  1.00  0.00    -0.200 F 
ATOM     70  C   UNL A   1      40.582  26.354  26.612  1.00  0.00     0.200 A 
ATOM     71  F   UNL A   1      42.003  27.929  25.578  1.00  0.00    -0.200 F 
ATOM     72  F   UNL A   1      40.631  25.574  25.524  1.00  0.00    -0.200 F 
ENDBRANCH  48  62
BRANCH  49  73
ATOM     73  C   UNL A   1      39.573  33.936  36.874  1.00  0.00     0.064 A 
ATOM     74  C   UNL A   1      40.215  35.180  36.953  1.00  0.00     0.173 A 
ATOM     75  C   UNL A   1      38.794  33.533  37.969  1.00  0.00     0.173 A 
ATOM     76  F   UNL A   1      40.987  35.600  35.941  1.00  0.00    -0.203 F 
ATOM     77  C   UNL A   1      40.103  35.977  38.091  1.00  0.00     0.198 A 
ATOM     78  C   UNL A   1      38.658  34.345  39.093  1.00  0.00     0.198 A 
ATOM     79  F   UNL A   1      38.154  32.356  37.941  1.00  0.00    -0.203 F 
ATOM     80  F   UNL A   1      40.768  37.138  38.159  1.00  0.00    -0.200 F 
ATOM     81  C   UNL A   1      39.320  35.562  39.157  1.00  0.00     0.200 A 
ATOM     82  F   UNL A   1      37.888  33.948  40.114  1.00  0.00    -0.200 F 
ATOM     83  F   UNL A   1      39.211  36.330  40.250  1.00  0.00    -0.200 F 
ENDBRANCH  49  73
BRANCH  61  84
ATOM     84  C   UNL A   1      43.993  28.827  35.154  1.00  0.00     0.064 A 
ATOM     85  C   UNL A   1      45.289  29.340  34.999  1.00  0.00     0.173 A 
ATOM     86  C   UNL A   1      43.814  27.746  36.031  1.00  0.00     0.173 A 
ATOM     87  F   UNL A   1      45.517  30.362  34.161  1.00  0.00    -0.203 F 
ATOM     88  C   UNL A   1      46.367  28.774  35.676  1.00  0.00     0.198 A 
ATOM     89  C   UNL A   1      44.888  27.205  36.731  1.00  0.00     0.198 A 
ATOM     90  F   UNL A   1      42.593  27.223  36.219  1.00  0.00    -0.203 F 
ATOM     91  F   UNL A   1      47.605  29.247  35.475  1.00  0.00    -0.200 F 
ATOM     92  C   UNL A   1      46.165  27.714  36.548  1.00  0.00     0.200 A 
ATOM     93  F   UNL A   1      44.687  26.192  37.584  1.00  0.00    -0.200 F 
ATOM     94  F   UNL A   1      47.202  27.179  37.206  1.00  0.00    -0.200 F 
ENDBRANCH  61  84
ENDBRANCH  35  36
ENDBRANCH  27  30
ENDBRANCH  25  26
ENDBRANCH  24  25
ENDBRANCH  23  24
ENDBRANCH   1  23
TORSDOF 15
ENDMDL
MODEL 3
REMARK VINA RESULT:     -12.0      5.537     11.179
REMARK SMILES CN(C(=O)N1CCC(C(=O)NCCCCCCNC(=O)c2ccc(-c3c4nc(c(-c5c(F)c(F)c(F)c(F)c5F)c5ccc([nH]5)c(-c5c(F)c(F)c(F)c(F)c5F)c5nc(c(-c6c(F)c(F)c(F)c(F)c6F)c6ccc3[nH]6)C=C5)C=C4)cc2)CC1)[C@H]1CCSC1
REMARK SMILES IDX 14 1 13 2 12 3 11 4 9 5 10 6 8 8 3 9 4 10 5 11 6 12 85 13
REMARK SMILES IDX 7 14 84 15 2 16 1 17 86 18 87 19 90 20 88 21 89 22 15 23
REMARK SMILES IDX 16 24 17 25 18 26 19 27 20 29 21 30 22 31 83 32 23 33 82 34
REMARK SMILES IDX 24 35 25 36 26 37 76 38 27 39 81 40 75 41 77 42 28 43 80 44
REMARK SMILES IDX 74 45 73 46 29 48 61 49 41 50 60 51 42 52 45 53 59 54 78 55
REMARK SMILES IDX 43 56 44 57 58 59 79 60 46 61 30 62 31 63 39 64 32 65 33 66
REMARK SMILES IDX 37 67 40 68 34 69 35 70 38 71 36 72 62 73 63 74 71 75 64 76
REMARK SMILES IDX 65 77 69 78 72 79 66 80 67 81 70 82 68 83 47 84 48 85 56 86
REMARK SMILES IDX 49 87 50 88 54 89 57 90 51 91 52 92 55 93 53 94
REMARK H PARENT 11 7 18 28 77 47 45 58
REMARK Flexibility Score: inf
ROOT
ATOM      1  C   UNL A   1      35.589  20.679  25.285  1.00  0.00     0.002 C 
ENDROOT
BRANCH   1   2
ATOM      2  C   UNL A   1      34.868  19.418  24.801  1.00  0.00     0.021 C 
BRANCH   2   3
ATOM      3  C   UNL A   1      33.350  19.480  24.951  1.00  0.00     0.116 C 
BRANCH   3   4
ATOM      4  N   UNL A   1      32.712  19.797  23.685  1.00  0.00    -0.356 N 
ATOM      5  C   UNL A   1      32.412  20.993  23.114  1.00  0.00     0.223 C 
ATOM      6  O   UNL A   1      31.814  20.984  22.035  1.00  0.00    -0.275 OA
ATOM      7  H   UNL A   1      32.455  19.011  23.149  1.00  0.00     0.163 HD
BRANCH   5   8
ATOM      8  C   UNL A   1      32.824  22.309  23.755  1.00  0.00     0.082 C 
ATOM      9  C   UNL A   1      32.998  26.259  22.713  1.00  0.00     0.320 C 
ATOM     10  O   UNL A   1      33.585  26.236  21.630  1.00  0.00    -0.248 OA
ATOM     11  N   UNL A   1      33.080  25.173  23.563  1.00  0.00    -0.325 N 
ATOM     12  C   UNL A   1      34.290  24.361  23.543  1.00  0.00     0.122 C 
ATOM     13  C   UNL A   1      31.981  24.640  24.359  1.00  0.00     0.122 C 
ATOM     14  C   UNL A   1      34.030  22.946  23.054  1.00  0.00     0.035 C 
ATOM     15  C   UNL A   1      31.607  23.229  23.924  1.00  0.00     0.035 C 
BRANCH   9  16
ATOM     16  N   UNL A   1      32.303  27.380  23.146  1.00  0.00    -0.324 N 
ATOM     17  C   UNL A   1      31.086  27.877  22.513  1.00  0.00     0.149 C 
BRANCH  16  18
ATOM     18  C   UNL A   1      32.547  27.924  24.497  1.00  0.00     0.097 C 
ATOM     19  C   UNL A   1      33.069  29.363  24.475  1.00  0.00     0.037 C 
ATOM     20  C   UNL A   1      31.368  27.901  25.476  1.00  0.00     0.094 C 
ATOM     21  C   UNL A   1      33.260  29.770  25.926  1.00  0.00     0.072 C 
ATOM     22  S   UNL A   1      31.868  29.026  26.823  1.00  0.00    -0.160 SA
ENDBRANCH  16  18
ENDBRANCH   9  16
ENDBRANCH   5   8
ENDBRANCH   3   4
ENDBRANCH   2   3
ENDBRANCH   1   2
BRANCH   1  23
ATOM     23  C   UNL A   1      36.957  20.928  24.642  1.00  0.00     0.002 C 
BRANCH  23  24
ATOM     24  C   UNL A   1      37.991  19.824  24.874  1.00  0.00     0.021 C 
BRANCH  24  25
ATOM     25  C   UNL A   1      39.111  20.199  25.836  1.00  0.00     0.116 C 
BRANCH  25  26
ATOM     26  N   UNL A   1      40.128  19.161  25.920  1.00  0.00    -0.352 N 
ATOM     27  C   UNL A   1      41.483  19.287  26.073  1.00  0.00     0.251 C 
ATOM     28  H   UNL A   1      39.795  18.237  25.857  1.00  0.00     0.163 HD
ATOM     29  O   UNL A   1      42.218  18.312  25.926  1.00  0.00    -0.269 OA
BRANCH  27  30
ATOM     30  C   UNL A   1      42.067  20.604  26.395  1.00  0.00     0.039 A 
ATOM     31  C   UNL A   1      42.449  21.449  25.349  1.00  0.00     0.014 A 
ATOM     32  C   UNL A   1      42.239  21.005  27.723  1.00  0.00     0.014 A 
ATOM     33  C   UNL A   1      42.951  22.718  25.636  1.00  0.00     0.010 A 
ATOM     34  C   UNL A   1      42.668  22.298  28.005  1.00  0.00     0.010 A 
ATOM     35  C   UNL A   1      43.034  23.166  26.964  1.00  0.00    -0.014 A 
BRANCH  35  36
ATOM     36  C   UNL A   1      43.501  24.539  27.285  1.00  0.00     0.031 A 
ATOM     37  C   UNL A   1      42.534  25.559  27.816  1.00  0.00     0.074 A 
ATOM     38  C   UNL A   1      44.779  24.882  27.039  1.00  0.00     0.049 A 
ATOM     39  N   UNL A   1      42.732  26.824  28.093  1.00  0.00    -0.248 NA
ATOM     40  C   UNL A   1      41.152  25.106  28.043  1.00  0.00     0.031 C 
ATOM     41  C   UNL A   1      45.800  23.993  26.482  1.00  0.00     0.029 A 
ATOM     42  N   UNL A   1      45.436  26.073  27.215  1.00  0.00    -0.354 N 
ATOM     43  C   UNL A   1      41.503  27.316  28.512  1.00  0.00     0.074 A 
ATOM     44  C   UNL A   1      40.552  26.231  28.400  1.00  0.00     0.031 C 
ATOM     45  C   UNL A   1      46.958  24.664  26.380  1.00  0.00     0.029 A 
ATOM     46  C   UNL A   1      46.753  26.039  26.825  1.00  0.00     0.049 A 
ATOM     47  H   UNL A   1      45.005  26.877  27.585  1.00  0.00     0.167 HD
ATOM     48  C   UNL A   1      41.201  28.554  28.968  1.00  0.00     0.037 A 
ATOM     49  C   UNL A   1      47.685  27.010  26.815  1.00  0.00     0.037 A 
ATOM     50  C   UNL A   1      42.154  29.625  29.092  1.00  0.00     0.049 A 
ATOM     51  C   UNL A   1      47.318  28.383  27.311  1.00  0.00     0.074 A 
ATOM     52  C   UNL A   1      41.962  30.898  29.599  1.00  0.00     0.029 A 
ATOM     53  N   UNL A   1      43.484  29.549  28.699  1.00  0.00    -0.354 N 
ATOM     54  N   UNL A   1      46.172  28.818  27.776  1.00  0.00    -0.248 NA
ATOM     55  C   UNL A   1      48.379  29.400  27.290  1.00  0.00     0.031 C 
ATOM     56  C   UNL A   1      43.159  31.609  29.464  1.00  0.00     0.029 A 
ATOM     57  C   UNL A   1      44.115  30.761  28.928  1.00  0.00     0.049 A 
ATOM     58  H   UNL A   1      43.914  28.751  28.314  1.00  0.00     0.167 HD
ATOM     59  C   UNL A   1      46.380  30.144  28.129  1.00  0.00     0.074 A 
ATOM     60  C   UNL A   1      47.768  30.439  27.840  1.00  0.00     0.031 C 
ATOM     61  C   UNL A   1      45.500  31.037  28.646  1.00  0.00     0.037 A 
BRANCH  48  62
ATOM     62  C   UNL A   1      39.777  28.820  29.368  1.00  0.00     0.064 A 
ATOM     63  C   UNL A   1      38.835  29.313  28.452  1.00  0.00     0.173 A 
ATOM     64  C   UNL A   1      39.339  28.544  30.673  1.00  0.00     0.173 A 
ATOM     65  F   UNL A   1      39.202  29.604  27.195  1.00  0.00    -0.203 F 
ATOM     66  C   UNL A   1      37.517  29.549  28.835  1.00  0.00     0.198 A 
ATOM     67  C   UNL A   1      38.012  28.749  31.042  1.00  0.00     0.198 A 
ATOM     68  F   UNL A   1      40.196  28.064  31.586  1.00  0.00    -0.203 F 
ATOM     69  F   UNL A   1      36.648  30.069  27.957  1.00  0.00    -0.200 F 
ATOM     70  C   UNL A   1      37.105  29.260  30.127  1.00  0.00     0.200 A 
ATOM     71  F   UNL A   1      37.613  28.454  32.287  1.00  0.00    -0.200 F 
ATOM     72  F   UNL A   1      35.834  29.479  30.492  1.00  0.00    -0.200 F 
ENDBRANCH  48  62
BRANCH  49  73
ATOM     73  C   UNL A   1      49.062  26.716  26.337  1.00  0.00     0.064 A 
ATOM     74  C   UNL A   1      50.033  26.207  27.210  1.00  0.00     0.173 A 
ATOM     75  C   UNL A   1      49.437  26.941  25.004  1.00  0.00     0.173 A 
ATOM     76  F   UNL A   1      49.729  25.993  28.499  1.00  0.00    -0.203 F 
ATOM     77  C   UNL A   1      51.333  25.957  26.775  1.00  0.00     0.198 A 
ATOM     78  C   UNL A   1      50.729  26.662  24.563  1.00  0.00     0.198 A 
ATOM     79  F   UNL A   1      48.544  27.421  24.127  1.00  0.00    -0.203 F 
ATOM     80  F   UNL A   1      52.255  25.518  27.643  1.00  0.00    -0.200 F 
ATOM     81  C   UNL A   1      51.678  26.179  25.451  1.00  0.00     0.200 A 
ATOM     82  F   UNL A   1      51.054  26.862  23.279  1.00  0.00    -0.200 F 
ATOM     83  F   UNL A   1      52.928  25.936  25.032  1.00  0.00    -0.200 F 
ENDBRANCH  49  73
BRANCH  61  84
ATOM     84  C   UNL A   1      46.020  32.407  28.971  1.00  0.00     0.064 A 
ATOM     85  C   UNL A   1      45.960  33.460  28.046  1.00  0.00     0.173 A 
ATOM     86  C   UNL A   1      46.547  32.681  30.243  1.00  0.00     0.173 A 
ATOM     87  F   UNL A   1      45.481  33.248  26.811  1.00  0.00    -0.203 F 
ATOM     88  C   UNL A   1      46.434  34.728  28.373  1.00  0.00     0.198 A 
ATOM     89  C   UNL A   1      46.989  33.957  30.578  1.00  0.00     0.198 A 
ATOM     90  F   UNL A   1      46.621  31.712  31.168  1.00  0.00    -0.203 F 
ATOM     91  F   UNL A   1      46.414  35.705  27.456  1.00  0.00    -0.200 F 
ATOM     92  C   UNL A   1      46.939  34.978  29.640  1.00  0.00     0.200 A 
ATOM     93  F   UNL A   1      47.461  34.200  31.808  1.00  0.00    -0.200 F 
ATOM     94  F   UNL A   1      47.385  36.201  29.956  1.00  0.00    -0.200 F 
ENDBRANCH  61  84
ENDBRANCH  35  36
ENDBRANCH  27  30
ENDBRANCH  25  26
ENDBRANCH  24  25
ENDBRANCH  23  24
ENDBRANCH   1  23
TORSDOF 15
ENDMDL
