MODEL 1
REMARK VINA RESULT:     -11.8      0.000      0.000
REMARK SMILES Cc1ccsc1[C@@H]1[NH2+][C@@H](C(=O)NCCCCCCNC(=O)c2ccc(-c3c4nc(c(-c5c(F)c(F)c(F)c(F)c5F)c5ccc([nH]5)c(-c5c(F)c(F)c(F)c(F)c5F)c5nc(c(-c6c(F)c(F)c(F)c(F)c6F)c6ccc3[nH]6)C=C5)C=C4)cc2)CS1
REMARK SMILES IDX 16 1 15 2 14 3 13 4 12 5 10 6 11 7 9 9 7 10 8 11 86 12 85 15
REMARK SMILES IDX 6 16 1 17 2 18 3 19 4 20 5 21 17 22 18 23 19 24 20 25 21 27
REMARK SMILES IDX 22 28 23 29 84 30 24 31 83 32 25 33 26 34 27 35 77 36 28 37
REMARK SMILES IDX 82 38 76 39 78 40 29 41 81 42 75 43 74 44 30 46 62 47 42 48
REMARK SMILES IDX 61 49 43 50 46 51 60 52 79 53 44 54 45 55 59 57 80 58 47 59
REMARK SMILES IDX 31 60 32 61 40 62 33 63 34 64 38 65 41 66 35 67 36 68 39 69
REMARK SMILES IDX 37 70 63 71 64 72 72 73 65 74 66 75 70 76 73 77 67 78 68 79
REMARK SMILES IDX 71 80 69 81 48 82 49 83 57 84 50 85 51 86 55 87 58 88 52 89
REMARK SMILES IDX 53 90 56 91 54 92
REMARK H PARENT 12 8 8 13 8 14 19 26 78 45 46 56
REMARK Flexibility Score: inf
ROOT
ATOM      1  C   UNL A   1      36.917  20.776  25.011  1.00  0.00     0.002 C 
ENDROOT
BRANCH   1   2
ATOM      2  C   UNL A   1      35.528  20.131  25.002  1.00  0.00     0.002 C 
BRANCH   2   3
ATOM      3  C   UNL A   1      34.339  21.111  24.986  1.00  0.00     0.021 C 
BRANCH   3   4
ATOM      4  C   UNL A   1      33.709  21.380  26.358  1.00  0.00     0.116 C 
BRANCH   4   5
ATOM      5  N   UNL A   1      32.274  21.486  26.221  1.00  0.00    -0.351 N 
ATOM      6  C   UNL A   1      31.434  22.545  26.130  1.00  0.00     0.279 C 
ATOM      7  O   UNL A   1      30.233  22.258  26.122  1.00  0.00    -0.268 OA
ATOM      8  H   UNL A   1      31.816  20.615  26.187  1.00  0.00     0.163 HD
BRANCH   6   9
ATOM      9  C   UNL A   1      31.955  23.993  25.945  1.00  0.00     0.283 C 
ATOM     10  C   UNL A   1      30.388  25.694  25.153  1.00  0.00     0.284 C 
ATOM     11  N   UNL A   1      30.974  25.052  26.348  1.00  0.00    -0.320 N 
ATOM     12  S   UNL A   1      30.811  24.690  23.712  1.00  0.00    -0.087 SA
ATOM     13  H   UNL A   1      30.229  24.627  26.901  1.00  0.00     0.348 HD
ATOM     14  H   UNL A   1      31.459  25.761  26.900  1.00  0.00     0.348 HD
ATOM     15  C   UNL A   1      32.360  24.174  24.480  1.00  0.00     0.151 C 
BRANCH  10  16
ATOM     16  C   UNL A   1      30.773  27.171  24.998  1.00  0.00     0.075 A 
ATOM     17  C   UNL A   1      29.160  27.932  23.126  1.00  0.00     0.046 C 
ATOM     18  C   UNL A   1      30.303  28.106  24.071  1.00  0.00    -0.030 A 
ATOM     19  C   UNL A   1      31.109  29.299  24.063  1.00  0.00     0.015 A 
ATOM     20  C   UNL A   1      32.084  29.293  25.028  1.00  0.00     0.065 A 
ATOM     21  S   UNL A   1      31.985  27.906  25.998  1.00  0.00    -0.141 S 
ENDBRANCH  10  16
ENDBRANCH   6   9
ENDBRANCH   4   5
ENDBRANCH   3   4
ENDBRANCH   2   3
ENDBRANCH   1   2
BRANCH   1  22
ATOM     22  C   UNL A   1      38.084  19.790  24.990  1.00  0.00     0.021 C 
BRANCH  22  23
ATOM     23  C   UNL A   1      39.291  20.214  25.819  1.00  0.00     0.116 C 
BRANCH  23  24
ATOM     24  N   UNL A   1      40.279  19.155  25.949  1.00  0.00    -0.352 N 
ATOM     25  C   UNL A   1      41.634  19.257  26.148  1.00  0.00     0.251 C 
ATOM     26  H   UNL A   1      39.928  18.237  25.886  1.00  0.00     0.163 HD
ATOM     27  O   UNL A   1      42.351  18.262  26.067  1.00  0.00    -0.269 OA
BRANCH  25  28
ATOM     28  C   UNL A   1      42.237  20.576  26.434  1.00  0.00     0.039 A 
ATOM     29  C   UNL A   1      42.755  21.328  25.376  1.00  0.00     0.014 A 
ATOM     30  C   UNL A   1      42.278  21.076  27.738  1.00  0.00     0.014 A 
ATOM     31  C   UNL A   1      43.254  22.609  25.617  1.00  0.00     0.010 A 
ATOM     32  C   UNL A   1      42.703  22.382  27.964  1.00  0.00     0.010 A 
ATOM     33  C   UNL A   1      43.196  23.162  26.907  1.00  0.00    -0.014 A 
BRANCH  33  34
ATOM     34  C   UNL A   1      43.642  24.555  27.170  1.00  0.00     0.031 A 
ATOM     35  C   UNL A   1      42.662  25.582  27.665  1.00  0.00     0.074 A 
ATOM     36  C   UNL A   1      44.913  24.912  26.898  1.00  0.00     0.049 A 
ATOM     37  N   UNL A   1      42.839  26.862  27.877  1.00  0.00    -0.248 NA
ATOM     38  C   UNL A   1      41.294  25.114  27.933  1.00  0.00     0.031 C 
ATOM     39  C   UNL A   1      45.948  24.021  26.372  1.00  0.00     0.029 A 
ATOM     40  N   UNL A   1      45.548  26.125  27.011  1.00  0.00    -0.354 N 
ATOM     41  C   UNL A   1      41.605  27.350  28.288  1.00  0.00     0.074 A 
ATOM     42  C   UNL A   1      40.675  26.244  28.242  1.00  0.00     0.031 C 
ATOM     43  C   UNL A   1      47.091  24.709  26.229  1.00  0.00     0.029 A 
ATOM     44  C   UNL A   1      46.861  26.099  26.609  1.00  0.00     0.049 A 
ATOM     45  H   UNL A   1      45.104  26.935  27.351  1.00  0.00     0.167 HD
ATOM     46  C   UNL A   1      41.284  28.604  28.689  1.00  0.00     0.037 A 
ATOM     47  C   UNL A   1      47.773  27.088  26.540  1.00  0.00     0.037 A 
ATOM     48  C   UNL A   1      42.218  29.698  28.752  1.00  0.00     0.049 A 
ATOM     49  C   UNL A   1      47.383  28.477  26.972  1.00  0.00     0.074 A 
ATOM     50  C   UNL A   1      42.004  30.989  29.200  1.00  0.00     0.029 A 
ATOM     51  N   UNL A   1      43.543  29.630  28.347  1.00  0.00    -0.354 N 
ATOM     52  N   UNL A   1      46.233  28.911  27.425  1.00  0.00    -0.248 NA
ATOM     53  C   UNL A   1      48.423  29.513  26.888  1.00  0.00     0.031 C 
ATOM     54  C   UNL A   1      43.180  31.720  29.010  1.00  0.00     0.029 A 
ATOM     55  C   UNL A   1      44.149  30.866  28.507  1.00  0.00     0.049 A 
ATOM     56  H   UNL A   1      43.987  28.824  27.997  1.00  0.00     0.167 HD
ATOM     57  C   UNL A   1      46.418  30.258  27.710  1.00  0.00     0.074 A 
ATOM     58  C   UNL A   1      47.796  30.566  27.392  1.00  0.00     0.031 C 
ATOM     59  C   UNL A   1      45.526  31.157  28.194  1.00  0.00     0.037 A 
BRANCH  46  60
ATOM     60  C   UNL A   1      39.858  28.864  29.090  1.00  0.00     0.064 A 
ATOM     61  C   UNL A   1      38.896  29.289  28.161  1.00  0.00     0.173 A 
ATOM     62  C   UNL A   1      39.440  28.642  30.411  1.00  0.00     0.173 A 
ATOM     63  F   UNL A   1      39.245  29.527  26.887  1.00  0.00    -0.203 F 
ATOM     64  C   UNL A   1      37.577  29.515  28.547  1.00  0.00     0.198 A 
ATOM     65  C   UNL A   1      38.112  28.834  30.785  1.00  0.00     0.198 A 
ATOM     66  F   UNL A   1      40.316  28.227  31.338  1.00  0.00    -0.203 F 
ATOM     67  F   UNL A   1      36.689  29.974  27.654  1.00  0.00    -0.200 F 
ATOM     68  C   UNL A   1      37.184  29.280  29.856  1.00  0.00     0.200 A 
ATOM     69  F   UNL A   1      37.732  28.590  32.047  1.00  0.00    -0.200 F 
ATOM     70  F   UNL A   1      35.913  29.486  30.223  1.00  0.00    -0.200 F 
ENDBRANCH  46  60
BRANCH  47  71
ATOM     71  C   UNL A   1      49.149  26.799  26.055  1.00  0.00     0.064 A 
ATOM     72  C   UNL A   1      49.497  26.997  24.711  1.00  0.00     0.173 A 
ATOM     73  C   UNL A   1      50.140  26.307  26.918  1.00  0.00     0.173 A 
ATOM     74  F   UNL A   1      48.580  27.446  23.842  1.00  0.00    -0.203 F 
ATOM     75  C   UNL A   1      50.774  26.692  24.245  1.00  0.00     0.198 A 
ATOM     76  C   UNL A   1      51.426  26.033  26.457  1.00  0.00     0.198 A 
ATOM     77  F   UNL A   1      49.861  26.104  28.215  1.00  0.00    -0.203 F 
ATOM     78  F   UNL A   1      51.063  26.841  22.944  1.00  0.00    -0.200 F 
ATOM     79  C   UNL A   1      51.739  26.216  25.119  1.00  0.00     0.200 A 
ATOM     80  F   UNL A   1      52.360  25.590  27.309  1.00  0.00    -0.200 F 
ATOM     81  F   UNL A   1      52.968  25.926  24.672  1.00  0.00    -0.200 F 
ENDBRANCH  47  71
BRANCH  59  82
ATOM     82  C   UNL A   1      46.020  32.553  28.451  1.00  0.00     0.064 A 
ATOM     83  C   UNL A   1      46.605  32.918  29.672  1.00  0.00     0.173 A 
ATOM     84  C   UNL A   1      45.947  33.526  27.442  1.00  0.00     0.173 A 
ATOM     85  F   UNL A   1      46.686  32.031  30.675  1.00  0.00    -0.203 F 
ATOM     86  C   UNL A   1      47.074  34.213  29.882  1.00  0.00     0.198 A 
ATOM     87  C   UNL A   1      46.449  34.808  27.642  1.00  0.00     0.198 A 
ATOM     88  F   UNL A   1      45.404  33.226  26.251  1.00  0.00    -0.203 F 
ATOM     89  F   UNL A   1      47.583  34.554  31.074  1.00  0.00    -0.200 F 
ATOM     90  C   UNL A   1      47.005  35.154  28.864  1.00  0.00     0.200 A 
ATOM     91  F   UNL A   1      46.396  35.709  26.651  1.00  0.00    -0.200 F 
ATOM     92  F   UNL A   1      47.468  36.395  29.064  1.00  0.00    -0.200 F 
ENDBRANCH  59  82
ENDBRANCH  33  34
ENDBRANCH  25  28
ENDBRANCH  23  24
ENDBRANCH  22  23
ENDBRANCH   1  22
TORSDOF 14
ENDMDL
MODEL 2
REMARK VINA RESULT:     -11.8      0.292      1.648
REMARK SMILES Cc1ccsc1[C@@H]1[NH2+][C@@H](C(=O)NCCCCCCNC(=O)c2ccc(-c3c4nc(c(-c5c(F)c(F)c(F)c(F)c5F)c5ccc([nH]5)c(-c5c(F)c(F)c(F)c(F)c5F)c5nc(c(-c6c(F)c(F)c(F)c(F)c6F)c6ccc3[nH]6)C=C5)C=C4)cc2)CS1
REMARK SMILES IDX 16 1 15 2 14 3 13 4 12 5 10 6 11 7 9 9 7 10 8 11 86 12 85 15
REMARK SMILES IDX 6 16 1 17 2 18 3 19 4 20 5 21 17 22 18 23 19 24 20 25 21 27
REMARK SMILES IDX 22 28 23 29 84 30 24 31 83 32 25 33 26 34 27 35 77 36 28 37
REMARK SMILES IDX 82 38 76 39 78 40 29 41 81 42 75 43 74 44 30 46 62 47 42 48
REMARK SMILES IDX 61 49 43 50 46 51 60 52 79 53 44 54 45 55 59 57 80 58 47 59
REMARK SMILES IDX 31 60 32 61 40 62 33 63 34 64 38 65 41 66 35 67 36 68 39 69
REMARK SMILES IDX 37 70 63 71 64 72 72 73 65 74 66 75 70 76 73 77 67 78 68 79
REMARK SMILES IDX 71 80 69 81 48 82 49 83 57 84 50 85 51 86 55 87 58 88 52 89
REMARK SMILES IDX 53 90 56 91 54 92
REMARK H PARENT 12 8 8 13 8 14 19 26 78 45 46 56
REMARK Flexibility Score: inf
ROOT
ATOM      1  C   UNL A   1      37.103  20.881  24.606  1.00  0.00     0.002 C 
ENDROOT
BRANCH   1   2
ATOM      2  C   UNL A   1      36.230  21.421  25.743  1.00  0.00     0.002 C 
BRANCH   2   3
ATOM      3  C   UNL A   1      34.713  21.222  25.569  1.00  0.00     0.021 C 
BRANCH   3   4
ATOM      4  C   UNL A   1      33.880  21.488  26.828  1.00  0.00     0.116 C 
BRANCH   4   5
ATOM      5  N   UNL A   1      32.478  21.540  26.482  1.00  0.00    -0.351 N 
ATOM      6  C   UNL A   1      31.603  22.566  26.337  1.00  0.00     0.279 C 
ATOM      7  O   UNL A   1      30.435  22.227  26.126  1.00  0.00    -0.268 OA
ATOM      8  H   UNL A   1      32.079  20.655  26.319  1.00  0.00     0.163 HD
BRANCH   6   9
ATOM      9  C   UNL A   1      32.066  24.044  26.333  1.00  0.00     0.283 C 
ATOM     10  C   UNL A   1      30.645  25.698  25.226  1.00  0.00     0.284 C 
ATOM     11  N   UNL A   1      30.952  25.033  26.510  1.00  0.00    -0.320 N 
ATOM     12  S   UNL A   1      31.473  24.782  23.907  1.00  0.00    -0.087 SA
ATOM     13  H   UNL A   1      30.121  24.546  26.844  1.00  0.00     0.348 HD
ATOM     14  H   UNL A   1      31.240  25.740  27.188  1.00  0.00     0.348 HD
ATOM     15  C   UNL A   1      32.810  24.313  25.024  1.00  0.00     0.151 C 
BRANCH  10  16
ATOM     16  C   UNL A   1      30.966  27.198  25.218  1.00  0.00     0.075 A 
ATOM     17  C   UNL A   1      29.754  27.975  23.071  1.00  0.00     0.046 C 
ATOM     18  C   UNL A   1      30.653  28.156  24.250  1.00  0.00    -0.030 A 
ATOM     19  C   UNL A   1      31.369  29.386  24.466  1.00  0.00     0.015 A 
ATOM     20  C   UNL A   1      32.110  29.377  25.620  1.00  0.00     0.065 A 
ATOM     21  S   UNL A   1      31.886  27.938  26.489  1.00  0.00    -0.141 S 
ENDBRANCH  10  16
ENDBRANCH   6   9
ENDBRANCH   4   5
ENDBRANCH   3   4
ENDBRANCH   2   3
ENDBRANCH   1   2
BRANCH   1  22
ATOM     22  C   UNL A   1      38.040  19.740  25.001  1.00  0.00     0.021 C 
BRANCH  22  23
ATOM     23  C   UNL A   1      39.268  20.171  25.796  1.00  0.00     0.116 C 
BRANCH  23  24
ATOM     24  N   UNL A   1      40.253  19.108  25.922  1.00  0.00    -0.352 N 
ATOM     25  C   UNL A   1      41.607  19.205  26.126  1.00  0.00     0.251 C 
ATOM     26  H   UNL A   1      39.899  18.192  25.852  1.00  0.00     0.163 HD
ATOM     27  O   UNL A   1      42.322  18.209  26.040  1.00  0.00    -0.269 OA
BRANCH  25  28
ATOM     28  C   UNL A   1      42.212  20.521  26.422  1.00  0.00     0.039 A 
ATOM     29  C   UNL A   1      42.714  21.288  25.367  1.00  0.00     0.014 A 
ATOM     30  C   UNL A   1      42.272  21.003  27.732  1.00  0.00     0.014 A 
ATOM     31  C   UNL A   1      43.215  22.567  25.619  1.00  0.00     0.010 A 
ATOM     32  C   UNL A   1      42.699  22.306  27.971  1.00  0.00     0.010 A 
ATOM     33  C   UNL A   1      43.176  23.102  26.918  1.00  0.00    -0.014 A 
BRANCH  33  34
ATOM     34  C   UNL A   1      43.624  24.491  27.195  1.00  0.00     0.031 A 
ATOM     35  C   UNL A   1      42.648  25.512  27.709  1.00  0.00     0.074 A 
ATOM     36  C   UNL A   1      44.893  24.851  26.917  1.00  0.00     0.049 A 
ATOM     37  N   UNL A   1      42.827  26.789  27.936  1.00  0.00    -0.248 NA
ATOM     38  C   UNL A   1      41.282  25.041  27.982  1.00  0.00     0.031 C 
ATOM     39  C   UNL A   1      45.924  23.966  26.373  1.00  0.00     0.029 A 
ATOM     40  N   UNL A   1      45.529  26.062  27.041  1.00  0.00    -0.354 N 
ATOM     41  C   UNL A   1      41.597  27.273  28.362  1.00  0.00     0.074 A 
ATOM     42  C   UNL A   1      40.665  26.167  28.309  1.00  0.00     0.031 C 
ATOM     43  C   UNL A   1      47.066  24.655  26.230  1.00  0.00     0.029 A 
ATOM     44  C   UNL A   1      46.839  26.041  26.628  1.00  0.00     0.049 A 
ATOM     45  H   UNL A   1      45.088  26.869  27.393  1.00  0.00     0.167 HD
ATOM     46  C   UNL A   1      41.278  28.521  28.781  1.00  0.00     0.037 A 
ATOM     47  C   UNL A   1      47.751  27.031  26.564  1.00  0.00     0.037 A 
ATOM     48  C   UNL A   1      42.213  29.614  28.850  1.00  0.00     0.049 A 
ATOM     49  C   UNL A   1      47.365  28.414  27.016  1.00  0.00     0.074 A 
ATOM     50  C   UNL A   1      42.003  30.900  29.315  1.00  0.00     0.029 A 
ATOM     51  N   UNL A   1      43.535  29.551  28.433  1.00  0.00    -0.354 N 
ATOM     52  N   UNL A   1      46.218  28.843  27.483  1.00  0.00    -0.248 NA
ATOM     53  C   UNL A   1      48.404  29.451  26.937  1.00  0.00     0.031 C 
ATOM     54  C   UNL A   1      43.178  31.633  29.125  1.00  0.00     0.029 A 
ATOM     55  C   UNL A   1      44.143  30.786  28.604  1.00  0.00     0.049 A 
ATOM     56  H   UNL A   1      43.976  28.749  28.070  1.00  0.00     0.167 HD
ATOM     57  C   UNL A   1      46.405  30.186  27.783  1.00  0.00     0.074 A 
ATOM     58  C   UNL A   1      47.781  30.499  27.458  1.00  0.00     0.031 C 
ATOM     59  C   UNL A   1      45.517  31.080  28.285  1.00  0.00     0.037 A 
BRANCH  46  60
ATOM     60  C   UNL A   1      39.856  28.776  29.195  1.00  0.00     0.064 A 
ATOM     61  C   UNL A   1      39.435  28.619  30.525  1.00  0.00     0.173 A 
ATOM     62  C   UNL A   1      38.913  29.226  28.258  1.00  0.00     0.173 A 
ATOM     63  F   UNL A   1      40.293  28.181  31.458  1.00  0.00    -0.203 F 
ATOM     64  C   UNL A   1      38.115  28.871  30.894  1.00  0.00     0.198 A 
ATOM     65  C   UNL A   1      37.604  29.512  28.639  1.00  0.00     0.198 A 
ATOM     66  F   UNL A   1      39.263  29.402  26.976  1.00  0.00    -0.203 F 
ATOM     67  F   UNL A   1      37.723  28.660  32.158  1.00  0.00    -0.200 F 
ATOM     68  C   UNL A   1      37.204  29.324  29.953  1.00  0.00     0.200 A 
ATOM     69  F   UNL A   1      36.729  29.966  27.730  1.00  0.00    -0.200 F 
ATOM     70  F   UNL A   1      35.938  29.577  30.311  1.00  0.00    -0.200 F 
ENDBRANCH  46  60
BRANCH  47  71
ATOM     71  C   UNL A   1      49.123  26.748  26.065  1.00  0.00     0.064 A 
ATOM     72  C   UNL A   1      49.473  27.001  24.732  1.00  0.00     0.173 A 
ATOM     73  C   UNL A   1      50.108  26.205  26.904  1.00  0.00     0.173 A 
ATOM     74  F   UNL A   1      48.561  27.500  23.884  1.00  0.00    -0.203 F 
ATOM     75  C   UNL A   1      50.746  26.703  24.251  1.00  0.00     0.198 A 
ATOM     76  C   UNL A   1      51.391  25.937  26.431  1.00  0.00     0.198 A 
ATOM     77  F   UNL A   1      49.827  25.948  28.191  1.00  0.00    -0.203 F 
ATOM     78  F   UNL A   1      51.036  26.907  22.958  1.00  0.00    -0.200 F 
ATOM     79  C   UNL A   1      51.706  26.176  25.102  1.00  0.00     0.200 A 
ATOM     80  F   UNL A   1      52.320  25.446  27.261  1.00  0.00    -0.200 F 
ATOM     81  F   UNL A   1      52.931  25.893  24.641  1.00  0.00    -0.200 F 
ENDBRANCH  47  71
BRANCH  59  82
ATOM     82  C   UNL A   1      46.013  32.472  28.555  1.00  0.00     0.064 A 
ATOM     83  C   UNL A   1      45.908  33.495  27.601  1.00  0.00     0.173 A 
ATOM     84  C   UNL A   1      46.560  32.797  29.807  1.00  0.00     0.173 A 
ATOM     85  F   UNL A   1      45.407  33.234  26.384  1.00  0.00    -0.203 F 
ATOM     86  C   UNL A   1      46.356  34.784  27.880  1.00  0.00     0.198 A 
ATOM     87  C   UNL A   1      46.974  34.094  30.095  1.00  0.00     0.198 A 
ATOM     88  F   UNL A   1      46.676  31.859  30.759  1.00  0.00    -0.203 F 
ATOM     89  F   UNL A   1      46.292  35.732  26.935  1.00  0.00    -0.200 F 
ATOM     90  C   UNL A   1      46.879  35.085  29.129  1.00  0.00     0.200 A 
ATOM     91  F   UNL A   1      47.462  34.386  31.308  1.00  0.00    -0.200 F 
ATOM     92  F   UNL A   1      47.298  36.328  29.400  1.00  0.00    -0.200 F 
ENDBRANCH  59  82
ENDBRANCH  33  34
ENDBRANCH  25  28
ENDBRANCH  23  24
ENDBRANCH  22  23
ENDBRANCH   1  22
TORSDOF 14
ENDMDL
MODEL 3
REMARK VINA RESULT:     -11.7      5.850     11.442
REMARK SMILES Cc1ccsc1[C@@H]1[NH2+][C@@H](C(=O)NCCCCCCNC(=O)c2ccc(-c3c4nc(c(-c5c(F)c(F)c(F)c(F)c5F)c5ccc([nH]5)c(-c5c(F)c(F)c(F)c(F)c5F)c5nc(c(-c6c(F)c(F)c(F)c(F)c6F)c6ccc3[nH]6)C=C5)C=C4)cc2)CS1
REMARK SMILES IDX 16 1 15 2 14 3 13 4 12 5 10 6 11 7 9 9 7 10 8 11 86 12 85 15
REMARK SMILES IDX 6 16 1 17 2 18 3 19 4 20 5 21 17 22 18 23 19 24 20 25 21 27
REMARK SMILES IDX 22 28 23 29 84 30 24 31 83 32 25 33 26 34 27 35 77 36 28 37
REMARK SMILES IDX 82 38 76 39 78 40 29 41 81 42 75 43 74 44 30 46 62 47 42 48
REMARK SMILES IDX 61 49 43 50 46 51 60 52 79 53 44 54 45 55 59 57 80 58 47 59
REMARK SMILES IDX 31 60 32 61 40 62 33 63 34 64 38 65 41 66 35 67 36 68 39 69
REMARK SMILES IDX 37 70 63 71 64 72 72 73 65 74 66 75 70 76 73 77 67 78 68 79
REMARK SMILES IDX 71 80 69 81 48 82 49 83 57 84 50 85 51 86 55 87 58 88 52 89
REMARK SMILES IDX 53 90 56 91 54 92
REMARK H PARENT 12 8 8 13 8 14 19 26 78 45 46 56
REMARK Flexibility Score: inf
ROOT
ATOM      1  C   UNL A   1      31.554  30.662  26.373  1.00  0.00     0.002 C 
ENDROOT
BRANCH   1   2
ATOM      2  C   UNL A   1      32.677  30.007  27.182  1.00  0.00     0.002 C 
BRANCH   2   3
ATOM      3  C   UNL A   1      32.742  28.470  27.108  1.00  0.00     0.021 C 
BRANCH   3   4
ATOM      4  C   UNL A   1      34.009  27.910  26.450  1.00  0.00     0.116 C 
BRANCH   4   5
ATOM      5  N   UNL A   1      33.779  27.720  25.036  1.00  0.00    -0.351 N 
ATOM      6  C   UNL A   1      33.747  26.616  24.250  1.00  0.00     0.279 C 
ATOM      7  O   UNL A   1      33.617  26.841  23.043  1.00  0.00    -0.268 OA
ATOM      8  H   UNL A   1      33.612  28.558  24.547  1.00  0.00     0.163 HD
BRANCH   6   9
ATOM      9  C   UNL A   1      33.767  25.185  24.843  1.00  0.00     0.283 C 
ATOM     10  C   UNL A   1      32.993  23.340  23.437  1.00  0.00     0.284 C 
ATOM     11  N   UNL A   1      34.172  24.124  23.863  1.00  0.00    -0.320 N 
ATOM     12  S   UNL A   1      31.510  24.218  23.977  1.00  0.00    -0.087 SA
ATOM     13  H   UNL A   1      34.596  24.564  23.047  1.00  0.00     0.348 HD
ATOM     14  H   UNL A   1      34.841  23.497  24.311  1.00  0.00     0.348 HD
ATOM     15  C   UNL A   1      32.380  24.880  25.412  1.00  0.00     0.151 C 
BRANCH  10  16
ATOM     16  C   UNL A   1      33.032  21.875  23.892  1.00  0.00     0.075 A 
ATOM     17  C   UNL A   1      31.820  20.695  21.937  1.00  0.00     0.046 C 
ATOM     18  C   UNL A   1      32.456  20.755  23.287  1.00  0.00    -0.030 A 
ATOM     19  C   UNL A   1      32.470  19.611  24.162  1.00  0.00     0.015 A 
ATOM     20  C   UNL A   1      33.132  19.847  25.339  1.00  0.00     0.065 A 
ATOM     21  S   UNL A   1      33.810  21.401  25.368  1.00  0.00    -0.141 S 
ENDBRANCH  10  16
ENDBRANCH   6   9
ENDBRANCH   4   5
ENDBRANCH   3   4
ENDBRANCH   2   3
ENDBRANCH   1   2
BRANCH   1  22
ATOM     22  C   UNL A   1      31.447  32.179  26.532  1.00  0.00     0.021 C 
BRANCH  22  23
ATOM     23  C   UNL A   1      32.572  32.814  27.341  1.00  0.00     0.116 C 
BRANCH  23  24
ATOM     24  N   UNL A   1      32.328  34.219  27.630  1.00  0.00    -0.352 N 
ATOM     25  C   UNL A   1      32.933  35.028  28.559  1.00  0.00     0.251 C 
ATOM     26  H   UNL A   1      31.632  34.649  27.083  1.00  0.00     0.163 HD
ATOM     27  O   UNL A   1      32.490  36.151  28.789  1.00  0.00    -0.269 OA
BRANCH  25  28
ATOM     28  C   UNL A   1      34.109  34.534  29.308  1.00  0.00     0.039 A 
ATOM     29  C   UNL A   1      33.919  33.973  30.573  1.00  0.00     0.014 A 
ATOM     30  C   UNL A   1      35.391  34.610  28.758  1.00  0.00     0.014 A 
ATOM     31  C   UNL A   1      35.007  33.428  31.259  1.00  0.00     0.010 A 
ATOM     32  C   UNL A   1      36.460  33.998  29.407  1.00  0.00     0.010 A 
ATOM     33  C   UNL A   1      36.280  33.402  30.664  1.00  0.00    -0.014 A 
BRANCH  33  34
ATOM     34  C   UNL A   1      37.433  32.751  31.339  1.00  0.00     0.031 A 
ATOM     35  C   UNL A   1      38.145  31.604  30.679  1.00  0.00     0.074 A 
ATOM     36  C   UNL A   1      37.795  33.148  32.575  1.00  0.00     0.049 A 
ATOM     37  N   UNL A   1      39.118  30.858  31.139  1.00  0.00    -0.248 NA
ATOM     38  C   UNL A   1      37.687  31.228  29.333  1.00  0.00     0.031 C 
ATOM     39  C   UNL A   1      37.155  34.220  33.340  1.00  0.00     0.029 A 
ATOM     40  N   UNL A   1      38.780  32.687  33.412  1.00  0.00    -0.354 N 
ATOM     41  C   UNL A   1      39.376  29.920  30.147  1.00  0.00     0.074 A 
ATOM     42  C   UNL A   1      38.422  30.154  29.085  1.00  0.00     0.031 C 
ATOM     43  C   UNL A   1      37.776  34.348  34.523  1.00  0.00     0.029 A 
ATOM     44  C   UNL A   1      38.828  33.340  34.620  1.00  0.00     0.049 A 
ATOM     45  H   UNL A   1      39.396  31.959  33.169  1.00  0.00     0.167 HD
ATOM     46  C   UNL A   1      40.337  28.965  30.116  1.00  0.00     0.037 A 
ATOM     47  C   UNL A   1      39.620  33.140  35.691  1.00  0.00     0.037 A 
ATOM     48  C   UNL A   1      41.297  28.749  31.167  1.00  0.00     0.049 A 
ATOM     49  C   UNL A   1      40.665  32.058  35.638  1.00  0.00     0.074 A 
ATOM     50  C   UNL A   1      42.345  27.847  31.204  1.00  0.00     0.029 A 
ATOM     51  N   UNL A   1      41.320  29.439  32.371  1.00  0.00    -0.354 N 
ATOM     52  N   UNL A   1      40.946  31.224  34.667  1.00  0.00    -0.248 NA
ATOM     53  C   UNL A   1      41.510  31.894  36.830  1.00  0.00     0.031 C 
ATOM     54  C   UNL A   1      42.966  27.948  32.453  1.00  0.00     0.029 A 
ATOM     55  C   UNL A   1      42.347  28.960  33.169  1.00  0.00     0.049 A 
ATOM     56  H   UNL A   1      40.699  30.160  32.621  1.00  0.00     0.167 HD
ATOM     57  C   UNL A   1      42.015  30.460  35.116  1.00  0.00     0.074 A 
ATOM     58  C   UNL A   1      42.343  30.939  36.442  1.00  0.00     0.031 C 
ATOM     59  C   UNL A   1      42.668  29.454  34.485  1.00  0.00     0.037 A 
BRANCH  46  60
ATOM     60  C   UNL A   1      40.397  28.076  28.906  1.00  0.00     0.064 A 
ATOM     61  C   UNL A   1      39.699  26.859  28.848  1.00  0.00     0.173 A 
ATOM     62  C   UNL A   1      41.127  28.466  27.773  1.00  0.00     0.173 A 
ATOM     63  F   UNL A   1      38.994  26.434  29.907  1.00  0.00    -0.203 F 
ATOM     64  C   UNL A   1      39.757  26.052  27.714  1.00  0.00     0.198 A 
ATOM     65  C   UNL A   1      41.153  27.674  26.628  1.00  0.00     0.198 A 
ATOM     66  F   UNL A   1      41.806  29.623  27.770  1.00  0.00    -0.203 F 
ATOM     67  F   UNL A   1      39.126  24.870  27.703  1.00  0.00    -0.200 F 
ATOM     68  C   UNL A   1      40.476  26.464  26.603  1.00  0.00     0.200 A 
ATOM     69  F   UNL A   1      41.836  28.081  25.549  1.00  0.00    -0.200 F 
ATOM     70  F   UNL A   1      40.522  25.692  25.509  1.00  0.00    -0.200 F 
ENDBRANCH  46  60
BRANCH  47  71
ATOM     71  C   UNL A   1      39.465  33.991  36.901  1.00  0.00     0.064 A 
ATOM     72  C   UNL A   1      40.045  35.266  36.966  1.00  0.00     0.173 A 
ATOM     73  C   UNL A   1      38.745  33.546  38.021  1.00  0.00     0.173 A 
ATOM     74  F   UNL A   1      40.760  35.729  35.930  1.00  0.00    -0.203 F 
ATOM     75  C   UNL A   1      39.933  36.052  38.111  1.00  0.00     0.198 A 
ATOM     76  C   UNL A   1      38.606  34.346  39.153  1.00  0.00     0.198 A 
ATOM     77  F   UNL A   1      38.165  32.337  38.009  1.00  0.00    -0.203 F 
ATOM     78  F   UNL A   1      40.543  37.244  38.165  1.00  0.00    -0.200 F 
ATOM     79  C   UNL A   1      39.209  35.594  39.201  1.00  0.00     0.200 A 
ATOM     80  F   UNL A   1      37.890  33.907  40.196  1.00  0.00    -0.200 F 
ATOM     81  F   UNL A   1      39.097  36.351  40.301  1.00  0.00    -0.200 F 
ENDBRANCH  47  71
BRANCH  59  82
ATOM     82  C   UNL A   1      43.832  28.827  35.200  1.00  0.00     0.064 A 
ATOM     83  C   UNL A   1      43.672  27.726  36.053  1.00  0.00     0.173 A 
ATOM     84  C   UNL A   1      45.134  29.309  34.989  1.00  0.00     0.173 A 
ATOM     85  F   UNL A   1      42.448  27.236  36.301  1.00  0.00    -0.203 F 
ATOM     86  C   UNL A   1      44.768  27.148  36.690  1.00  0.00     0.198 A 
ATOM     87  C   UNL A   1      46.230  28.707  35.599  1.00  0.00     0.198 A 
ATOM     88  F   UNL A   1      45.344  30.356  34.175  1.00  0.00    -0.203 F 
ATOM     89  F   UNL A   1      44.584  26.130  37.541  1.00  0.00    -0.200 F 
ATOM     90  C   UNL A   1      46.046  27.633  36.455  1.00  0.00     0.200 A 
ATOM     91  F   UNL A   1      47.466  29.166  35.355  1.00  0.00    -0.200 F 
ATOM     92  F   UNL A   1      47.101  27.068  37.059  1.00  0.00    -0.200 F 
ENDBRANCH  59  82
ENDBRANCH  33  34
ENDBRANCH  25  28
ENDBRANCH  23  24
ENDBRANCH  22  23
ENDBRANCH   1  22
TORSDOF 14
ENDMDL
