MODEL 1
REMARK VINA RESULT:     -11.1      0.000      0.000
REMARK SMILES CCC[C@H](C)C[N@H+]1[C@@H]2CC[C@H]1C[C@H](CC(=O)NCCCCCCNC(=O)c1ccc(-c3c4nc(c(-c5c(F)c(F)c(F)c(F)c5F)c5ccc([nH]5)c(-c5c(F)c(F)c(F)c(F)c5F)c5nc(c(-c6c(F)c(F)c(F)c(F)c6F)c6ccc3[nH]6)C=C5)C=C4)cc1)C2
REMARK SMILES IDX 19 1 18 2 17 3 15 4 16 5 14 7 13 8 7 9 8 10 11 11 9 13 90 14
REMARK SMILES IDX 10 15 12 16 6 17 4 18 5 19 3 20 2 21 1 22 20 23 21 24 22 25
REMARK SMILES IDX 23 26 24 27 25 28 26 30 27 31 28 32 89 33 29 34 88 35 30 36
REMARK SMILES IDX 31 37 32 38 82 39 33 40 87 41 81 42 83 43 34 44 86 45 80 46
REMARK SMILES IDX 79 47 35 49 67 50 47 51 66 52 48 53 51 54 65 55 84 56 49 57
REMARK SMILES IDX 50 58 64 60 85 61 52 62 36 63 37 64 45 65 38 66 39 67 43 68
REMARK SMILES IDX 46 69 40 70 41 71 44 72 42 73 68 74 69 75 77 76 70 77 71 78
REMARK SMILES IDX 75 79 78 80 72 81 73 82 76 83 74 84 53 85 54 86 62 87 55 88
REMARK SMILES IDX 56 89 60 90 63 91 57 92 58 93 61 94 59 95
REMARK H PARENT 17 6 7 12 24 29 83 48 51 59
REMARK Flexibility Score: inf
ROOT
ATOM      1  C   UNL A   1      32.627  28.757  26.949  1.00  0.00     0.021 C 
ENDROOT
BRANCH   1   2
ATOM      2  C   UNL A   1      33.857  28.074  26.343  1.00  0.00     0.116 C 
BRANCH   2   3
ATOM      3  N   UNL A   1      33.621  27.778  24.942  1.00  0.00    -0.356 N 
ATOM      4  C   UNL A   1      33.641  26.593  24.269  1.00  0.00     0.220 C 
ATOM      5  O   UNL A   1      33.604  26.625  23.038  1.00  0.00    -0.275 OA
ATOM      6  H   UNL A   1      33.413  28.562  24.386  1.00  0.00     0.163 HD
BRANCH   4   7
ATOM      7  C   UNL A   1      33.638  25.266  25.008  1.00  0.00     0.104 C 
BRANCH   7   8
ATOM      8  C   UNL A   1      34.966  24.469  25.018  1.00  0.00     0.010 C 
ATOM      9  N   UNL A   1      35.369  21.515  24.979  1.00  0.00    -0.330 N 
ATOM     10  C   UNL A   1      35.817  22.296  23.830  1.00  0.00     0.184 C 
ATOM     11  C   UNL A   1      35.865  22.282  26.119  1.00  0.00     0.184 C 
ATOM     12  H   UNL A   1      35.749  20.574  24.865  1.00  0.00     0.348 HD
ATOM     13  C   UNL A   1      37.299  22.487  24.198  1.00  0.00     0.071 C 
ATOM     14  C   UNL A   1      35.130  23.672  23.695  1.00  0.00     0.069 C 
ATOM     15  C   UNL A   1      37.314  22.562  25.721  1.00  0.00     0.071 C 
ATOM     16  C   UNL A   1      35.074  23.578  26.269  1.00  0.00     0.069 C 
BRANCH   9  17
ATOM     17  C   UNL A   1      34.024  20.938  25.109  1.00  0.00     0.265 C 
BRANCH  17  18
ATOM     18  C   UNL A   1      32.944  21.123  24.012  1.00  0.00     0.041 C 
ATOM     19  C   UNL A   1      32.363  19.783  23.544  1.00  0.00     0.013 C 
BRANCH  18  20
ATOM     20  C   UNL A   1      31.780  22.048  24.460  1.00  0.00     0.009 C 
BRANCH  20  21
ATOM     21  C   UNL A   1      31.723  22.284  25.979  1.00  0.00    -0.003 C 
ATOM     22  C   UNL A   1      30.447  22.953  26.474  1.00  0.00     0.004 C 
ENDBRANCH  20  21
ENDBRANCH  18  20
ENDBRANCH  17  18
ENDBRANCH   9  17
ENDBRANCH   7   8
ENDBRANCH   4   7
ENDBRANCH   2   3
ENDBRANCH   1   2
BRANCH   1  23
ATOM     23  C   UNL A   1      32.698  30.282  26.943  1.00  0.00     0.002 C 
BRANCH  23  24
ATOM     24  C   UNL A   1      31.403  30.970  26.514  1.00  0.00     0.002 C 
BRANCH  24  25
ATOM     25  C   UNL A   1      31.382  32.494  26.680  1.00  0.00     0.021 C 
BRANCH  25  26
ATOM     26  C   UNL A   1      32.657  33.099  27.263  1.00  0.00     0.116 C 
BRANCH  26  27
ATOM     27  N   UNL A   1      32.450  34.463  27.727  1.00  0.00    -0.352 N 
ATOM     28  C   UNL A   1      33.000  35.113  28.797  1.00  0.00     0.251 C 
ATOM     29  H   UNL A   1      31.822  34.998  27.189  1.00  0.00     0.163 HD
ATOM     30  O   UNL A   1      32.528  36.185  29.183  1.00  0.00    -0.269 OA
BRANCH  28  31
ATOM     31  C   UNL A   1      34.157  34.529  29.501  1.00  0.00     0.039 A 
ATOM     32  C   UNL A   1      33.968  33.948  30.756  1.00  0.00     0.014 A 
ATOM     33  C   UNL A   1      35.433  34.577  28.931  1.00  0.00     0.014 A 
ATOM     34  C   UNL A   1      35.050  33.364  31.418  1.00  0.00     0.010 A 
ATOM     35  C   UNL A   1      36.495  33.931  29.556  1.00  0.00     0.010 A 
ATOM     36  C   UNL A   1      36.315  33.325  30.808  1.00  0.00    -0.014 A 
BRANCH  36  37
ATOM     37  C   UNL A   1      37.465  32.659  31.470  1.00  0.00     0.031 A 
ATOM     38  C   UNL A   1      38.152  31.501  30.804  1.00  0.00     0.074 A 
ATOM     39  C   UNL A   1      37.847  33.060  32.698  1.00  0.00     0.049 A 
ATOM     40  N   UNL A   1      39.129  30.751  31.247  1.00  0.00    -0.248 NA
ATOM     41  C   UNL A   1      37.658  31.115  29.473  1.00  0.00     0.031 C 
ATOM     42  C   UNL A   1      37.227  34.142  33.464  1.00  0.00     0.029 A 
ATOM     43  N   UNL A   1      38.843  32.598  33.521  1.00  0.00    -0.354 N 
ATOM     44  C   UNL A   1      39.356  29.803  30.259  1.00  0.00     0.074 A 
ATOM     45  C   UNL A   1      38.378  30.034  29.219  1.00  0.00     0.031 C 
ATOM     46  C   UNL A   1      37.870  34.275  34.635  1.00  0.00     0.029 A 
ATOM     47  C   UNL A   1      38.919  33.264  34.720  1.00  0.00     0.049 A 
ATOM     48  H   UNL A   1      39.445  31.859  33.275  1.00  0.00     0.167 HD
ATOM     49  C   UNL A   1      40.309  28.840  30.214  1.00  0.00     0.037 A 
ATOM     50  C   UNL A   1      39.739  33.074  35.771  1.00  0.00     0.037 A 
ATOM     51  C   UNL A   1      41.292  28.629  31.244  1.00  0.00     0.049 A 
ATOM     52  C   UNL A   1      40.782  31.991  35.700  1.00  0.00     0.074 A 
ATOM     53  C   UNL A   1      42.336  27.722  31.268  1.00  0.00     0.029 A 
ATOM     54  N   UNL A   1      41.347  29.333  32.439  1.00  0.00    -0.354 N 
ATOM     55  N   UNL A   1      41.034  31.147  34.729  1.00  0.00    -0.248 NA
ATOM     56  C   UNL A   1      41.659  31.840  36.868  1.00  0.00     0.031 C 
ATOM     57  C   UNL A   1      42.991  27.840  32.498  1.00  0.00     0.029 A 
ATOM     58  C   UNL A   1      42.393  28.862  33.217  1.00  0.00     0.049 A 
ATOM     59  H   UNL A   1      40.734  30.060  32.695  1.00  0.00     0.167 HD
ATOM     60  C   UNL A   1      42.115  30.387  35.155  1.00  0.00     0.074 A 
ATOM     61  C   UNL A   1      42.480  30.881  36.466  1.00  0.00     0.031 C 
ATOM     62  C   UNL A   1      42.748  29.372  34.518  1.00  0.00     0.037 A 
BRANCH  49  63
ATOM     63  C   UNL A   1      40.335  27.943  29.009  1.00  0.00     0.064 A 
ATOM     64  C   UNL A   1      41.077  28.269  27.863  1.00  0.00     0.173 A 
ATOM     65  C   UNL A   1      39.639  26.725  29.013  1.00  0.00     0.173 A 
ATOM     66  F   UNL A   1      41.753  29.427  27.802  1.00  0.00    -0.203 F 
ATOM     67  C   UNL A   1      41.096  27.424  26.756  1.00  0.00     0.198 A 
ATOM     68  C   UNL A   1      39.687  25.867  27.917  1.00  0.00     0.198 A 
ATOM     69  F   UNL A   1      38.919  26.360  30.084  1.00  0.00    -0.203 F 
ATOM     70  F   UNL A   1      41.768  27.782  25.654  1.00  0.00    -0.200 F 
ATOM     71  C   UNL A   1      40.407  26.221  26.786  1.00  0.00     0.200 A 
ATOM     72  F   UNL A   1      39.033  24.698  27.954  1.00  0.00    -0.200 F 
ATOM     73  F   UNL A   1      40.433  25.406  25.723  1.00  0.00    -0.200 F 
ENDBRANCH  49  63
BRANCH  50  74
ATOM     74  C   UNL A   1      39.621  33.943  36.972  1.00  0.00     0.064 A 
ATOM     75  C   UNL A   1      40.262  35.189  37.024  1.00  0.00     0.173 A 
ATOM     76  C   UNL A   1      38.873  33.546  38.090  1.00  0.00     0.173 A 
ATOM     77  F   UNL A   1      41.005  35.604  35.988  1.00  0.00    -0.203 F 
ATOM     78  C   UNL A   1      40.177  35.995  38.159  1.00  0.00     0.198 A 
ATOM     79  C   UNL A   1      38.764  34.366  39.211  1.00  0.00     0.198 A 
ATOM     80  F   UNL A   1      38.235  32.367  38.088  1.00  0.00    -0.203 F 
ATOM     81  F   UNL A   1      40.840  37.158  38.201  1.00  0.00    -0.200 F 
ATOM     82  C   UNL A   1      39.424  35.585  39.249  1.00  0.00     0.200 A 
ATOM     83  F   UNL A   1      38.021  33.975  40.255  1.00  0.00    -0.200 F 
ATOM     84  F   UNL A   1      39.340  36.362  40.338  1.00  0.00    -0.200 F 
ENDBRANCH  50  74
BRANCH  62  85
ATOM     85  C   UNL A   1      43.926  28.750  35.213  1.00  0.00     0.064 A 
ATOM     86  C   UNL A   1      43.781  27.655  36.076  1.00  0.00     0.173 A 
ATOM     87  C   UNL A   1      45.222  29.236  34.979  1.00  0.00     0.173 A 
ATOM     88  F   UNL A   1      42.562  27.163  36.346  1.00  0.00    -0.203 F 
ATOM     89  C   UNL A   1      44.888  27.086  36.702  1.00  0.00     0.198 A 
ATOM     90  C   UNL A   1      46.328  28.643  35.580  1.00  0.00     0.198 A 
ATOM     91  F   UNL A   1      45.417  30.277  34.155  1.00  0.00    -0.203 F 
ATOM     92  F   UNL A   1      44.719  26.073  37.563  1.00  0.00    -0.200 F 
ATOM     93  C   UNL A   1      46.160  27.575  36.447  1.00  0.00     0.200 A 
ATOM     94  F   UNL A   1      47.559  29.107  35.319  1.00  0.00    -0.200 F 
ATOM     95  F   UNL A   1      47.224  27.020  37.043  1.00  0.00    -0.200 F 
ENDBRANCH  62  85
ENDBRANCH  36  37
ENDBRANCH  28  31
ENDBRANCH  26  27
ENDBRANCH  25  26
ENDBRANCH  24  25
ENDBRANCH  23  24
ENDBRANCH   1  23
TORSDOF 18
ENDMDL
MODEL 2
REMARK VINA RESULT:     -11.0      1.098      2.573
REMARK SMILES CCC[C@H](C)C[N@H+]1[C@@H]2CC[C@H]1C[C@H](CC(=O)NCCCCCCNC(=O)c1ccc(-c3c4nc(c(-c5c(F)c(F)c(F)c(F)c5F)c5ccc([nH]5)c(-c5c(F)c(F)c(F)c(F)c5F)c5nc(c(-c6c(F)c(F)c(F)c(F)c6F)c6ccc3[nH]6)C=C5)C=C4)cc1)C2
REMARK SMILES IDX 19 1 18 2 17 3 15 4 16 5 14 7 13 8 7 9 8 10 11 11 9 13 90 14
REMARK SMILES IDX 10 15 12 16 6 17 4 18 5 19 3 20 2 21 1 22 20 23 21 24 22 25
REMARK SMILES IDX 23 26 24 27 25 28 26 30 27 31 28 32 89 33 29 34 88 35 30 36
REMARK SMILES IDX 31 37 32 38 82 39 33 40 87 41 81 42 83 43 34 44 86 45 80 46
REMARK SMILES IDX 79 47 35 49 67 50 47 51 66 52 48 53 51 54 65 55 84 56 49 57
REMARK SMILES IDX 50 58 64 60 85 61 52 62 36 63 37 64 45 65 38 66 39 67 43 68
REMARK SMILES IDX 46 69 40 70 41 71 44 72 42 73 68 74 69 75 77 76 70 77 71 78
REMARK SMILES IDX 75 79 78 80 72 81 73 82 76 83 74 84 53 85 54 86 62 87 55 88
REMARK SMILES IDX 56 89 60 90 63 91 57 92 58 93 61 94 59 95
REMARK H PARENT 17 6 7 12 24 29 83 48 51 59
REMARK Flexibility Score: inf
ROOT
ATOM      1  C   UNL A   1      32.914  28.752  26.754  1.00  0.00     0.021 C 
ENDROOT
BRANCH   1   2
ATOM      2  C   UNL A   1      32.633  27.581  25.807  1.00  0.00     0.116 C 
BRANCH   2   3
ATOM      3  N   UNL A   1      31.638  26.699  26.389  1.00  0.00    -0.356 N 
ATOM      4  C   UNL A   1      30.540  26.111  25.836  1.00  0.00     0.220 C 
ATOM      5  O   UNL A   1      29.735  25.562  26.591  1.00  0.00    -0.275 OA
ATOM      6  H   UNL A   1      31.780  26.492  27.340  1.00  0.00     0.163 HD
BRANCH   4   7
ATOM      7  C   UNL A   1      30.341  26.068  24.331  1.00  0.00     0.104 C 
BRANCH   7   8
ATOM      8  C   UNL A   1      31.009  24.894  23.571  1.00  0.00     0.010 C 
ATOM      9  N   UNL A   1      33.441  23.337  24.309  1.00  0.00    -0.330 N 
ATOM     10  C   UNL A   1      32.152  22.651  24.289  1.00  0.00     0.184 C 
ATOM     11  C   UNL A   1      33.437  24.093  23.059  1.00  0.00     0.184 C 
ATOM     12  H   UNL A   1      34.159  22.617  24.402  1.00  0.00     0.348 HD
ATOM     13  C   UNL A   1      32.197  22.040  22.878  1.00  0.00     0.071 C 
ATOM     14  C   UNL A   1      30.934  23.592  24.414  1.00  0.00     0.069 C 
ATOM     15  C   UNL A   1      32.982  23.046  22.044  1.00  0.00     0.071 C 
ATOM     16  C   UNL A   1      32.444  25.249  23.144  1.00  0.00     0.069 C 
BRANCH   9  17
ATOM     17  C   UNL A   1      33.994  24.016  25.489  1.00  0.00     0.265 C 
BRANCH  17  18
ATOM     18  C   UNL A   1      34.931  23.291  26.488  1.00  0.00     0.041 C 
ATOM     19  C   UNL A   1      34.153  22.423  27.484  1.00  0.00     0.013 C 
BRANCH  18  20
ATOM     20  C   UNL A   1      36.001  22.411  25.783  1.00  0.00     0.009 C 
BRANCH  20  21
ATOM     21  C   UNL A   1      36.896  23.187  24.803  1.00  0.00    -0.003 C 
ATOM     22  C   UNL A   1      36.792  22.741  23.350  1.00  0.00     0.004 C 
ENDBRANCH  20  21
ENDBRANCH  18  20
ENDBRANCH  17  18
ENDBRANCH   9  17
ENDBRANCH   7   8
ENDBRANCH   4   7
ENDBRANCH   2   3
ENDBRANCH   1   2
BRANCH   1  23
ATOM     23  C   UNL A   1      32.757  30.125  26.107  1.00  0.00     0.002 C 
BRANCH  23  24
ATOM     24  C   UNL A   1      31.374  30.751  26.288  1.00  0.00     0.002 C 
BRANCH  24  25
ATOM     25  C   UNL A   1      31.364  32.266  26.521  1.00  0.00     0.021 C 
BRANCH  25  26
ATOM     26  C   UNL A   1      32.594  32.819  27.237  1.00  0.00     0.116 C 
BRANCH  26  27
ATOM     27  N   UNL A   1      32.423  34.215  27.615  1.00  0.00    -0.352 N 
ATOM     28  C   UNL A   1      33.007  34.921  28.630  1.00  0.00     0.251 C 
ATOM     29  H   UNL A   1      31.795  34.726  27.055  1.00  0.00     0.163 HD
ATOM     30  O   UNL A   1      32.564  36.025  28.953  1.00  0.00    -0.269 OA
BRANCH  28  31
ATOM     31  C   UNL A   1      34.166  34.360  29.348  1.00  0.00     0.039 A 
ATOM     32  C   UNL A   1      33.956  33.664  30.541  1.00  0.00     0.014 A 
ATOM     33  C   UNL A   1      35.462  34.541  28.856  1.00  0.00     0.014 A 
ATOM     34  C   UNL A   1      35.042  33.102  31.213  1.00  0.00     0.010 A 
ATOM     35  C   UNL A   1      36.535  33.918  29.487  1.00  0.00     0.010 A 
ATOM     36  C   UNL A   1      36.336  33.199  30.675  1.00  0.00    -0.014 A 
BRANCH  36  37
ATOM     37  C   UNL A   1      37.496  32.559  31.345  1.00  0.00     0.031 A 
ATOM     38  C   UNL A   1      38.209  31.412  30.687  1.00  0.00     0.074 A 
ATOM     39  C   UNL A   1      37.865  32.974  32.572  1.00  0.00     0.049 A 
ATOM     40  N   UNL A   1      39.199  30.684  31.139  1.00  0.00    -0.248 NA
ATOM     41  C   UNL A   1      37.729  31.010  29.357  1.00  0.00     0.031 C 
ATOM     42  C   UNL A   1      37.220  34.047  33.330  1.00  0.00     0.029 A 
ATOM     43  N   UNL A   1      38.866  32.536  33.402  1.00  0.00    -0.354 N 
ATOM     44  C   UNL A   1      39.449  29.735  30.156  1.00  0.00     0.074 A 
ATOM     45  C   UNL A   1      38.472  29.941  29.111  1.00  0.00     0.031 C 
ATOM     46  C   UNL A   1      37.854  34.198  34.504  1.00  0.00     0.029 A 
ATOM     47  C   UNL A   1      38.923  33.209  34.598  1.00  0.00     0.049 A 
ATOM     48  H   UNL A   1      39.484  31.808  33.163  1.00  0.00     0.167 HD
ATOM     49  C   UNL A   1      40.421  28.792  30.120  1.00  0.00     0.037 A 
ATOM     50  C   UNL A   1      39.742  33.041  35.654  1.00  0.00     0.037 A 
ATOM     51  C   UNL A   1      41.403  28.605  31.155  1.00  0.00     0.049 A 
ATOM     52  C   UNL A   1      40.807  31.979  35.592  1.00  0.00     0.074 A 
ATOM     53  C   UNL A   1      42.465  27.719  31.188  1.00  0.00     0.029 A 
ATOM     54  N   UNL A   1      41.439  29.316  32.347  1.00  0.00    -0.354 N 
ATOM     55  N   UNL A   1      41.080  31.134  34.627  1.00  0.00    -0.248 NA
ATOM     56  C   UNL A   1      41.681  31.850  36.765  1.00  0.00     0.031 C 
ATOM     57  C   UNL A   1      43.112  27.856  32.421  1.00  0.00     0.029 A 
ATOM     58  C   UNL A   1      42.491  28.869  33.133  1.00  0.00     0.049 A 
ATOM     59  H   UNL A   1      40.811  30.032  32.597  1.00  0.00     0.167 HD
ATOM     60  C   UNL A   1      42.174  30.398  35.062  1.00  0.00     0.074 A 
ATOM     61  C   UNL A   1      42.523  30.906  36.371  1.00  0.00     0.031 C 
ATOM     62  C   UNL A   1      42.830  29.392  34.432  1.00  0.00     0.037 A 
BRANCH  49  63
ATOM     63  C   UNL A   1      40.470  27.889  28.920  1.00  0.00     0.064 A 
ATOM     64  C   UNL A   1      41.270  28.188  27.805  1.00  0.00     0.173 A 
ATOM     65  C   UNL A   1      39.738  26.693  28.898  1.00  0.00     0.173 A 
ATOM     66  F   UNL A   1      41.982  29.324  27.770  1.00  0.00    -0.203 F 
ATOM     67  C   UNL A   1      41.309  27.339  26.702  1.00  0.00     0.198 A 
ATOM     68  C   UNL A   1      39.806  25.830  27.807  1.00  0.00     0.198 A 
ATOM     69  F   UNL A   1      38.963  26.355  29.939  1.00  0.00    -0.203 F 
ATOM     70  F   UNL A   1      42.038  27.672  25.628  1.00  0.00    -0.200 F 
ATOM     71  C   UNL A   1      40.583  26.157  26.707  1.00  0.00     0.200 A 
ATOM     72  F   UNL A   1      39.115  24.681  27.820  1.00  0.00    -0.200 F 
ATOM     73  F   UNL A   1      40.629  25.338  25.648  1.00  0.00    -0.200 F 
ENDBRANCH  49  63
BRANCH  50  74
ATOM     74  C   UNL A   1      39.602  33.913  36.849  1.00  0.00     0.064 A 
ATOM     75  C   UNL A   1      38.836  33.506  37.951  1.00  0.00     0.173 A 
ATOM     76  C   UNL A   1      40.223  35.168  36.915  1.00  0.00     0.173 A 
ATOM     77  F   UNL A   1      38.206  32.322  37.928  1.00  0.00    -0.203 F 
ATOM     78  C   UNL A   1      38.678  34.332  39.063  1.00  0.00     0.198 A 
ATOM     79  C   UNL A   1      40.090  35.980  38.040  1.00  0.00     0.198 A 
ATOM     80  F   UNL A   1      40.972  35.602  35.891  1.00  0.00    -0.203 F 
ATOM     81  F   UNL A   1      37.900  33.939  40.081  1.00  0.00    -0.200 F 
ATOM     82  C   UNL A   1      39.309  35.565  39.108  1.00  0.00     0.200 A 
ATOM     83  F   UNL A   1      40.716  37.163  38.087  1.00  0.00    -0.200 F 
ATOM     84  F   UNL A   1      39.161  36.357  40.180  1.00  0.00    -0.200 F 
ENDBRANCH  50  74
BRANCH  62  85
ATOM     85  C   UNL A   1      44.016  28.798  35.135  1.00  0.00     0.064 A 
ATOM     86  C   UNL A   1      45.308  29.319  34.973  1.00  0.00     0.173 A 
ATOM     87  C   UNL A   1      43.849  27.717  36.015  1.00  0.00     0.173 A 
ATOM     88  F   UNL A   1      45.524  30.342  34.133  1.00  0.00    -0.203 F 
ATOM     89  C   UNL A   1      46.394  28.760  35.644  1.00  0.00     0.198 A 
ATOM     90  C   UNL A   1      44.931  27.183  36.708  1.00  0.00     0.198 A 
ATOM     91  F   UNL A   1      42.632  27.186  36.211  1.00  0.00    -0.203 F 
ATOM     92  F   UNL A   1      47.627  29.241  35.434  1.00  0.00    -0.200 F 
ATOM     93  C   UNL A   1      46.203  27.700  36.516  1.00  0.00     0.200 A 
ATOM     94  F   UNL A   1      44.742  26.169  37.563  1.00  0.00    -0.200 F 
ATOM     95  F   UNL A   1      47.248  27.170  37.167  1.00  0.00    -0.200 F 
ENDBRANCH  62  85
ENDBRANCH  36  37
ENDBRANCH  28  31
ENDBRANCH  26  27
ENDBRANCH  25  26
ENDBRANCH  24  25
ENDBRANCH  23  24
ENDBRANCH   1  23
TORSDOF 18
ENDMDL
MODEL 3
REMARK VINA RESULT:     -11.0      3.220      8.621
REMARK SMILES CCC[C@H](C)C[N@H+]1[C@@H]2CC[C@H]1C[C@H](CC(=O)NCCCCCCNC(=O)c1ccc(-c3c4nc(c(-c5c(F)c(F)c(F)c(F)c5F)c5ccc([nH]5)c(-c5c(F)c(F)c(F)c(F)c5F)c5nc(c(-c6c(F)c(F)c(F)c(F)c6F)c6ccc3[nH]6)C=C5)C=C4)cc1)C2
REMARK SMILES IDX 19 1 18 2 17 3 15 4 16 5 14 7 13 8 7 9 8 10 11 11 9 13 90 14
REMARK SMILES IDX 10 15 12 16 6 17 4 18 5 19 3 20 2 21 1 22 20 23 21 24 22 25
REMARK SMILES IDX 23 26 24 27 25 28 26 30 27 31 28 32 89 33 29 34 88 35 30 36
REMARK SMILES IDX 31 37 32 38 82 39 33 40 87 41 81 42 83 43 34 44 86 45 80 46
REMARK SMILES IDX 79 47 35 49 67 50 47 51 66 52 48 53 51 54 65 55 84 56 49 57
REMARK SMILES IDX 50 58 64 60 85 61 52 62 36 63 37 64 45 65 38 66 39 67 43 68
REMARK SMILES IDX 46 69 40 70 41 71 44 72 42 73 68 74 69 75 77 76 70 77 71 78
REMARK SMILES IDX 75 79 78 80 72 81 73 82 76 83 74 84 53 85 54 86 62 87 55 88
REMARK SMILES IDX 56 89 60 90 63 91 57 92 58 93 61 94 59 95
REMARK H PARENT 17 6 7 12 24 29 83 48 51 59
REMARK Flexibility Score: inf
ROOT
ATOM      1  C   UNL A   1      31.506  28.634  23.419  1.00  0.00     0.021 C 
ENDROOT
BRANCH   1   2
ATOM      2  C   UNL A   1      32.851  28.286  22.773  1.00  0.00     0.116 C 
BRANCH   2   3
ATOM      3  N   UNL A   1      32.662  27.285  21.739  1.00  0.00    -0.356 N 
ATOM      4  C   UNL A   1      33.179  26.031  21.611  1.00  0.00     0.220 C 
ATOM      5  O   UNL A   1      33.024  25.447  20.537  1.00  0.00    -0.275 OA
ATOM      6  H   UNL A   1      32.060  27.558  21.010  1.00  0.00     0.163 HD
BRANCH   4   7
ATOM      7  C   UNL A   1      33.866  25.339  22.775  1.00  0.00     0.104 C 
BRANCH   7   8
ATOM      8  C   UNL A   1      32.965  24.894  23.955  1.00  0.00     0.010 C 
ATOM      9  N   UNL A   1      32.781  22.217  25.254  1.00  0.00    -0.330 N 
ATOM     10  C   UNL A   1      33.294  23.339  26.035  1.00  0.00     0.184 C 
ATOM     11  C   UNL A   1      31.595  22.773  24.608  1.00  0.00     0.184 C 
ATOM     12  H   UNL A   1      32.624  21.448  25.907  1.00  0.00     0.348 HD
ATOM     13  C   UNL A   1      32.007  23.771  26.759  1.00  0.00     0.071 C 
ATOM     14  C   UNL A   1      33.833  24.508  25.184  1.00  0.00     0.069 C 
ATOM     15  C   UNL A   1      30.886  23.470  25.769  1.00  0.00     0.071 C 
ATOM     16  C   UNL A   1      32.000  23.773  23.528  1.00  0.00     0.069 C 
BRANCH   9  17
ATOM     17  C   UNL A   1      33.621  21.330  24.438  1.00  0.00     0.265 C 
BRANCH  17  18
ATOM     18  C   UNL A   1      33.424  19.793  24.429  1.00  0.00     0.041 C 
ATOM     19  C   UNL A   1      32.838  19.280  25.750  1.00  0.00     0.013 C 
BRANCH  18  20
ATOM     20  C   UNL A   1      32.528  19.305  23.258  1.00  0.00     0.009 C 
BRANCH  20  21
ATOM     21  C   UNL A   1      32.556  17.782  23.047  1.00  0.00    -0.003 C 
ATOM     22  C   UNL A   1      33.945  17.156  23.087  1.00  0.00     0.004 C 
ENDBRANCH  20  21
ENDBRANCH  18  20
ENDBRANCH  17  18
ENDBRANCH   9  17
ENDBRANCH   7   8
ENDBRANCH   4   7
ENDBRANCH   2   3
ENDBRANCH   1   2
BRANCH   1  23
ATOM     23  C   UNL A   1      31.111  27.709  24.566  1.00  0.00     0.002 C 
BRANCH  23  24
ATOM     24  C   UNL A   1      31.489  28.229  25.953  1.00  0.00     0.002 C 
BRANCH  24  25
ATOM     25  C   UNL A   1      32.842  27.748  26.489  1.00  0.00     0.021 C 
BRANCH  25  26
ATOM     26  C   UNL A   1      34.022  28.670  26.189  1.00  0.00     0.116 C 
BRANCH  26  27
ATOM     27  N   UNL A   1      33.813  30.011  26.715  1.00  0.00    -0.352 N 
ATOM     28  C   UNL A   1      34.517  30.692  27.669  1.00  0.00     0.251 C 
ATOM     29  H   UNL A   1      33.052  30.500  26.326  1.00  0.00     0.163 HD
ATOM     30  O   UNL A   1      34.055  31.722  28.166  1.00  0.00    -0.269 OA
BRANCH  28  31
ATOM     31  C   UNL A   1      35.831  30.193  28.115  1.00  0.00     0.039 A 
ATOM     32  C   UNL A   1      36.918  30.261  27.241  1.00  0.00     0.014 A 
ATOM     33  C   UNL A   1      35.983  29.635  29.389  1.00  0.00     0.014 A 
ATOM     34  C   UNL A   1      38.173  29.820  27.664  1.00  0.00     0.010 A 
ATOM     35  C   UNL A   1      37.248  29.265  29.834  1.00  0.00     0.010 A 
ATOM     36  C   UNL A   1      38.354  29.346  28.974  1.00  0.00    -0.014 A 
BRANCH  36  37
ATOM     37  C   UNL A   1      39.691  28.926  29.460  1.00  0.00     0.031 A 
ATOM     38  C   UNL A   1      40.444  29.786  30.435  1.00  0.00     0.074 A 
ATOM     39  C   UNL A   1      40.251  27.801  28.975  1.00  0.00     0.049 A 
ATOM     40  N   UNL A   1      41.647  29.622  30.928  1.00  0.00    -0.248 NA
ATOM     41  C   UNL A   1      39.769  31.007  30.900  1.00  0.00     0.031 C 
ATOM     42  C   UNL A   1      39.636  26.910  27.989  1.00  0.00     0.029 A 
ATOM     43  N   UNL A   1      41.466  27.220  29.235  1.00  0.00    -0.354 N 
ATOM     44  C   UNL A   1      41.873  30.721  31.745  1.00  0.00     0.074 A 
ATOM     45  C   UNL A   1      40.709  31.574  31.640  1.00  0.00     0.031 C 
ATOM     46  C   UNL A   1      40.469  25.885  27.745  1.00  0.00     0.029 A 
ATOM     47  C   UNL A   1      41.689  26.066  28.525  1.00  0.00     0.049 A 
ATOM     48  H   UNL A   1      42.117  27.596  29.871  1.00  0.00     0.167 HD
ATOM     49  C   UNL A   1      42.945  30.984  32.531  1.00  0.00     0.037 A 
ATOM     50  C   UNL A   1      42.761  25.252  28.500  1.00  0.00     0.037 A 
ATOM     51  C   UNL A   1      44.091  30.121  32.647  1.00  0.00     0.049 A 
ATOM     52  C   UNL A   1      43.943  25.572  29.375  1.00  0.00     0.074 A 
ATOM     53  C   UNL A   1      45.202  30.265  33.458  1.00  0.00     0.029 A 
ATOM     54  N   UNL A   1      44.276  28.951  31.922  1.00  0.00    -0.354 N 
ATOM     55  N   UNL A   1      44.116  26.577  30.199  1.00  0.00    -0.248 NA
ATOM     56  C   UNL A   1      45.077  24.639  29.320  1.00  0.00     0.031 C 
ATOM     57  C   UNL A   1      46.083  29.212  33.187  1.00  0.00     0.029 A 
ATOM     58  C   UNL A   1      45.494  28.378  32.250  1.00  0.00     0.049 A 
ATOM     59  H   UNL A   1      43.635  28.583  31.271  1.00  0.00     0.167 HD
ATOM     60  C   UNL A   1      45.361  26.382  30.782  1.00  0.00     0.074 A 
ATOM     61  C   UNL A   1      45.893  25.154  30.229  1.00  0.00     0.031 C 
ATOM     62  C   UNL A   1      46.005  27.150  31.695  1.00  0.00     0.037 A 
BRANCH  49  63
ATOM     63  C   UNL A   1      42.928  32.257  33.329  1.00  0.00     0.064 A 
ATOM     64  C   UNL A   1      42.400  32.305  34.628  1.00  0.00     0.173 A 
ATOM     65  C   UNL A   1      43.480  33.435  32.802  1.00  0.00     0.173 A 
ATOM     66  F   UNL A   1      41.852  31.210  35.176  1.00  0.00    -0.203 F 
ATOM     67  C   UNL A   1      42.397  33.492  35.357  1.00  0.00     0.198 A 
ATOM     68  C   UNL A   1      43.504  34.611  33.547  1.00  0.00     0.198 A 
ATOM     69  F   UNL A   1      44.003  33.444  31.567  1.00  0.00    -0.203 F 
ATOM     70  F   UNL A   1      41.839  33.526  36.575  1.00  0.00    -0.200 F 
ATOM     71  C   UNL A   1      42.955  34.641  34.819  1.00  0.00     0.200 A 
ATOM     72  F   UNL A   1      44.058  35.717  33.030  1.00  0.00    -0.200 F 
ATOM     73  F   UNL A   1      42.958  35.780  35.526  1.00  0.00    -0.200 F 
ENDBRANCH  49  63
BRANCH  50  74
ATOM     74  C   UNL A   1      42.756  24.043  27.635  1.00  0.00     0.064 A 
ATOM     75  C   UNL A   1      42.406  22.788  28.152  1.00  0.00     0.173 A 
ATOM     76  C   UNL A   1      43.104  24.115  26.279  1.00  0.00     0.173 A 
ATOM     77  F   UNL A   1      42.083  22.664  29.448  1.00  0.00    -0.203 F 
ATOM     78  C   UNL A   1      42.426  21.647  27.352  1.00  0.00     0.198 A 
ATOM     79  C   UNL A   1      43.095  22.979  25.471  1.00  0.00     0.198 A 
ATOM     80  F   UNL A   1      43.441  25.292  25.731  1.00  0.00    -0.203 F 
ATOM     81  F   UNL A   1      42.135  20.453  27.884  1.00  0.00    -0.200 F 
ATOM     82  C   UNL A   1      42.766  21.745  26.011  1.00  0.00     0.200 A 
ATOM     83  F   UNL A   1      43.407  23.080  24.172  1.00  0.00    -0.200 F 
ATOM     84  F   UNL A   1      42.782  20.648  25.240  1.00  0.00    -0.200 F 
ENDBRANCH  50  74
BRANCH  62  85
ATOM     85  C   UNL A   1      47.342  26.668  32.181  1.00  0.00     0.064 A 
ATOM     86  C   UNL A   1      47.459  25.775  33.256  1.00  0.00     0.173 A 
ATOM     87  C   UNL A   1      48.519  27.075  31.533  1.00  0.00     0.173 A 
ATOM     88  F   UNL A   1      46.365  25.368  33.919  1.00  0.00    -0.203 F 
ATOM     89  C   UNL A   1      48.707  25.331  33.684  1.00  0.00     0.198 A 
ATOM     90  C   UNL A   1      49.762  26.602  31.943  1.00  0.00     0.198 A 
ATOM     91  F   UNL A   1      48.462  27.922  30.494  1.00  0.00    -0.203 F 
ATOM     92  F   UNL A   1      48.798  24.519  34.747  1.00  0.00    -0.200 F 
ATOM     93  C   UNL A   1      49.856  25.737  33.022  1.00  0.00     0.200 A 
ATOM     94  F   UNL A   1      50.869  26.983  31.292  1.00  0.00    -0.200 F 
ATOM     95  F   UNL A   1      51.056  25.301  33.430  1.00  0.00    -0.200 F 
ENDBRANCH  62  85
ENDBRANCH  36  37
ENDBRANCH  28  31
ENDBRANCH  26  27
ENDBRANCH  25  26
ENDBRANCH  24  25
ENDBRANCH  23  24
ENDBRANCH   1  23
TORSDOF 18
ENDMDL
