MODEL 1
REMARK VINA RESULT:     -12.1      0.000      0.000
REMARK SMILES CCn1nc(C(C)C)cc1C(=O)N1CCCC[C@@H]1C(=O)NCCCCCCNC(=O)c1ccc(-c2c3nc(c(-c4c(F)c(F)c(F)c(F)c4F)c4ccc([nH]4)c(-c4c(F)c(F)c(F)c(F)c4F)c4nc(c(-c5c(F)c(F)c(F)c(F)c5F)c5ccc2[nH]5)C=C4)C=C3)cc1
REMARK SMILES IDX 24 1 23 2 22 3 21 4 19 5 20 6 18 8 13 9 14 10 15 11 17 12
REMARK SMILES IDX 16 13 11 14 12 15 10 16 3 17 4 18 5 19 9 20 2 21 1 22 6 23
REMARK SMILES IDX 7 24 8 25 25 26 26 27 27 28 28 29 29 30 30 32 31 33 32 34
REMARK SMILES IDX 93 35 33 36 92 37 34 38 35 39 36 40 86 41 37 42 91 43 85 44
REMARK SMILES IDX 87 45 38 46 90 47 84 48 83 49 39 51 71 52 51 53 70 54 52 55
REMARK SMILES IDX 55 56 69 57 88 58 53 59 54 60 68 62 89 63 56 64 40 65 41 66
REMARK SMILES IDX 49 67 42 68 43 69 47 70 50 71 44 72 45 73 48 74 46 75 72 76
REMARK SMILES IDX 73 77 81 78 74 79 75 80 79 81 82 82 76 83 77 84 80 85 78 86
REMARK SMILES IDX 57 87 58 88 66 89 59 90 60 91 64 92 67 93 61 94 62 95 65 96
REMARK SMILES IDX 63 97
REMARK H PARENT 21 7 28 31 87 50 55 61
REMARK Flexibility Score: inf
ROOT
ATOM      1  C   UNL A   1      39.781  21.926  26.165  1.00  0.00     0.002 C 
ENDROOT
BRANCH   1   2
ATOM      2  C   UNL A   1      38.398  21.617  25.583  1.00  0.00     0.021 C 
BRANCH   2   3
ATOM      3  C   UNL A   1      37.510  22.849  25.424  1.00  0.00     0.116 C 
BRANCH   3   4
ATOM      4  N   UNL A   1      36.483  22.866  26.447  1.00  0.00    -0.354 N 
ATOM      5  C   UNL A   1      35.181  22.473  26.382  1.00  0.00     0.242 C 
ATOM      6  O   UNL A   1      34.425  22.823  27.294  1.00  0.00    -0.273 OA
ATOM      7  H   UNL A   1      36.771  23.212  27.323  1.00  0.00     0.163 HD
BRANCH   5   8
ATOM      8  C   UNL A   1      34.623  21.737  25.144  1.00  0.00     0.174 C 
ATOM      9  N   UNL A   1      33.898  22.569  24.154  1.00  0.00    -0.325 N 
ATOM     10  C   UNL A   1      33.168  21.837  23.128  1.00  0.00     0.121 C 
ATOM     11  C   UNL A   1      32.159  20.886  23.736  1.00  0.00     0.022 C 
ATOM     12  C   UNL A   1      33.717  20.598  25.695  1.00  0.00     0.035 C 
ATOM     13  C   UNL A   1      32.869  19.891  24.643  1.00  0.00     0.004 C 
BRANCH   9  14
ATOM     14  C   UNL A   1      34.038  23.944  23.927  1.00  0.00     0.272 C 
ATOM     15  O   UNL A   1      34.696  24.304  22.949  1.00  0.00    -0.267 OA
BRANCH  14  16
ATOM     16  C   UNL A   1      33.448  24.906  24.832  1.00  0.00     0.126 A 
ATOM     17  N   UNL A   1      32.100  25.001  25.132  1.00  0.00    -0.260 N 
ATOM     18  N   UNL A   1      31.818  25.992  26.003  1.00  0.00    -0.177 NA
ATOM     19  C   UNL A   1      32.978  26.620  26.191  1.00  0.00     0.066 A 
ATOM     20  C   UNL A   1      34.021  25.984  25.486  1.00  0.00     0.059 A 
BRANCH  17  21
ATOM     21  C   UNL A   1      31.012  24.136  24.698  1.00  0.00     0.142 C 
ATOM     22  C   UNL A   1      30.359  24.543  23.380  1.00  0.00     0.029 C 
ENDBRANCH  17  21
BRANCH  19  23
ATOM     23  C   UNL A   1      33.066  27.861  27.032  1.00  0.00     0.034 C 
ATOM     24  C   UNL A   1      33.910  28.937  26.345  1.00  0.00     0.014 C 
ATOM     25  C   UNL A   1      31.687  28.411  27.401  1.00  0.00     0.014 C 
ENDBRANCH  19  23
ENDBRANCH  14  16
ENDBRANCH   9  14
ENDBRANCH   5   8
ENDBRANCH   3   4
ENDBRANCH   2   3
ENDBRANCH   1   2
BRANCH   1  26
ATOM     26  C   UNL A   1      40.471  20.754  26.877  1.00  0.00     0.002 C 
BRANCH  26  27
ATOM     27  C   UNL A   1      41.345  19.846  25.999  1.00  0.00     0.021 C 
BRANCH  27  28
ATOM     28  C   UNL A   1      42.696  19.524  26.612  1.00  0.00     0.116 C 
BRANCH  28  29
ATOM     29  N   UNL A   1      43.766  19.465  25.612  1.00  0.00    -0.352 N 
ATOM     30  C   UNL A   1      44.282  20.494  24.856  1.00  0.00     0.251 C 
ATOM     31  H   UNL A   1      44.166  18.578  25.462  1.00  0.00     0.163 HD
ATOM     32  O   UNL A   1      44.889  20.272  23.805  1.00  0.00    -0.269 OA
BRANCH  30  33
ATOM     33  C   UNL A   1      44.118  21.872  25.335  1.00  0.00     0.039 A 
ATOM     34  C   UNL A   1      43.144  22.734  24.824  1.00  0.00     0.014 A 
ATOM     35  C   UNL A   1      44.968  22.282  26.356  1.00  0.00     0.014 A 
ATOM     36  C   UNL A   1      43.006  23.996  25.399  1.00  0.00     0.010 A 
ATOM     37  C   UNL A   1      44.684  23.415  27.059  1.00  0.00     0.010 A 
ATOM     38  C   UNL A   1      43.780  24.319  26.524  1.00  0.00    -0.014 A 
BRANCH  38  39
ATOM     39  C   UNL A   1      43.606  25.566  27.253  1.00  0.00     0.031 A 
ATOM     40  C   UNL A   1      44.593  26.605  26.874  1.00  0.00     0.074 A 
ATOM     41  C   UNL A   1      42.498  25.813  27.990  1.00  0.00     0.049 A 
ATOM     42  N   UNL A   1      45.561  27.068  27.589  1.00  0.00    -0.248 NA
ATOM     43  C   UNL A   1      44.624  27.055  25.470  1.00  0.00     0.031 C 
ATOM     44  C   UNL A   1      41.303  24.967  28.143  1.00  0.00     0.029 A 
ATOM     45  N   UNL A   1      42.153  26.930  28.687  1.00  0.00    -0.354 N 
ATOM     46  C   UNL A   1      46.175  28.042  26.806  1.00  0.00     0.074 A 
ATOM     47  C   UNL A   1      45.714  27.827  25.463  1.00  0.00     0.031 C 
ATOM     48  C   UNL A   1      40.295  25.687  28.682  1.00  0.00     0.029 A 
ATOM     49  C   UNL A   1      40.815  26.980  29.076  1.00  0.00     0.049 A 
ATOM     50  H   UNL A   1      42.796  27.644  28.899  1.00  0.00     0.167 HD
ATOM     51  C   UNL A   1      46.751  29.127  27.394  1.00  0.00     0.037 A 
ATOM     52  C   UNL A   1      40.186  28.028  29.666  1.00  0.00     0.037 A 
ATOM     53  C   UNL A   1      46.932  28.891  28.807  1.00  0.00     0.049 A 
ATOM     54  C   UNL A   1      41.246  28.891  30.238  1.00  0.00     0.074 A 
ATOM     55  C   UNL A   1      47.674  28.024  29.582  1.00  0.00     0.029 A 
ATOM     56  N   UNL A   1      45.930  29.373  29.609  1.00  0.00    -0.354 N 
ATOM     57  N   UNL A   1      42.019  28.532  31.224  1.00  0.00    -0.248 NA
ATOM     58  C   UNL A   1      41.734  29.994  29.428  1.00  0.00     0.031 C 
ATOM     59  C   UNL A   1      46.856  27.740  30.719  1.00  0.00     0.029 A 
ATOM     60  C   UNL A   1      45.687  28.497  30.630  1.00  0.00     0.049 A 
ATOM     61  H   UNL A   1      45.455  30.224  29.470  1.00  0.00     0.167 HD
ATOM     62  C   UNL A   1      43.263  29.048  30.898  1.00  0.00     0.074 A 
ATOM     63  C   UNL A   1      42.995  30.046  29.865  1.00  0.00     0.031 C 
ATOM     64  C   UNL A   1      44.400  28.395  31.283  1.00  0.00     0.037 A 
BRANCH  51  65
ATOM     65  C   UNL A   1      46.686  30.540  26.838  1.00  0.00     0.064 A 
ATOM     66  C   UNL A   1      47.858  31.329  26.866  1.00  0.00     0.173 A 
ATOM     67  C   UNL A   1      45.491  31.253  26.589  1.00  0.00     0.173 A 
ATOM     68  F   UNL A   1      49.052  30.768  27.110  1.00  0.00    -0.203 F 
ATOM     69  C   UNL A   1      47.819  32.722  26.749  1.00  0.00     0.198 A 
ATOM     70  C   UNL A   1      45.465  32.638  26.421  1.00  0.00     0.198 A 
ATOM     71  F   UNL A   1      44.288  30.674  26.611  1.00  0.00    -0.203 F 
ATOM     72  F   UNL A   1      48.941  33.434  26.919  1.00  0.00    -0.200 F 
ATOM     73  C   UNL A   1      46.621  33.376  26.534  1.00  0.00     0.200 A 
ATOM     74  F   UNL A   1      44.288  33.253  26.237  1.00  0.00    -0.200 F 
ATOM     75  F   UNL A   1      46.571  34.714  26.487  1.00  0.00    -0.200 F 
ENDBRANCH  51  65
BRANCH  52  76
ATOM     76  C   UNL A   1      38.792  28.506  29.497  1.00  0.00     0.064 A 
ATOM     77  C   UNL A   1      37.964  28.743  30.609  1.00  0.00     0.173 A 
ATOM     78  C   UNL A   1      38.353  29.036  28.269  1.00  0.00     0.173 A 
ATOM     79  F   UNL A   1      38.332  28.314  31.824  1.00  0.00    -0.203 F 
ATOM     80  C   UNL A   1      36.787  29.493  30.504  1.00  0.00     0.198 A 
ATOM     81  C   UNL A   1      37.178  29.784  28.165  1.00  0.00     0.198 A 
ATOM     82  F   UNL A   1      39.111  28.928  27.167  1.00  0.00    -0.203 F 
ATOM     83  F   UNL A   1      36.061  29.756  31.599  1.00  0.00    -0.200 F 
ATOM     84  C   UNL A   1      36.403  30.024  29.284  1.00  0.00     0.200 A 
ATOM     85  F   UNL A   1      36.839  30.329  26.988  1.00  0.00    -0.200 F 
ATOM     86  F   UNL A   1      35.315  30.803  29.195  1.00  0.00    -0.200 F 
ENDBRANCH  52  76
BRANCH  64  87
ATOM     87  C   UNL A   1      44.265  27.360  32.368  1.00  0.00     0.064 A 
ATOM     88  C   UNL A   1      44.163  25.975  32.150  1.00  0.00     0.173 A 
ATOM     89  C   UNL A   1      44.354  27.795  33.697  1.00  0.00     0.173 A 
ATOM     90  F   UNL A   1      44.159  25.469  30.911  1.00  0.00    -0.203 F 
ATOM     91  C   UNL A   1      44.110  25.076  33.216  1.00  0.00     0.198 A 
ATOM     92  C   UNL A   1      44.339  26.895  34.758  1.00  0.00     0.198 A 
ATOM     93  F   UNL A   1      44.499  29.102  33.965  1.00  0.00    -0.203 F 
ATOM     94  F   UNL A   1      43.994  23.760  32.982  1.00  0.00    -0.200 F 
ATOM     95  C   UNL A   1      44.206  25.537  34.518  1.00  0.00     0.200 A 
ATOM     96  F   UNL A   1      44.479  27.345  36.012  1.00  0.00    -0.200 F 
ATOM     97  F   UNL A   1      44.193  24.673  35.542  1.00  0.00    -0.200 F 
ENDBRANCH  64  87
ENDBRANCH  38  39
ENDBRANCH  30  33
ENDBRANCH  28  29
ENDBRANCH  27  28
ENDBRANCH  26  27
ENDBRANCH   1  26
TORSDOF 17
ENDMDL
MODEL 2
REMARK VINA RESULT:     -11.9      1.054      2.812
REMARK SMILES CCn1nc(C(C)C)cc1C(=O)N1CCCC[C@@H]1C(=O)NCCCCCCNC(=O)c1ccc(-c2c3nc(c(-c4c(F)c(F)c(F)c(F)c4F)c4ccc([nH]4)c(-c4c(F)c(F)c(F)c(F)c4F)c4nc(c(-c5c(F)c(F)c(F)c(F)c5F)c5ccc2[nH]5)C=C4)C=C3)cc1
REMARK SMILES IDX 24 1 23 2 22 3 21 4 19 5 20 6 18 8 13 9 14 10 15 11 17 12
REMARK SMILES IDX 16 13 11 14 12 15 10 16 3 17 4 18 5 19 9 20 2 21 1 22 6 23
REMARK SMILES IDX 7 24 8 25 25 26 26 27 27 28 28 29 29 30 30 32 31 33 32 34
REMARK SMILES IDX 93 35 33 36 92 37 34 38 35 39 36 40 86 41 37 42 91 43 85 44
REMARK SMILES IDX 87 45 38 46 90 47 84 48 83 49 39 51 71 52 51 53 70 54 52 55
REMARK SMILES IDX 55 56 69 57 88 58 53 59 54 60 68 62 89 63 56 64 40 65 41 66
REMARK SMILES IDX 49 67 42 68 43 69 47 70 50 71 44 72 45 73 48 74 46 75 72 76
REMARK SMILES IDX 73 77 81 78 74 79 75 80 79 81 82 82 76 83 77 84 80 85 78 86
REMARK SMILES IDX 57 87 58 88 66 89 59 90 60 91 64 92 67 93 61 94 62 95 65 96
REMARK SMILES IDX 63 97
REMARK H PARENT 21 7 28 31 87 50 55 61
REMARK Flexibility Score: inf
ROOT
ATOM      1  C   UNL A   1      40.144  22.165  26.386  1.00  0.00     0.002 C 
ENDROOT
BRANCH   1   2
ATOM      2  C   UNL A   1      38.721  21.753  25.997  1.00  0.00     0.021 C 
BRANCH   2   3
ATOM      3  C   UNL A   1      37.801  22.933  25.697  1.00  0.00     0.116 C 
BRANCH   3   4
ATOM      4  N   UNL A   1      37.164  22.763  24.406  1.00  0.00    -0.354 N 
ATOM      5  C   UNL A   1      36.022  23.321  23.917  1.00  0.00     0.242 C 
ATOM      6  O   UNL A   1      35.531  22.830  22.896  1.00  0.00    -0.273 OA
ATOM      7  H   UNL A   1      37.629  22.152  23.789  1.00  0.00     0.163 HD
BRANCH   5   8
ATOM      8  C   UNL A   1      35.280  24.437  24.683  1.00  0.00     0.174 C 
ATOM      9  N   UNL A   1      34.246  23.997  25.650  1.00  0.00    -0.325 N 
ATOM     10  C   UNL A   1      33.387  25.049  26.177  1.00  0.00     0.121 C 
ATOM     11  C   UNL A   1      32.673  25.792  25.068  1.00  0.00     0.022 C 
ATOM     12  C   UNL A   1      34.675  25.372  23.596  1.00  0.00     0.035 C 
ATOM     13  C   UNL A   1      33.692  26.413  24.124  1.00  0.00     0.004 C 
BRANCH   9  14
ATOM     14  C   UNL A   1      34.161  22.765  26.309  1.00  0.00     0.272 C 
ATOM     15  O   UNL A   1      34.591  22.695  27.462  1.00  0.00    -0.267 OA
BRANCH  14  16
ATOM     16  C   UNL A   1      33.610  21.606  25.642  1.00  0.00     0.126 A 
ATOM     17  N   UNL A   1      32.293  21.464  25.241  1.00  0.00    -0.260 N 
ATOM     18  N   UNL A   1      32.042  20.279  24.645  1.00  0.00    -0.177 NA
ATOM     19  C   UNL A   1      33.183  19.597  24.753  1.00  0.00     0.066 A 
ATOM     20  C   UNL A   1      34.186  20.377  25.364  1.00  0.00     0.059 A 
BRANCH  17  21
ATOM     21  C   UNL A   1      31.214  22.440  25.312  1.00  0.00     0.142 C 
ATOM     22  C   UNL A   1      30.555  22.565  26.682  1.00  0.00     0.029 C 
ENDBRANCH  17  21
BRANCH  19  23
ATOM     23  C   UNL A   1      33.285  18.173  24.292  1.00  0.00     0.034 C 
ATOM     24  C   UNL A   1      32.669  17.214  25.313  1.00  0.00     0.014 C 
ATOM     25  C   UNL A   1      32.661  17.963  22.910  1.00  0.00     0.014 C 
ENDBRANCH  19  23
ENDBRANCH  14  16
ENDBRANCH   9  14
ENDBRANCH   5   8
ENDBRANCH   3   4
ENDBRANCH   2   3
ENDBRANCH   1   2
BRANCH   1  26
ATOM     26  C   UNL A   1      40.736  21.425  27.595  1.00  0.00     0.002 C 
BRANCH  26  27
ATOM     27  C   UNL A   1      41.862  20.424  27.293  1.00  0.00     0.021 C 
BRANCH  27  28
ATOM     28  C   UNL A   1      41.921  19.997  25.837  1.00  0.00     0.116 C 
BRANCH  28  29
ATOM     29  N   UNL A   1      43.291  19.754  25.380  1.00  0.00    -0.352 N 
ATOM     30  C   UNL A   1      44.236  20.678  24.990  1.00  0.00     0.251 C 
ATOM     31  H   UNL A   1      43.573  18.811  25.347  1.00  0.00     0.163 HD
ATOM     32  O   UNL A   1      45.191  20.355  24.280  1.00  0.00    -0.269 OA
BRANCH  30  33
ATOM     33  C   UNL A   1      44.100  22.063  25.456  1.00  0.00     0.039 A 
ATOM     34  C   UNL A   1      43.293  23.000  24.804  1.00  0.00     0.014 A 
ATOM     35  C   UNL A   1      44.797  22.404  26.610  1.00  0.00     0.014 A 
ATOM     36  C   UNL A   1      43.158  24.268  25.367  1.00  0.00     0.010 A 
ATOM     37  C   UNL A   1      44.487  23.554  27.273  1.00  0.00     0.010 A 
ATOM     38  C   UNL A   1      43.757  24.527  26.610  1.00  0.00    -0.014 A 
BRANCH  38  39
ATOM     39  C   UNL A   1      43.559  25.782  27.319  1.00  0.00     0.031 A 
ATOM     40  C   UNL A   1      44.525  26.834  26.920  1.00  0.00     0.074 A 
ATOM     41  C   UNL A   1      42.449  26.019  28.054  1.00  0.00     0.049 A 
ATOM     42  N   UNL A   1      45.485  27.328  27.625  1.00  0.00    -0.248 NA
ATOM     43  C   UNL A   1      44.544  27.262  25.508  1.00  0.00     0.031 C 
ATOM     44  C   UNL A   1      41.271  25.153  28.224  1.00  0.00     0.029 A 
ATOM     45  N   UNL A   1      42.083  27.140  28.733  1.00  0.00    -0.354 N 
ATOM     46  C   UNL A   1      46.078  28.301  26.824  1.00  0.00     0.074 A 
ATOM     47  C   UNL A   1      45.619  28.054  25.485  1.00  0.00     0.031 C 
ATOM     48  C   UNL A   1      40.250  25.861  28.753  1.00  0.00     0.029 A 
ATOM     49  C   UNL A   1      40.745  27.170  29.125  1.00  0.00     0.049 A 
ATOM     50  H   UNL A   1      42.712  27.871  28.932  1.00  0.00     0.167 HD
ATOM     51  C   UNL A   1      46.633  29.407  27.392  1.00  0.00     0.037 A 
ATOM     52  C   UNL A   1      40.097  28.215  29.699  1.00  0.00     0.037 A 
ATOM     53  C   UNL A   1      46.823  29.198  28.809  1.00  0.00     0.049 A 
ATOM     54  C   UNL A   1      41.141  29.109  30.254  1.00  0.00     0.074 A 
ATOM     55  C   UNL A   1      47.583  28.359  29.596  1.00  0.00     0.029 A 
ATOM     56  N   UNL A   1      45.813  29.673  29.605  1.00  0.00    -0.354 N 
ATOM     57  N   UNL A   1      41.923  28.781  31.244  1.00  0.00    -0.248 NA
ATOM     58  C   UNL A   1      41.605  30.208  29.425  1.00  0.00     0.031 C 
ATOM     59  C   UNL A   1      46.774  28.077  30.740  1.00  0.00     0.029 A 
ATOM     60  C   UNL A   1      45.589  28.809  30.642  1.00  0.00     0.049 A 
ATOM     61  H   UNL A   1      45.321  30.512  29.454  1.00  0.00     0.167 HD
ATOM     62  C   UNL A   1      43.156  29.316  30.906  1.00  0.00     0.074 A 
ATOM     63  C   UNL A   1      42.865  30.292  29.857  1.00  0.00     0.031 C 
ATOM     64  C   UNL A   1      44.306  28.693  31.299  1.00  0.00     0.037 A 
BRANCH  51  65
ATOM     65  C   UNL A   1      46.539  30.809  26.814  1.00  0.00     0.064 A 
ATOM     66  C   UNL A   1      47.699  31.616  26.813  1.00  0.00     0.173 A 
ATOM     67  C   UNL A   1      45.330  31.498  26.568  1.00  0.00     0.173 A 
ATOM     68  F   UNL A   1      48.905  31.079  27.052  1.00  0.00    -0.203 F 
ATOM     69  C   UNL A   1      47.636  33.006  26.673  1.00  0.00     0.198 A 
ATOM     70  C   UNL A   1      45.280  32.879  26.376  1.00  0.00     0.198 A 
ATOM     71  F   UNL A   1      44.137  30.901  26.614  1.00  0.00    -0.203 F 
ATOM     72  F   UNL A   1      48.749  33.739  26.817  1.00  0.00    -0.200 F 
ATOM     73  C   UNL A   1      46.426  33.637  26.463  1.00  0.00     0.200 A 
ATOM     74  F   UNL A   1      44.091  33.473  26.196  1.00  0.00    -0.200 F 
ATOM     75  F   UNL A   1      46.353  34.973  26.393  1.00  0.00    -0.200 F 
ENDBRANCH  51  65
BRANCH  52  76
ATOM     76  C   UNL A   1      38.693  28.663  29.526  1.00  0.00     0.064 A 
ATOM     77  C   UNL A   1      37.876  28.942  30.635  1.00  0.00     0.173 A 
ATOM     78  C   UNL A   1      38.230  29.124  28.278  1.00  0.00     0.173 A 
ATOM     79  F   UNL A   1      38.266  28.580  31.865  1.00  0.00    -0.203 F 
ATOM     80  C   UNL A   1      36.686  29.668  30.510  1.00  0.00     0.198 A 
ATOM     81  C   UNL A   1      37.042  29.848  28.154  1.00  0.00     0.198 A 
ATOM     82  F   UNL A   1      38.975  28.973  27.173  1.00  0.00    -0.203 F 
ATOM     83  F   UNL A   1      35.969  29.974  31.600  1.00  0.00    -0.200 F 
ATOM     84  C   UNL A   1      36.277  30.131  29.271  1.00  0.00     0.200 A 
ATOM     85  F   UNL A   1      36.679  30.329  26.956  1.00  0.00    -0.200 F 
ATOM     86  F   UNL A   1      35.176  30.888  29.158  1.00  0.00    -0.200 F 
ENDBRANCH  52  76
BRANCH  64  87
ATOM     87  C   UNL A   1      44.194  27.673  32.402  1.00  0.00     0.064 A 
ATOM     88  C   UNL A   1      44.090  26.285  32.206  1.00  0.00     0.173 A 
ATOM     89  C   UNL A   1      44.308  28.128  33.722  1.00  0.00     0.173 A 
ATOM     90  F   UNL A   1      44.064  25.761  30.974  1.00  0.00    -0.203 F 
ATOM     91  C   UNL A   1      44.060  25.402  33.285  1.00  0.00     0.198 A 
ATOM     92  C   UNL A   1      44.315  27.243  34.795  1.00  0.00     0.198 A 
ATOM     93  F   UNL A   1      44.455  29.439  33.968  1.00  0.00    -0.203 F 
ATOM     94  F   UNL A   1      43.942  24.082  33.073  1.00  0.00    -0.200 F 
ATOM     95  C   UNL A   1      44.180  25.882  34.579  1.00  0.00     0.200 A 
ATOM     96  F   UNL A   1      44.478  27.711  36.041  1.00  0.00    -0.200 F 
ATOM     97  F   UNL A   1      44.188  25.033  35.615  1.00  0.00    -0.200 F 
ENDBRANCH  64  87
ENDBRANCH  38  39
ENDBRANCH  30  33
ENDBRANCH  28  29
ENDBRANCH  27  28
ENDBRANCH  26  27
ENDBRANCH   1  26
TORSDOF 17
ENDMDL
MODEL 3
REMARK VINA RESULT:     -11.2      1.977      6.324
REMARK SMILES CCn1nc(C(C)C)cc1C(=O)N1CCCC[C@@H]1C(=O)NCCCCCCNC(=O)c1ccc(-c2c3nc(c(-c4c(F)c(F)c(F)c(F)c4F)c4ccc([nH]4)c(-c4c(F)c(F)c(F)c(F)c4F)c4nc(c(-c5c(F)c(F)c(F)c(F)c5F)c5ccc2[nH]5)C=C4)C=C3)cc1
REMARK SMILES IDX 24 1 23 2 22 3 21 4 19 5 20 6 18 8 13 9 14 10 15 11 17 12
REMARK SMILES IDX 16 13 11 14 12 15 10 16 3 17 4 18 5 19 9 20 2 21 1 22 6 23
REMARK SMILES IDX 7 24 8 25 25 26 26 27 27 28 28 29 29 30 30 32 31 33 32 34
REMARK SMILES IDX 93 35 33 36 92 37 34 38 35 39 36 40 86 41 37 42 91 43 85 44
REMARK SMILES IDX 87 45 38 46 90 47 84 48 83 49 39 51 71 52 51 53 70 54 52 55
REMARK SMILES IDX 55 56 69 57 88 58 53 59 54 60 68 62 89 63 56 64 40 65 41 66
REMARK SMILES IDX 49 67 42 68 43 69 47 70 50 71 44 72 45 73 48 74 46 75 72 76
REMARK SMILES IDX 73 77 81 78 74 79 75 80 79 81 82 82 76 83 77 84 80 85 78 86
REMARK SMILES IDX 57 87 58 88 66 89 59 90 60 91 64 92 67 93 61 94 62 95 65 96
REMARK SMILES IDX 63 97
REMARK H PARENT 21 7 28 31 87 50 55 61
REMARK Flexibility Score: inf
ROOT
ATOM      1  C   UNL A   1      38.288  22.442  25.968  1.00  0.00     0.002 C 
ENDROOT
BRANCH   1   2
ATOM      2  C   UNL A   1      37.673  23.839  25.833  1.00  0.00     0.021 C 
BRANCH   2   3
ATOM      3  C   UNL A   1      36.163  23.826  25.612  1.00  0.00     0.116 C 
BRANCH   3   4
ATOM      4  N   UNL A   1      35.497  23.165  26.717  1.00  0.00    -0.354 N 
ATOM      5  C   UNL A   1      34.514  22.222  26.705  1.00  0.00     0.242 C 
ATOM      6  O   UNL A   1      33.916  21.996  27.761  1.00  0.00    -0.273 OA
ATOM      7  H   UNL A   1      35.803  23.437  27.613  1.00  0.00     0.163 HD
BRANCH   5   8
ATOM      8  C   UNL A   1      34.057  21.554  25.390  1.00  0.00     0.174 C 
ATOM      9  N   UNL A   1      32.613  21.653  25.068  1.00  0.00    -0.325 N 
ATOM     10  C   UNL A   1      32.153  20.816  23.968  1.00  0.00     0.121 C 
ATOM     11  C   UNL A   1      32.454  19.353  24.219  1.00  0.00     0.022 C 
ATOM     12  C   UNL A   1      34.513  20.069  25.483  1.00  0.00     0.035 C 
ATOM     13  C   UNL A   1      33.953  19.158  24.394  1.00  0.00     0.004 C 
BRANCH   9  14
ATOM     14  C   UNL A   1      31.705  22.625  25.505  1.00  0.00     0.272 C 
ATOM     15  O   UNL A   1      30.656  22.244  26.029  1.00  0.00    -0.267 OA
BRANCH  14  16
ATOM     16  C   UNL A   1      31.983  24.032  25.317  1.00  0.00     0.126 A 
ATOM     17  N   UNL A   1      32.392  24.615  24.131  1.00  0.00    -0.260 N 
ATOM     18  N   UNL A   1      32.588  25.948  24.232  1.00  0.00    -0.177 NA
ATOM     19  C   UNL A   1      32.407  26.219  25.525  1.00  0.00     0.066 A 
ATOM     20  C   UNL A   1      32.030  25.064  26.240  1.00  0.00     0.059 A 
BRANCH  17  21
ATOM     21  C   UNL A   1      32.549  23.996  22.823  1.00  0.00     0.142 C 
ATOM     22  C   UNL A   1      32.841  24.968  21.684  1.00  0.00     0.029 C 
ENDBRANCH  17  21
BRANCH  19  23
ATOM     23  C   UNL A   1      32.635  27.599  26.070  1.00  0.00     0.034 C 
ATOM     24  C   UNL A   1      31.767  27.858  27.303  1.00  0.00     0.014 C 
ATOM     25  C   UNL A   1      34.109  27.865  26.384  1.00  0.00     0.014 C 
ENDBRANCH  19  23
ENDBRANCH  14  16
ENDBRANCH   9  14
ENDBRANCH   5   8
ENDBRANCH   3   4
ENDBRANCH   2   3
ENDBRANCH   1   2
BRANCH   1  26
ATOM     26  C   UNL A   1      37.812  21.411  24.933  1.00  0.00     0.002 C 
BRANCH  26  27
ATOM     27  C   UNL A   1      38.425  20.007  25.044  1.00  0.00     0.021 C 
BRANCH  27  28
ATOM     28  C   UNL A   1      39.367  19.846  26.224  1.00  0.00     0.116 C 
BRANCH  28  29
ATOM     29  N   UNL A   1      40.592  19.125  25.869  1.00  0.00    -0.352 N 
ATOM     30  C   UNL A   1      41.863  19.631  25.708  1.00  0.00     0.251 C 
ATOM     31  H   UNL A   1      40.494  18.155  25.728  1.00  0.00     0.163 HD
ATOM     32  O   UNL A   1      42.714  19.025  25.052  1.00  0.00    -0.269 OA
BRANCH  30  33
ATOM     33  C   UNL A   1      42.199  20.906  26.353  1.00  0.00     0.039 A 
ATOM     34  C   UNL A   1      42.590  22.036  25.629  1.00  0.00     0.014 A 
ATOM     35  C   UNL A   1      42.085  20.952  27.739  1.00  0.00     0.014 A 
ATOM     36  C   UNL A   1      42.808  23.226  26.320  1.00  0.00     0.010 A 
ATOM     37  C   UNL A   1      42.077  22.157  28.377  1.00  0.00     0.010 A 
ATOM     38  C   UNL A   1      42.539  23.272  27.696  1.00  0.00    -0.014 A 
BRANCH  38  39
ATOM     39  C   UNL A   1      42.623  24.507  28.462  1.00  0.00     0.031 A 
ATOM     40  C   UNL A   1      41.497  25.434  28.196  1.00  0.00     0.074 A 
ATOM     41  C   UNL A   1      43.491  24.652  29.489  1.00  0.00     0.049 A 
ATOM     42  N   UNL A   1      41.540  26.567  27.580  1.00  0.00    -0.248 NA
ATOM     43  C   UNL A   1      40.128  24.968  28.486  1.00  0.00     0.031 C 
ATOM     44  C   UNL A   1      44.413  23.649  30.046  1.00  0.00     0.029 A 
ATOM     45  N   UNL A   1      43.667  25.706  30.332  1.00  0.00    -0.354 N 
ATOM     46  C   UNL A   1      40.240  27.065  27.618  1.00  0.00     0.074 A 
ATOM     47  C   UNL A   1      39.396  25.958  27.970  1.00  0.00     0.031 C 
ATOM     48  C   UNL A   1      44.868  24.059  31.250  1.00  0.00     0.029 A 
ATOM     49  C   UNL A   1      44.420  25.419  31.470  1.00  0.00     0.049 A 
ATOM     50  H   UNL A   1      43.292  26.598  30.153  1.00  0.00     0.167 HD
ATOM     51  C   UNL A   1      40.027  28.409  27.670  1.00  0.00     0.037 A 
ATOM     52  C   UNL A   1      44.636  26.247  32.523  1.00  0.00     0.037 A 
ATOM     53  C   UNL A   1      41.232  29.120  27.312  1.00  0.00     0.049 A 
ATOM     54  C   UNL A   1      44.346  27.620  32.049  1.00  0.00     0.074 A 
ATOM     55  C   UNL A   1      42.013  29.245  26.182  1.00  0.00     0.029 A 
ATOM     56  N   UNL A   1      42.010  29.513  28.370  1.00  0.00    -0.354 N 
ATOM     57  N   UNL A   1      45.056  28.240  31.149  1.00  0.00    -0.248 NA
ATOM     58  C   UNL A   1      43.009  28.145  32.264  1.00  0.00     0.031 C 
ATOM     59  C   UNL A   1      43.356  29.357  26.660  1.00  0.00     0.029 A 
ATOM     60  C   UNL A   1      43.333  29.371  28.056  1.00  0.00     0.049 A 
ATOM     61  H   UNL A   1      41.667  29.848  29.230  1.00  0.00     0.167 HD
ATOM     62  C   UNL A   1      44.127  28.929  30.385  1.00  0.00     0.074 A 
ATOM     63  C   UNL A   1      42.912  28.944  31.198  1.00  0.00     0.031 C 
ATOM     64  C   UNL A   1      44.355  29.146  29.056  1.00  0.00     0.037 A 
BRANCH  51  65
ATOM     65  C   UNL A   1      38.944  29.075  28.503  1.00  0.00     0.064 A 
ATOM     66  C   UNL A   1      38.887  28.791  29.885  1.00  0.00     0.173 A 
ATOM     67  C   UNL A   1      37.793  29.701  27.973  1.00  0.00     0.173 A 
ATOM     68  F   UNL A   1      39.913  28.182  30.500  1.00  0.00    -0.203 F 
ATOM     69  C   UNL A   1      37.738  29.029  30.646  1.00  0.00     0.198 A 
ATOM     70  C   UNL A   1      36.669  29.984  28.749  1.00  0.00     0.198 A 
ATOM     71  F   UNL A   1      37.649  29.965  26.672  1.00  0.00    -0.203 F 
ATOM     72  F   UNL A   1      37.687  28.615  31.920  1.00  0.00    -0.200 F 
ATOM     73  C   UNL A   1      36.627  29.617  30.075  1.00  0.00     0.200 A 
ATOM     74  F   UNL A   1      35.594  30.535  28.168  1.00  0.00    -0.200 F 
ATOM     75  F   UNL A   1      35.502  29.787  30.783  1.00  0.00    -0.200 F 
ENDBRANCH  51  65
BRANCH  52  76
ATOM     76  C   UNL A   1      44.753  25.925  33.966  1.00  0.00     0.064 A 
ATOM     77  C   UNL A   1      45.916  26.241  34.691  1.00  0.00     0.173 A 
ATOM     78  C   UNL A   1      43.616  25.589  34.727  1.00  0.00     0.173 A 
ATOM     79  F   UNL A   1      47.028  26.617  34.045  1.00  0.00    -0.203 F 
ATOM     80  C   UNL A   1      45.932  26.255  36.090  1.00  0.00     0.198 A 
ATOM     81  C   UNL A   1      43.633  25.602  36.124  1.00  0.00     0.198 A 
ATOM     82  F   UNL A   1      42.440  25.346  34.130  1.00  0.00    -0.203 F 
ATOM     83  F   UNL A   1      47.039  26.629  36.745  1.00  0.00    -0.200 F 
ATOM     84  C   UNL A   1      44.786  25.948  36.805  1.00  0.00     0.200 A 
ATOM     85  F   UNL A   1      42.506  25.346  36.804  1.00  0.00    -0.200 F 
ATOM     86  F   UNL A   1      44.777  26.030  38.143  1.00  0.00    -0.200 F 
ENDBRANCH  52  76
BRANCH  64  87
ATOM     87  C   UNL A   1      45.766  28.971  28.562  1.00  0.00     0.064 A 
ATOM     88  C   UNL A   1      46.285  27.784  28.014  1.00  0.00     0.173 A 
ATOM     89  C   UNL A   1      46.596  30.100  28.548  1.00  0.00     0.173 A 
ATOM     90  F   UNL A   1      45.531  26.683  27.910  1.00  0.00    -0.203 F 
ATOM     91  C   UNL A   1      47.587  27.726  27.516  1.00  0.00     0.198 A 
ATOM     92  C   UNL A   1      47.880  30.049  28.017  1.00  0.00     0.198 A 
ATOM     93  F   UNL A   1      46.139  31.271  29.016  1.00  0.00    -0.203 F 
ATOM     94  F   UNL A   1      48.065  26.577  27.015  1.00  0.00    -0.200 F 
ATOM     95  C   UNL A   1      48.380  28.861  27.511  1.00  0.00     0.200 A 
ATOM     96  F   UNL A   1      48.625  31.163  27.973  1.00  0.00    -0.200 F 
ATOM     97  F   UNL A   1      49.618  28.816  27.000  1.00  0.00    -0.200 F 
ENDBRANCH  64  87
ENDBRANCH  38  39
ENDBRANCH  30  33
ENDBRANCH  28  29
ENDBRANCH  27  28
ENDBRANCH  26  27
ENDBRANCH   1  26
TORSDOF 17
ENDMDL
