MODEL 1
REMARK VINA RESULT:     -12.6      0.000      0.000
REMARK SMILES O=C(CCC(=O)N1N=C(c2ccc(F)cc2)C[C@@H]1c1ccc2nccnc2c1)NCCCCCCNC(=O)c1ccc(-c2c3nc(c(-c4c(F)c(F)c(F)c(F)c4F)c4ccc([nH]4)c(-c4c(F)c(F)c(F)c(F)c4F)c4nc(c(-c5c(F)c(F)c(F)c(F)c5F)c5ccc2[nH]5)C=C4)C=C3)cc1
REMARK SMILES IDX 31 1 30 2 29 3 1 4 2 5 3 7 4 8 5 9 6 10 7 11 8 12 18 13 9 14
REMARK SMILES IDX 17 15 19 16 20 17 28 18 21 19 27 20 22 21 26 22 23 23 25 24
REMARK SMILES IDX 24 25 10 26 11 27 16 28 12 29 15 30 13 31 14 32 32 33 33 34
REMARK SMILES IDX 34 35 35 36 36 37 37 38 38 40 39 41 40 42 101 43 41 44
REMARK SMILES IDX 100 45 42 46 43 47 44 48 94 49 45 50 99 51 93 52 95 53 46 54
REMARK SMILES IDX 98 55 92 56 91 57 47 59 79 60 59 61 78 62 60 63 63 64 77 65
REMARK SMILES IDX 96 66 61 67 62 68 76 70 97 71 64 72 48 73 49 74 57 75 50 76
REMARK SMILES IDX 51 77 55 78 58 79 52 80 53 81 56 82 54 83 80 84 81 85 89 86
REMARK SMILES IDX 82 87 83 88 87 89 90 90 84 91 85 92 88 93 86 94 65 95 66 96
REMARK SMILES IDX 74 97 67 98 68 99 72 100 75 101 69 102 70 103 73 104 71 105
REMARK H PARENT 29 6 36 39 95 58 63 69
REMARK Flexibility Score: inf
ROOT
ATOM      1  C   UNL A   1      30.294  29.918  23.919  1.00  0.00     0.021 C 
ENDROOT
BRANCH   1   2
ATOM      2  C   UNL A   1      30.583  28.381  23.857  1.00  0.00     0.116 C 
BRANCH   2   3
ATOM      3  N   UNL A   1      31.346  27.775  22.755  1.00  0.00    -0.356 N 
ATOM      4  O   UNL A   1      33.374  28.643  23.405  1.00  0.00    -0.275 OA
ATOM      5  C   UNL A   1      32.745  27.861  22.699  1.00  0.00     0.220 C 
ATOM      6  H   UNL A   1      30.864  27.299  22.040  1.00  0.00     0.163 HD
BRANCH   5   7
ATOM      7  C   UNL A   1      33.466  26.792  21.825  1.00  0.00     0.110 C 
BRANCH   7   8
ATOM      8  C   UNL A   1      32.541  25.599  21.435  1.00  0.00     0.112 C 
BRANCH   8   9
ATOM      9  C   UNL A   1      32.861  24.064  21.550  1.00  0.00     0.243 C 
ATOM     10  O   UNL A   1      33.449  23.520  20.608  1.00  0.00    -0.273 OA
BRANCH   9  11
ATOM     11  N   UNL A   1      32.700  23.413  22.768  1.00  0.00    -0.225 N 
ATOM     12  N   UNL A   1      31.982  22.186  22.798  1.00  0.00    -0.174 NA
ATOM     13  C   UNL A   1      33.662  23.454  23.838  1.00  0.00     0.147 C 
ATOM     14  C   UNL A   1      32.688  21.399  23.558  1.00  0.00     0.071 C 
ATOM     15  C   UNL A   1      33.987  21.985  23.977  1.00  0.00     0.091 C 
BRANCH  13  16
ATOM     16  C   UNL A   1      33.469  24.542  24.889  1.00  0.00    -0.021 A 
ATOM     17  C   UNL A   1      34.524  25.447  25.084  1.00  0.00     0.008 A 
ATOM     18  C   UNL A   1      32.269  24.887  25.519  1.00  0.00     0.036 A 
ATOM     19  C   UNL A   1      34.438  26.597  25.858  1.00  0.00     0.031 A 
ATOM     20  C   UNL A   1      32.137  26.065  26.293  1.00  0.00     0.089 A 
ATOM     21  C   UNL A   1      33.259  26.922  26.461  1.00  0.00     0.089 A 
ATOM     22  N   UNL A   1      30.963  26.417  26.851  1.00  0.00    -0.253 NA
ATOM     23  N   UNL A   1      33.229  28.068  27.162  1.00  0.00    -0.253 NA
ATOM     24  C   UNL A   1      30.934  27.587  27.542  1.00  0.00     0.132 A 
ATOM     25  C   UNL A   1      32.043  28.392  27.699  1.00  0.00     0.132 A 
ENDBRANCH  13  16
BRANCH  14  26
ATOM     26  C   UNL A   1      32.497  19.971  23.854  1.00  0.00    -0.002 A 
ATOM     27  C   UNL A   1      32.691  19.500  25.158  1.00  0.00     0.013 A 
ATOM     28  C   UNL A   1      32.447  19.069  22.782  1.00  0.00     0.013 A 
ATOM     29  C   UNL A   1      32.808  18.124  25.389  1.00  0.00     0.040 A 
ATOM     30  C   UNL A   1      32.565  17.696  23.019  1.00  0.00     0.040 A 
ATOM     31  C   UNL A   1      32.745  17.236  24.319  1.00  0.00     0.123 A 
ATOM     32  F   UNL A   1      32.894  15.923  24.541  1.00  0.00    -0.207 F 
ENDBRANCH  14  26
ENDBRANCH   9  11
ENDBRANCH   8   9
ENDBRANCH   7   8
ENDBRANCH   5   7
ENDBRANCH   2   3
ENDBRANCH   1   2
BRANCH   1  33
ATOM     33  C   UNL A   1      30.595  30.987  25.013  1.00  0.00     0.002 C 
BRANCH  33  34
ATOM     34  C   UNL A   1      31.832  31.076  25.924  1.00  0.00     0.002 C 
BRANCH  34  35
ATOM     35  C   UNL A   1      31.661  31.884  27.208  1.00  0.00     0.021 C 
BRANCH  35  36
ATOM     36  C   UNL A   1      32.840  32.825  27.421  1.00  0.00     0.116 C 
BRANCH  36  37
ATOM     37  N   UNL A   1      32.438  34.217  27.628  1.00  0.00    -0.352 N 
ATOM     38  C   UNL A   1      32.968  35.115  28.536  1.00  0.00     0.251 C 
ATOM     39  H   UNL A   1      31.709  34.552  27.056  1.00  0.00     0.163 HD
ATOM     40  O   UNL A   1      32.498  36.223  28.702  1.00  0.00    -0.269 OA
BRANCH  38  41
ATOM     41  C   UNL A   1      34.114  34.650  29.344  1.00  0.00     0.039 A 
ATOM     42  C   UNL A   1      33.880  34.039  30.576  1.00  0.00     0.014 A 
ATOM     43  C   UNL A   1      35.391  34.675  28.782  1.00  0.00     0.014 A 
ATOM     44  C   UNL A   1      34.925  33.361  31.206  1.00  0.00     0.010 A 
ATOM     45  C   UNL A   1      36.396  33.913  29.354  1.00  0.00     0.010 A 
ATOM     46  C   UNL A   1      36.174  33.249  30.571  1.00  0.00    -0.014 A 
BRANCH  46  47
ATOM     47  C   UNL A   1      37.281  32.458  31.159  1.00  0.00     0.031 A 
ATOM     48  C   UNL A   1      37.771  32.794  32.537  1.00  0.00     0.074 A 
ATOM     49  C   UNL A   1      37.901  31.517  30.421  1.00  0.00     0.049 A 
ATOM     50  N   UNL A   1      38.802  32.320  33.188  1.00  0.00    -0.248 NA
ATOM     51  C   UNL A   1      37.034  33.842  33.263  1.00  0.00     0.031 C 
ATOM     52  C   UNL A   1      37.558  31.155  29.045  1.00  0.00     0.029 A 
ATOM     53  N   UNL A   1      38.963  30.702  30.723  1.00  0.00    -0.354 N 
ATOM     54  C   UNL A   1      38.852  33.036  34.376  1.00  0.00     0.074 A 
ATOM     55  C   UNL A   1      37.795  34.018  34.332  1.00  0.00     0.031 C 
ATOM     56  C   UNL A   1      38.366  30.165  28.636  1.00  0.00     0.029 A 
ATOM     57  C   UNL A   1      39.311  29.849  29.703  1.00  0.00     0.049 A 
ATOM     58  H   UNL A   1      39.431  30.725  31.588  1.00  0.00     0.167 HD
ATOM     59  C   UNL A   1      39.688  32.863  35.426  1.00  0.00     0.037 A 
ATOM     60  C   UNL A   1      40.281  28.916  29.642  1.00  0.00     0.037 A 
ATOM     61  C   UNL A   1      40.690  31.836  35.486  1.00  0.00     0.049 A 
ATOM     62  C   UNL A   1      41.170  28.710  30.837  1.00  0.00     0.074 A 
ATOM     63  C   UNL A   1      41.520  31.504  36.542  1.00  0.00     0.029 A 
ATOM     64  N   UNL A   1      40.991  30.967  34.446  1.00  0.00    -0.354 N 
ATOM     65  N   UNL A   1      41.167  29.345  31.985  1.00  0.00    -0.248 NA
ATOM     66  C   UNL A   1      42.195  27.662  30.733  1.00  0.00     0.031 C 
ATOM     67  C   UNL A   1      42.350  30.460  36.127  1.00  0.00     0.029 A 
ATOM     68  C   UNL A   1      42.010  30.112  34.828  1.00  0.00     0.049 A 
ATOM     69  H   UNL A   1      40.546  30.961  33.569  1.00  0.00     0.167 HD
ATOM     70  C   UNL A   1      42.174  28.767  32.744  1.00  0.00     0.074 A 
ATOM     71  C   UNL A   1      42.761  27.721  31.932  1.00  0.00     0.031 C 
ATOM     72  C   UNL A   1      42.578  29.079  34.000  1.00  0.00     0.037 A 
BRANCH  59  73
ATOM     73  C   UNL A   1      39.535  33.788  36.596  1.00  0.00     0.064 A 
ATOM     74  C   UNL A   1      40.198  35.024  36.616  1.00  0.00     0.173 A 
ATOM     75  C   UNL A   1      38.758  33.442  37.712  1.00  0.00     0.173 A 
ATOM     76  F   UNL A   1      40.955  35.403  35.575  1.00  0.00    -0.203 F 
ATOM     77  C   UNL A   1      40.089  35.879  37.710  1.00  0.00     0.198 A 
ATOM     78  C   UNL A   1      38.625  34.313  38.791  1.00  0.00     0.198 A 
ATOM     79  F   UNL A   1      38.092  32.278  37.737  1.00  0.00    -0.203 F 
ATOM     80  F   UNL A   1      40.746  37.046  37.715  1.00  0.00    -0.200 F 
ATOM     81  C   UNL A   1      39.297  35.525  38.792  1.00  0.00     0.200 A 
ATOM     82  F   UNL A   1      37.834  33.983  39.822  1.00  0.00    -0.200 F 
ATOM     83  F   UNL A   1      39.174  36.359  39.835  1.00  0.00    -0.200 F 
ENDBRANCH  59  73
BRANCH  60  84
ATOM     84  C   UNL A   1      40.413  28.081  28.422  1.00  0.00     0.064 A 
ATOM     85  C   UNL A   1      39.816  26.815  28.331  1.00  0.00     0.173 A 
ATOM     86  C   UNL A   1      41.195  28.513  27.342  1.00  0.00     0.173 A 
ATOM     87  F   UNL A   1      39.064  26.353  29.340  1.00  0.00    -0.203 F 
ATOM     88  C   UNL A   1      40.019  26.003  27.215  1.00  0.00     0.198 A 
ATOM     89  C   UNL A   1      41.379  27.709  26.218  1.00  0.00     0.198 A 
ATOM     90  F   UNL A   1      41.771  29.723  27.376  1.00  0.00    -0.203 F 
ATOM     91  F   UNL A   1      39.468  24.782  27.170  1.00  0.00    -0.200 F 
ATOM     92  C   UNL A   1      40.799  26.450  26.160  1.00  0.00     0.200 A 
ATOM     93  F   UNL A   1      42.120  28.152  25.194  1.00  0.00    -0.200 F 
ATOM     94  F   UNL A   1      40.994  25.670  25.089  1.00  0.00    -0.200 F 
ENDBRANCH  60  84
BRANCH  72  95
ATOM     95  C   UNL A   1      43.704  28.283  34.586  1.00  0.00     0.064 A 
ATOM     96  C   UNL A   1      43.447  27.095  35.285  1.00  0.00     0.173 A 
ATOM     97  C   UNL A   1      45.023  28.756  34.549  1.00  0.00     0.173 A 
ATOM     98  F   UNL A   1      42.197  26.609  35.356  1.00  0.00    -0.203 F 
ATOM     99  C   UNL A   1      44.467  26.419  35.947  1.00  0.00     0.198 A 
ATOM    100  C   UNL A   1      46.046  28.064  35.191  1.00  0.00     0.198 A 
ATOM    101  F   UNL A   1      45.317  29.883  33.884  1.00  0.00    -0.203 F 
ATOM    102  F   UNL A   1      44.192  25.308  36.644  1.00  0.00    -0.200 F 
ATOM    103  C   UNL A   1      45.766  26.905  35.899  1.00  0.00     0.200 A 
ATOM    104  F   UNL A   1      47.304  28.524  35.130  1.00  0.00    -0.200 F 
ATOM    105  F   UNL A   1      46.749  26.255  36.538  1.00  0.00    -0.200 F 
ENDBRANCH  72  95
ENDBRANCH  46  47
ENDBRANCH  38  41
ENDBRANCH  36  37
ENDBRANCH  35  36
ENDBRANCH  34  35
ENDBRANCH  33  34
ENDBRANCH   1  33
TORSDOF 18
ENDMDL
MODEL 2
REMARK VINA RESULT:     -12.6      1.417      7.088
REMARK SMILES O=C(CCC(=O)N1N=C(c2ccc(F)cc2)C[C@@H]1c1ccc2nccnc2c1)NCCCCCCNC(=O)c1ccc(-c2c3nc(c(-c4c(F)c(F)c(F)c(F)c4F)c4ccc([nH]4)c(-c4c(F)c(F)c(F)c(F)c4F)c4nc(c(-c5c(F)c(F)c(F)c(F)c5F)c5ccc2[nH]5)C=C4)C=C3)cc1
REMARK SMILES IDX 31 1 30 2 29 3 1 4 2 5 3 7 4 8 5 9 6 10 7 11 8 12 18 13 9 14
REMARK SMILES IDX 17 15 19 16 20 17 28 18 21 19 27 20 22 21 26 22 23 23 25 24
REMARK SMILES IDX 24 25 10 26 11 27 16 28 12 29 15 30 13 31 14 32 32 33 33 34
REMARK SMILES IDX 34 35 35 36 36 37 37 38 38 40 39 41 40 42 101 43 41 44
REMARK SMILES IDX 100 45 42 46 43 47 44 48 94 49 45 50 99 51 93 52 95 53 46 54
REMARK SMILES IDX 98 55 92 56 91 57 47 59 79 60 59 61 78 62 60 63 63 64 77 65
REMARK SMILES IDX 96 66 61 67 62 68 76 70 97 71 64 72 48 73 49 74 57 75 50 76
REMARK SMILES IDX 51 77 55 78 58 79 52 80 53 81 56 82 54 83 80 84 81 85 89 86
REMARK SMILES IDX 82 87 83 88 87 89 90 90 84 91 85 92 88 93 86 94 65 95 66 96
REMARK SMILES IDX 74 97 67 98 68 99 72 100 75 101 69 102 70 103 73 104 71 105
REMARK H PARENT 29 6 36 39 95 58 63 69
REMARK Flexibility Score: inf
ROOT
ATOM      1  C   UNL A   1      31.573  28.969  25.274  1.00  0.00     0.021 C 
ENDROOT
BRANCH   1   2
ATOM      2  C   UNL A   1      32.846  28.199  24.789  1.00  0.00     0.116 C 
BRANCH   2   3
ATOM      3  N   UNL A   1      33.358  27.015  25.496  1.00  0.00    -0.356 N 
ATOM      4  O   UNL A   1      33.962  25.880  23.589  1.00  0.00    -0.275 OA
ATOM      5  C   UNL A   1      34.010  25.979  24.811  1.00  0.00     0.220 C 
ATOM      6  H   UNL A   1      33.241  26.949  26.472  1.00  0.00     0.163 HD
BRANCH   5   7
ATOM      7  C   UNL A   1      34.937  25.065  25.667  1.00  0.00     0.110 C 
BRANCH   7   8
ATOM      8  C   UNL A   1      35.601  23.923  24.838  1.00  0.00     0.112 C 
BRANCH   8   9
ATOM      9  C   UNL A   1      35.601  22.385  25.158  1.00  0.00     0.243 C 
ATOM     10  O   UNL A   1      36.588  21.910  25.734  1.00  0.00    -0.273 OA
BRANCH   9  11
ATOM     11  N   UNL A   1      34.431  21.647  25.012  1.00  0.00    -0.225 N 
ATOM     12  N   UNL A   1      34.493  20.392  24.348  1.00  0.00    -0.174 NA
ATOM     13  C   UNL A   1      33.348  21.657  25.960  1.00  0.00     0.147 C 
ATOM     14  C   UNL A   1      33.777  19.586  25.080  1.00  0.00     0.071 C 
ATOM     15  C   UNL A   1      33.303  20.197  26.348  1.00  0.00     0.091 C 
BRANCH  13  16
ATOM     16  C   UNL A   1      32.230  22.663  25.709  1.00  0.00    -0.021 A 
ATOM     17  C   UNL A   1      31.728  23.361  26.818  1.00  0.00     0.008 A 
ATOM     18  C   UNL A   1      31.804  23.141  24.465  1.00  0.00     0.036 A 
ATOM     19  C   UNL A   1      30.851  24.436  26.737  1.00  0.00     0.031 A 
ATOM     20  C   UNL A   1      30.933  24.251  24.344  1.00  0.00     0.089 A 
ATOM     21  C   UNL A   1      30.450  24.894  25.516  1.00  0.00     0.089 A 
ATOM     22  N   UNL A   1      30.573  24.739  23.141  1.00  0.00    -0.253 NA
ATOM     23  N   UNL A   1      29.635  25.961  25.504  1.00  0.00    -0.253 NA
ATOM     24  C   UNL A   1      29.764  25.830  23.136  1.00  0.00     0.132 A 
ATOM     25  C   UNL A   1      29.300  26.425  24.291  1.00  0.00     0.132 A 
ENDBRANCH  13  16
BRANCH  14  26
ATOM     26  C   UNL A   1      33.579  18.134  24.947  1.00  0.00    -0.002 A 
ATOM     27  C   UNL A   1      32.414  17.544  25.450  1.00  0.00     0.013 A 
ATOM     28  C   UNL A   1      34.687  17.338  24.623  1.00  0.00     0.013 A 
ATOM     29  C   UNL A   1      32.350  16.153  25.601  1.00  0.00     0.040 A 
ATOM     30  C   UNL A   1      34.617  15.949  24.776  1.00  0.00     0.040 A 
ATOM     31  C   UNL A   1      33.450  15.370  25.265  1.00  0.00     0.123 A 
ATOM     32  F   UNL A   1      33.397  14.043  25.445  1.00  0.00    -0.207 F 
ENDBRANCH  14  26
ENDBRANCH   9  11
ENDBRANCH   8   9
ENDBRANCH   7   8
ENDBRANCH   5   7
ENDBRANCH   2   3
ENDBRANCH   1   2
BRANCH   1  33
ATOM     33  C   UNL A   1      31.202  30.483  25.244  1.00  0.00     0.002 C 
BRANCH  33  34
ATOM     34  C   UNL A   1      31.426  31.527  26.353  1.00  0.00     0.002 C 
BRANCH  34  35
ATOM     35  C   UNL A   1      32.562  31.233  27.330  1.00  0.00     0.021 C 
BRANCH  35  36
ATOM     36  C   UNL A   1      33.543  32.396  27.391  1.00  0.00     0.116 C 
BRANCH  36  37
ATOM     37  N   UNL A   1      32.893  33.689  27.613  1.00  0.00    -0.352 N 
ATOM     38  C   UNL A   1      33.172  34.605  28.610  1.00  0.00     0.251 C 
ATOM     39  H   UNL A   1      32.179  33.934  26.981  1.00  0.00     0.163 HD
ATOM     40  O   UNL A   1      32.508  35.609  28.772  1.00  0.00    -0.269 OA
BRANCH  38  41
ATOM     41  C   UNL A   1      34.295  34.286  29.516  1.00  0.00     0.039 A 
ATOM     42  C   UNL A   1      34.054  33.541  30.670  1.00  0.00     0.014 A 
ATOM     43  C   UNL A   1      35.596  34.587  29.110  1.00  0.00     0.014 A 
ATOM     44  C   UNL A   1      35.136  33.010  31.373  1.00  0.00     0.010 A 
ATOM     45  C   UNL A   1      36.661  33.972  29.746  1.00  0.00     0.010 A 
ATOM     46  C   UNL A   1      36.443  33.178  30.884  1.00  0.00    -0.014 A 
BRANCH  46  47
ATOM     47  C   UNL A   1      37.611  32.551  31.545  1.00  0.00     0.031 A 
ATOM     48  C   UNL A   1      38.325  31.423  30.858  1.00  0.00     0.074 A 
ATOM     49  C   UNL A   1      37.960  32.925  32.792  1.00  0.00     0.049 A 
ATOM     50  N   UNL A   1      39.282  30.653  31.307  1.00  0.00    -0.248 NA
ATOM     51  C   UNL A   1      37.866  31.081  29.501  1.00  0.00     0.031 C 
ATOM     52  C   UNL A   1      37.294  33.959  33.585  1.00  0.00     0.029 A 
ATOM     53  N   UNL A   1      38.957  32.466  33.616  1.00  0.00    -0.354 N 
ATOM     54  C   UNL A   1      39.510  29.721  30.304  1.00  0.00     0.074 A 
ATOM     55  C   UNL A   1      38.553  29.976  29.253  1.00  0.00     0.031 C 
ATOM     56  C   UNL A   1      37.923  34.083  34.764  1.00  0.00     0.029 A 
ATOM     57  C   UNL A   1      39.011  33.111  34.827  1.00  0.00     0.049 A 
ATOM     58  H   UNL A   1      39.575  31.743  33.362  1.00  0.00     0.167 HD
ATOM     59  C   UNL A   1      40.459  28.758  30.252  1.00  0.00     0.037 A 
ATOM     60  C   UNL A   1      39.849  32.937  35.869  1.00  0.00     0.037 A 
ATOM     61  C   UNL A   1      41.450  28.560  31.273  1.00  0.00     0.049 A 
ATOM     62  C   UNL A   1      40.925  31.892  35.772  1.00  0.00     0.074 A 
ATOM     63  C   UNL A   1      42.522  27.686  31.274  1.00  0.00     0.029 A 
ATOM     64  N   UNL A   1      41.495  29.256  32.473  1.00  0.00    -0.354 N 
ATOM     65  N   UNL A   1      41.178  31.059  34.791  1.00  0.00    -0.248 NA
ATOM     66  C   UNL A   1      41.831  31.759  36.921  1.00  0.00     0.031 C 
ATOM     67  C   UNL A   1      43.192  27.825  32.492  1.00  0.00     0.029 A 
ATOM     68  C   UNL A   1      42.565  28.816  33.232  1.00  0.00     0.049 A 
ATOM     69  H   UNL A   1      40.861  29.959  32.743  1.00  0.00     0.167 HD
ATOM     70  C   UNL A   1      42.278  30.315  35.193  1.00  0.00     0.074 A 
ATOM     71  C   UNL A   1      42.652  30.803  36.506  1.00  0.00     0.031 C 
ATOM     72  C   UNL A   1      42.916  29.317  34.536  1.00  0.00     0.037 A 
BRANCH  59  73
ATOM     73  C   UNL A   1      40.482  27.869  29.046  1.00  0.00     0.064 A 
ATOM     74  C   UNL A   1      41.260  28.206  27.929  1.00  0.00     0.173 A 
ATOM     75  C   UNL A   1      39.712  26.697  28.979  1.00  0.00     0.173 A 
ATOM     76  F   UNL A   1      42.014  29.316  27.940  1.00  0.00    -0.203 F 
ATOM     77  C   UNL A   1      41.267  27.403  26.791  1.00  0.00     0.198 A 
ATOM     78  C   UNL A   1      39.746  25.880  27.852  1.00  0.00     0.198 A 
ATOM     79  F   UNL A   1      38.962  26.321  30.026  1.00  0.00    -0.203 F 
ATOM     80  F   UNL A   1      42.004  27.755  25.729  1.00  0.00    -0.200 F 
ATOM     81  C   UNL A   1      40.516  26.238  26.757  1.00  0.00     0.200 A 
ATOM     82  F   UNL A   1      39.043  24.739  27.834  1.00  0.00    -0.200 F 
ATOM     83  F   UNL A   1      40.541  25.454  25.669  1.00  0.00    -0.200 F 
ENDBRANCH  59  73
BRANCH  60  84
ATOM     84  C   UNL A   1      39.722  33.815  37.059  1.00  0.00     0.064 A 
ATOM     85  C   UNL A   1      38.953  33.440  38.170  1.00  0.00     0.173 A 
ATOM     86  C   UNL A   1      40.324  35.081  37.080  1.00  0.00     0.173 A 
ATOM     87  F   UNL A   1      38.351  32.241  38.196  1.00  0.00    -0.203 F 
ATOM     88  C   UNL A   1      38.770  34.308  39.245  1.00  0.00     0.198 A 
ATOM     89  C   UNL A   1      40.158  35.940  38.165  1.00  0.00     0.198 A 
ATOM     90  F   UNL A   1      41.083  35.477  36.048  1.00  0.00    -0.203 F 
ATOM     91  F   UNL A   1      37.999  33.939  40.278  1.00  0.00    -0.200 F 
ATOM     92  C   UNL A   1      39.373  35.557  39.243  1.00  0.00     0.200 A 
ATOM     93  F   UNL A   1      40.756  37.139  38.166  1.00  0.00    -0.200 F 
ATOM     94  F   UNL A   1      39.197  36.392  40.276  1.00  0.00    -0.200 F 
ENDBRANCH  60  84
BRANCH  72  95
ATOM     95  C   UNL A   1      44.090  28.678  35.214  1.00  0.00     0.064 A 
ATOM     96  C   UNL A   1      43.898  27.642  36.140  1.00  0.00     0.173 A 
ATOM     97  C   UNL A   1      45.390  29.167  35.029  1.00  0.00     0.173 A 
ATOM     98  F   UNL A   1      42.669  27.148  36.358  1.00  0.00    -0.203 F 
ATOM     99  C   UNL A   1      44.965  27.133  36.874  1.00  0.00     0.198 A 
ATOM    100  C   UNL A   1      46.459  28.639  35.747  1.00  0.00     0.198 A 
ATOM    101  F   UNL A   1      45.622  30.150  34.147  1.00  0.00    -0.203 F 
ATOM    102  F   UNL A   1      44.754  26.172  37.784  1.00  0.00    -0.200 F 
ATOM    103  C   UNL A   1      46.244  27.632  36.677  1.00  0.00     0.200 A 
ATOM    104  F   UNL A   1      47.698  29.109  35.543  1.00  0.00    -0.200 F 
ATOM    105  F   UNL A   1      47.272  27.143  37.385  1.00  0.00    -0.200 F 
ENDBRANCH  72  95
ENDBRANCH  46  47
ENDBRANCH  38  41
ENDBRANCH  36  37
ENDBRANCH  35  36
ENDBRANCH  34  35
ENDBRANCH  33  34
ENDBRANCH   1  33
TORSDOF 18
ENDMDL
MODEL 3
REMARK VINA RESULT:     -12.5      1.568      3.912
REMARK SMILES O=C(CCC(=O)N1N=C(c2ccc(F)cc2)C[C@@H]1c1ccc2nccnc2c1)NCCCCCCNC(=O)c1ccc(-c2c3nc(c(-c4c(F)c(F)c(F)c(F)c4F)c4ccc([nH]4)c(-c4c(F)c(F)c(F)c(F)c4F)c4nc(c(-c5c(F)c(F)c(F)c(F)c5F)c5ccc2[nH]5)C=C4)C=C3)cc1
REMARK SMILES IDX 31 1 30 2 29 3 1 4 2 5 3 7 4 8 5 9 6 10 7 11 8 12 18 13 9 14
REMARK SMILES IDX 17 15 19 16 20 17 28 18 21 19 27 20 22 21 26 22 23 23 25 24
REMARK SMILES IDX 24 25 10 26 11 27 16 28 12 29 15 30 13 31 14 32 32 33 33 34
REMARK SMILES IDX 34 35 35 36 36 37 37 38 38 40 39 41 40 42 101 43 41 44
REMARK SMILES IDX 100 45 42 46 43 47 44 48 94 49 45 50 99 51 93 52 95 53 46 54
REMARK SMILES IDX 98 55 92 56 91 57 47 59 79 60 59 61 78 62 60 63 63 64 77 65
REMARK SMILES IDX 96 66 61 67 62 68 76 70 97 71 64 72 48 73 49 74 57 75 50 76
REMARK SMILES IDX 51 77 55 78 58 79 52 80 53 81 56 82 54 83 80 84 81 85 89 86
REMARK SMILES IDX 82 87 83 88 87 89 90 90 84 91 85 92 88 93 86 94 65 95 66 96
REMARK SMILES IDX 74 97 67 98 68 99 72 100 75 101 69 102 70 103 73 104 71 105
REMARK H PARENT 29 6 36 39 95 58 63 69
REMARK Flexibility Score: inf
ROOT
ATOM      1  C   UNL A   1      29.895  29.833  23.405  1.00  0.00     0.021 C 
ENDROOT
BRANCH   1   2
ATOM      2  C   UNL A   1      30.286  28.320  23.307  1.00  0.00     0.116 C 
BRANCH   2   3
ATOM      3  N   UNL A   1      31.144  27.805  22.229  1.00  0.00    -0.356 N 
ATOM      4  O   UNL A   1      33.072  28.780  23.016  1.00  0.00    -0.275 OA
ATOM      5  C   UNL A   1      32.535  27.984  22.252  1.00  0.00     0.220 C 
ATOM      6  H   UNL A   1      30.733  27.323  21.474  1.00  0.00     0.163 HD
BRANCH   5   7
ATOM      7  C   UNL A   1      33.371  26.997  21.384  1.00  0.00     0.110 C 
BRANCH   7   8
ATOM      8  C   UNL A   1      32.665  25.623  21.173  1.00  0.00     0.112 C 
BRANCH   8   9
ATOM      9  C   UNL A   1      33.027  24.249  21.843  1.00  0.00     0.243 C 
ATOM     10  O   UNL A   1      33.404  23.325  21.111  1.00  0.00    -0.273 OA
BRANCH   9  11
ATOM     11  N   UNL A   1      33.146  24.162  23.226  1.00  0.00    -0.225 N 
ATOM     12  N   UNL A   1      33.717  25.255  23.933  1.00  0.00    -0.174 NA
ATOM     13  C   UNL A   1      32.224  23.449  24.071  1.00  0.00     0.147 C 
ATOM     14  C   UNL A   1      32.945  25.430  24.968  1.00  0.00     0.071 C 
ATOM     15  C   UNL A   1      31.735  24.569  24.959  1.00  0.00     0.091 C 
BRANCH  13  16
ATOM     16  C   UNL A   1      32.571  21.997  24.386  1.00  0.00    -0.021 A 
ATOM     17  C   UNL A   1      32.751  21.655  25.736  1.00  0.00     0.008 A 
ATOM     18  C   UNL A   1      32.502  20.914  23.504  1.00  0.00     0.036 A 
ATOM     19  C   UNL A   1      32.882  20.353  26.203  1.00  0.00     0.031 A 
ATOM     20  C   UNL A   1      32.605  19.574  23.949  1.00  0.00     0.089 A 
ATOM     21  C   UNL A   1      32.807  19.307  25.330  1.00  0.00     0.089 A 
ATOM     22  N   UNL A   1      32.482  18.536  23.099  1.00  0.00    -0.253 NA
ATOM     23  N   UNL A   1      32.900  18.072  25.850  1.00  0.00    -0.253 NA
ATOM     24  C   UNL A   1      32.557  17.289  23.634  1.00  0.00     0.132 A 
ATOM     25  C   UNL A   1      32.768  17.062  24.978  1.00  0.00     0.132 A 
ENDBRANCH  13  16
BRANCH  14  26
ATOM     26  C   UNL A   1      32.978  26.490  25.987  1.00  0.00    -0.002 A 
ATOM     27  C   UNL A   1      31.793  26.877  26.623  1.00  0.00     0.013 A 
ATOM     28  C   UNL A   1      34.116  27.304  26.064  1.00  0.00     0.013 A 
ATOM     29  C   UNL A   1      31.757  28.068  27.359  1.00  0.00     0.040 A 
ATOM     30  C   UNL A   1      34.074  28.493  26.801  1.00  0.00     0.040 A 
ATOM     31  C   UNL A   1      32.896  28.865  27.440  1.00  0.00     0.123 A 
ATOM     32  F   UNL A   1      32.846  30.021  28.116  1.00  0.00    -0.207 F 
ENDBRANCH  14  26
ENDBRANCH   9  11
ENDBRANCH   8   9
ENDBRANCH   7   8
ENDBRANCH   5   7
ENDBRANCH   2   3
ENDBRANCH   1   2
BRANCH   1  33
ATOM     33  C   UNL A   1      29.941  30.840  24.594  1.00  0.00     0.002 C 
BRANCH  33  34
ATOM     34  C   UNL A   1      31.129  31.141  25.526  1.00  0.00     0.002 C 
BRANCH  34  35
ATOM     35  C   UNL A   1      31.011  32.405  26.374  1.00  0.00     0.021 C 
BRANCH  35  36
ATOM     36  C   UNL A   1      32.376  32.846  26.887  1.00  0.00     0.116 C 
BRANCH  36  37
ATOM     37  N   UNL A   1      32.344  34.136  27.577  1.00  0.00    -0.352 N 
ATOM     38  C   UNL A   1      33.248  34.608  28.511  1.00  0.00     0.251 C 
ATOM     39  H   UNL A   1      31.596  34.735  27.351  1.00  0.00     0.163 HD
ATOM     40  O   UNL A   1      33.080  35.655  29.104  1.00  0.00    -0.269 OA
BRANCH  38  41
ATOM     41  C   UNL A   1      34.418  33.753  28.800  1.00  0.00     0.039 A 
ATOM     42  C   UNL A   1      35.703  34.264  28.615  1.00  0.00     0.014 A 
ATOM     43  C   UNL A   1      34.214  32.516  29.413  1.00  0.00     0.014 A 
ATOM     44  C   UNL A   1      36.792  33.566  29.140  1.00  0.00     0.010 A 
ATOM     45  C   UNL A   1      35.283  31.881  30.024  1.00  0.00     0.010 A 
ATOM     46  C   UNL A   1      36.581  32.399  29.894  1.00  0.00    -0.014 A 
BRANCH  46  47
ATOM     47  C   UNL A   1      37.700  31.681  30.550  1.00  0.00     0.031 A 
ATOM     48  C   UNL A   1      38.086  32.050  31.953  1.00  0.00     0.074 A 
ATOM     49  C   UNL A   1      38.422  30.782  29.855  1.00  0.00     0.049 A 
ATOM     50  N   UNL A   1      39.104  31.644  32.666  1.00  0.00    -0.248 NA
ATOM     51  C   UNL A   1      37.242  33.050  32.629  1.00  0.00     0.031 C 
ATOM     52  C   UNL A   1      38.184  30.396  28.463  1.00  0.00     0.029 A 
ATOM     53  N   UNL A   1      39.514  30.036  30.223  1.00  0.00    -0.354 N 
ATOM     54  C   UNL A   1      39.038  32.363  33.851  1.00  0.00     0.074 A 
ATOM     55  C   UNL A   1      37.925  33.276  33.740  1.00  0.00     0.031 C 
ATOM     56  C   UNL A   1      39.077  29.459  28.107  1.00  0.00     0.029 A 
ATOM     57  C   UNL A   1      39.975  29.206  29.231  1.00  0.00     0.049 A 
ATOM     58  H   UNL A   1      39.927  30.091  31.115  1.00  0.00     0.167 HD
ATOM     59  C   UNL A   1      39.820  32.246  34.949  1.00  0.00     0.037 A 
ATOM     60  C   UNL A   1      41.004  28.337  29.231  1.00  0.00     0.037 A 
ATOM     61  C   UNL A   1      40.880  31.286  35.074  1.00  0.00     0.049 A 
ATOM     62  C   UNL A   1      41.832  28.189  30.477  1.00  0.00     0.074 A 
ATOM     63  C   UNL A   1      41.666  31.008  36.178  1.00  0.00     0.029 A 
ATOM     64  N   UNL A   1      41.297  30.436  34.058  1.00  0.00    -0.354 N 
ATOM     65  N   UNL A   1      41.722  28.825  31.620  1.00  0.00    -0.248 NA
ATOM     66  C   UNL A   1      42.926  27.209  30.440  1.00  0.00     0.031 C 
ATOM     67  C   UNL A   1      42.584  30.019  35.819  1.00  0.00     0.029 A 
ATOM     68  C   UNL A   1      42.344  29.648  34.504  1.00  0.00     0.049 A 
ATOM     69  H   UNL A   1      40.906  30.400  33.156  1.00  0.00     0.167 HD
ATOM     70  C   UNL A   1      42.717  28.314  32.441  1.00  0.00     0.074 A 
ATOM     71  C   UNL A   1      43.416  27.306  31.669  1.00  0.00     0.031 C 
ATOM     72  C   UNL A   1      43.024  28.653  33.716  1.00  0.00     0.037 A 
BRANCH  59  73
ATOM     73  C   UNL A   1      39.540  33.161  36.103  1.00  0.00     0.064 A 
ATOM     74  C   UNL A   1      40.198  34.395  36.208  1.00  0.00     0.173 A 
ATOM     75  C   UNL A   1      38.643  32.807  37.124  1.00  0.00     0.173 A 
ATOM     76  F   UNL A   1      41.066  34.782  35.261  1.00  0.00    -0.203 F 
ATOM     77  C   UNL A   1      39.969  35.241  37.291  1.00  0.00     0.198 A 
ATOM     78  C   UNL A   1      38.393  33.669  38.188  1.00  0.00     0.198 A 
ATOM     79  F   UNL A   1      37.976  31.645  37.063  1.00  0.00    -0.203 F 
ATOM     80  F   UNL A   1      40.624  36.406  37.380  1.00  0.00    -0.200 F 
ATOM     81  C   UNL A   1      39.062  34.880  38.275  1.00  0.00     0.200 A 
ATOM     82  F   UNL A   1      37.491  33.332  39.122  1.00  0.00    -0.200 F 
ATOM     83  F   UNL A   1      38.825  35.705  39.305  1.00  0.00    -0.200 F 
ENDBRANCH  59  73
BRANCH  60  84
ATOM     84  C   UNL A   1      41.261  27.510  28.025  1.00  0.00     0.064 A 
ATOM     85  C   UNL A   1      40.701  26.232  27.878  1.00  0.00     0.173 A 
ATOM     86  C   UNL A   1      42.127  27.962  27.020  1.00  0.00     0.173 A 
ATOM     87  F   UNL A   1      39.872  25.750  28.816  1.00  0.00    -0.203 F 
ATOM     88  C   UNL A   1      41.018  25.430  26.783  1.00  0.00     0.198 A 
ATOM     89  C   UNL A   1      42.426  27.168  25.915  1.00  0.00     0.198 A 
ATOM     90  F   UNL A   1      42.673  29.184  27.108  1.00  0.00    -0.203 F 
ATOM     91  F   UNL A   1      40.499  24.198  26.686  1.00  0.00    -0.200 F 
ATOM     92  C   UNL A   1      41.880  25.897  25.803  1.00  0.00     0.200 A 
ATOM     93  F   UNL A   1      43.246  27.630  24.962  1.00  0.00    -0.200 F 
ATOM     94  F   UNL A   1      42.185  25.126  24.751  1.00  0.00    -0.200 F 
ENDBRANCH  60  84
BRANCH  72  95
ATOM     95  C   UNL A   1      44.163  27.932  34.371  1.00  0.00     0.064 A 
ATOM     96  C   UNL A   1      43.937  26.742  35.080  1.00  0.00     0.173 A 
ATOM     97  C   UNL A   1      45.454  28.477  34.390  1.00  0.00     0.173 A 
ATOM     98  F   UNL A   1      42.715  26.188  35.099  1.00  0.00    -0.203 F 
ATOM     99  C   UNL A   1      44.959  26.136  35.804  1.00  0.00     0.198 A 
ATOM    100  C   UNL A   1      46.480  27.855  35.094  1.00  0.00     0.198 A 
ATOM    101  F   UNL A   1      45.718  29.608  33.719  1.00  0.00    -0.203 F 
ATOM    102  F   UNL A   1      44.712  25.023  36.508  1.00  0.00    -0.200 F 
ATOM    103  C   UNL A   1      46.230  26.693  35.810  1.00  0.00     0.200 A 
ATOM    104  F   UNL A   1      47.712  28.384  35.086  1.00  0.00    -0.200 F 
ATOM    105  F   UNL A   1      47.214  26.111  36.508  1.00  0.00    -0.200 F 
ENDBRANCH  72  95
ENDBRANCH  46  47
ENDBRANCH  38  41
ENDBRANCH  36  37
ENDBRANCH  35  36
ENDBRANCH  34  35
ENDBRANCH  33  34
ENDBRANCH   1  33
TORSDOF 18
ENDMDL
