MODEL 1
REMARK VINA RESULT:     -10.8      0.000      0.000
REMARK SMILES CCn1nccc1[C@H](F)C(=O)NCCCCCCNC(=O)c1ccc(-c2c3nc(c(-c4c(F)c(F)c(F)c(F)c4F)c4ccc([nH]4)c(-c4c(F)c(F)c(F)c(F)c4F)c4nc(c(-c5c(F)c(F)c(F)c(F)c5F)c5ccc2[nH]5)C=C4)C=C3)cc1
REMARK SMILES IDX 15 1 14 2 13 3 12 4 10 5 11 6 8 8 9 9 7 10 3 11 4 12 5 13
REMARK SMILES IDX 6 14 2 15 1 16 16 17 17 18 18 19 19 20 20 21 21 23 22 24
REMARK SMILES IDX 23 25 84 26 24 27 83 28 25 29 26 30 27 31 77 32 28 33 82 34
REMARK SMILES IDX 76 35 78 36 29 37 81 38 75 39 74 40 30 42 62 43 42 44 61 45
REMARK SMILES IDX 43 46 46 47 60 48 79 49 44 50 45 51 59 53 80 54 47 55 31 56
REMARK SMILES IDX 32 57 40 58 33 59 34 60 38 61 41 62 35 63 36 64 39 65 37 66
REMARK SMILES IDX 63 67 64 68 72 69 65 70 66 71 70 72 73 73 67 74 68 75 71 76
REMARK SMILES IDX 69 77 48 78 49 79 57 80 50 81 51 82 55 83 58 84 52 85 53 86
REMARK SMILES IDX 56 87 54 88
REMARK H PARENT 12 7 19 22 78 41 46 52
REMARK Flexibility Score: inf
ROOT
ATOM      1  C   UNL A   1      40.406  21.497  27.215  1.00  0.00     0.002 C 
ENDROOT
BRANCH   1   2
ATOM      2  C   UNL A   1      39.602  21.343  25.918  1.00  0.00     0.021 C 
BRANCH   2   3
ATOM      3  C   UNL A   1      38.300  22.138  25.840  1.00  0.00     0.116 C 
BRANCH   3   4
ATOM      4  N   UNL A   1      37.840  22.322  24.478  1.00  0.00    -0.353 N 
ATOM      5  C   UNL A   1      36.596  22.688  24.047  1.00  0.00     0.260 C 
ATOM      6  O   UNL A   1      36.454  22.909  22.839  1.00  0.00    -0.271 OA
ATOM      7  H   UNL A   1      38.510  22.163  23.774  1.00  0.00     0.163 HD
BRANCH   5   8
ATOM      8  C   UNL A   1      35.438  22.850  25.027  1.00  0.00     0.303 C 
ATOM      9  F   UNL A   1      35.445  24.110  25.572  1.00  0.00    -0.230 F 
BRANCH   8  10
ATOM     10  C   UNL A   1      34.062  22.559  24.495  1.00  0.00     0.082 A 
ATOM     11  N   UNL A   1      33.416  21.348  24.351  1.00  0.00    -0.266 N 
ATOM     12  N   UNL A   1      32.209  21.479  23.756  1.00  0.00    -0.181 NA
ATOM     13  C   UNL A   1      32.030  22.791  23.633  1.00  0.00     0.135 A 
ATOM     14  C   UNL A   1      33.144  23.509  24.072  1.00  0.00     0.049 A 
BRANCH  11  15
ATOM     15  C   UNL A   1      33.869  19.997  24.645  1.00  0.00     0.141 C 
ATOM     16  C   UNL A   1      32.874  19.129  25.401  1.00  0.00     0.029 C 
ENDBRANCH  11  15
ENDBRANCH   8  10
ENDBRANCH   5   8
ENDBRANCH   3   4
ENDBRANCH   2   3
ENDBRANCH   1   2
BRANCH   1  17
ATOM     17  C   UNL A   1      41.640  20.605  27.387  1.00  0.00     0.002 C 
BRANCH  17  18
ATOM     18  C   UNL A   1      41.935  19.591  26.276  1.00  0.00     0.021 C 
BRANCH  18  19
ATOM     19  C   UNL A   1      43.285  18.887  26.369  1.00  0.00     0.116 C 
BRANCH  19  20
ATOM     20  N   UNL A   1      44.002  18.832  25.098  1.00  0.00    -0.352 N 
ATOM     21  C   UNL A   1      44.357  19.885  24.285  1.00  0.00     0.251 C 
ATOM     22  H   UNL A   1      44.263  17.936  24.784  1.00  0.00     0.163 HD
ATOM     23  O   UNL A   1      44.628  19.703  23.091  1.00  0.00    -0.269 OA
BRANCH  21  24
ATOM     24  C   UNL A   1      44.397  21.245  24.844  1.00  0.00     0.039 A 
ATOM     25  C   UNL A   1      43.464  22.210  24.462  1.00  0.00     0.014 A 
ATOM     26  C   UNL A   1      45.356  21.532  25.810  1.00  0.00     0.014 A 
ATOM     27  C   UNL A   1      43.442  23.434  25.131  1.00  0.00     0.010 A 
ATOM     28  C   UNL A   1      45.254  22.689  26.552  1.00  0.00     0.010 A 
ATOM     29  C   UNL A   1      44.320  23.664  26.203  1.00  0.00    -0.014 A 
BRANCH  29  30
ATOM     30  C   UNL A   1      44.185  24.875  27.020  1.00  0.00     0.031 A 
ATOM     31  C   UNL A   1      45.201  25.953  26.797  1.00  0.00     0.074 A 
ATOM     32  C   UNL A   1      43.091  25.154  27.762  1.00  0.00     0.049 A 
ATOM     33  N   UNL A   1      45.961  26.534  27.671  1.00  0.00    -0.248 NA
ATOM     34  C   UNL A   1      45.416  26.424  25.420  1.00  0.00     0.031 C 
ATOM     35  C   UNL A   1      41.838  24.399  27.866  1.00  0.00     0.029 A 
ATOM     36  N   UNL A   1      42.829  26.271  28.500  1.00  0.00    -0.354 N 
ATOM     37  C   UNL A   1      46.649  27.540  26.991  1.00  0.00     0.074 A 
ATOM     38  C   UNL A   1      46.347  27.364  25.593  1.00  0.00     0.031 C 
ATOM     39  C   UNL A   1      40.882  25.184  28.409  1.00  0.00     0.029 A 
ATOM     40  C   UNL A   1      41.497  26.421  28.853  1.00  0.00     0.049 A 
ATOM     41  H   UNL A   1      43.527  26.917  28.759  1.00  0.00     0.167 HD
ATOM     42  C   UNL A   1      47.281  28.558  27.643  1.00  0.00     0.037 A 
ATOM     43  C   UNL A   1      40.924  27.497  29.442  1.00  0.00     0.037 A 
ATOM     44  C   UNL A   1      47.540  28.231  29.019  1.00  0.00     0.049 A 
ATOM     45  C   UNL A   1      42.002  28.293  30.072  1.00  0.00     0.074 A 
ATOM     46  C   UNL A   1      48.234  27.223  29.664  1.00  0.00     0.029 A 
ATOM     47  N   UNL A   1      46.776  28.816  29.999  1.00  0.00    -0.354 N 
ATOM     48  N   UNL A   1      42.677  27.913  31.119  1.00  0.00    -0.248 NA
ATOM     49  C   UNL A   1      42.605  29.360  29.289  1.00  0.00     0.031 C 
ATOM     50  C   UNL A   1      47.453  26.922  30.819  1.00  0.00     0.029 A 
ATOM     51  C   UNL A   1      46.369  27.798  30.824  1.00  0.00     0.049 A 
ATOM     52  H   UNL A   1      46.563  29.772  30.090  1.00  0.00     0.167 HD
ATOM     53  C   UNL A   1      43.964  28.372  30.888  1.00  0.00     0.074 A 
ATOM     54  C   UNL A   1      43.833  29.348  29.811  1.00  0.00     0.031 C 
ATOM     55  C   UNL A   1      45.049  27.718  31.397  1.00  0.00     0.037 A 
BRANCH  42  56
ATOM     56  C   UNL A   1      47.399  29.968  27.116  1.00  0.00     0.064 A 
ATOM     57  C   UNL A   1      48.633  30.646  27.197  1.00  0.00     0.173 A 
ATOM     58  C   UNL A   1      46.283  30.776  26.809  1.00  0.00     0.173 A 
ATOM     59  F   UNL A   1      49.757  29.986  27.513  1.00  0.00    -0.203 F 
ATOM     60  C   UNL A   1      48.727  32.034  27.046  1.00  0.00     0.198 A 
ATOM     61  C   UNL A   1      46.389  32.152  26.605  1.00  0.00     0.198 A 
ATOM     62  F   UNL A   1      45.037  30.286  26.804  1.00  0.00    -0.203 F 
ATOM     63  F   UNL A   1      49.900  32.648  27.253  1.00  0.00    -0.200 F 
ATOM     64  C   UNL A   1      47.604  32.786  26.754  1.00  0.00     0.200 A 
ATOM     65  F   UNL A   1      45.285  32.866  26.344  1.00  0.00    -0.200 F 
ATOM     66  F   UNL A   1      47.681  34.120  26.668  1.00  0.00    -0.200 F 
ENDBRANCH  42  56
BRANCH  43  67
ATOM     67  C   UNL A   1      39.544  28.004  29.305  1.00  0.00     0.064 A 
ATOM     68  C   UNL A   1      38.705  28.124  30.424  1.00  0.00     0.173 A 
ATOM     69  C   UNL A   1      39.114  28.637  28.124  1.00  0.00     0.173 A 
ATOM     70  F   UNL A   1      39.061  27.579  31.596  1.00  0.00    -0.203 F 
ATOM     71  C   UNL A   1      37.523  28.866  30.375  1.00  0.00     0.198 A 
ATOM     72  C   UNL A   1      37.928  29.370  28.073  1.00  0.00     0.198 A 
ATOM     73  F   UNL A   1      39.883  28.639  27.026  1.00  0.00    -0.203 F 
ATOM     74  F   UNL A   1      36.782  29.016  31.482  1.00  0.00    -0.200 F 
ATOM     75  C   UNL A   1      37.141  29.498  29.203  1.00  0.00     0.200 A 
ATOM     76  F   UNL A   1      37.586  30.004  26.942  1.00  0.00    -0.200 F 
ATOM     77  F   UNL A   1      36.042  30.264  29.173  1.00  0.00    -0.200 F 
ENDBRANCH  43  67
BRANCH  55  78
ATOM     78  C   UNL A   1      44.810  26.655  32.432  1.00  0.00     0.064 A 
ATOM     79  C   UNL A   1      44.575  25.301  32.130  1.00  0.00     0.173 A 
ATOM     80  C   UNL A   1      44.943  26.996  33.783  1.00  0.00     0.173 A 
ATOM     81  F   UNL A   1      44.549  24.870  30.862  1.00  0.00    -0.203 F 
ATOM     82  C   UNL A   1      44.416  24.351  33.136  1.00  0.00     0.198 A 
ATOM     83  C   UNL A   1      44.825  26.037  34.787  1.00  0.00     0.198 A 
ATOM     84  F   UNL A   1      45.229  28.260  34.134  1.00  0.00    -0.203 F 
ATOM     85  F   UNL A   1      44.167  23.071  32.819  1.00  0.00    -0.200 F 
ATOM     86  C   UNL A   1      44.546  24.719  34.464  1.00  0.00     0.200 A 
ATOM     87  F   UNL A   1      45.003  26.388  36.068  1.00  0.00    -0.200 F 
ATOM     88  F   UNL A   1      44.427  23.800  35.432  1.00  0.00    -0.200 F 
ENDBRANCH  55  78
ENDBRANCH  29  30
ENDBRANCH  21  24
ENDBRANCH  19  20
ENDBRANCH  18  19
ENDBRANCH  17  18
ENDBRANCH   1  17
TORSDOF 15
ENDMDL
MODEL 2
REMARK VINA RESULT:     -10.5      4.135      9.324
REMARK SMILES CCn1nccc1[C@H](F)C(=O)NCCCCCCNC(=O)c1ccc(-c2c3nc(c(-c4c(F)c(F)c(F)c(F)c4F)c4ccc([nH]4)c(-c4c(F)c(F)c(F)c(F)c4F)c4nc(c(-c5c(F)c(F)c(F)c(F)c5F)c5ccc2[nH]5)C=C4)C=C3)cc1
REMARK SMILES IDX 15 1 14 2 13 3 12 4 10 5 11 6 8 8 9 9 7 10 3 11 4 12 5 13
REMARK SMILES IDX 6 14 2 15 1 16 16 17 17 18 18 19 19 20 20 21 21 23 22 24
REMARK SMILES IDX 23 25 84 26 24 27 83 28 25 29 26 30 27 31 77 32 28 33 82 34
REMARK SMILES IDX 76 35 78 36 29 37 81 38 75 39 74 40 30 42 62 43 42 44 61 45
REMARK SMILES IDX 43 46 46 47 60 48 79 49 44 50 45 51 59 53 80 54 47 55 31 56
REMARK SMILES IDX 32 57 40 58 33 59 34 60 38 61 41 62 35 63 36 64 39 65 37 66
REMARK SMILES IDX 63 67 64 68 72 69 65 70 66 71 70 72 73 73 67 74 68 75 71 76
REMARK SMILES IDX 69 77 48 78 49 79 57 80 50 81 51 82 55 83 58 84 52 85 53 86
REMARK SMILES IDX 56 87 54 88
REMARK H PARENT 12 7 19 22 78 41 46 52
REMARK Flexibility Score: inf
ROOT
ATOM      1  C   UNL A   1      33.674  27.501  25.851  1.00  0.00     0.002 C 
ENDROOT
BRANCH   1   2
ATOM      2  C   UNL A   1      33.578  26.179  25.079  1.00  0.00     0.021 C 
BRANCH   2   3
ATOM      3  C   UNL A   1      32.168  25.716  24.717  1.00  0.00     0.116 C 
BRANCH   3   4
ATOM      4  N   UNL A   1      31.840  25.962  23.326  1.00  0.00    -0.353 N 
ATOM      5  C   UNL A   1      31.175  27.027  22.790  1.00  0.00     0.260 C 
ATOM      6  O   UNL A   1      31.112  27.098  21.557  1.00  0.00    -0.271 OA
ATOM      7  H   UNL A   1      32.135  25.273  22.688  1.00  0.00     0.163 HD
BRANCH   5   8
ATOM      8  C   UNL A   1      30.562  28.105  23.680  1.00  0.00     0.303 C 
ATOM      9  F   UNL A   1      31.289  29.266  23.594  1.00  0.00    -0.230 F 
BRANCH   8  10
ATOM     10  C   UNL A   1      29.111  28.422  23.450  1.00  0.00     0.082 A 
ATOM     11  N   UNL A   1      28.528  29.589  23.000  1.00  0.00    -0.266 N 
ATOM     12  N   UNL A   1      27.178  29.521  23.000  1.00  0.00    -0.181 NA
ATOM     13  C   UNL A   1      26.900  28.264  23.334  1.00  0.00     0.135 A 
ATOM     14  C   UNL A   1      28.056  27.537  23.626  1.00  0.00     0.049 A 
BRANCH  11  15
ATOM     15  C   UNL A   1      29.130  30.861  22.633  1.00  0.00     0.141 C 
ATOM     16  C   UNL A   1      28.795  32.027  23.552  1.00  0.00     0.029 C 
ENDBRANCH  11  15
ENDBRANCH   8  10
ENDBRANCH   5   8
ENDBRANCH   3   4
ENDBRANCH   2   3
ENDBRANCH   1   2
BRANCH   1  17
ATOM     17  C   UNL A   1      32.496  27.868  26.761  1.00  0.00     0.002 C 
BRANCH  17  18
ATOM     18  C   UNL A   1      32.403  29.323  27.238  1.00  0.00     0.021 C 
BRANCH  18  19
ATOM     19  C   UNL A   1      33.686  30.138  27.116  1.00  0.00     0.116 C 
BRANCH  19  20
ATOM     20  N   UNL A   1      33.699  31.333  27.956  1.00  0.00    -0.352 N 
ATOM     21  C   UNL A   1      34.659  31.711  28.867  1.00  0.00     0.251 C 
ATOM     22  H   UNL A   1      32.931  31.941  27.859  1.00  0.00     0.163 HD
ATOM     23  O   UNL A   1      34.400  32.526  29.762  1.00  0.00    -0.269 OA
BRANCH  21  24
ATOM     24  C   UNL A   1      36.004  31.121  28.783  1.00  0.00     0.039 A 
ATOM     25  C   UNL A   1      37.148  31.916  28.878  1.00  0.00     0.014 A 
ATOM     26  C   UNL A   1      36.111  29.740  28.661  1.00  0.00     0.014 A 
ATOM     27  C   UNL A   1      38.397  31.300  28.949  1.00  0.00     0.010 A 
ATOM     28  C   UNL A   1      37.331  29.128  28.856  1.00  0.00     0.010 A 
ATOM     29  C   UNL A   1      38.488  29.898  28.971  1.00  0.00    -0.014 A 
BRANCH  29  30
ATOM     30  C   UNL A   1      39.779  29.246  29.221  1.00  0.00     0.031 A 
ATOM     31  C   UNL A   1      40.151  29.022  30.654  1.00  0.00     0.074 A 
ATOM     32  C   UNL A   1      40.509  28.644  28.255  1.00  0.00     0.049 A 
ATOM     33  N   UNL A   1      41.233  29.382  31.270  1.00  0.00    -0.248 NA
ATOM     34  C   UNL A   1      39.182  28.330  31.519  1.00  0.00     0.031 C 
ATOM     35  C   UNL A   1      40.174  28.453  26.840  1.00  0.00     0.029 A 
ATOM     36  N   UNL A   1      41.678  27.954  28.383  1.00  0.00    -0.354 N 
ATOM     37  C   UNL A   1      41.155  28.846  32.555  1.00  0.00     0.074 A 
ATOM     38  C   UNL A   1      39.831  28.292  32.684  1.00  0.00     0.031 C 
ATOM     39  C   UNL A   1      40.980  27.507  26.311  1.00  0.00     0.029 A 
ATOM     40  C   UNL A   1      41.993  27.162  27.290  1.00  0.00     0.049 A 
ATOM     41  H   UNL A   1      42.249  28.013  29.184  1.00  0.00     0.167 HD
ATOM     42  C   UNL A   1      42.246  28.740  33.367  1.00  0.00     0.037 A 
ATOM     43  C   UNL A   1      42.997  26.258  27.199  1.00  0.00     0.037 A 
ATOM     44  C   UNL A   1      43.307  29.618  32.952  1.00  0.00     0.049 A 
ATOM     45  C   UNL A   1      43.985  26.573  28.257  1.00  0.00     0.074 A 
ATOM     46  C   UNL A   1      43.423  30.984  32.770  1.00  0.00     0.029 A 
ATOM     47  N   UNL A   1      44.409  29.085  32.328  1.00  0.00    -0.354 N 
ATOM     48  N   UNL A   1      44.752  27.626  28.252  1.00  0.00    -0.248 NA
ATOM     49  C   UNL A   1      43.841  25.907  29.541  1.00  0.00     0.031 C 
ATOM     50  C   UNL A   1      44.251  31.132  31.618  1.00  0.00     0.029 A 
ATOM     51  C   UNL A   1      44.622  29.852  31.211  1.00  0.00     0.049 A 
ATOM     52  H   UNL A   1      44.937  28.310  32.624  1.00  0.00     0.167 HD
ATOM     53  C   UNL A   1      44.835  28.002  29.583  1.00  0.00     0.074 A 
ATOM     54  C   UNL A   1      44.353  26.848  30.336  1.00  0.00     0.031 C 
ATOM     55  C   UNL A   1      45.020  29.307  29.937  1.00  0.00     0.037 A 
BRANCH  42  56
ATOM     56  C   UNL A   1      42.468  27.625  34.361  1.00  0.00     0.064 A 
ATOM     57  C   UNL A   1      43.049  26.412  33.936  1.00  0.00     0.173 A 
ATOM     58  C   UNL A   1      41.867  27.596  35.637  1.00  0.00     0.173 A 
ATOM     59  F   UNL A   1      43.622  26.314  32.728  1.00  0.00    -0.203 F 
ATOM     60  C   UNL A   1      42.972  25.245  34.705  1.00  0.00     0.198 A 
ATOM     61  C   UNL A   1      41.840  26.445  36.425  1.00  0.00     0.198 A 
ATOM     62  F   UNL A   1      41.188  28.642  36.122  1.00  0.00    -0.203 F 
ATOM     63  F   UNL A   1      43.430  24.089  34.207  1.00  0.00    -0.200 F 
ATOM     64  C   UNL A   1      42.365  25.262  35.947  1.00  0.00     0.200 A 
ATOM     65  F   UNL A   1      41.228  26.476  37.617  1.00  0.00    -0.200 F 
ATOM     66  F   UNL A   1      42.237  24.135  36.658  1.00  0.00    -0.200 F 
ENDBRANCH  42  56
BRANCH  43  67
ATOM     67  C   UNL A   1      43.052  25.009  26.413  1.00  0.00     0.064 A 
ATOM     68  C   UNL A   1      43.972  24.857  25.364  1.00  0.00     0.173 A 
ATOM     69  C   UNL A   1      42.397  23.843  26.851  1.00  0.00     0.173 A 
ATOM     70  F   UNL A   1      44.664  25.914  24.914  1.00  0.00    -0.203 F 
ATOM     71  C   UNL A   1      44.248  23.605  24.810  1.00  0.00     0.198 A 
ATOM     72  C   UNL A   1      42.665  22.595  26.290  1.00  0.00     0.198 A 
ATOM     73  F   UNL A   1      41.556  23.878  27.895  1.00  0.00    -0.203 F 
ATOM     74  F   UNL A   1      45.183  23.488  23.856  1.00  0.00    -0.200 F 
ATOM     75  C   UNL A   1      43.603  22.473  25.281  1.00  0.00     0.200 A 
ATOM     76  F   UNL A   1      42.059  21.502  26.777  1.00  0.00    -0.200 F 
ATOM     77  F   UNL A   1      43.914  21.263  24.795  1.00  0.00    -0.200 F 
ENDBRANCH  43  67
BRANCH  55  78
ATOM     78  C   UNL A   1      45.404  30.283  28.861  1.00  0.00     0.064 A 
ATOM     79  C   UNL A   1      44.481  30.922  28.012  1.00  0.00     0.173 A 
ATOM     80  C   UNL A   1      46.744  30.677  28.763  1.00  0.00     0.173 A 
ATOM     81  F   UNL A   1      43.167  30.688  28.118  1.00  0.00    -0.203 F 
ATOM     82  C   UNL A   1      44.894  31.860  27.068  1.00  0.00     0.198 A 
ATOM     83  C   UNL A   1      47.149  31.646  27.847  1.00  0.00     0.198 A 
ATOM     84  F   UNL A   1      47.663  30.150  29.587  1.00  0.00    -0.203 F 
ATOM     85  F   UNL A   1      43.996  32.435  26.254  1.00  0.00    -0.200 F 
ATOM     86  C   UNL A   1      46.227  32.225  26.990  1.00  0.00     0.200 A 
ATOM     87  F   UNL A   1      48.431  32.033  27.810  1.00  0.00    -0.200 F 
ATOM     88  F   UNL A   1      46.621  33.152  26.106  1.00  0.00    -0.200 F 
ENDBRANCH  55  78
ENDBRANCH  29  30
ENDBRANCH  21  24
ENDBRANCH  19  20
ENDBRANCH  18  19
ENDBRANCH  17  18
ENDBRANCH   1  17
TORSDOF 15
ENDMDL
MODEL 3
REMARK VINA RESULT:     -10.4      3.638      9.080
REMARK SMILES CCn1nccc1[C@H](F)C(=O)NCCCCCCNC(=O)c1ccc(-c2c3nc(c(-c4c(F)c(F)c(F)c(F)c4F)c4ccc([nH]4)c(-c4c(F)c(F)c(F)c(F)c4F)c4nc(c(-c5c(F)c(F)c(F)c(F)c5F)c5ccc2[nH]5)C=C4)C=C3)cc1
REMARK SMILES IDX 15 1 14 2 13 3 12 4 10 5 11 6 8 8 9 9 7 10 3 11 4 12 5 13
REMARK SMILES IDX 6 14 2 15 1 16 16 17 17 18 18 19 19 20 20 21 21 23 22 24
REMARK SMILES IDX 23 25 84 26 24 27 83 28 25 29 26 30 27 31 77 32 28 33 82 34
REMARK SMILES IDX 76 35 78 36 29 37 81 38 75 39 74 40 30 42 62 43 42 44 61 45
REMARK SMILES IDX 43 46 46 47 60 48 79 49 44 50 45 51 59 53 80 54 47 55 31 56
REMARK SMILES IDX 32 57 40 58 33 59 34 60 38 61 41 62 35 63 36 64 39 65 37 66
REMARK SMILES IDX 63 67 64 68 72 69 65 70 66 71 70 72 73 73 67 74 68 75 71 76
REMARK SMILES IDX 69 77 48 78 49 79 57 80 50 81 51 82 55 83 58 84 52 85 53 86
REMARK SMILES IDX 56 87 54 88
REMARK H PARENT 12 7 19 22 78 41 46 52
REMARK Flexibility Score: inf
ROOT
ATOM      1  C   UNL A   1      32.284  28.341  26.157  1.00  0.00     0.002 C 
ENDROOT
BRANCH   1   2
ATOM      2  C   UNL A   1      33.510  27.435  26.326  1.00  0.00     0.021 C 
BRANCH   2   3
ATOM      3  C   UNL A   1      33.334  25.982  25.888  1.00  0.00     0.116 C 
BRANCH   3   4
ATOM      4  N   UNL A   1      32.143  25.372  26.446  1.00  0.00    -0.353 N 
ATOM      5  C   UNL A   1      31.114  24.763  25.785  1.00  0.00     0.260 C 
ATOM      6  O   UNL A   1      30.253  24.198  26.467  1.00  0.00    -0.271 OA
ATOM      7  H   UNL A   1      32.066  25.402  27.428  1.00  0.00     0.163 HD
BRANCH   5   8
ATOM      8  C   UNL A   1      31.052  24.755  24.260  1.00  0.00     0.303 C 
ATOM      9  F   UNL A   1      30.268  23.718  23.820  1.00  0.00    -0.230 F 
BRANCH   8  10
ATOM     10  C   UNL A   1      30.595  26.024  23.599  1.00  0.00     0.082 A 
ATOM     11  N   UNL A   1      31.229  26.795  22.644  1.00  0.00    -0.266 N 
ATOM     12  N   UNL A   1      30.537  27.918  22.349  1.00  0.00    -0.181 NA
ATOM     13  C   UNL A   1      29.398  27.804  23.025  1.00  0.00     0.135 A 
ATOM     14  C   UNL A   1      29.377  26.654  23.817  1.00  0.00     0.049 A 
BRANCH  11  15
ATOM     15  C   UNL A   1      32.527  26.627  22.010  1.00  0.00     0.141 C 
ATOM     16  C   UNL A   1      32.600  25.523  20.964  1.00  0.00     0.029 C 
ENDBRANCH  11  15
ENDBRANCH   8  10
ENDBRANCH   5   8
ENDBRANCH   3   4
ENDBRANCH   2   3
ENDBRANCH   1   2
BRANCH   1  17
ATOM     17  C   UNL A   1      32.052  29.414  27.226  1.00  0.00     0.002 C 
BRANCH  17  18
ATOM     18  C   UNL A   1      32.582  30.823  26.936  1.00  0.00     0.021 C 
BRANCH  18  19
ATOM     19  C   UNL A   1      33.996  31.108  27.433  1.00  0.00     0.116 C 
BRANCH  19  20
ATOM     20  N   UNL A   1      34.033  31.908  28.654  1.00  0.00    -0.352 N 
ATOM     21  C   UNL A   1      34.939  31.825  29.687  1.00  0.00     0.251 C 
ATOM     22  H   UNL A   1      33.327  32.587  28.751  1.00  0.00     0.163 HD
ATOM     23  O   UNL A   1      34.671  32.282  30.806  1.00  0.00    -0.269 OA
BRANCH  21  24
ATOM     24  C   UNL A   1      36.235  31.168  29.458  1.00  0.00     0.039 A 
ATOM     25  C   UNL A   1      37.376  31.910  29.148  1.00  0.00     0.014 A 
ATOM     26  C   UNL A   1      36.310  29.788  29.612  1.00  0.00     0.014 A 
ATOM     27  C   UNL A   1      38.611  31.263  29.092  1.00  0.00     0.010 A 
ATOM     28  C   UNL A   1      37.541  29.173  29.680  1.00  0.00     0.010 A 
ATOM     29  C   UNL A   1      38.699  29.893  29.391  1.00  0.00    -0.014 A 
BRANCH  29  30
ATOM     30  C   UNL A   1      40.011  29.247  29.506  1.00  0.00     0.031 A 
ATOM     31  C   UNL A   1      40.516  28.992  30.892  1.00  0.00     0.074 A 
ATOM     32  C   UNL A   1      40.653  28.674  28.462  1.00  0.00     0.049 A 
ATOM     33  N   UNL A   1      41.648  29.346  31.414  1.00  0.00    -0.248 NA
ATOM     34  C   UNL A   1      39.635  28.271  31.825  1.00  0.00     0.031 C 
ATOM     35  C   UNL A   1      40.191  28.514  27.080  1.00  0.00     0.029 A 
ATOM     36  N   UNL A   1      41.833  27.991  28.466  1.00  0.00    -0.354 N 
ATOM     37  C   UNL A   1      41.691  28.779  32.688  1.00  0.00     0.074 A 
ATOM     38  C   UNL A   1      40.389  28.212  32.924  1.00  0.00     0.031 C 
ATOM     39  C   UNL A   1      40.950  27.587  26.456  1.00  0.00     0.029 A 
ATOM     40  C   UNL A   1      42.051  27.227  27.329  1.00  0.00     0.049 A 
ATOM     41  H   UNL A   1      42.475  28.036  29.211  1.00  0.00     0.167 HD
ATOM     42  C   UNL A   1      42.854  28.664  33.393  1.00  0.00     0.037 A 
ATOM     43  C   UNL A   1      43.048  26.335  27.124  1.00  0.00     0.037 A 
ATOM     44  C   UNL A   1      43.867  29.560  32.904  1.00  0.00     0.049 A 
ATOM     45  C   UNL A   1      44.127  26.633  28.093  1.00  0.00     0.074 A 
ATOM     46  C   UNL A   1      43.956  30.931  32.746  1.00  0.00     0.029 A 
ATOM     47  N   UNL A   1      44.909  29.051  32.169  1.00  0.00    -0.354 N 
ATOM     48  N   UNL A   1      44.884  27.692  28.044  1.00  0.00    -0.248 NA
ATOM     49  C   UNL A   1      44.107  25.935  29.369  1.00  0.00     0.031 C 
ATOM     50  C   UNL A   1      44.673  31.113  31.526  1.00  0.00     0.029 A 
ATOM     51  C   UNL A   1      45.013  29.846  31.056  1.00  0.00     0.049 A 
ATOM     52  H   UNL A   1      45.467  28.273  32.395  1.00  0.00     0.167 HD
ATOM     53  C   UNL A   1      45.087  28.037  29.370  1.00  0.00     0.074 A 
ATOM     54  C   UNL A   1      44.684  26.861  30.136  1.00  0.00     0.031 C 
ATOM     55  C   UNL A   1      45.296  29.334  29.738  1.00  0.00     0.037 A 
BRANCH  42  56
ATOM     56  C   UNL A   1      43.173  27.528  34.335  1.00  0.00     0.064 A 
ATOM     57  C   UNL A   1      43.497  26.256  33.817  1.00  0.00     0.173 A 
ATOM     58  C   UNL A   1      42.887  27.564  35.717  1.00  0.00     0.173 A 
ATOM     59  F   UNL A   1      43.757  26.096  32.511  1.00  0.00    -0.203 F 
ATOM     60  C   UNL A   1      43.469  25.104  34.611  1.00  0.00     0.198 A 
ATOM     61  C   UNL A   1      42.914  26.422  36.517  1.00  0.00     0.198 A 
ATOM     62  F   UNL A   1      42.463  28.681  36.321  1.00  0.00    -0.203 F 
ATOM     63  F   UNL A   1      43.663  23.904  34.048  1.00  0.00    -0.200 F 
ATOM     64  C   UNL A   1      43.175  25.187  35.959  1.00  0.00     0.200 A 
ATOM     65  F   UNL A   1      42.605  26.520  37.817  1.00  0.00    -0.200 F 
ATOM     66  F   UNL A   1      43.090  24.080  36.707  1.00  0.00    -0.200 F 
ENDBRANCH  42  56
BRANCH  43  67
ATOM     67  C   UNL A   1      43.039  25.105  26.306  1.00  0.00     0.064 A 
ATOM     68  C   UNL A   1      43.991  24.904  25.295  1.00  0.00     0.173 A 
ATOM     69  C   UNL A   1      42.271  23.986  26.682  1.00  0.00     0.173 A 
ATOM     70  F   UNL A   1      44.785  25.911  24.906  1.00  0.00    -0.203 F 
ATOM     71  C   UNL A   1      44.189  23.647  24.717  1.00  0.00     0.198 A 
ATOM     72  C   UNL A   1      42.464  22.734  26.098  1.00  0.00     0.198 A 
ATOM     73  F   UNL A   1      41.389  24.064  27.688  1.00  0.00    -0.203 F 
ATOM     74  F   UNL A   1      45.155  23.478  23.803  1.00  0.00    -0.200 F 
ATOM     75  C   UNL A   1      43.434  22.561  25.128  1.00  0.00     0.200 A 
ATOM     76  F   UNL A   1      41.749  21.683  26.527  1.00  0.00    -0.200 F 
ATOM     77  F   UNL A   1      43.669  21.342  24.622  1.00  0.00    -0.200 F 
ENDBRANCH  43  67
BRANCH  55  78
ATOM     78  C   UNL A   1      45.573  30.339  28.655  1.00  0.00     0.064 A 
ATOM     79  C   UNL A   1      44.572  30.990  27.910  1.00  0.00     0.173 A 
ATOM     80  C   UNL A   1      46.895  30.747  28.444  1.00  0.00     0.173 A 
ATOM     81  F   UNL A   1      43.275  30.742  28.131  1.00  0.00    -0.203 F 
ATOM     82  C   UNL A   1      44.890  31.954  26.956  1.00  0.00     0.198 A 
ATOM     83  C   UNL A   1      47.208  31.740  27.518  1.00  0.00     0.198 A 
ATOM     84  F   UNL A   1      47.890  30.208  29.167  1.00  0.00    -0.203 F 
ATOM     85  F   UNL A   1      43.917  32.540  26.242  1.00  0.00    -0.200 F 
ATOM     86  C   UNL A   1      46.208  32.331  26.764  1.00  0.00     0.200 A 
ATOM     87  F   UNL A   1      48.480  32.139  27.373  1.00  0.00    -0.200 F 
ATOM     88  F   UNL A   1      46.513  33.283  25.870  1.00  0.00    -0.200 F 
ENDBRANCH  55  78
ENDBRANCH  29  30
ENDBRANCH  21  24
ENDBRANCH  19  20
ENDBRANCH  18  19
ENDBRANCH  17  18
ENDBRANCH   1  17
TORSDOF 15
ENDMDL
