MODEL 1
REMARK VINA RESULT:     -11.4      0.000      0.000
REMARK SMILES O=C(C[C@@H](NC(=O)C1CC=CC1)C1CC1)NCCCCCCNC(=O)c1ccc(-c2c3nc(c(-c4c(F)c(F)c(F)c(F)c4F)c4ccc([nH]4)c(-c4c(F)c(F)c(F)c(F)c4F)c4nc(c(-c5c(F)c(F)c(F)c(F)c5F)c5ccc2[nH]5)C=C4)C=C3)cc1
REMARK SMILES IDX 19 1 18 2 17 3 16 4 1 5 2 6 3 8 4 9 5 10 6 11 7 13 8 14 9 15
REMARK SMILES IDX 12 16 10 17 11 18 13 19 14 20 15 21 20 22 21 23 22 24 23 25
REMARK SMILES IDX 24 26 25 28 26 29 27 30 88 31 28 32 87 33 29 34 30 35 31 36
REMARK SMILES IDX 81 37 32 38 86 39 80 40 82 41 33 42 85 43 79 44 78 45 34 47
REMARK SMILES IDX 66 48 46 49 65 50 47 51 50 52 64 53 83 54 48 55 49 56 63 58
REMARK SMILES IDX 84 59 51 60 35 61 36 62 44 63 37 64 38 65 42 66 45 67 39 68
REMARK SMILES IDX 40 69 43 70 41 71 67 72 68 73 76 74 69 75 70 76 74 77 77 78
REMARK SMILES IDX 71 79 72 80 75 81 73 82 52 83 53 84 61 85 54 86 55 87 59 88
REMARK SMILES IDX 62 89 56 90 57 91 60 92 58 93
REMARK H PARENT 16 7 5 12 23 27 82 46 50 57
REMARK Flexibility Score: inf
ROOT
ATOM      1  C   UNL A   1      32.932  29.919  27.157  1.00  0.00     0.002 C 
ENDROOT
BRANCH   1   2
ATOM      2  C   UNL A   1      33.050  28.394  26.991  1.00  0.00     0.021 C 
BRANCH   2   3
ATOM      3  C   UNL A   1      31.780  27.620  27.361  1.00  0.00     0.116 C 
BRANCH   3   4
ATOM      4  N   UNL A   1      31.072  27.253  26.154  1.00  0.00    -0.356 N 
ATOM      5  O   UNL A   1      30.854  25.005  26.580  1.00  0.00    -0.275 OA
ATOM      6  C   UNL A   1      30.808  25.951  25.805  1.00  0.00     0.222 C 
ATOM      7  H   UNL A   1      30.765  27.971  25.553  1.00  0.00     0.163 HD
BRANCH   6   8
ATOM      8  C   UNL A   1      30.648  25.788  24.315  1.00  0.00     0.125 C 
BRANCH   8   9
ATOM      9  C   UNL A   1      31.582  26.551  23.354  1.00  0.00     0.094 C 
BRANCH   9  10
ATOM     10  N   UNL A   1      32.412  25.656  22.526  1.00  0.00    -0.352 N 
ATOM     11  C   UNL A   1      33.172  24.550  22.698  1.00  0.00     0.223 C 
ATOM     12  H   UNL A   1      32.413  25.944  21.585  1.00  0.00     0.163 HD
ATOM     13  O   UNL A   1      33.527  24.029  21.627  1.00  0.00    -0.275 OA
BRANCH  11  14
ATOM     14  C   UNL A   1      33.713  23.942  23.991  1.00  0.00     0.086 C 
ATOM     15  C   UNL A   1      34.702  22.795  23.746  1.00  0.00     0.040 C 
ATOM     16  C   UNL A   1      34.308  24.839  25.073  1.00  0.00     0.040 C 
ATOM     17  C   UNL A   1      35.872  23.141  24.607  1.00  0.00    -0.030 C 
ATOM     18  C   UNL A   1      35.660  24.248  25.324  1.00  0.00    -0.030 C 
ENDBRANCH  11  14
ENDBRANCH   9  10
BRANCH   9  19
ATOM     19  C   UNL A   1      30.747  27.469  22.488  1.00  0.00     0.012 C 
ATOM     20  C   UNL A   1      29.449  28.045  23.014  1.00  0.00     0.006 C 
ATOM     21  C   UNL A   1      30.580  28.968  22.681  1.00  0.00     0.006 C 
ENDBRANCH   9  19
ENDBRANCH   8   9
ENDBRANCH   6   8
ENDBRANCH   3   4
ENDBRANCH   2   3
ENDBRANCH   1   2
BRANCH   1  22
ATOM     22  C   UNL A   1      31.808  30.565  26.345  1.00  0.00     0.002 C 
BRANCH  22  23
ATOM     23  C   UNL A   1      31.532  32.025  26.702  1.00  0.00     0.021 C 
BRANCH  23  24
ATOM     24  C   UNL A   1      32.693  32.724  27.397  1.00  0.00     0.116 C 
BRANCH  24  25
ATOM     25  N   UNL A   1      32.423  34.132  27.640  1.00  0.00    -0.352 N 
ATOM     26  C   UNL A   1      33.007  34.967  28.559  1.00  0.00     0.251 C 
ATOM     27  H   UNL A   1      31.730  34.540  27.072  1.00  0.00     0.163 HD
ATOM     28  O   UNL A   1      32.551  36.086  28.773  1.00  0.00    -0.269 OA
BRANCH  26  29
ATOM     29  C   UNL A   1      34.184  34.491  29.314  1.00  0.00     0.039 A 
ATOM     30  C   UNL A   1      33.994  33.870  30.550  1.00  0.00     0.014 A 
ATOM     31  C   UNL A   1      35.467  34.625  28.779  1.00  0.00     0.014 A 
ATOM     32  C   UNL A   1      35.089  33.327  31.224  1.00  0.00     0.010 A 
ATOM     33  C   UNL A   1      36.544  34.015  29.412  1.00  0.00     0.010 A 
ATOM     34  C   UNL A   1      36.367  33.363  30.642  1.00  0.00    -0.014 A 
BRANCH  34  35
ATOM     35  C   UNL A   1      37.541  32.736  31.305  1.00  0.00     0.031 A 
ATOM     36  C   UNL A   1      38.255  31.595  30.632  1.00  0.00     0.074 A 
ATOM     37  C   UNL A   1      37.911  33.135  32.537  1.00  0.00     0.049 A 
ATOM     38  N   UNL A   1      39.219  30.836  31.089  1.00  0.00    -0.248 NA
ATOM     39  C   UNL A   1      37.806  31.239  29.276  1.00  0.00     0.031 C 
ATOM     40  C   UNL A   1      37.277  34.207  33.309  1.00  0.00     0.029 A 
ATOM     41  N   UNL A   1      38.902  32.673  33.370  1.00  0.00    -0.354 N 
ATOM     42  C   UNL A   1      39.471  29.904  30.091  1.00  0.00     0.074 A 
ATOM     43  C   UNL A   1      38.533  30.161  29.021  1.00  0.00     0.031 C 
ATOM     44  C   UNL A   1      37.901  34.328  34.491  1.00  0.00     0.029 A 
ATOM     45  C   UNL A   1      38.947  33.314  34.585  1.00  0.00     0.049 A 
ATOM     46  H   UNL A   1      39.521  31.951  33.119  1.00  0.00     0.167 HD
ATOM     47  C   UNL A   1      40.412  28.931  30.066  1.00  0.00     0.037 A 
ATOM     48  C   UNL A   1      39.731  33.094  35.659  1.00  0.00     0.037 A 
ATOM     49  C   UNL A   1      41.370  28.707  31.114  1.00  0.00     0.049 A 
ATOM     50  C   UNL A   1      40.758  31.992  35.602  1.00  0.00     0.074 A 
ATOM     51  C   UNL A   1      42.415  27.800  31.144  1.00  0.00     0.029 A 
ATOM     52  N   UNL A   1      41.399  29.393  32.319  1.00  0.00    -0.354 N 
ATOM     53  N   UNL A   1      41.041  31.170  34.621  1.00  0.00    -0.248 NA
ATOM     54  C   UNL A   1      41.580  31.788  36.804  1.00  0.00     0.031 C 
ATOM     55  C   UNL A   1      43.037  27.893  32.391  1.00  0.00     0.029 A 
ATOM     56  C   UNL A   1      42.425  28.905  33.112  1.00  0.00     0.049 A 
ATOM     57  H   UNL A   1      40.784  30.118  32.573  1.00  0.00     0.167 HD
ATOM     58  C   UNL A   1      42.097  30.389  35.069  1.00  0.00     0.074 A 
ATOM     59  C   UNL A   1      42.413  30.839  36.407  1.00  0.00     0.031 C 
ATOM     60  C   UNL A   1      42.749  29.386  34.430  1.00  0.00     0.037 A 
BRANCH  47  61
ATOM     61  C   UNL A   1      40.463  28.026  28.870  1.00  0.00     0.064 A 
ATOM     62  C   UNL A   1      39.709  26.845  28.804  1.00  0.00     0.173 A 
ATOM     63  C   UNL A   1      41.210  28.393  27.739  1.00  0.00     0.173 A 
ATOM     64  F   UNL A   1      38.987  26.444  29.861  1.00  0.00    -0.203 F 
ATOM     65  C   UNL A   1      39.711  26.059  27.655  1.00  0.00     0.198 A 
ATOM     66  C   UNL A   1      41.185  27.621  26.582  1.00  0.00     0.198 A 
ATOM     67  F   UNL A   1      41.944  29.515  27.748  1.00  0.00    -0.203 F 
ATOM     68  F   UNL A   1      39.008  24.918  27.625  1.00  0.00    -0.200 F 
ATOM     69  C   UNL A   1      40.438  26.453  26.541  1.00  0.00     0.200 A 
ATOM     70  F   UNL A   1      41.874  28.012  25.501  1.00  0.00    -0.200 F 
ATOM     71  F   UNL A   1      40.419  25.707  25.428  1.00  0.00    -0.200 F 
ENDBRANCH  47  61
BRANCH  48  72
ATOM     72  C   UNL A   1      39.585  33.922  36.888  1.00  0.00     0.064 A 
ATOM     73  C   UNL A   1      38.796  33.484  37.962  1.00  0.00     0.173 A 
ATOM     74  C   UNL A   1      40.176  35.189  36.992  1.00  0.00     0.173 A 
ATOM     75  F   UNL A   1      38.191  32.288  37.904  1.00  0.00    -0.203 F 
ATOM     76  C   UNL A   1      38.569  34.297  39.070  1.00  0.00     0.198 A 
ATOM     77  C   UNL A   1      39.978  35.987  38.116  1.00  0.00     0.198 A 
ATOM     78  F   UNL A   1      40.944  35.656  35.996  1.00  0.00    -0.203 F 
ATOM     79  F   UNL A   1      37.749  33.883  40.046  1.00  0.00    -0.200 F 
ATOM     80  C   UNL A   1      39.162  35.547  39.147  1.00  0.00     0.200 A 
ATOM     81  F   UNL A   1      40.566  37.189  38.194  1.00  0.00    -0.200 F 
ATOM     82  F   UNL A   1      38.934  36.335  40.207  1.00  0.00    -0.200 F 
ENDBRANCH  48  72
BRANCH  60  83
ATOM     83  C   UNL A   1      43.912  28.750  35.133  1.00  0.00     0.064 A 
ATOM     84  C   UNL A   1      45.215  29.254  35.017  1.00  0.00     0.173 A 
ATOM     85  C   UNL A   1      43.705  27.653  35.985  1.00  0.00     0.173 A 
ATOM     86  F   UNL A   1      45.469  30.291  34.206  1.00  0.00    -0.203 F 
ATOM     87  C   UNL A   1      46.272  28.669  35.710  1.00  0.00     0.198 A 
ATOM     88  C   UNL A   1      44.757  27.093  36.703  1.00  0.00     0.198 A 
ATOM     89  F   UNL A   1      42.475  27.138  36.138  1.00  0.00    -0.203 F 
ATOM     90  F   UNL A   1      47.517  29.136  35.549  1.00  0.00    -0.200 F 
ATOM     91  C   UNL A   1      46.040  27.597  36.560  1.00  0.00     0.200 A 
ATOM     92  F   UNL A   1      44.527  26.070  37.537  1.00  0.00    -0.200 F 
ATOM     93  F   UNL A   1      47.056  27.045  37.237  1.00  0.00    -0.200 F 
ENDBRANCH  60  83
ENDBRANCH  34  35
ENDBRANCH  26  29
ENDBRANCH  24  25
ENDBRANCH  23  24
ENDBRANCH  22  23
ENDBRANCH   1  22
TORSDOF 17
ENDMDL
MODEL 2
REMARK VINA RESULT:     -11.4      5.371     10.794
REMARK SMILES O=C(C[C@@H](NC(=O)C1CC=CC1)C1CC1)NCCCCCCNC(=O)c1ccc(-c2c3nc(c(-c4c(F)c(F)c(F)c(F)c4F)c4ccc([nH]4)c(-c4c(F)c(F)c(F)c(F)c4F)c4nc(c(-c5c(F)c(F)c(F)c(F)c5F)c5ccc2[nH]5)C=C4)C=C3)cc1
REMARK SMILES IDX 19 1 18 2 17 3 16 4 1 5 2 6 3 8 4 9 5 10 6 11 7 13 8 14 9 15
REMARK SMILES IDX 12 16 10 17 11 18 13 19 14 20 15 21 20 22 21 23 22 24 23 25
REMARK SMILES IDX 24 26 25 28 26 29 27 30 88 31 28 32 87 33 29 34 30 35 31 36
REMARK SMILES IDX 81 37 32 38 86 39 80 40 82 41 33 42 85 43 79 44 78 45 34 47
REMARK SMILES IDX 66 48 46 49 65 50 47 51 50 52 64 53 83 54 48 55 49 56 63 58
REMARK SMILES IDX 84 59 51 60 35 61 36 62 44 63 37 64 38 65 42 66 45 67 39 68
REMARK SMILES IDX 40 69 43 70 41 71 67 72 68 73 76 74 69 75 70 76 74 77 77 78
REMARK SMILES IDX 71 79 72 80 75 81 73 82 52 83 53 84 61 85 54 86 55 87 59 88
REMARK SMILES IDX 62 89 56 90 57 91 60 92 58 93
REMARK H PARENT 16 7 5 12 23 27 82 46 50 57
REMARK Flexibility Score: inf
ROOT
ATOM      1  C   UNL A   1      37.367  22.324  25.424  1.00  0.00     0.002 C 
ENDROOT
BRANCH   1   2
ATOM      2  C   UNL A   1      36.595  23.487  24.779  1.00  0.00     0.021 C 
BRANCH   2   3
ATOM      3  C   UNL A   1      35.117  23.559  25.177  1.00  0.00     0.116 C 
BRANCH   3   4
ATOM      4  N   UNL A   1      34.697  24.942  25.220  1.00  0.00    -0.356 N 
ATOM      5  O   UNL A   1      32.429  24.587  25.335  1.00  0.00    -0.275 OA
ATOM      6  C   UNL A   1      33.382  25.330  25.142  1.00  0.00     0.222 C 
ATOM      7  H   UNL A   1      35.387  25.640  25.308  1.00  0.00     0.163 HD
BRANCH   6   8
ATOM      8  C   UNL A   1      33.238  26.729  24.597  1.00  0.00     0.125 C 
BRANCH   8   9
ATOM      9  C   UNL A   1      32.071  27.619  25.067  1.00  0.00     0.094 C 
BRANCH   9  10
ATOM     10  N   UNL A   1      30.748  27.040  24.770  1.00  0.00    -0.352 N 
ATOM     11  C   UNL A   1      29.720  27.271  23.921  1.00  0.00     0.223 C 
ATOM     12  H   UNL A   1      30.560  26.269  25.352  1.00  0.00     0.163 HD
ATOM     13  O   UNL A   1      28.875  26.360  23.915  1.00  0.00    -0.275 OA
BRANCH  11  14
ATOM     14  C   UNL A   1      29.425  28.510  23.078  1.00  0.00     0.086 C 
ATOM     15  C   UNL A   1      27.933  28.683  22.766  1.00  0.00     0.040 C 
ATOM     16  C   UNL A   1      29.968  29.874  23.496  1.00  0.00     0.040 C 
ATOM     17  C   UNL A   1      27.654  30.104  23.130  1.00  0.00    -0.030 C 
ATOM     18  C   UNL A   1      28.753  30.748  23.527  1.00  0.00    -0.030 C 
ENDBRANCH  11  14
ENDBRANCH   9  10
BRANCH   9  19
ATOM     19  C   UNL A   1      32.225  27.882  26.550  1.00  0.00     0.012 C 
ATOM     20  C   UNL A   1      33.472  28.558  27.080  1.00  0.00     0.006 C 
ATOM     21  C   UNL A   1      32.149  29.242  27.226  1.00  0.00     0.006 C 
ENDBRANCH   9  19
ENDBRANCH   8   9
ENDBRANCH   6   8
ENDBRANCH   3   4
ENDBRANCH   2   3
ENDBRANCH   1   2
BRANCH   1  22
ATOM     22  C   UNL A   1      36.874  20.930  25.028  1.00  0.00     0.002 C 
BRANCH  22  23
ATOM     23  C   UNL A   1      37.964  19.861  24.997  1.00  0.00     0.021 C 
BRANCH  23  24
ATOM     24  C   UNL A   1      39.210  20.221  25.796  1.00  0.00     0.116 C 
BRANCH  24  25
ATOM     25  N   UNL A   1      40.170  19.130  25.842  1.00  0.00    -0.352 N 
ATOM     26  C   UNL A   1      41.522  19.192  26.069  1.00  0.00     0.251 C 
ATOM     27  H   UNL A   1      39.803  18.229  25.690  1.00  0.00     0.163 HD
ATOM     28  O   UNL A   1      42.235  18.206  25.901  1.00  0.00    -0.269 OA
BRANCH  26  29
ATOM     29  C   UNL A   1      42.120  20.473  26.496  1.00  0.00     0.039 A 
ATOM     30  C   UNL A   1      42.699  21.306  25.538  1.00  0.00     0.014 A 
ATOM     31  C   UNL A   1      42.071  20.861  27.838  1.00  0.00     0.014 A 
ATOM     32  C   UNL A   1      43.175  22.563  25.916  1.00  0.00     0.010 A 
ATOM     33  C   UNL A   1      42.473  22.143  28.197  1.00  0.00     0.010 A 
ATOM     34  C   UNL A   1      43.032  23.006  27.242  1.00  0.00    -0.014 A 
BRANCH  34  35
ATOM     35  C   UNL A   1      43.470  24.363  27.660  1.00  0.00     0.031 A 
ATOM     36  C   UNL A   1      42.442  25.399  28.022  1.00  0.00     0.074 A 
ATOM     37  C   UNL A   1      44.778  24.685  27.636  1.00  0.00     0.049 A 
ATOM     38  N   UNL A   1      42.605  26.669  28.298  1.00  0.00    -0.248 NA
ATOM     39  C   UNL A   1      41.037  24.958  28.051  1.00  0.00     0.031 C 
ATOM     40  C   UNL A   1      45.869  23.779  27.268  1.00  0.00     0.029 A 
ATOM     41  N   UNL A   1      45.415  25.872  27.908  1.00  0.00    -0.354 N 
ATOM     42  C   UNL A   1      41.330  27.178  28.505  1.00  0.00     0.074 A 
ATOM     43  C   UNL A   1      40.398  26.095  28.284  1.00  0.00     0.031 C 
ATOM     44  C   UNL A   1      47.037  24.437  27.352  1.00  0.00     0.029 A 
ATOM     45  C   UNL A   1      46.777  25.824  27.730  1.00  0.00     0.049 A 
ATOM     46  H   UNL A   1      44.939  26.682  28.202  1.00  0.00     0.167 HD
ATOM     47  C   UNL A   1      40.973  28.433  28.863  1.00  0.00     0.037 A 
ATOM     48  C   UNL A   1      47.706  26.793  27.841  1.00  0.00     0.037 A 
ATOM     49  C   UNL A   1      41.906  29.495  29.124  1.00  0.00     0.049 A 
ATOM     50  C   UNL A   1      47.271  28.184  28.227  1.00  0.00     0.074 A 
ATOM     51  C   UNL A   1      41.646  30.778  29.572  1.00  0.00     0.029 A 
ATOM     52  N   UNL A   1      43.280  29.400  28.956  1.00  0.00    -0.354 N 
ATOM     53  N   UNL A   1      46.071  28.632  28.499  1.00  0.00    -0.248 NA
ATOM     54  C   UNL A   1      48.324  29.205  28.324  1.00  0.00     0.031 C 
ATOM     55  C   UNL A   1      42.853  31.479  29.616  1.00  0.00     0.029 A 
ATOM     56  C   UNL A   1      43.875  30.613  29.262  1.00  0.00     0.049 A 
ATOM     57  H   UNL A   1      43.760  28.592  28.665  1.00  0.00     0.167 HD
ATOM     58  C   UNL A   1      46.231  29.968  28.843  1.00  0.00     0.074 A 
ATOM     59  C   UNL A   1      47.645  30.257  28.753  1.00  0.00     0.031 C 
ATOM     60  C   UNL A   1      45.289  30.876  29.200  1.00  0.00     0.037 A 
BRANCH  47  61
ATOM     61  C   UNL A   1      39.510  28.742  28.998  1.00  0.00     0.064 A 
ATOM     62  C   UNL A   1      38.847  28.653  30.230  1.00  0.00     0.173 A 
ATOM     63  C   UNL A   1      38.786  29.220  27.894  1.00  0.00     0.173 A 
ATOM     64  F   UNL A   1      39.491  28.193  31.313  1.00  0.00    -0.203 F 
ATOM     65  C   UNL A   1      37.509  29.019  30.350  1.00  0.00     0.198 A 
ATOM     66  C   UNL A   1      37.458  29.614  28.024  1.00  0.00     0.198 A 
ATOM     67  F   UNL A   1      39.376  29.330  26.694  1.00  0.00    -0.203 F 
ATOM     68  F   UNL A   1      36.885  28.896  31.530  1.00  0.00    -0.200 F 
ATOM     69  C   UNL A   1      36.819  29.510  29.251  1.00  0.00     0.200 A 
ATOM     70  F   UNL A   1      36.798  30.104  26.966  1.00  0.00    -0.200 F 
ATOM     71  F   UNL A   1      35.538  29.884  29.374  1.00  0.00    -0.200 F 
ENDBRANCH  47  61
BRANCH  48  72
ATOM     72  C   UNL A   1      49.143  26.500  27.582  1.00  0.00     0.064 A 
ATOM     73  C   UNL A   1      50.026  26.234  28.641  1.00  0.00     0.173 A 
ATOM     74  C   UNL A   1      49.678  26.539  26.287  1.00  0.00     0.173 A 
ATOM     75  F   UNL A   1      49.569  26.205  29.902  1.00  0.00    -0.203 F 
ATOM     76  C   UNL A   1      51.390  26.063  28.417  1.00  0.00     0.198 A 
ATOM     77  C   UNL A   1      51.037  26.332  26.060  1.00  0.00     0.198 A 
ATOM     78  F   UNL A   1      48.879  26.784  25.237  1.00  0.00    -0.203 F 
ATOM     79  F   UNL A   1      52.220  25.887  29.456  1.00  0.00    -0.200 F 
ATOM     80  C   UNL A   1      51.894  26.110  27.127  1.00  0.00     0.200 A 
ATOM     81  F   UNL A   1      51.518  26.363  24.810  1.00  0.00    -0.200 F 
ATOM     82  F   UNL A   1      53.208  25.959  26.914  1.00  0.00    -0.200 F 
ENDBRANCH  48  72
BRANCH  60  83
ATOM     83  C   UNL A   1      45.756  32.248  29.590  1.00  0.00     0.064 A 
ATOM     84  C   UNL A   1      46.145  32.556  30.901  1.00  0.00     0.173 A 
ATOM     85  C   UNL A   1      45.871  33.255  28.617  1.00  0.00     0.173 A 
ATOM     86  F   UNL A   1      46.042  31.634  31.870  1.00  0.00    -0.203 F 
ATOM     87  C   UNL A   1      46.611  33.826  31.229  1.00  0.00     0.198 A 
ATOM     88  C   UNL A   1      46.370  34.513  28.942  1.00  0.00     0.198 A 
ATOM     89  F   UNL A   1      45.521  33.010  27.345  1.00  0.00    -0.203 F 
ATOM     90  F   UNL A   1      46.933  34.112  32.498  1.00  0.00    -0.200 F 
ATOM     91  C   UNL A   1      46.733  34.800  30.248  1.00  0.00     0.200 A 
ATOM     92  F   UNL A   1      46.505  35.445  27.989  1.00  0.00    -0.200 F 
ATOM     93  F   UNL A   1      47.196  36.017  30.564  1.00  0.00    -0.200 F 
ENDBRANCH  60  83
ENDBRANCH  34  35
ENDBRANCH  26  29
ENDBRANCH  24  25
ENDBRANCH  23  24
ENDBRANCH  22  23
ENDBRANCH   1  22
TORSDOF 17
ENDMDL
MODEL 3
REMARK VINA RESULT:     -11.4      5.850     11.277
REMARK SMILES O=C(C[C@@H](NC(=O)C1CC=CC1)C1CC1)NCCCCCCNC(=O)c1ccc(-c2c3nc(c(-c4c(F)c(F)c(F)c(F)c4F)c4ccc([nH]4)c(-c4c(F)c(F)c(F)c(F)c4F)c4nc(c(-c5c(F)c(F)c(F)c(F)c5F)c5ccc2[nH]5)C=C4)C=C3)cc1
REMARK SMILES IDX 19 1 18 2 17 3 16 4 1 5 2 6 3 8 4 9 5 10 6 11 7 13 8 14 9 15
REMARK SMILES IDX 12 16 10 17 11 18 13 19 14 20 15 21 20 22 21 23 22 24 23 25
REMARK SMILES IDX 24 26 25 28 26 29 27 30 88 31 28 32 87 33 29 34 30 35 31 36
REMARK SMILES IDX 81 37 32 38 86 39 80 40 82 41 33 42 85 43 79 44 78 45 34 47
REMARK SMILES IDX 66 48 46 49 65 50 47 51 50 52 64 53 83 54 48 55 49 56 63 58
REMARK SMILES IDX 84 59 51 60 35 61 36 62 44 63 37 64 38 65 42 66 45 67 39 68
REMARK SMILES IDX 40 69 43 70 41 71 67 72 68 73 76 74 69 75 70 76 74 77 77 78
REMARK SMILES IDX 71 79 72 80 75 81 73 82 52 83 53 84 61 85 54 86 55 87 59 88
REMARK SMILES IDX 62 89 56 90 57 91 60 92 58 93
REMARK H PARENT 16 7 5 12 23 27 82 46 50 57
REMARK Flexibility Score: inf
ROOT
ATOM      1  C   UNL A   1      37.459  22.354  25.163  1.00  0.00     0.002 C 
ENDROOT
BRANCH   1   2
ATOM      2  C   UNL A   1      36.421  23.442  24.839  1.00  0.00     0.021 C 
BRANCH   2   3
ATOM      3  C   UNL A   1      35.794  23.321  23.446  1.00  0.00     0.116 C 
BRANCH   3   4
ATOM      4  N   UNL A   1      34.580  22.540  23.532  1.00  0.00    -0.356 N 
ATOM      5  O   UNL A   1      33.273  23.825  22.144  1.00  0.00    -0.275 OA
ATOM      6  C   UNL A   1      33.385  22.949  22.992  1.00  0.00     0.222 C 
ATOM      7  H   UNL A   1      34.610  21.674  24.000  1.00  0.00     0.163 HD
BRANCH   6   8
ATOM      8  C   UNL A   1      32.205  22.337  23.704  1.00  0.00     0.125 C 
BRANCH   8   9
ATOM      9  C   UNL A   1      32.387  21.732  25.110  1.00  0.00     0.094 C 
BRANCH   9  10
ATOM     10  N   UNL A   1      31.389  22.219  26.080  1.00  0.00    -0.352 N 
ATOM     11  C   UNL A   1      30.971  23.406  26.577  1.00  0.00     0.223 C 
ATOM     12  H   UNL A   1      30.887  21.472  26.477  1.00  0.00     0.163 HD
ATOM     13  O   UNL A   1      29.930  23.316  27.251  1.00  0.00    -0.275 OA
BRANCH  11  14
ATOM     14  C   UNL A   1      31.644  24.775  26.503  1.00  0.00     0.086 C 
ATOM     15  C   UNL A   1      33.176  24.689  26.473  1.00  0.00     0.040 C 
ATOM     16  C   UNL A   1      31.220  25.785  25.440  1.00  0.00     0.040 C 
ATOM     17  C   UNL A   1      33.561  25.559  25.323  1.00  0.00    -0.030 C 
ATOM     18  C   UNL A   1      32.504  26.150  24.761  1.00  0.00    -0.030 C 
ENDBRANCH  11  14
ENDBRANCH   9  10
BRANCH   9  19
ATOM     19  C   UNL A   1      32.343  20.223  25.001  1.00  0.00     0.012 C 
ATOM     20  C   UNL A   1      32.527  19.548  23.659  1.00  0.00     0.006 C 
ATOM     21  C   UNL A   1      33.533  19.314  24.742  1.00  0.00     0.006 C 
ENDBRANCH   9  19
ENDBRANCH   8   9
ENDBRANCH   6   8
ENDBRANCH   3   4
ENDBRANCH   2   3
ENDBRANCH   1   2
BRANCH   1  22
ATOM     22  C   UNL A   1      36.949  20.919  25.011  1.00  0.00     0.002 C 
BRANCH  22  23
ATOM     23  C   UNL A   1      38.048  19.858  25.002  1.00  0.00     0.021 C 
BRANCH  23  24
ATOM     24  C   UNL A   1      39.311  20.265  25.750  1.00  0.00     0.116 C 
BRANCH  24  25
ATOM     25  N   UNL A   1      40.239  19.156  25.908  1.00  0.00    -0.352 N 
ATOM     26  C   UNL A   1      41.593  19.203  26.128  1.00  0.00     0.251 C 
ATOM     27  H   UNL A   1      39.846  18.256  25.848  1.00  0.00     0.163 HD
ATOM     28  O   UNL A   1      42.277  18.185  26.061  1.00  0.00    -0.269 OA
BRANCH  26  29
ATOM     29  C   UNL A   1      42.228  20.503  26.423  1.00  0.00     0.039 A 
ATOM     30  C   UNL A   1      42.742  21.263  25.371  1.00  0.00     0.014 A 
ATOM     31  C   UNL A   1      42.277  20.982  27.735  1.00  0.00     0.014 A 
ATOM     32  C   UNL A   1      43.252  22.537  25.628  1.00  0.00     0.010 A 
ATOM     33  C   UNL A   1      42.713  22.280  27.976  1.00  0.00     0.010 A 
ATOM     34  C   UNL A   1      43.208  23.070  26.927  1.00  0.00    -0.014 A 
BRANCH  34  35
ATOM     35  C   UNL A   1      43.683  24.447  27.219  1.00  0.00     0.031 A 
ATOM     36  C   UNL A   1      42.712  25.481  27.720  1.00  0.00     0.074 A 
ATOM     37  C   UNL A   1      44.961  24.787  26.958  1.00  0.00     0.049 A 
ATOM     38  N   UNL A   1      42.894  26.761  27.922  1.00  0.00    -0.248 NA
ATOM     39  C   UNL A   1      41.343  25.020  28.006  1.00  0.00     0.031 C 
ATOM     40  C   UNL A   1      45.991  23.885  26.437  1.00  0.00     0.029 A 
ATOM     41  N   UNL A   1      45.610  25.993  27.077  1.00  0.00    -0.354 N 
ATOM     42  C   UNL A   1      41.663  27.259  28.330  1.00  0.00     0.074 A 
ATOM     43  C   UNL A   1      40.730  26.155  28.309  1.00  0.00     0.031 C 
ATOM     44  C   UNL A   1      47.141  24.563  26.296  1.00  0.00     0.029 A 
ATOM     45  C   UNL A   1      46.921  25.958  26.668  1.00  0.00     0.049 A 
ATOM     46  H   UNL A   1      45.176  26.805  27.424  1.00  0.00     0.167 HD
ATOM     47  C   UNL A   1      41.348  28.520  28.704  1.00  0.00     0.037 A 
ATOM     48  C   UNL A   1      47.836  26.944  26.585  1.00  0.00     0.037 A 
ATOM     49  C   UNL A   1      42.290  29.605  28.765  1.00  0.00     0.049 A 
ATOM     50  C   UNL A   1      47.446  28.342  26.995  1.00  0.00     0.074 A 
ATOM     51  C   UNL A   1      42.085  30.899  29.210  1.00  0.00     0.029 A 
ATOM     52  N   UNL A   1      43.616  29.523  28.365  1.00  0.00    -0.354 N 
ATOM     53  N   UNL A   1      46.301  28.782  27.457  1.00  0.00    -0.248 NA
ATOM     54  C   UNL A   1      48.479  29.381  26.876  1.00  0.00     0.031 C 
ATOM     55  C   UNL A   1      43.267  31.618  29.021  1.00  0.00     0.029 A 
ATOM     56  C   UNL A   1      44.229  30.756  28.524  1.00  0.00     0.049 A 
ATOM     57  H   UNL A   1      44.055  28.713  28.021  1.00  0.00     0.167 HD
ATOM     58  C   UNL A   1      46.490  30.131  27.725  1.00  0.00     0.074 A 
ATOM     59  C   UNL A   1      47.862  30.437  27.382  1.00  0.00     0.031 C 
ATOM     60  C   UNL A   1      45.606  31.037  28.210  1.00  0.00     0.037 A 
BRANCH  47  61
ATOM     61  C   UNL A   1      39.925  28.813  29.080  1.00  0.00     0.064 A 
ATOM     62  C   UNL A   1      38.974  29.207  28.128  1.00  0.00     0.173 A 
ATOM     63  C   UNL A   1      39.488  28.608  30.399  1.00  0.00     0.173 A 
ATOM     64  F   UNL A   1      39.342  29.427  26.857  1.00  0.00    -0.203 F 
ATOM     65  C   UNL A   1      37.642  29.399  28.484  1.00  0.00     0.198 A 
ATOM     66  C   UNL A   1      38.150  28.770  30.745  1.00  0.00     0.198 A 
ATOM     67  F   UNL A   1      40.356  28.225  31.347  1.00  0.00    -0.203 F 
ATOM     68  F   UNL A   1      36.757  29.807  27.564  1.00  0.00    -0.200 F 
ATOM     69  C   UNL A   1      37.228  29.168  29.788  1.00  0.00     0.200 A 
ATOM     70  F   UNL A   1      37.749  28.530  32.001  1.00  0.00    -0.200 F 
ATOM     71  F   UNL A   1      35.941  29.330  30.122  1.00  0.00    -0.200 F 
ENDBRANCH  47  61
BRANCH  48  72
ATOM     72  C   UNL A   1      49.212  26.663  26.091  1.00  0.00     0.064 A 
ATOM     73  C   UNL A   1      50.211  26.205  26.964  1.00  0.00     0.173 A 
ATOM     74  C   UNL A   1      49.576  26.902  24.758  1.00  0.00     0.173 A 
ATOM     75  F   UNL A   1      49.921  25.980  28.255  1.00  0.00    -0.203 F 
ATOM     76  C   UNL A   1      51.526  26.041  26.534  1.00  0.00     0.198 A 
ATOM     77  C   UNL A   1      50.884  26.703  24.321  1.00  0.00     0.198 A 
ATOM     78  F   UNL A   1      48.661  27.337  23.879  1.00  0.00    -0.203 F 
ATOM     79  F   UNL A   1      52.474  25.677  27.409  1.00  0.00    -0.200 F 
ATOM     80  C   UNL A   1      51.861  26.288  25.212  1.00  0.00     0.200 A 
ATOM     81  F   UNL A   1      51.200  26.928  23.038  1.00  0.00    -0.200 F 
ATOM     82  F   UNL A   1      53.128  26.142  24.802  1.00  0.00    -0.200 F 
ENDBRANCH  48  72
BRANCH  60  83
ATOM     83  C   UNL A   1      46.105  32.429  28.468  1.00  0.00     0.064 A 
ATOM     84  C   UNL A   1      46.689  32.793  29.690  1.00  0.00     0.173 A 
ATOM     85  C   UNL A   1      46.049  33.396  27.452  1.00  0.00     0.173 A 
ATOM     86  F   UNL A   1      46.754  31.911  30.697  1.00  0.00    -0.203 F 
ATOM     87  C   UNL A   1      47.179  34.081  29.892  1.00  0.00     0.198 A 
ATOM     88  C   UNL A   1      46.572  34.671  27.646  1.00  0.00     0.198 A 
ATOM     89  F   UNL A   1      45.509  33.096  26.261  1.00  0.00    -0.203 F 
ATOM     90  F   UNL A   1      47.691  34.422  31.082  1.00  0.00    -0.200 F 
ATOM     91  C   UNL A   1      47.130  35.015  28.867  1.00  0.00     0.200 A 
ATOM     92  F   UNL A   1      46.540  35.565  26.648  1.00  0.00    -0.200 F 
ATOM     93  F   UNL A   1      47.616  36.249  29.059  1.00  0.00    -0.200 F 
ENDBRANCH  60  83
ENDBRANCH  34  35
ENDBRANCH  26  29
ENDBRANCH  24  25
ENDBRANCH  23  24
ENDBRANCH  22  23
ENDBRANCH   1  22
TORSDOF 17
ENDMDL
