MODEL 1
REMARK VINA RESULT:     -12.3      0.000      0.000
REMARK SMILES Cc1cc(C(=O)Nc2c(Cl)cc(Cl)cc2C(=O)NCCCCCCNC(=O)c2ccc(-c3c4nc(c(-c5c(F)c(F)c(F)c(F)c5F)c5ccc([nH]5)c(-c5c(F)c(F)c(F)c(F)c5F)c5nc(c(-c6c(F)c(F)c(F)c(F)c6F)c6ccc3[nH]6)C=C5)C=C4)cc2)c(C)s1
REMARK SMILES IDX 21 1 20 2 19 3 18 4 16 5 17 6 15 8 8 9 9 10 10 11 11 12
REMARK SMILES IDX 14 13 12 14 13 15 7 16 5 17 6 18 4 20 1 21 2 22 3 23 93 24
REMARK SMILES IDX 91 25 92 26 22 27 23 28 24 29 25 30 26 31 27 33 28 34 29 35
REMARK SMILES IDX 90 36 30 37 89 38 31 39 32 40 33 41 83 42 34 43 88 44 82 45
REMARK SMILES IDX 84 46 35 47 87 48 81 49 80 50 36 52 68 53 48 54 67 55 49 56
REMARK SMILES IDX 52 57 66 58 85 59 50 60 51 61 65 63 86 64 53 65 37 66 38 67
REMARK SMILES IDX 46 68 39 69 40 70 44 71 47 72 41 73 42 74 45 75 43 76 69 77
REMARK SMILES IDX 70 78 78 79 71 80 72 81 76 82 79 83 73 84 74 85 77 86 75 87
REMARK SMILES IDX 54 88 55 89 63 90 56 91 57 92 61 93 64 94 58 95 59 96 62 97
REMARK SMILES IDX 60 98
REMARK H PARENT 18 7 7 19 25 32 84 51 52 62
REMARK Flexibility Score: inf
ROOT
ATOM      1  C   UNL A   1      39.257  21.744  26.125  1.00  0.00     0.002 C 
ENDROOT
BRANCH   1   2
ATOM      2  C   UNL A   1      38.899  23.199  26.441  1.00  0.00     0.021 C 
BRANCH   2   3
ATOM      3  C   UNL A   1      37.610  23.750  25.846  1.00  0.00     0.116 C 
BRANCH   3   4
ATOM      4  N   UNL A   1      37.328  23.388  24.481  1.00  0.00    -0.352 N 
ATOM      5  C   UNL A   1      36.146  23.234  23.802  1.00  0.00     0.253 C 
ATOM      6  O   UNL A   1      36.238  22.953  22.604  1.00  0.00    -0.269 OA
ATOM      7  H   UNL A   1      38.131  23.220  23.936  1.00  0.00     0.163 HD
BRANCH   5   8
ATOM      8  C   UNL A   1      34.761  23.324  24.374  1.00  0.00     0.066 A 
ATOM      9  C   UNL A   1      33.567  23.746  23.752  1.00  0.00     0.073 A 
ATOM     10  C   UNL A   1      32.328  23.534  24.413  1.00  0.00     0.066 A 
ATOM     11  Cl  UNL A   1      30.807  23.828  23.632  1.00  0.00    -0.082 Cl
ATOM     12  C   UNL A   1      32.277  23.055  25.721  1.00  0.00     0.043 A 
ATOM     13  C   UNL A   1      34.679  22.844  25.702  1.00  0.00     0.036 A 
ATOM     14  C   UNL A   1      33.460  22.740  26.370  1.00  0.00     0.043 A 
ATOM     15  Cl  UNL A   1      33.417  22.201  28.002  1.00  0.00    -0.084 Cl
BRANCH   9  16
ATOM     16  N   UNL A   1      33.565  24.348  22.487  1.00  0.00    -0.320 N 
ATOM     17  C   UNL A   1      33.278  25.664  22.134  1.00  0.00     0.256 C 
ATOM     18  O   UNL A   1      33.317  25.908  20.925  1.00  0.00    -0.269 OA
ATOM     19  H   UNL A   1      33.802  23.753  21.739  1.00  0.00     0.170 HD
BRANCH  17  20
ATOM     20  C   UNL A   1      33.065  26.742  23.135  1.00  0.00     0.054 A 
ATOM     21  C   UNL A   1      34.028  28.547  26.328  1.00  0.00     0.056 C 
ATOM     22  C   UNL A   1      33.412  28.064  25.060  1.00  0.00     0.003 A 
ATOM     23  C   UNL A   1      34.003  27.332  24.057  1.00  0.00     0.029 A 
ATOM     24  S   UNL A   1      31.791  28.392  24.690  1.00  0.00    -0.145 S 
ATOM     25  C   UNL A   1      31.861  27.441  23.257  1.00  0.00     0.014 A 
ATOM     26  C   UNL A   1      30.650  27.451  22.376  1.00  0.00     0.057 C 
ENDBRANCH  17  20
ENDBRANCH   9  16
ENDBRANCH   5   8
ENDBRANCH   3   4
ENDBRANCH   2   3
ENDBRANCH   1   2
BRANCH   1  27
ATOM     27  C   UNL A   1      40.719  21.307  26.252  1.00  0.00     0.002 C 
BRANCH  27  28
ATOM     28  C   UNL A   1      41.039  19.819  26.109  1.00  0.00     0.021 C 
BRANCH  28  29
ATOM     29  C   UNL A   1      42.406  19.358  26.597  1.00  0.00     0.116 C 
BRANCH  29  30
ATOM     30  N   UNL A   1      43.239  18.791  25.550  1.00  0.00    -0.352 N 
ATOM     31  C   UNL A   1      44.195  19.400  24.771  1.00  0.00     0.251 C 
ATOM     32  H   UNL A   1      43.100  17.833  25.373  1.00  0.00     0.163 HD
ATOM     33  O   UNL A   1      44.747  18.779  23.867  1.00  0.00    -0.269 OA
BRANCH  31  34
ATOM     34  C   UNL A   1      44.537  20.822  24.994  1.00  0.00     0.039 A 
ATOM     35  C   UNL A   1      44.118  21.773  24.058  1.00  0.00     0.014 A 
ATOM     36  C   UNL A   1      45.250  21.222  26.126  1.00  0.00     0.014 A 
ATOM     37  C   UNL A   1      44.338  23.132  24.299  1.00  0.00     0.010 A 
ATOM     38  C   UNL A   1      45.408  22.577  26.399  1.00  0.00     0.010 A 
ATOM     39  C   UNL A   1      44.947  23.546  25.493  1.00  0.00    -0.014 A 
BRANCH  39  40
ATOM     40  C   UNL A   1      45.105  24.983  25.837  1.00  0.00     0.031 A 
ATOM     41  C   UNL A   1      46.458  25.627  25.766  1.00  0.00     0.074 A 
ATOM     42  C   UNL A   1      44.056  25.672  26.326  1.00  0.00     0.049 A 
ATOM     43  N   UNL A   1      46.841  26.807  26.183  1.00  0.00    -0.248 NA
ATOM     44  C   UNL A   1      47.535  24.816  25.179  1.00  0.00     0.031 C 
ATOM     45  C   UNL A   1      42.701  25.146  26.488  1.00  0.00     0.029 A 
ATOM     46  N   UNL A   1      43.977  26.954  26.812  1.00  0.00    -0.354 N 
ATOM     47  C   UNL A   1      48.206  26.868  25.938  1.00  0.00     0.074 A 
ATOM     48  C   UNL A   1      48.591  25.591  25.376  1.00  0.00     0.031 C 
ATOM     49  C   UNL A   1      41.926  26.093  27.040  1.00  0.00     0.029 A 
ATOM     50  C   UNL A   1      42.738  27.275  27.310  1.00  0.00     0.049 A 
ATOM     51  H   UNL A   1      44.736  27.582  26.804  1.00  0.00     0.167 HD
ATOM     52  C   UNL A   1      49.057  27.901  26.153  1.00  0.00     0.037 A 
ATOM     53  C   UNL A   1      42.311  28.386  27.940  1.00  0.00     0.037 A 
ATOM     54  C   UNL A   1      48.662  29.176  26.691  1.00  0.00     0.049 A 
ATOM     55  C   UNL A   1      43.268  29.525  28.159  1.00  0.00     0.074 A 
ATOM     56  C   UNL A   1      49.432  30.311  26.877  1.00  0.00     0.029 A 
ATOM     57  N   UNL A   1      47.384  29.483  27.138  1.00  0.00    -0.354 N 
ATOM     58  N   UNL A   1      44.543  29.601  27.865  1.00  0.00    -0.248 NA
ATOM     59  C   UNL A   1      42.726  30.736  28.792  1.00  0.00     0.031 C 
ATOM     60  C   UNL A   1      48.632  31.288  27.481  1.00  0.00     0.029 A 
ATOM     61  C   UNL A   1      47.350  30.782  27.622  1.00  0.00     0.049 A 
ATOM     62  H   UNL A   1      46.615  28.869  27.116  1.00  0.00     0.167 HD
ATOM     63  C   UNL A   1      44.952  30.870  28.251  1.00  0.00     0.074 A 
ATOM     64  C   UNL A   1      43.785  31.535  28.796  1.00  0.00     0.031 C 
ATOM     65  C   UNL A   1      46.180  31.433  28.158  1.00  0.00     0.037 A 
BRANCH  52  66
ATOM     66  C   UNL A   1      50.505  27.678  25.820  1.00  0.00     0.064 A 
ATOM     67  C   UNL A   1      51.444  27.317  26.800  1.00  0.00     0.173 A 
ATOM     68  C   UNL A   1      50.962  27.831  24.503  1.00  0.00     0.173 A 
ATOM     69  F   UNL A   1      51.062  27.167  28.078  1.00  0.00    -0.203 F 
ATOM     70  C   UNL A   1      52.791  27.164  26.482  1.00  0.00     0.198 A 
ATOM     71  C   UNL A   1      52.304  27.643  24.181  1.00  0.00     0.198 A 
ATOM     72  F   UNL A   1      50.107  28.167  23.525  1.00  0.00    -0.203 F 
ATOM     73  F   UNL A   1      53.677  26.887  27.447  1.00  0.00    -0.200 F 
ATOM     74  C   UNL A   1      53.218  27.323  25.172  1.00  0.00     0.200 A 
ATOM     75  F   UNL A   1      52.714  27.783  22.913  1.00  0.00    -0.200 F 
ATOM     76  F   UNL A   1      54.516  27.180  24.868  1.00  0.00    -0.200 F 
ENDBRANCH  52  66
BRANCH  53  77
ATOM     77  C   UNL A   1      40.899  28.468  28.393  1.00  0.00     0.064 A 
ATOM     78  C   UNL A   1      40.539  28.098  29.696  1.00  0.00     0.173 A 
ATOM     79  C   UNL A   1      39.891  28.957  27.550  1.00  0.00     0.173 A 
ATOM     80  F   UNL A   1      41.465  27.606  30.532  1.00  0.00    -0.203 F 
ATOM     81  C   UNL A   1      39.223  28.210  30.138  1.00  0.00     0.198 A 
ATOM     82  C   UNL A   1      38.579  29.093  28.000  1.00  0.00     0.198 A 
ATOM     83  F   UNL A   1      40.187  29.329  26.296  1.00  0.00    -0.203 F 
ATOM     84  F   UNL A   1      38.899  27.826  31.380  1.00  0.00    -0.200 F 
ATOM     85  C   UNL A   1      38.246  28.717  29.293  1.00  0.00     0.200 A 
ATOM     86  F   UNL A   1      37.642  29.597  27.187  1.00  0.00    -0.200 F 
ATOM     87  F   UNL A   1      36.983  28.841  29.724  1.00  0.00    -0.200 F 
ENDBRANCH  53  77
BRANCH  65  88
ATOM     88  C   UNL A   1      46.329  32.854  28.620  1.00  0.00     0.064 A 
ATOM     89  C   UNL A   1      46.713  33.167  29.932  1.00  0.00     0.173 A 
ATOM     90  C   UNL A   1      46.137  33.914  27.721  1.00  0.00     0.173 A 
ATOM     91  F   UNL A   1      46.893  32.191  30.834  1.00  0.00    -0.203 F 
ATOM     92  C   UNL A   1      46.886  34.491  30.330  1.00  0.00     0.198 A 
ATOM     93  C   UNL A   1      46.337  35.233  28.115  1.00  0.00     0.198 A 
ATOM     94  F   UNL A   1      45.773  33.667  26.453  1.00  0.00    -0.203 F 
ATOM     95  F   UNL A   1      47.218  34.769  31.598  1.00  0.00    -0.200 F 
ATOM     96  C   UNL A   1      46.707  35.521  29.419  1.00  0.00     0.200 A 
ATOM     97  F   UNL A   1      46.177  36.227  27.229  1.00  0.00    -0.200 F 
ATOM     98  F   UNL A   1      46.886  36.794  29.801  1.00  0.00    -0.200 F 
ENDBRANCH  65  88
ENDBRANCH  39  40
ENDBRANCH  31  34
ENDBRANCH  29  30
ENDBRANCH  28  29
ENDBRANCH  27  28
ENDBRANCH   1  27
TORSDOF 15
ENDMDL
MODEL 2
REMARK VINA RESULT:     -12.2      6.393     10.656
REMARK SMILES Cc1cc(C(=O)Nc2c(Cl)cc(Cl)cc2C(=O)NCCCCCCNC(=O)c2ccc(-c3c4nc(c(-c5c(F)c(F)c(F)c(F)c5F)c5ccc([nH]5)c(-c5c(F)c(F)c(F)c(F)c5F)c5nc(c(-c6c(F)c(F)c(F)c(F)c6F)c6ccc3[nH]6)C=C5)C=C4)cc2)c(C)s1
REMARK SMILES IDX 21 1 20 2 19 3 18 4 16 5 17 6 15 8 8 9 9 10 10 11 11 12
REMARK SMILES IDX 14 13 12 14 13 15 7 16 5 17 6 18 4 20 1 21 2 22 3 23 93 24
REMARK SMILES IDX 91 25 92 26 22 27 23 28 24 29 25 30 26 31 27 33 28 34 29 35
REMARK SMILES IDX 90 36 30 37 89 38 31 39 32 40 33 41 83 42 34 43 88 44 82 45
REMARK SMILES IDX 84 46 35 47 87 48 81 49 80 50 36 52 68 53 48 54 67 55 49 56
REMARK SMILES IDX 52 57 66 58 85 59 50 60 51 61 65 63 86 64 53 65 37 66 38 67
REMARK SMILES IDX 46 68 39 69 40 70 44 71 47 72 41 73 42 74 45 75 43 76 69 77
REMARK SMILES IDX 70 78 78 79 71 80 72 81 76 82 79 83 73 84 74 85 77 86 75 87
REMARK SMILES IDX 54 88 55 89 63 90 56 91 57 92 61 93 64 94 58 95 59 96 62 97
REMARK SMILES IDX 60 98
REMARK H PARENT 18 7 7 19 25 32 84 51 52 62
REMARK Flexibility Score: inf
ROOT
ATOM      1  C   UNL A   1      32.041  29.487  27.271  1.00  0.00     0.002 C 
ENDROOT
BRANCH   1   2
ATOM      2  C   UNL A   1      33.258  28.561  27.177  1.00  0.00     0.021 C 
BRANCH   2   3
ATOM      3  C   UNL A   1      33.144  27.342  26.273  1.00  0.00     0.116 C 
BRANCH   3   4
ATOM      4  N   UNL A   1      32.365  26.240  26.777  1.00  0.00    -0.352 N 
ATOM      5  C   UNL A   1      32.389  24.898  26.493  1.00  0.00     0.253 C 
ATOM      6  O   UNL A   1      31.609  24.190  27.137  1.00  0.00    -0.269 OA
ATOM      7  H   UNL A   1      31.694  26.498  27.450  1.00  0.00     0.163 HD
BRANCH   5   8
ATOM      8  C   UNL A   1      33.225  24.213  25.452  1.00  0.00     0.066 A 
ATOM      9  C   UNL A   1      32.854  23.760  24.169  1.00  0.00     0.073 A 
ATOM     10  C   UNL A   1      33.865  23.345  23.261  1.00  0.00     0.066 A 
ATOM     11  Cl  UNL A   1      33.516  22.977  21.602  1.00  0.00    -0.082 Cl
ATOM     12  C   UNL A   1      35.196  23.235  23.659  1.00  0.00     0.043 A 
ATOM     13  C   UNL A   1      34.583  24.088  25.829  1.00  0.00     0.036 A 
ATOM     14  C   UNL A   1      35.543  23.580  24.955  1.00  0.00     0.043 A 
ATOM     15  Cl  UNL A   1      37.170  23.397  25.477  1.00  0.00    -0.084 Cl
BRANCH   9  16
ATOM     16  N   UNL A   1      31.517  23.731  23.753  1.00  0.00    -0.320 N 
ATOM     17  C   UNL A   1      30.712  24.768  23.290  1.00  0.00     0.256 C 
ATOM     18  O   UNL A   1      29.546  24.458  23.028  1.00  0.00    -0.269 OA
ATOM     19  H   UNL A   1      31.084  22.848  23.794  1.00  0.00     0.170 HD
BRANCH  17  20
ATOM     20  C   UNL A   1      31.233  26.130  23.000  1.00  0.00     0.054 A 
ATOM     21  C   UNL A   1      34.111  28.531  22.418  1.00  0.00     0.056 C 
ATOM     22  C   UNL A   1      32.795  27.855  22.600  1.00  0.00     0.003 A 
ATOM     23  C   UNL A   1      32.497  26.524  22.429  1.00  0.00     0.029 A 
ATOM     24  S   UNL A   1      31.419  28.723  23.072  1.00  0.00    -0.145 S 
ATOM     25  C   UNL A   1      30.471  27.290  23.171  1.00  0.00     0.014 A 
ATOM     26  C   UNL A   1      29.011  27.459  23.458  1.00  0.00     0.057 C 
ENDBRANCH  17  20
ENDBRANCH   9  16
ENDBRANCH   5   8
ENDBRANCH   3   4
ENDBRANCH   2   3
ENDBRANCH   1   2
BRANCH   1  27
ATOM     27  C   UNL A   1      31.883  30.595  26.226  1.00  0.00     0.002 C 
BRANCH  27  28
ATOM     28  C   UNL A   1      31.576  32.009  26.719  1.00  0.00     0.021 C 
BRANCH  28  29
ATOM     29  C   UNL A   1      32.712  32.763  27.397  1.00  0.00     0.116 C 
BRANCH  29  30
ATOM     30  N   UNL A   1      32.385  34.142  27.722  1.00  0.00    -0.352 N 
ATOM     31  C   UNL A   1      32.990  34.993  28.618  1.00  0.00     0.251 C 
ATOM     32  H   UNL A   1      31.622  34.522  27.230  1.00  0.00     0.163 HD
ATOM     33  O   UNL A   1      32.522  36.109  28.826  1.00  0.00    -0.269 OA
BRANCH  31  34
ATOM     34  C   UNL A   1      34.188  34.553  29.364  1.00  0.00     0.039 A 
ATOM     35  C   UNL A   1      34.022  33.946  30.613  1.00  0.00     0.014 A 
ATOM     36  C   UNL A   1      35.469  34.719  28.832  1.00  0.00     0.014 A 
ATOM     37  C   UNL A   1      35.131  33.429  31.290  1.00  0.00     0.010 A 
ATOM     38  C   UNL A   1      36.563  34.144  29.473  1.00  0.00     0.010 A 
ATOM     39  C   UNL A   1      36.403  33.486  30.704  1.00  0.00    -0.014 A 
BRANCH  39  40
ATOM     40  C   UNL A   1      37.590  32.856  31.339  1.00  0.00     0.031 A 
ATOM     41  C   UNL A   1      38.254  31.679  30.686  1.00  0.00     0.074 A 
ATOM     42  C   UNL A   1      37.993  33.265  32.558  1.00  0.00     0.049 A 
ATOM     43  N   UNL A   1      39.183  30.884  31.151  1.00  0.00    -0.248 NA
ATOM     44  C   UNL A   1      37.779  31.329  29.339  1.00  0.00     0.031 C 
ATOM     45  C   UNL A   1      37.401  34.366  33.317  1.00  0.00     0.029 A 
ATOM     46  N   UNL A   1      38.973  32.777  33.386  1.00  0.00    -0.354 N 
ATOM     47  C   UNL A   1      39.382  29.923  30.170  1.00  0.00     0.074 A 
ATOM     48  C   UNL A   1      38.448  30.210  29.102  1.00  0.00     0.031 C 
ATOM     49  C   UNL A   1      38.023  34.466  34.502  1.00  0.00     0.029 A 
ATOM     50  C   UNL A   1      39.027  33.411  34.602  1.00  0.00     0.049 A 
ATOM     51  H   UNL A   1      39.577  32.042  33.132  1.00  0.00     0.167 HD
ATOM     52  C   UNL A   1      40.272  28.901  30.157  1.00  0.00     0.037 A 
ATOM     53  C   UNL A   1      39.782  33.155  35.688  1.00  0.00     0.037 A 
ATOM     54  C   UNL A   1      41.216  28.636  31.212  1.00  0.00     0.049 A 
ATOM     55  C   UNL A   1      40.771  32.024  35.650  1.00  0.00     0.074 A 
ATOM     56  C   UNL A   1      42.208  27.673  31.261  1.00  0.00     0.029 A 
ATOM     57  N   UNL A   1      41.276  29.334  32.410  1.00  0.00    -0.354 N 
ATOM     58  N   UNL A   1      41.001  31.159  34.693  1.00  0.00    -0.248 NA
ATOM     59  C   UNL A   1      41.613  31.836  36.841  1.00  0.00     0.031 C 
ATOM     60  C   UNL A   1      42.838  27.757  32.508  1.00  0.00     0.029 A 
ATOM     61  C   UNL A   1      42.274  28.807  33.215  1.00  0.00     0.049 A 
ATOM     62  H   UNL A   1      40.696  30.091  32.652  1.00  0.00     0.167 HD
ATOM     63  C   UNL A   1      42.025  30.341  35.150  1.00  0.00     0.074 A 
ATOM     64  C   UNL A   1      42.379  30.819  36.471  1.00  0.00     0.031 C 
ATOM     65  C   UNL A   1      42.619  29.295  34.528  1.00  0.00     0.037 A 
BRANCH  52  66
ATOM     66  C   UNL A   1      40.249  27.985  28.967  1.00  0.00     0.064 A 
ATOM     67  C   UNL A   1      39.523  26.783  28.970  1.00  0.00     0.173 A 
ATOM     68  C   UNL A   1      40.965  28.312  27.805  1.00  0.00     0.173 A 
ATOM     69  F   UNL A   1      38.829  26.417  30.059  1.00  0.00    -0.203 F 
ATOM     70  C   UNL A   1      39.554  25.922  27.876  1.00  0.00     0.198 A 
ATOM     71  C   UNL A   1      40.965  27.465  26.699  1.00  0.00     0.198 A 
ATOM     72  F   UNL A   1      41.669  29.452  27.742  1.00  0.00    -0.203 F 
ATOM     73  F   UNL A   1      38.909  24.749  27.932  1.00  0.00    -0.200 F 
ATOM     74  C   UNL A   1      40.271  26.266  26.740  1.00  0.00     0.200 A 
ATOM     75  F   UNL A   1      41.648  27.805  25.597  1.00  0.00    -0.200 F 
ATOM     76  F   UNL A   1      40.304  25.434  25.690  1.00  0.00    -0.200 F 
ENDBRANCH  52  66
BRANCH  53  77
ATOM     77  C   UNL A   1      39.629  34.006  36.897  1.00  0.00     0.064 A 
ATOM     78  C   UNL A   1      40.244  35.262  36.974  1.00  0.00     0.173 A 
ATOM     79  C   UNL A   1      38.832  33.599  37.977  1.00  0.00     0.173 A 
ATOM     80  F   UNL A   1      41.032  35.685  35.975  1.00  0.00    -0.203 F 
ATOM     81  C   UNL A   1      40.071  36.080  38.089  1.00  0.00     0.198 A 
ATOM     82  C   UNL A   1      38.639  34.428  39.080  1.00  0.00     0.198 A 
ATOM     83  F   UNL A   1      38.219  32.407  37.947  1.00  0.00    -0.203 F 
ATOM     84  F   UNL A   1      40.691  37.266  38.151  1.00  0.00    -0.200 F 
ATOM     85  C   UNL A   1      39.261  35.666  39.137  1.00  0.00     0.200 A 
ATOM     86  F   UNL A   1      37.844  34.032  40.083  1.00  0.00    -0.200 F 
ATOM     87  F   UNL A   1      39.082  36.460  40.201  1.00  0.00    -0.200 F 
ENDBRANCH  53  77
BRANCH  65  88
ATOM     88  C   UNL A   1      43.744  28.608  35.249  1.00  0.00     0.064 A 
ATOM     89  C   UNL A   1      45.084  28.953  35.025  1.00  0.00     0.173 A 
ATOM     90  C   UNL A   1      43.470  27.631  36.218  1.00  0.00     0.173 A 
ATOM     91  F   UNL A   1      45.399  29.870  34.097  1.00  0.00    -0.203 F 
ATOM     92  C   UNL A   1      46.111  28.334  35.733  1.00  0.00     0.198 A 
ATOM     93  C   UNL A   1      44.496  27.034  36.944  1.00  0.00     0.198 A 
ATOM     94  F   UNL A   1      42.204  27.269  36.474  1.00  0.00    -0.203 F 
ATOM     95  F   UNL A   1      47.387  28.653  35.477  1.00  0.00    -0.200 F 
ATOM     96  C   UNL A   1      45.815  27.383  36.699  1.00  0.00     0.200 A 
ATOM     97  F   UNL A   1      44.208  26.124  37.886  1.00  0.00    -0.200 F 
ATOM     98  F   UNL A   1      46.804  26.796  37.389  1.00  0.00    -0.200 F 
ENDBRANCH  65  88
ENDBRANCH  39  40
ENDBRANCH  31  34
ENDBRANCH  29  30
ENDBRANCH  28  29
ENDBRANCH  27  28
ENDBRANCH   1  27
TORSDOF 15
ENDMDL
MODEL 3
REMARK VINA RESULT:     -12.1      0.129      1.562
REMARK SMILES Cc1cc(C(=O)Nc2c(Cl)cc(Cl)cc2C(=O)NCCCCCCNC(=O)c2ccc(-c3c4nc(c(-c5c(F)c(F)c(F)c(F)c5F)c5ccc([nH]5)c(-c5c(F)c(F)c(F)c(F)c5F)c5nc(c(-c6c(F)c(F)c(F)c(F)c6F)c6ccc3[nH]6)C=C5)C=C4)cc2)c(C)s1
REMARK SMILES IDX 21 1 20 2 19 3 18 4 16 5 17 6 15 8 8 9 9 10 10 11 11 12
REMARK SMILES IDX 14 13 12 14 13 15 7 16 5 17 6 18 4 20 1 21 2 22 3 23 93 24
REMARK SMILES IDX 91 25 92 26 22 27 23 28 24 29 25 30 26 31 27 33 28 34 29 35
REMARK SMILES IDX 90 36 30 37 89 38 31 39 32 40 33 41 83 42 34 43 88 44 82 45
REMARK SMILES IDX 84 46 35 47 87 48 81 49 80 50 36 52 68 53 48 54 67 55 49 56
REMARK SMILES IDX 52 57 66 58 85 59 50 60 51 61 65 63 86 64 53 65 37 66 38 67
REMARK SMILES IDX 46 68 39 69 40 70 44 71 47 72 41 73 42 74 45 75 43 76 69 77
REMARK SMILES IDX 70 78 78 79 71 80 72 81 76 82 79 83 73 84 74 85 77 86 75 87
REMARK SMILES IDX 54 88 55 89 63 90 56 91 57 92 61 93 64 94 58 95 59 96 62 97
REMARK SMILES IDX 60 98
REMARK H PARENT 18 7 7 19 25 32 84 51 52 62
REMARK Flexibility Score: inf
ROOT
ATOM      1  C   UNL A   1      39.269  21.859  26.012  1.00  0.00     0.002 C 
ENDROOT
BRANCH   1   2
ATOM      2  C   UNL A   1      38.791  23.227  26.509  1.00  0.00     0.021 C 
BRANCH   2   3
ATOM      3  C   UNL A   1      37.528  23.800  25.880  1.00  0.00     0.116 C 
BRANCH   3   4
ATOM      4  N   UNL A   1      37.261  23.420  24.517  1.00  0.00    -0.352 N 
ATOM      5  C   UNL A   1      36.087  23.244  23.830  1.00  0.00     0.253 C 
ATOM      6  O   UNL A   1      36.192  22.953  22.635  1.00  0.00    -0.269 OA
ATOM      7  H   UNL A   1      38.071  23.258  23.979  1.00  0.00     0.163 HD
BRANCH   5   8
ATOM      8  C   UNL A   1      34.697  23.321  24.389  1.00  0.00     0.066 A 
ATOM      9  C   UNL A   1      33.504  23.730  23.756  1.00  0.00     0.073 A 
ATOM     10  C   UNL A   1      32.261  23.507  24.407  1.00  0.00     0.066 A 
ATOM     11  Cl  UNL A   1      30.744  23.784  23.613  1.00  0.00    -0.082 Cl
ATOM     12  C   UNL A   1      32.204  23.029  25.716  1.00  0.00     0.043 A 
ATOM     13  C   UNL A   1      34.608  22.843  25.717  1.00  0.00     0.036 A 
ATOM     14  C   UNL A   1      33.384  22.727  26.375  1.00  0.00     0.043 A 
ATOM     15  Cl  UNL A   1      33.332  22.191  28.008  1.00  0.00    -0.084 Cl
BRANCH   9  16
ATOM     16  N   UNL A   1      33.507  24.330  22.491  1.00  0.00    -0.320 N 
ATOM     17  C   UNL A   1      33.238  25.649  22.137  1.00  0.00     0.256 C 
ATOM     18  O   UNL A   1      33.277  25.892  20.927  1.00  0.00    -0.269 OA
ATOM     19  H   UNL A   1      33.731  23.730  21.742  1.00  0.00     0.170 HD
BRANCH  17  20
ATOM     20  C   UNL A   1      33.046  26.733  23.137  1.00  0.00     0.054 A 
ATOM     21  C   UNL A   1      34.041  28.520  26.330  1.00  0.00     0.056 C 
ATOM     22  C   UNL A   1      33.416  28.049  25.061  1.00  0.00     0.003 A 
ATOM     23  C   UNL A   1      33.994  27.305  24.060  1.00  0.00     0.029 A 
ATOM     24  S   UNL A   1      31.803  28.409  24.689  1.00  0.00    -0.145 S 
ATOM     25  C   UNL A   1      31.855  27.455  23.257  1.00  0.00     0.014 A 
ATOM     26  C   UNL A   1      30.646  27.489  22.375  1.00  0.00     0.057 C 
ENDBRANCH  17  20
ENDBRANCH   9  16
ENDBRANCH   5   8
ENDBRANCH   3   4
ENDBRANCH   2   3
ENDBRANCH   1   2
BRANCH   1  27
ATOM     27  C   UNL A   1      40.588  21.304  26.557  1.00  0.00     0.002 C 
BRANCH  27  28
ATOM     28  C   UNL A   1      40.997  19.889  26.146  1.00  0.00     0.021 C 
BRANCH  28  29
ATOM     29  C   UNL A   1      42.361  19.403  26.616  1.00  0.00     0.116 C 
BRANCH  29  30
ATOM     30  N   UNL A   1      43.176  18.837  25.553  1.00  0.00    -0.352 N 
ATOM     31  C   UNL A   1      44.129  19.444  24.768  1.00  0.00     0.251 C 
ATOM     32  H   UNL A   1      43.026  17.882  25.370  1.00  0.00     0.163 HD
ATOM     33  O   UNL A   1      44.664  18.825  23.852  1.00  0.00    -0.269 OA
BRANCH  31  34
ATOM     34  C   UNL A   1      44.487  20.860  24.999  1.00  0.00     0.039 A 
ATOM     35  C   UNL A   1      44.072  21.822  24.073  1.00  0.00     0.014 A 
ATOM     36  C   UNL A   1      45.211  21.244  26.130  1.00  0.00     0.014 A 
ATOM     37  C   UNL A   1      44.309  23.177  24.323  1.00  0.00     0.010 A 
ATOM     38  C   UNL A   1      45.386  22.596  26.412  1.00  0.00     0.010 A 
ATOM     39  C   UNL A   1      44.929  23.576  25.515  1.00  0.00    -0.014 A 
BRANCH  39  40
ATOM     40  C   UNL A   1      45.104  25.008  25.869  1.00  0.00     0.031 A 
ATOM     41  C   UNL A   1      46.462  25.642  25.781  1.00  0.00     0.074 A 
ATOM     42  C   UNL A   1      44.070  25.702  26.382  1.00  0.00     0.049 A 
ATOM     43  N   UNL A   1      46.861  26.815  26.202  1.00  0.00    -0.248 NA
ATOM     44  C   UNL A   1      47.522  24.828  25.169  1.00  0.00     0.031 C 
ATOM     45  C   UNL A   1      42.713  25.185  26.562  1.00  0.00     0.029 A 
ATOM     46  N   UNL A   1      44.009  26.980  26.880  1.00  0.00    -0.354 N 
ATOM     47  C   UNL A   1      48.222  26.868  25.934  1.00  0.00     0.074 A 
ATOM     48  C   UNL A   1      48.587  25.593  25.354  1.00  0.00     0.031 C 
ATOM     49  C   UNL A   1      41.955  26.133  27.135  1.00  0.00     0.029 A 
ATOM     50  C   UNL A   1      42.782  27.307  27.402  1.00  0.00     0.049 A 
ATOM     51  H   UNL A   1      44.772  27.602  26.864  1.00  0.00     0.167 HD
ATOM     52  C   UNL A   1      49.085  27.892  26.144  1.00  0.00     0.037 A 
ATOM     53  C   UNL A   1      42.374  28.416  28.048  1.00  0.00     0.037 A 
ATOM     54  C   UNL A   1      48.710  29.166  26.699  1.00  0.00     0.049 A 
ATOM     55  C   UNL A   1      43.344  29.545  28.261  1.00  0.00     0.074 A 
ATOM     56  C   UNL A   1      49.491  30.293  26.881  1.00  0.00     0.029 A 
ATOM     57  N   UNL A   1      47.442  29.479  27.170  1.00  0.00    -0.354 N 
ATOM     58  N   UNL A   1      44.614  29.614  27.946  1.00  0.00    -0.248 NA
ATOM     59  C   UNL A   1      42.822  30.755  28.913  1.00  0.00     0.031 C 
ATOM     60  C   UNL A   1      48.710  31.271  27.507  1.00  0.00     0.029 A 
ATOM     61  C   UNL A   1      47.426  30.774  27.665  1.00  0.00     0.049 A 
ATOM     62  H   UNL A   1      46.668  28.871  27.155  1.00  0.00     0.167 HD
ATOM     63  C   UNL A   1      45.039  30.876  28.336  1.00  0.00     0.074 A 
ATOM     64  C   UNL A   1      43.887  31.545  28.905  1.00  0.00     0.031 C 
ATOM     65  C   UNL A   1      46.271  31.430  28.227  1.00  0.00     0.037 A 
BRANCH  52  66
ATOM     66  C   UNL A   1      50.525  27.661  25.784  1.00  0.00     0.064 A 
ATOM     67  C   UNL A   1      51.491  27.352  26.755  1.00  0.00     0.173 A 
ATOM     68  C   UNL A   1      50.947  27.752  24.449  1.00  0.00     0.173 A 
ATOM     69  F   UNL A   1      51.143  27.263  28.049  1.00  0.00    -0.203 F 
ATOM     70  C   UNL A   1      52.830  27.191  26.411  1.00  0.00     0.198 A 
ATOM     71  C   UNL A   1      52.282  27.555  24.103  1.00  0.00     0.198 A 
ATOM     72  F   UNL A   1      50.066  28.035  23.479  1.00  0.00    -0.203 F 
ATOM     73  F   UNL A   1      53.743  26.965  27.365  1.00  0.00    -0.200 F 
ATOM     74  C   UNL A   1      53.223  27.288  25.084  1.00  0.00     0.200 A 
ATOM     75  F   UNL A   1      52.658  27.636  22.819  1.00  0.00    -0.200 F 
ATOM     76  F   UNL A   1      54.514  27.137  24.754  1.00  0.00    -0.200 F 
ENDBRANCH  52  66
BRANCH  53  77
ATOM     77  C   UNL A   1      40.970  28.505  28.526  1.00  0.00     0.064 A 
ATOM     78  C   UNL A   1      39.944  28.919  27.668  1.00  0.00     0.173 A 
ATOM     79  C   UNL A   1      40.622  28.136  29.834  1.00  0.00     0.173 A 
ATOM     80  F   UNL A   1      40.231  29.300  26.414  1.00  0.00    -0.203 F 
ATOM     81  C   UNL A   1      38.620  28.965  28.100  1.00  0.00     0.198 A 
ATOM     82  C   UNL A   1      39.295  28.159  30.257  1.00  0.00     0.198 A 
ATOM     83  F   UNL A   1      41.569  27.728  30.691  1.00  0.00    -0.203 F 
ATOM     84  F   UNL A   1      37.659  29.390  27.268  1.00  0.00    -0.200 F 
ATOM     85  C   UNL A   1      38.295  28.576  29.392  1.00  0.00     0.200 A 
ATOM     86  F   UNL A   1      38.983  27.768  31.500  1.00  0.00    -0.200 F 
ATOM     87  F   UNL A   1      37.020  28.605  29.801  1.00  0.00    -0.200 F 
ENDBRANCH  53  77
BRANCH  65  88
ATOM     88  C   UNL A   1      46.439  32.846  28.699  1.00  0.00     0.064 A 
ATOM     89  C   UNL A   1      46.152  33.939  27.869  1.00  0.00     0.173 A 
ATOM     90  C   UNL A   1      46.839  33.108  30.017  1.00  0.00     0.173 A 
ATOM     91  F   UNL A   1      45.782  33.741  26.595  1.00  0.00    -0.203 F 
ATOM     92  C   UNL A   1      46.274  35.244  28.339  1.00  0.00     0.198 A 
ATOM     93  C   UNL A   1      46.933  34.413  30.492  1.00  0.00     0.198 A 
ATOM     94  F   UNL A   1      47.120  32.096  30.853  1.00  0.00    -0.203 F 
ATOM     95  F   UNL A   1      46.030  36.275  27.518  1.00  0.00    -0.200 F 
ATOM     96  C   UNL A   1      46.654  35.479  29.652  1.00  0.00     0.200 A 
ATOM     97  F   UNL A   1      47.288  34.638  31.765  1.00  0.00    -0.200 F 
ATOM     98  F   UNL A   1      46.759  36.737  30.106  1.00  0.00    -0.200 F 
ENDBRANCH  65  88
ENDBRANCH  39  40
ENDBRANCH  31  34
ENDBRANCH  29  30
ENDBRANCH  28  29
ENDBRANCH  27  28
ENDBRANCH   1  27
TORSDOF 15
ENDMDL
