MODEL 1
REMARK VINA RESULT:     -13.2      0.000      0.000
REMARK SMILES O=C(NCCCCCCNC(=O)[C@]1(NC(=O)C2CCN(C(=O)C3CC3)CC2)CCCc2ccccc21)c1ccc(-c2c3nc(c(-c4c(F)c(F)c(F)c(F)c4F)c4ccc([nH]4)c(-c4c(F)c(F)c(F)c(F)c4F)c4nc(c(-c5c(F)c(F)c(F)c(F)c5F)c5ccc2[nH]5)C=C4)C=C3)cc1
REMARK SMILES IDX 7 1 6 2 5 3 4 4 3 5 1 6 2 7 37 9 38 10 99 11 39 12 98 13
REMARK SMILES IDX 40 14 41 15 42 16 92 17 43 18 97 19 91 20 93 21 44 22 96 23
REMARK SMILES IDX 90 24 89 25 45 27 77 28 57 29 76 30 58 31 61 32 75 33 94 34
REMARK SMILES IDX 59 35 60 36 74 38 95 39 62 40 46 41 47 42 55 43 48 44 49 45
REMARK SMILES IDX 53 46 56 47 50 48 51 49 54 50 52 51 78 52 79 53 87 54 80 55
REMARK SMILES IDX 81 56 85 57 88 58 82 59 83 60 86 61 84 62 63 63 64 64 72 65
REMARK SMILES IDX 65 66 66 67 70 68 73 69 67 70 68 71 71 72 69 73 8 74 9 75
REMARK SMILES IDX 10 76 11 77 12 79 13 80 28 81 36 82 29 83 31 84 35 85 30 86
REMARK SMILES IDX 32 87 34 88 33 89 14 90 15 91 16 93 17 94 18 95 27 96 19 97
REMARK SMILES IDX 26 98 20 99 21 100 22 101 23 102 24 103 25 104
REMARK H PARENT 3 8 93 26 61 37 10 78 14 92
REMARK Flexibility Score: inf
ROOT
ATOM      1  C   UNL A   1      34.986  19.475  24.520  1.00  0.00     0.002 C 
ENDROOT
BRANCH   1   2
ATOM      2  C   UNL A   1      36.334  18.902  24.991  1.00  0.00     0.002 C 
BRANCH   2   3
ATOM      3  C   UNL A   1      37.622  19.659  24.606  1.00  0.00     0.021 C 
BRANCH   3   4
ATOM      4  C   UNL A   1      38.596  20.030  25.738  1.00  0.00     0.116 C 
BRANCH   4   5
ATOM      5  N   UNL A   1      39.807  19.223  25.729  1.00  0.00    -0.352 N 
ATOM      6  O   UNL A   1      41.982  18.682  25.837  1.00  0.00    -0.269 OA
ATOM      7  C   UNL A   1      41.113  19.527  26.042  1.00  0.00     0.251 C 
ATOM      8  H   UNL A   1      39.667  18.289  25.449  1.00  0.00     0.163 HD
BRANCH   7   9
ATOM      9  C   UNL A   1      41.540  20.842  26.592  1.00  0.00     0.039 A 
ATOM     10  C   UNL A   1      41.851  21.034  27.936  1.00  0.00     0.014 A 
ATOM     11  C   UNL A   1      41.813  21.879  25.692  1.00  0.00     0.014 A 
ATOM     12  C   UNL A   1      42.342  22.284  28.384  1.00  0.00     0.010 A 
ATOM     13  C   UNL A   1      42.347  23.104  26.136  1.00  0.00     0.010 A 
ATOM     14  C   UNL A   1      42.600  23.346  27.497  1.00  0.00    -0.014 A 
BRANCH  14  15
ATOM     15  C   UNL A   1      43.141  24.683  27.946  1.00  0.00     0.031 A 
ATOM     16  C   UNL A   1      42.213  25.819  28.337  1.00  0.00     0.074 A 
ATOM     17  C   UNL A   1      44.467  24.943  27.964  1.00  0.00     0.049 A 
ATOM     18  N   UNL A   1      42.481  27.091  28.536  1.00  0.00    -0.248 NA
ATOM     19  C   UNL A   1      40.796  25.480  28.525  1.00  0.00     0.031 C 
ATOM     20  C   UNL A   1      45.526  23.990  27.647  1.00  0.00     0.029 A 
ATOM     21  N   UNL A   1      45.150  26.111  28.246  1.00  0.00    -0.354 N 
ATOM     22  C   UNL A   1      41.266  27.708  28.812  1.00  0.00     0.074 A 
ATOM     23  C   UNL A   1      40.256  26.669  28.758  1.00  0.00     0.031 C 
ATOM     24  C   UNL A   1      46.718  24.596  27.769  1.00  0.00     0.029 A 
ATOM     25  C   UNL A   1      46.512  26.007  28.087  1.00  0.00     0.049 A 
ATOM     26  H   UNL A   1      44.704  26.940  28.534  1.00  0.00     0.167 HD
ATOM     27  C   UNL A   1      41.003  29.013  29.084  1.00  0.00     0.037 A 
ATOM     28  C   UNL A   1      47.495  26.930  28.136  1.00  0.00     0.037 A 
ATOM     29  C   UNL A   1      41.989  30.060  29.204  1.00  0.00     0.049 A 
ATOM     30  C   UNL A   1      47.184  28.378  28.398  1.00  0.00     0.074 A 
ATOM     31  C   UNL A   1      41.793  31.393  29.532  1.00  0.00     0.029 A 
ATOM     32  N   UNL A   1      43.351  29.900  29.011  1.00  0.00    -0.354 N 
ATOM     33  N   UNL A   1      46.028  28.948  28.625  1.00  0.00    -0.248 NA
ATOM     34  C   UNL A   1      48.320  29.316  28.392  1.00  0.00     0.031 C 
ATOM     35  C   UNL A   1      43.028  32.048  29.494  1.00  0.00     0.029 A 
ATOM     36  C   UNL A   1      44.002  31.113  29.192  1.00  0.00     0.049 A 
ATOM     37  H   UNL A   1      43.792  29.050  28.780  1.00  0.00     0.167 HD
ATOM     38  C   UNL A   1      46.296  30.298  28.809  1.00  0.00     0.074 A 
ATOM     39  C   UNL A   1      47.725  30.469  28.674  1.00  0.00     0.031 C 
ATOM     40  C   UNL A   1      45.424  31.301  29.067  1.00  0.00     0.037 A 
BRANCH  27  41
ATOM     41  C   UNL A   1      39.564  29.415  29.252  1.00  0.00     0.064 A 
ATOM     42  C   UNL A   1      38.737  29.690  28.155  1.00  0.00     0.173 A 
ATOM     43  C   UNL A   1      38.990  29.452  30.534  1.00  0.00     0.173 A 
ATOM     44  F   UNL A   1      39.236  29.670  26.910  1.00  0.00    -0.203 F 
ATOM     45  C   UNL A   1      37.394  30.015  28.335  1.00  0.00     0.198 A 
ATOM     46  C   UNL A   1      37.641  29.750  30.708  1.00  0.00     0.198 A 
ATOM     47  F   UNL A   1      39.733  29.179  31.617  1.00  0.00    -0.203 F 
ATOM     48  F   UNL A   1      36.631  30.315  27.275  1.00  0.00    -0.200 F 
ATOM     49  C   UNL A   1      36.846  30.037  29.609  1.00  0.00     0.200 A 
ATOM     50  F   UNL A   1      37.109  29.753  31.938  1.00  0.00    -0.200 F 
ATOM     51  F   UNL A   1      35.551  30.341  29.779  1.00  0.00    -0.200 F 
ENDBRANCH  27  41
BRANCH  28  52
ATOM     52  C   UNL A   1      48.898  26.506  27.884  1.00  0.00     0.064 A 
ATOM     53  C   UNL A   1      49.388  26.378  26.577  1.00  0.00     0.173 A 
ATOM     54  C   UNL A   1      49.777  26.243  28.944  1.00  0.00     0.173 A 
ATOM     55  F   UNL A   1      48.572  26.583  25.532  1.00  0.00    -0.203 F 
ATOM     56  C   UNL A   1      50.709  26.007  26.341  1.00  0.00     0.198 A 
ATOM     57  C   UNL A   1      51.106  25.901  28.707  1.00  0.00     0.198 A 
ATOM     58  F   UNL A   1      49.351  26.343  30.211  1.00  0.00    -0.203 F 
ATOM     59  F   UNL A   1      51.148  25.862  25.083  1.00  0.00    -0.200 F 
ATOM     60  C   UNL A   1      51.570  25.781  27.405  1.00  0.00     0.200 A 
ATOM     61  F   UNL A   1      51.937  25.695  29.737  1.00  0.00    -0.200 F 
ATOM     62  F   UNL A   1      52.847  25.444  27.176  1.00  0.00    -0.200 F 
ENDBRANCH  28  52
BRANCH  40  63
ATOM     63  C   UNL A   1      45.979  32.682  29.269  1.00  0.00     0.064 A 
ATOM     64  C   UNL A   1      46.341  33.154  30.539  1.00  0.00     0.173 A 
ATOM     65  C   UNL A   1      46.196  33.529  28.170  1.00  0.00     0.173 A 
ATOM     66  F   UNL A   1      46.141  32.392  31.625  1.00  0.00    -0.203 F 
ATOM     67  C   UNL A   1      46.886  34.427  30.703  1.00  0.00     0.198 A 
ATOM     68  C   UNL A   1      46.761  34.791  28.334  1.00  0.00     0.198 A 
ATOM     69  F   UNL A   1      45.870  33.125  26.932  1.00  0.00    -0.203 F 
ATOM     70  F   UNL A   1      47.194  34.870  31.930  1.00  0.00    -0.200 F 
ATOM     71  C   UNL A   1      47.101  35.240  29.601  1.00  0.00     0.200 A 
ATOM     72  F   UNL A   1      46.977  35.572  27.267  1.00  0.00    -0.200 F 
ATOM     73  F   UNL A   1      47.632  36.461  29.760  1.00  0.00    -0.200 F 
ENDBRANCH  40  63
ENDBRANCH  14  15
ENDBRANCH   7   9
ENDBRANCH   4   5
ENDBRANCH   3   4
ENDBRANCH   2   3
ENDBRANCH   1   2
BRANCH   1  74
ATOM     74  C   UNL A   1      34.097  20.123  25.587  1.00  0.00     0.021 C 
BRANCH  74  75
ATOM     75  C   UNL A   1      32.601  20.355  25.252  1.00  0.00     0.116 C 
BRANCH  75  76
ATOM     76  N   UNL A   1      32.026  21.332  26.166  1.00  0.00    -0.354 N 
ATOM     77  C   UNL A   1      32.124  22.665  26.407  1.00  0.00     0.250 C 
ATOM     78  H   UNL A   1      31.388  20.907  26.783  1.00  0.00     0.163 HD
ATOM     79  O   UNL A   1      31.610  22.943  27.506  1.00  0.00    -0.272 OA
BRANCH  77  80
ATOM     80  C   UNL A   1      32.593  23.872  25.430  1.00  0.00     0.145 C 
ATOM     81  C   UNL A   1      31.598  23.860  24.211  1.00  0.00     0.044 C 
ATOM     82  C   UNL A   1      34.035  23.544  24.940  1.00  0.00    -0.010 A 
ATOM     83  C   UNL A   1      31.855  22.759  23.184  1.00  0.00     0.008 C 
ATOM     84  C   UNL A   1      34.317  23.098  23.632  1.00  0.00    -0.042 A 
ATOM     85  C   UNL A   1      35.122  23.803  25.804  1.00  0.00     0.007 A 
ATOM     86  C   UNL A   1      33.248  22.884  22.595  1.00  0.00     0.036 C 
ATOM     87  C   UNL A   1      35.655  22.933  23.226  1.00  0.00     0.004 A 
ATOM     88  C   UNL A   1      36.443  23.646  25.383  1.00  0.00     0.000 A 
ATOM     89  C   UNL A   1      36.709  23.208  24.094  1.00  0.00     0.000 A 
BRANCH  80  90
ATOM     90  N   UNL A   1      32.689  25.312  25.832  1.00  0.00    -0.338 N 
ATOM     91  C   UNL A   1      32.867  26.396  25.008  1.00  0.00     0.224 C 
ATOM     92  H   UNL A   1      32.616  25.503  26.796  1.00  0.00     0.164 HD
ATOM     93  O   UNL A   1      33.904  27.057  25.030  1.00  0.00    -0.275 OA
BRANCH  91  94
ATOM     94  C   UNL A   1      31.593  26.884  24.384  1.00  0.00     0.082 C 
ATOM     95  C   UNL A   1      31.615  27.042  22.861  1.00  0.00     0.035 C 
ATOM     96  C   UNL A   1      31.141  28.106  25.211  1.00  0.00     0.035 C 
ATOM     97  C   UNL A   1      31.537  28.467  22.311  1.00  0.00     0.120 C 
ATOM     98  C   UNL A   1      31.442  29.421  24.529  1.00  0.00     0.120 C 
ATOM     99  N   UNL A   1      30.846  29.387  23.211  1.00  0.00    -0.342 N 
ATOM    100  C   UNL A   1      29.701  30.031  22.776  1.00  0.00     0.225 C 
ATOM    101  O   UNL A   1      29.232  29.793  21.650  1.00  0.00    -0.275 OA
BRANCH 100 102
ATOM    102  C   UNL A   1      28.918  31.017  23.572  1.00  0.00     0.079 C 
ATOM    103  C   UNL A   1      28.453  32.360  23.085  1.00  0.00     0.014 C 
ATOM    104  C   UNL A   1      27.456  31.332  23.559  1.00  0.00     0.014 C 
ENDBRANCH 100 102
ENDBRANCH  91  94
ENDBRANCH  80  90
ENDBRANCH  77  80
ENDBRANCH  75  76
ENDBRANCH  74  75
ENDBRANCH   1  74
TORSDOF 16
ENDMDL
MODEL 2
REMARK VINA RESULT:     -12.6      4.743      9.446
REMARK SMILES O=C(NCCCCCCNC(=O)[C@]1(NC(=O)C2CCN(C(=O)C3CC3)CC2)CCCc2ccccc21)c1ccc(-c2c3nc(c(-c4c(F)c(F)c(F)c(F)c4F)c4ccc([nH]4)c(-c4c(F)c(F)c(F)c(F)c4F)c4nc(c(-c5c(F)c(F)c(F)c(F)c5F)c5ccc2[nH]5)C=C4)C=C3)cc1
REMARK SMILES IDX 7 1 6 2 5 3 4 4 3 5 1 6 2 7 37 9 38 10 99 11 39 12 98 13
REMARK SMILES IDX 40 14 41 15 42 16 92 17 43 18 97 19 91 20 93 21 44 22 96 23
REMARK SMILES IDX 90 24 89 25 45 27 77 28 57 29 76 30 58 31 61 32 75 33 94 34
REMARK SMILES IDX 59 35 60 36 74 38 95 39 62 40 46 41 47 42 55 43 48 44 49 45
REMARK SMILES IDX 53 46 56 47 50 48 51 49 54 50 52 51 78 52 79 53 87 54 80 55
REMARK SMILES IDX 81 56 85 57 88 58 82 59 83 60 86 61 84 62 63 63 64 64 72 65
REMARK SMILES IDX 65 66 66 67 70 68 73 69 67 70 68 71 71 72 69 73 8 74 9 75
REMARK SMILES IDX 10 76 11 77 12 79 13 80 28 81 36 82 29 83 31 84 35 85 30 86
REMARK SMILES IDX 32 87 34 88 33 89 14 90 15 91 16 93 17 94 18 95 27 96 19 97
REMARK SMILES IDX 26 98 20 99 21 100 22 101 23 102 24 103 25 104
REMARK H PARENT 3 8 93 26 61 37 10 78 14 92
REMARK Flexibility Score: inf
ROOT
ATOM      1  C   UNL A   1      34.055  29.637  26.809  1.00  0.00     0.002 C 
ENDROOT
BRANCH   1   2
ATOM      2  C   UNL A   1      34.230  30.889  27.686  1.00  0.00     0.002 C 
BRANCH   2   3
ATOM      3  C   UNL A   1      33.000  31.792  27.920  1.00  0.00     0.021 C 
BRANCH   3   4
ATOM      4  C   UNL A   1      32.838  33.023  27.012  1.00  0.00     0.116 C 
BRANCH   4   5
ATOM      5  N   UNL A   1      32.499  34.230  27.751  1.00  0.00    -0.352 N 
ATOM      6  O   UNL A   1      32.523  35.796  29.358  1.00  0.00    -0.269 OA
ATOM      7  C   UNL A   1      33.082  34.828  28.847  1.00  0.00     0.251 C 
ATOM      8  H   UNL A   1      31.710  34.707  27.405  1.00  0.00     0.163 HD
BRANCH   7   9
ATOM      9  C   UNL A   1      34.344  34.347  29.470  1.00  0.00     0.039 A 
ATOM     10  C   UNL A   1      34.371  33.637  30.669  1.00  0.00     0.014 A 
ATOM     11  C   UNL A   1      35.529  34.454  28.733  1.00  0.00     0.014 A 
ATOM     12  C   UNL A   1      35.593  33.124  31.166  1.00  0.00     0.010 A 
ATOM     13  C   UNL A   1      36.733  33.900  29.210  1.00  0.00     0.010 A 
ATOM     14  C   UNL A   1      36.800  33.244  30.451  1.00  0.00    -0.014 A 
BRANCH  14  15
ATOM     15  C   UNL A   1      38.113  32.688  30.949  1.00  0.00     0.031 A 
ATOM     16  C   UNL A   1      38.730  31.446  30.331  1.00  0.00     0.074 A 
ATOM     17  C   UNL A   1      38.764  33.235  31.999  1.00  0.00     0.049 A 
ATOM     18  N   UNL A   1      39.726  30.701  30.759  1.00  0.00    -0.248 NA
ATOM     19  C   UNL A   1      38.146  30.977  29.067  1.00  0.00     0.031 C 
ATOM     20  C   UNL A   1      38.357  34.437  32.720  1.00  0.00     0.029 A 
ATOM     21  N   UNL A   1      39.909  32.830  32.658  1.00  0.00    -0.354 N 
ATOM     22  C   UNL A   1      39.847  29.652  29.854  1.00  0.00     0.074 A 
ATOM     23  C   UNL A   1      38.823  29.858  28.849  1.00  0.00     0.031 C 
ATOM     24  C   UNL A   1      39.239  34.685  33.702  1.00  0.00     0.029 A 
ATOM     25  C   UNL A   1      40.230  33.613  33.742  1.00  0.00     0.049 A 
ATOM     26  H   UNL A   1      40.445  32.053  32.377  1.00  0.00     0.167 HD
ATOM     27  C   UNL A   1      40.721  28.613  29.851  1.00  0.00     0.037 A 
ATOM     28  C   UNL A   1      41.172  33.478  34.699  1.00  0.00     0.037 A 
ATOM     29  C   UNL A   1      41.789  28.411  30.801  1.00  0.00     0.049 A 
ATOM     30  C   UNL A   1      42.107  32.300  34.705  1.00  0.00     0.074 A 
ATOM     31  C   UNL A   1      42.744  27.406  30.821  1.00  0.00     0.029 A 
ATOM     32  N   UNL A   1      42.052  29.225  31.890  1.00  0.00    -0.354 N 
ATOM     33  N   UNL A   1      42.186  31.303  33.860  1.00  0.00    -0.248 NA
ATOM     34  C   UNL A   1      43.074  32.221  35.813  1.00  0.00     0.031 C 
ATOM     35  C   UNL A   1      43.557  27.585  31.946  1.00  0.00     0.029 A 
ATOM     36  C   UNL A   1      43.140  28.731  32.599  1.00  0.00     0.049 A 
ATOM     37  H   UNL A   1      41.543  30.034  32.127  1.00  0.00     0.167 HD
ATOM     38  C   UNL A   1      43.218  30.494  34.320  1.00  0.00     0.074 A 
ATOM     39  C   UNL A   1      43.743  31.114  35.515  1.00  0.00     0.031 C 
ATOM     40  C   UNL A   1      43.681  29.338  33.787  1.00  0.00     0.037 A 
BRANCH  27  41
ATOM     41  C   UNL A   1      40.556  27.565  28.785  1.00  0.00     0.064 A 
ATOM     42  C   UNL A   1      39.676  26.484  28.937  1.00  0.00     0.173 A 
ATOM     43  C   UNL A   1      41.238  27.691  27.563  1.00  0.00     0.173 A 
ATOM     44  F   UNL A   1      39.003  26.317  30.085  1.00  0.00    -0.203 F 
ATOM     45  C   UNL A   1      39.505  25.552  27.915  1.00  0.00     0.198 A 
ATOM     46  C   UNL A   1      41.043  26.773  26.534  1.00  0.00     0.198 A 
ATOM     47  F   UNL A   1      42.077  28.717  27.360  1.00  0.00    -0.203 F 
ATOM     48  F   UNL A   1      38.692  24.503  28.098  1.00  0.00    -0.200 F 
ATOM     49  C   UNL A   1      40.183  25.701  26.714  1.00  0.00     0.200 A 
ATOM     50  F   UNL A   1      41.684  26.929  25.368  1.00  0.00    -0.200 F 
ATOM     51  F   UNL A   1      40.010  24.808  25.729  1.00  0.00    -0.200 F 
ENDBRANCH  27  41
BRANCH  28  52
ATOM     52  C   UNL A   1      41.251  34.494  35.783  1.00  0.00     0.064 A 
ATOM     53  C   UNL A   1      42.161  35.556  35.709  1.00  0.00     0.173 A 
ATOM     54  C   UNL A   1      40.403  34.431  36.898  1.00  0.00     0.173 A 
ATOM     55  F   UNL A   1      43.017  35.635  34.679  1.00  0.00    -0.203 F 
ATOM     56  C   UNL A   1      42.216  36.523  36.710  1.00  0.00     0.198 A 
ATOM     57  C   UNL A   1      40.439  35.414  37.883  1.00  0.00     0.198 A 
ATOM     58  F   UNL A   1      39.522  33.427  37.016  1.00  0.00    -0.203 F 
ATOM     59  F   UNL A   1      43.115  37.514  36.634  1.00  0.00    -0.200 F 
ATOM     60  C   UNL A   1      41.347  36.458  37.789  1.00  0.00     0.200 A 
ATOM     61  F   UNL A   1      39.590  35.355  38.917  1.00  0.00    -0.200 F 
ATOM     62  F   UNL A   1      41.388  37.400  38.742  1.00  0.00    -0.200 F 
ENDBRANCH  28  52
BRANCH  40  63
ATOM     63  C   UNL A   1      44.848  28.672  34.458  1.00  0.00     0.064 A 
ATOM     64  C   UNL A   1      46.171  29.024  34.156  1.00  0.00     0.173 A 
ATOM     65  C   UNL A   1      44.638  27.701  35.449  1.00  0.00     0.173 A 
ATOM     66  F   UNL A   1      46.428  29.936  33.206  1.00  0.00    -0.203 F 
ATOM     67  C   UNL A   1      47.242  28.418  34.813  1.00  0.00     0.198 A 
ATOM     68  C   UNL A   1      45.709  27.114  36.119  1.00  0.00     0.198 A 
ATOM     69  F   UNL A   1      43.392  27.330  35.779  1.00  0.00    -0.203 F 
ATOM     70  F   UNL A   1      48.500  28.747  34.486  1.00  0.00    -0.200 F 
ATOM     71  C   UNL A   1      47.010  27.470  35.797  1.00  0.00     0.200 A 
ATOM     72  F   UNL A   1      45.483  26.204  37.077  1.00  0.00    -0.200 F 
ATOM     73  F   UNL A   1      48.040  26.894  36.433  1.00  0.00    -0.200 F 
ENDBRANCH  40  63
ENDBRANCH  14  15
ENDBRANCH   7   9
ENDBRANCH   4   5
ENDBRANCH   3   4
ENDBRANCH   2   3
ENDBRANCH   1   2
BRANCH   1  74
ATOM     74  C   UNL A   1      33.379  28.424  27.459  1.00  0.00     0.021 C 
BRANCH  74  75
ATOM     75  C   UNL A   1      32.076  27.882  26.819  1.00  0.00     0.116 C 
BRANCH  75  76
ATOM     76  N   UNL A   1      31.894  26.478  27.157  1.00  0.00    -0.354 N 
ATOM     77  C   UNL A   1      31.743  25.297  26.503  1.00  0.00     0.250 C 
ATOM     78  H   UNL A   1      31.875  26.347  28.132  1.00  0.00     0.163 HD
ATOM     79  O   UNL A   1      31.341  24.418  27.288  1.00  0.00    -0.272 OA
BRANCH  77  80
ATOM     80  C   UNL A   1      32.190  24.867  25.004  1.00  0.00     0.145 C 
ATOM     81  C   UNL A   1      31.064  23.907  24.470  1.00  0.00     0.044 C 
ATOM     82  C   UNL A   1      33.535  24.091  25.121  1.00  0.00    -0.010 A 
ATOM     83  C   UNL A   1      31.113  22.486  25.028  1.00  0.00     0.008 C 
ATOM     84  C   UNL A   1      33.630  22.692  24.968  1.00  0.00    -0.042 A 
ATOM     85  C   UNL A   1      34.732  24.824  25.282  1.00  0.00     0.007 A 
ATOM     86  C   UNL A   1      32.434  21.819  24.693  1.00  0.00     0.036 C 
ATOM     87  C   UNL A   1      34.894  22.074  24.972  1.00  0.00     0.004 A 
ATOM     88  C   UNL A   1      35.979  24.199  25.272  1.00  0.00     0.000 A 
ATOM     89  C   UNL A   1      36.060  22.823  25.119  1.00  0.00     0.000 A 
BRANCH  80  90
ATOM     90  N   UNL A   1      32.445  25.823  23.879  1.00  0.00    -0.338 N 
ATOM     91  C   UNL A   1      31.518  26.370  23.026  1.00  0.00     0.224 C 
ATOM     92  H   UNL A   1      33.383  26.090  23.735  1.00  0.00     0.164 HD
ATOM     93  O   UNL A   1      31.493  26.080  21.831  1.00  0.00    -0.275 OA
BRANCH  91  94
ATOM     94  C   UNL A   1      30.821  27.570  23.596  1.00  0.00     0.082 C 
ATOM     95  C   UNL A   1      29.333  27.391  23.909  1.00  0.00     0.035 C 
ATOM     96  C   UNL A   1      31.213  28.767  22.704  1.00  0.00     0.035 C 
ATOM     97  C   UNL A   1      28.344  28.174  23.045  1.00  0.00     0.120 C 
ATOM     98  C   UNL A   1      30.120  29.162  21.738  1.00  0.00     0.120 C 
ATOM     99  N   UNL A   1      28.914  29.403  22.500  1.00  0.00    -0.342 N 
ATOM    100  C   UNL A   1      28.338  30.620  22.822  1.00  0.00     0.225 C 
ATOM    101  O   UNL A   1      27.376  30.676  23.606  1.00  0.00    -0.275 OA
BRANCH 100 102
ATOM    102  C   UNL A   1      28.793  31.945  22.312  1.00  0.00     0.079 C 
ATOM    103  C   UNL A   1      28.018  32.835  21.382  1.00  0.00     0.014 C 
ATOM    104  C   UNL A   1      28.429  33.329  22.748  1.00  0.00     0.014 C 
ENDBRANCH 100 102
ENDBRANCH  91  94
ENDBRANCH  80  90
ENDBRANCH  77  80
ENDBRANCH  75  76
ENDBRANCH  74  75
ENDBRANCH   1  74
TORSDOF 16
ENDMDL
MODEL 3
REMARK VINA RESULT:     -12.2      3.364      4.566
REMARK SMILES O=C(NCCCCCCNC(=O)[C@]1(NC(=O)C2CCN(C(=O)C3CC3)CC2)CCCc2ccccc21)c1ccc(-c2c3nc(c(-c4c(F)c(F)c(F)c(F)c4F)c4ccc([nH]4)c(-c4c(F)c(F)c(F)c(F)c4F)c4nc(c(-c5c(F)c(F)c(F)c(F)c5F)c5ccc2[nH]5)C=C4)C=C3)cc1
REMARK SMILES IDX 7 1 6 2 5 3 4 4 3 5 1 6 2 7 37 9 38 10 99 11 39 12 98 13
REMARK SMILES IDX 40 14 41 15 42 16 92 17 43 18 97 19 91 20 93 21 44 22 96 23
REMARK SMILES IDX 90 24 89 25 45 27 77 28 57 29 76 30 58 31 61 32 75 33 94 34
REMARK SMILES IDX 59 35 60 36 74 38 95 39 62 40 46 41 47 42 55 43 48 44 49 45
REMARK SMILES IDX 53 46 56 47 50 48 51 49 54 50 52 51 78 52 79 53 87 54 80 55
REMARK SMILES IDX 81 56 85 57 88 58 82 59 83 60 86 61 84 62 63 63 64 64 72 65
REMARK SMILES IDX 65 66 66 67 70 68 73 69 67 70 68 71 71 72 69 73 8 74 9 75
REMARK SMILES IDX 10 76 11 77 12 79 13 80 28 81 36 82 29 83 31 84 35 85 30 86
REMARK SMILES IDX 32 87 34 88 33 89 14 90 15 91 16 93 17 94 18 95 27 96 19 97
REMARK SMILES IDX 26 98 20 99 21 100 22 101 23 102 24 103 25 104
REMARK H PARENT 3 8 93 26 61 37 10 78 14 92
REMARK Flexibility Score: inf
ROOT
ATOM      1  C   UNL A   1      35.211  19.939  24.604  1.00  0.00     0.002 C 
ENDROOT
BRANCH   1   2
ATOM      2  C   UNL A   1      36.622  19.519  25.051  1.00  0.00     0.002 C 
BRANCH   2   3
ATOM      3  C   UNL A   1      37.798  20.466  24.735  1.00  0.00     0.021 C 
BRANCH   3   4
ATOM      4  C   UNL A   1      38.915  20.589  25.786  1.00  0.00     0.116 C 
BRANCH   4   5
ATOM      5  N   UNL A   1      39.843  19.468  25.760  1.00  0.00    -0.352 N 
ATOM      6  O   UNL A   1      41.774  18.327  25.796  1.00  0.00    -0.269 OA
ATOM      7  C   UNL A   1      41.196  19.392  26.002  1.00  0.00     0.251 C 
ATOM      8  H   UNL A   1      39.427  18.606  25.526  1.00  0.00     0.163 HD
BRANCH   7   9
ATOM      9  C   UNL A   1      42.011  20.543  26.475  1.00  0.00     0.039 A 
ATOM     10  C   UNL A   1      41.730  21.235  27.652  1.00  0.00     0.014 A 
ATOM     11  C   UNL A   1      43.208  20.826  25.807  1.00  0.00     0.014 A 
ATOM     12  C   UNL A   1      42.595  22.261  28.100  1.00  0.00     0.010 A 
ATOM     13  C   UNL A   1      44.089  21.816  26.284  1.00  0.00     0.010 A 
ATOM     14  C   UNL A   1      43.791  22.576  27.428  1.00  0.00    -0.014 A 
BRANCH  14  15
ATOM     15  C   UNL A   1      44.741  23.654  27.895  1.00  0.00     0.031 A 
ATOM     16  C   UNL A   1      44.787  24.088  29.349  1.00  0.00     0.074 A 
ATOM     17  C   UNL A   1      45.546  24.315  27.035  1.00  0.00     0.049 A 
ATOM     18  N   UNL A   1      45.371  25.133  29.895  1.00  0.00    -0.248 NA
ATOM     19  C   UNL A   1      44.079  23.238  30.316  1.00  0.00     0.031 C 
ATOM     20  C   UNL A   1      45.672  24.042  25.606  1.00  0.00     0.029 A 
ATOM     21  N   UNL A   1      46.404  25.378  27.242  1.00  0.00    -0.354 N 
ATOM     22  C   UNL A   1      45.052  25.096  31.248  1.00  0.00     0.074 A 
ATOM     23  C   UNL A   1      44.225  23.922  31.443  1.00  0.00     0.031 C 
ATOM     24  C   UNL A   1      46.561  24.892  25.069  1.00  0.00     0.029 A 
ATOM     25  C   UNL A   1      47.008  25.833  26.093  1.00  0.00     0.049 A 
ATOM     26  H   UNL A   1      46.567  25.774  28.129  1.00  0.00     0.167 HD
ATOM     27  C   UNL A   1      45.407  25.952  32.242  1.00  0.00     0.037 A 
ATOM     28  C   UNL A   1      47.791  26.906  25.856  1.00  0.00     0.037 A 
ATOM     29  C   UNL A   1      46.277  27.095  32.094  1.00  0.00     0.049 A 
ATOM     30  C   UNL A   1      48.143  27.868  26.957  1.00  0.00     0.074 A 
ATOM     31  C   UNL A   1      46.719  27.972  33.073  1.00  0.00     0.029 A 
ATOM     32  N   UNL A   1      46.841  27.519  30.903  1.00  0.00    -0.354 N 
ATOM     33  N   UNL A   1      47.808  27.833  28.222  1.00  0.00    -0.248 NA
ATOM     34  C   UNL A   1      48.970  29.029  26.590  1.00  0.00     0.031 C 
ATOM     35  C   UNL A   1      47.515  28.950  32.469  1.00  0.00     0.029 A 
ATOM     36  C   UNL A   1      47.609  28.656  31.121  1.00  0.00     0.049 A 
ATOM     37  H   UNL A   1      46.717  27.079  30.031  1.00  0.00     0.167 HD
ATOM     38  C   UNL A   1      48.396  28.950  28.803  1.00  0.00     0.074 A 
ATOM     39  C   UNL A   1      49.116  29.642  27.759  1.00  0.00     0.031 C 
ATOM     40  C   UNL A   1      48.337  29.355  30.094  1.00  0.00     0.037 A 
BRANCH  27  41
ATOM     41  C   UNL A   1      44.833  25.711  33.610  1.00  0.00     0.064 A 
ATOM     42  C   UNL A   1      43.597  26.245  34.001  1.00  0.00     0.173 A 
ATOM     43  C   UNL A   1      45.500  24.868  34.515  1.00  0.00     0.173 A 
ATOM     44  F   UNL A   1      42.920  27.057  33.175  1.00  0.00    -0.203 F 
ATOM     45  C   UNL A   1      43.063  25.968  35.258  1.00  0.00     0.198 A 
ATOM     46  C   UNL A   1      44.950  24.572  35.759  1.00  0.00     0.198 A 
ATOM     47  F   UNL A   1      46.677  24.317  34.183  1.00  0.00    -0.203 F 
ATOM     48  F   UNL A   1      41.901  26.524  35.627  1.00  0.00    -0.200 F 
ATOM     49  C   UNL A   1      43.736  25.127  36.132  1.00  0.00     0.200 A 
ATOM     50  F   UNL A   1      45.593  23.744  36.595  1.00  0.00    -0.200 F 
ATOM     51  F   UNL A   1      43.217  24.855  37.338  1.00  0.00    -0.200 F 
ENDBRANCH  27  41
BRANCH  28  52
ATOM     52  C   UNL A   1      48.274  27.155  24.470  1.00  0.00     0.064 A 
ATOM     53  C   UNL A   1      47.447  27.764  23.518  1.00  0.00     0.173 A 
ATOM     54  C   UNL A   1      49.576  26.808  24.084  1.00  0.00     0.173 A 
ATOM     55  F   UNL A   1      46.181  28.078  23.833  1.00  0.00    -0.203 F 
ATOM     56  C   UNL A   1      47.908  28.022  22.230  1.00  0.00     0.198 A 
ATOM     57  C   UNL A   1      50.046  27.094  22.805  1.00  0.00     0.198 A 
ATOM     58  F   UNL A   1      50.402  26.215  24.959  1.00  0.00    -0.203 F 
ATOM     59  F   UNL A   1      47.089  28.578  21.326  1.00  0.00    -0.200 F 
ATOM     60  C   UNL A   1      49.209  27.698  21.878  1.00  0.00     0.200 A 
ATOM     61  F   UNL A   1      51.307  26.790  22.472  1.00  0.00    -0.200 F 
ATOM     62  F   UNL A   1      49.658  27.965  20.643  1.00  0.00    -0.200 F 
ENDBRANCH  28  52
BRANCH  40  63
ATOM     63  C   UNL A   1      49.106  30.586  30.480  1.00  0.00     0.064 A 
ATOM     64  C   UNL A   1      48.517  31.859  30.462  1.00  0.00     0.173 A 
ATOM     65  C   UNL A   1      50.435  30.486  30.920  1.00  0.00     0.173 A 
ATOM     66  F   UNL A   1      47.254  32.014  30.037  1.00  0.00    -0.203 F 
ATOM     67  C   UNL A   1      49.236  32.987  30.856  1.00  0.00     0.198 A 
ATOM     68  C   UNL A   1      51.143  31.612  31.333  1.00  0.00     0.198 A 
ATOM     69  F   UNL A   1      51.045  29.292  30.960  1.00  0.00    -0.203 F 
ATOM     70  F   UNL A   1      48.664  34.199  30.799  1.00  0.00    -0.200 F 
ATOM     71  C   UNL A   1      50.545  32.862  31.297  1.00  0.00     0.200 A 
ATOM     72  F   UNL A   1      52.405  31.487  31.768  1.00  0.00    -0.200 F 
ATOM     73  F   UNL A   1      51.231  33.947  31.682  1.00  0.00    -0.200 F 
ENDBRANCH  40  63
ENDBRANCH  14  15
ENDBRANCH   7   9
ENDBRANCH   4   5
ENDBRANCH   3   4
ENDBRANCH   2   3
ENDBRANCH   1   2
BRANCH   1  74
ATOM     74  C   UNL A   1      34.192  20.233  25.710  1.00  0.00     0.021 C 
BRANCH  74  75
ATOM     75  C   UNL A   1      32.706  20.413  25.308  1.00  0.00     0.116 C 
BRANCH  75  76
ATOM     76  N   UNL A   1      32.046  21.340  26.217  1.00  0.00    -0.354 N 
ATOM     77  C   UNL A   1      32.040  22.675  26.465  1.00  0.00     0.250 C 
ATOM     78  H   UNL A   1      31.433  20.865  26.824  1.00  0.00     0.163 HD
ATOM     79  O   UNL A   1      31.491  22.909  27.557  1.00  0.00    -0.272 OA
BRANCH  77  80
ATOM     80  C   UNL A   1      32.430  23.919  25.498  1.00  0.00     0.145 C 
ATOM     81  C   UNL A   1      31.382  23.906  24.324  1.00  0.00     0.044 C 
ATOM     82  C   UNL A   1      33.857  23.646  24.937  1.00  0.00    -0.010 A 
ATOM     83  C   UNL A   1      31.624  22.838  23.260  1.00  0.00     0.008 C 
ATOM     84  C   UNL A   1      34.093  23.239  23.608  1.00  0.00    -0.042 A 
ATOM     85  C   UNL A   1      34.974  23.916  25.758  1.00  0.00     0.007 A 
ATOM     86  C   UNL A   1      32.985  23.018  22.613  1.00  0.00     0.036 C 
ATOM     87  C   UNL A   1      35.415  23.124  23.139  1.00  0.00     0.004 A 
ATOM     88  C   UNL A   1      36.279  23.808  25.276  1.00  0.00     0.000 A 
ATOM     89  C   UNL A   1      36.499  23.409  23.966  1.00  0.00     0.000 A 
BRANCH  80  90
ATOM     90  N   UNL A   1      32.503  25.351  25.933  1.00  0.00    -0.338 N 
ATOM     91  C   UNL A   1      32.693  26.453  25.136  1.00  0.00     0.224 C 
ATOM     92  H   UNL A   1      32.404  25.521  26.898  1.00  0.00     0.164 HD
ATOM     93  O   UNL A   1      33.723  27.122  25.198  1.00  0.00    -0.275 OA
BRANCH  91  94
ATOM     94  C   UNL A   1      31.432  26.943  24.488  1.00  0.00     0.082 C 
ATOM     95  C   UNL A   1      31.453  27.019  22.959  1.00  0.00     0.035 C 
ATOM     96  C   UNL A   1      31.018  28.220  25.250  1.00  0.00     0.035 C 
ATOM     97  C   UNL A   1      31.414  28.413  22.333  1.00  0.00     0.120 C 
ATOM     98  C   UNL A   1      31.353  29.487  24.497  1.00  0.00     0.120 C 
ATOM     99  N   UNL A   1      30.753  29.400  23.184  1.00  0.00    -0.342 N 
ATOM    100  C   UNL A   1      29.625  30.052  22.717  1.00  0.00     0.225 C 
ATOM    101  O   UNL A   1      29.146  29.768  21.606  1.00  0.00    -0.275 OA
BRANCH 100 102
ATOM    102  C   UNL A   1      28.873  31.102  23.461  1.00  0.00     0.079 C 
ATOM    103  C   UNL A   1      28.159  32.270  22.840  1.00  0.00     0.014 C 
ATOM    104  C   UNL A   1      27.403  31.270  23.681  1.00  0.00     0.014 C 
ENDBRANCH 100 102
ENDBRANCH  91  94
ENDBRANCH  80  90
ENDBRANCH  77  80
ENDBRANCH  75  76
ENDBRANCH  74  75
ENDBRANCH   1  74
TORSDOF 16
ENDMDL
