MODEL 1
REMARK VINA RESULT:     -12.6      0.000      0.000
REMARK SMILES Cc1ccc(-c2nc(C)c(C(=O)N3CCC(C(=O)NCCCCCCNC(=O)c4ccc(-c5c6nc(c(-c7c(F)c(F)c(F)c(F)c7F)c7ccc([nH]7)c(-c7c(F)c(F)c(F)c(F)c7F)c7nc(c(-c8c(F)c(F)c(F)c(F)c8F)c8ccc5[nH]8)C=C7)C=C6)cc4)CC3)s2)o1
REMARK SMILES IDX 22 1 21 2 20 3 19 4 17 5 18 6 16 8 11 9 12 10 13 11 14 12
REMARK SMILES IDX 93 13 15 14 92 15 10 16 6 17 7 18 94 19 8 20 9 21 5 22 1 23
REMARK SMILES IDX 2 24 3 25 95 26 4 27 23 28 24 29 25 30 26 31 27 32 28 34
REMARK SMILES IDX 29 35 30 36 91 37 31 38 90 39 32 40 33 41 34 42 84 43 35 44
REMARK SMILES IDX 89 45 83 46 85 47 36 48 88 49 82 50 81 51 37 53 69 54 49 55
REMARK SMILES IDX 68 56 50 57 53 58 67 59 86 60 51 61 52 62 66 64 87 65 54 66
REMARK SMILES IDX 38 67 39 68 47 69 40 70 41 71 45 72 48 73 42 74 43 75 46 76
REMARK SMILES IDX 44 77 70 78 71 79 79 80 72 81 73 82 77 83 80 84 74 85 75 86
REMARK SMILES IDX 78 87 76 88 55 89 56 90 64 91 57 92 58 93 62 94 65 95 59 96
REMARK SMILES IDX 60 97 63 98 61 99
REMARK H PARENT 19 7 26 33 85 52 53 63
REMARK Flexibility Score: inf
ROOT
ATOM      1  C   UNL A   1      34.596  32.249  27.824  1.00  0.00     0.002 C 
ENDROOT
BRANCH   1   2
ATOM      2  C   UNL A   1      35.214  30.910  28.237  1.00  0.00     0.021 C 
BRANCH   2   3
ATOM      3  C   UNL A   1      34.529  29.694  27.619  1.00  0.00     0.116 C 
BRANCH   3   4
ATOM      4  N   UNL A   1      34.085  29.970  26.264  1.00  0.00    -0.356 N 
ATOM      5  C   UNL A   1      33.292  29.255  25.425  1.00  0.00     0.223 C 
ATOM      6  O   UNL A   1      33.090  29.704  24.294  1.00  0.00    -0.275 OA
ATOM      7  H   UNL A   1      34.415  30.820  25.891  1.00  0.00     0.163 HD
BRANCH   5   8
ATOM      8  C   UNL A   1      32.646  27.949  25.860  1.00  0.00     0.082 C 
ATOM      9  C   UNL A   1      31.544  24.342  24.228  1.00  0.00     0.265 C 
ATOM     10  O   UNL A   1      31.059  24.676  23.146  1.00  0.00    -0.268 OA
ATOM     11  N   UNL A   1      31.742  25.308  25.212  1.00  0.00    -0.338 N 
ATOM     12  C   UNL A   1      30.735  26.338  25.407  1.00  0.00     0.120 C 
ATOM     13  C   UNL A   1      32.964  25.435  25.993  1.00  0.00     0.120 C 
ATOM     14  C   UNL A   1      31.281  27.737  25.190  1.00  0.00     0.035 C 
ATOM     15  C   UNL A   1      33.631  26.777  25.728  1.00  0.00     0.035 C 
BRANCH   9  16
ATOM     16  C   UNL A   1      31.814  22.953  24.579  1.00  0.00     0.115 A 
ATOM     17  C   UNL A   1      32.423  20.599  24.424  1.00  0.00     0.159 A 
ATOM     18  N   UNL A   1      31.648  20.794  25.465  1.00  0.00    -0.237 NA
ATOM     19  S   UNL A   1      32.856  22.014  23.565  1.00  0.00    -0.105 S 
ATOM     20  C   UNL A   1      31.273  22.123  25.555  1.00  0.00     0.062 A 
ATOM     21  C   UNL A   1      30.292  22.438  26.626  1.00  0.00     0.068 C 
BRANCH  17  22
ATOM     22  C   UNL A   1      32.811  19.277  24.024  1.00  0.00     0.162 A 
ATOM     23  C   UNL A   1      34.739  16.366  24.850  1.00  0.00     0.087 C 
ATOM     24  C   UNL A   1      33.858  17.329  24.159  1.00  0.00     0.101 A 
ATOM     25  C   UNL A   1      33.157  17.305  22.975  1.00  0.00     0.046 A 
ATOM     26  O   UNL A   1      33.666  18.517  24.788  1.00  0.00    -0.459 OA
ATOM     27  C   UNL A   1      32.473  18.546  22.896  1.00  0.00     0.054 A 
ENDBRANCH  17  22
ENDBRANCH   9  16
ENDBRANCH   5   8
ENDBRANCH   3   4
ENDBRANCH   2   3
ENDBRANCH   1   2
BRANCH   1  28
ATOM     28  C   UNL A   1      34.375  33.240  28.972  1.00  0.00     0.002 C 
BRANCH  28  29
ATOM     29  C   UNL A   1      33.216  34.221  28.773  1.00  0.00     0.021 C 
BRANCH  29  30
ATOM     30  C   UNL A   1      33.431  35.601  29.386  1.00  0.00     0.116 C 
BRANCH  30  31
ATOM     31  N   UNL A   1      32.580  35.827  30.542  1.00  0.00    -0.352 N 
ATOM     32  C   UNL A   1      32.732  35.411  31.838  1.00  0.00     0.251 C 
ATOM     33  H   UNL A   1      31.771  36.360  30.367  1.00  0.00     0.163 HD
ATOM     34  O   UNL A   1      31.809  35.546  32.637  1.00  0.00    -0.269 OA
BRANCH  32  35
ATOM     35  C   UNL A   1      33.994  34.779  32.277  1.00  0.00     0.039 A 
ATOM     36  C   UNL A   1      33.952  33.458  32.733  1.00  0.00     0.014 A 
ATOM     37  C   UNL A   1      35.204  35.479  32.268  1.00  0.00     0.014 A 
ATOM     38  C   UNL A   1      35.131  32.825  33.128  1.00  0.00     0.010 A 
ATOM     39  C   UNL A   1      36.389  34.825  32.597  1.00  0.00     0.010 A 
ATOM     40  C   UNL A   1      36.364  33.492  33.033  1.00  0.00    -0.014 A 
BRANCH  40  41
ATOM     41  C   UNL A   1      37.626  32.786  33.366  1.00  0.00     0.031 A 
ATOM     42  C   UNL A   1      38.367  33.091  34.637  1.00  0.00     0.074 A 
ATOM     43  C   UNL A   1      38.123  31.888  32.494  1.00  0.00     0.049 A 
ATOM     44  N   UNL A   1      39.471  32.558  35.098  1.00  0.00    -0.248 NA
ATOM     45  C   UNL A   1      37.809  34.148  35.492  1.00  0.00     0.031 C 
ATOM     46  C   UNL A   1      37.533  31.557  31.197  1.00  0.00     0.029 A 
ATOM     47  N   UNL A   1      39.238  31.090  32.566  1.00  0.00    -0.354 N 
ATOM     48  C   UNL A   1      39.738  33.213  36.293  1.00  0.00     0.074 A 
ATOM     49  C   UNL A   1      38.714  34.224  36.455  1.00  0.00     0.031 C 
ATOM     50  C   UNL A   1      38.273  30.606  30.607  1.00  0.00     0.029 A 
ATOM     51  C   UNL A   1      39.403  30.279  31.472  1.00  0.00     0.049 A 
ATOM     52  H   UNL A   1      39.859  31.099  33.331  1.00  0.00     0.167 HD
ATOM     53  C   UNL A   1      40.728  32.974  37.185  1.00  0.00     0.037 A 
ATOM     54  C   UNL A   1      40.357  29.371  31.197  1.00  0.00     0.037 A 
ATOM     55  C   UNL A   1      41.741  31.963  37.022  1.00  0.00     0.049 A 
ATOM     56  C   UNL A   1      41.438  29.114  32.209  1.00  0.00     0.074 A 
ATOM     57  C   UNL A   1      42.757  31.607  37.892  1.00  0.00     0.029 A 
ATOM     58  N   UNL A   1      41.869  31.147  35.906  1.00  0.00    -0.354 N 
ATOM     59  N   UNL A   1      41.634  29.683  33.373  1.00  0.00    -0.248 NA
ATOM     60  C   UNL A   1      42.423  28.077  31.873  1.00  0.00     0.031 C 
ATOM     61  C   UNL A   1      43.527  30.609  37.283  1.00  0.00     0.029 A 
ATOM     62  C   UNL A   1      42.961  30.305  36.057  1.00  0.00     0.049 A 
ATOM     63  H   UNL A   1      41.273  31.164  35.123  1.00  0.00     0.167 HD
ATOM     64  C   UNL A   1      42.754  29.068  33.916  1.00  0.00     0.074 A 
ATOM     65  C   UNL A   1      43.174  28.059  32.965  1.00  0.00     0.031 C 
ATOM     66  C   UNL A   1      43.378  29.318  35.093  1.00  0.00     0.037 A 
BRANCH  53  67
ATOM     67  C   UNL A   1      40.758  33.822  38.425  1.00  0.00     0.064 A 
ATOM     68  C   UNL A   1      41.537  34.987  38.499  1.00  0.00     0.173 A 
ATOM     69  C   UNL A   1      39.979  33.484  39.543  1.00  0.00     0.173 A 
ATOM     70  F   UNL A   1      42.308  35.349  37.463  1.00  0.00    -0.203 F 
ATOM     71  C   UNL A   1      41.564  35.762  39.656  1.00  0.00     0.198 A 
ATOM     72  C   UNL A   1      39.984  34.279  40.687  1.00  0.00     0.198 A 
ATOM     73  F   UNL A   1      39.209  32.386  39.525  1.00  0.00    -0.203 F 
ATOM     74  F   UNL A   1      42.358  36.840  39.720  1.00  0.00    -0.200 F 
ATOM     75  C   UNL A   1      40.782  35.411  40.746  1.00  0.00     0.200 A 
ATOM     76  F   UNL A   1      39.217  33.947  41.735  1.00  0.00    -0.200 F 
ATOM     77  F   UNL A   1      40.805  36.161  41.857  1.00  0.00    -0.200 F 
ENDBRANCH  53  67
BRANCH  54  78
ATOM     78  C   UNL A   1      40.306  28.614  29.919  1.00  0.00     0.064 A 
ATOM     79  C   UNL A   1      40.950  29.092  28.770  1.00  0.00     0.173 A 
ATOM     80  C   UNL A   1      39.627  27.391  29.827  1.00  0.00     0.173 A 
ATOM     81  F   UNL A   1      41.596  30.267  28.806  1.00  0.00    -0.203 F 
ATOM     82  C   UNL A   1      40.901  28.385  27.571  1.00  0.00     0.198 A 
ATOM     83  C   UNL A   1      39.604  26.670  28.635  1.00  0.00     0.198 A 
ATOM     84  F   UNL A   1      39.002  26.886  30.900  1.00  0.00    -0.203 F 
ATOM     85  F   UNL A   1      41.491  28.885  26.477  1.00  0.00    -0.200 F 
ATOM     86  C   UNL A   1      40.235  27.171  27.507  1.00  0.00     0.200 A 
ATOM     87  F   UNL A   1      38.971  25.489  28.580  1.00  0.00    -0.200 F 
ATOM     88  F   UNL A   1      40.197  26.487  26.355  1.00  0.00    -0.200 F 
ENDBRANCH  54  78
BRANCH  66  89
ATOM     89  C   UNL A   1      44.582  28.479  35.414  1.00  0.00     0.064 A 
ATOM     90  C   UNL A   1      44.468  27.265  36.107  1.00  0.00     0.173 A 
ATOM     91  C   UNL A   1      45.865  28.892  35.020  1.00  0.00     0.173 A 
ATOM     92  F   UNL A   1      43.266  26.833  36.519  1.00  0.00    -0.203 F 
ATOM     93  C   UNL A   1      45.596  26.513  36.426  1.00  0.00     0.198 A 
ATOM     94  C   UNL A   1      46.987  28.122  35.314  1.00  0.00     0.198 A 
ATOM     95  F   UNL A   1      46.030  30.042  34.350  1.00  0.00    -0.203 F 
ATOM     96  F   UNL A   1      45.468  25.387  37.141  1.00  0.00    -0.200 F 
ATOM     97  C   UNL A   1      46.852  26.939  36.025  1.00  0.00     0.200 A 
ATOM     98  F   UNL A   1      48.200  28.530  34.915  1.00  0.00    -0.200 F 
ATOM     99  F   UNL A   1      47.938  26.216  36.335  1.00  0.00    -0.200 F 
ENDBRANCH  66  89
ENDBRANCH  40  41
ENDBRANCH  32  35
ENDBRANCH  30  31
ENDBRANCH  29  30
ENDBRANCH  28  29
ENDBRANCH   1  28
TORSDOF 15
ENDMDL
MODEL 2
REMARK VINA RESULT:     -12.5      5.352      9.279
REMARK SMILES Cc1ccc(-c2nc(C)c(C(=O)N3CCC(C(=O)NCCCCCCNC(=O)c4ccc(-c5c6nc(c(-c7c(F)c(F)c(F)c(F)c7F)c7ccc([nH]7)c(-c7c(F)c(F)c(F)c(F)c7F)c7nc(c(-c8c(F)c(F)c(F)c(F)c8F)c8ccc5[nH]8)C=C7)C=C6)cc4)CC3)s2)o1
REMARK SMILES IDX 22 1 21 2 20 3 19 4 17 5 18 6 16 8 11 9 12 10 13 11 14 12
REMARK SMILES IDX 93 13 15 14 92 15 10 16 6 17 7 18 94 19 8 20 9 21 5 22 1 23
REMARK SMILES IDX 2 24 3 25 95 26 4 27 23 28 24 29 25 30 26 31 27 32 28 34
REMARK SMILES IDX 29 35 30 36 91 37 31 38 90 39 32 40 33 41 34 42 84 43 35 44
REMARK SMILES IDX 89 45 83 46 85 47 36 48 88 49 82 50 81 51 37 53 69 54 49 55
REMARK SMILES IDX 68 56 50 57 53 58 67 59 86 60 51 61 52 62 66 64 87 65 54 66
REMARK SMILES IDX 38 67 39 68 47 69 40 70 41 71 45 72 48 73 42 74 43 75 46 76
REMARK SMILES IDX 44 77 70 78 71 79 79 80 72 81 73 82 77 83 80 84 74 85 75 86
REMARK SMILES IDX 78 87 76 88 55 89 56 90 64 91 57 92 58 93 62 94 65 95 59 96
REMARK SMILES IDX 60 97 63 98 61 99
REMARK H PARENT 19 7 26 33 85 52 53 63
REMARK Flexibility Score: inf
ROOT
ATOM      1  C   UNL A   1      37.616  32.606  30.514  1.00  0.00     0.002 C 
ENDROOT
BRANCH   1   2
ATOM      2  C   UNL A   1      37.864  33.390  31.806  1.00  0.00     0.021 C 
BRANCH   2   3
ATOM      3  C   UNL A   1      38.338  32.529  32.974  1.00  0.00     0.116 C 
BRANCH   3   4
ATOM      4  N   UNL A   1      37.602  31.279  33.040  1.00  0.00    -0.356 N 
ATOM      5  C   UNL A   1      38.031  30.002  33.216  1.00  0.00     0.223 C 
ATOM      6  O   UNL A   1      37.190  29.100  33.202  1.00  0.00    -0.275 OA
ATOM      7  H   UNL A   1      36.626  31.373  32.942  1.00  0.00     0.163 HD
BRANCH   5   8
ATOM      8  C   UNL A   1      39.499  29.680  33.446  1.00  0.00     0.082 C 
ATOM      9  C   UNL A   1      41.790  26.990  35.544  1.00  0.00     0.265 C 
ATOM     10  O   UNL A   1      41.202  26.926  36.626  1.00  0.00    -0.268 OA
ATOM     11  N   UNL A   1      41.502  28.040  34.675  1.00  0.00    -0.338 N 
ATOM     12  C   UNL A   1      41.294  29.373  35.216  1.00  0.00     0.120 C 
ATOM     13  C   UNL A   1      41.270  27.873  33.247  1.00  0.00     0.120 C 
ATOM     14  C   UNL A   1      39.914  29.921  34.904  1.00  0.00     0.035 C 
ATOM     15  C   UNL A   1      39.853  28.294  32.883  1.00  0.00     0.035 C 
BRANCH   9  16
ATOM     16  C   UNL A   1      42.870  26.082  35.176  1.00  0.00     0.115 A 
ATOM     17  C   UNL A   1      44.301  24.116  35.043  1.00  0.00     0.159 A 
ATOM     18  N   UNL A   1      44.978  25.186  34.699  1.00  0.00    -0.237 NA
ATOM     19  S   UNL A   1      42.642  24.378  35.372  1.00  0.00    -0.105 S 
ATOM     20  C   UNL A   1      44.185  26.317  34.792  1.00  0.00     0.062 A 
ATOM     21  C   UNL A   1      44.883  27.606  34.544  1.00  0.00     0.068 C 
BRANCH  17  22
ATOM     22  C   UNL A   1      44.948  22.843  35.185  1.00  0.00     0.162 A 
ATOM     23  C   UNL A   1      46.291  20.430  37.475  1.00  0.00     0.087 C 
ATOM     24  C   UNL A   1      45.883  21.136  36.244  1.00  0.00     0.101 A 
ATOM     25  C   UNL A   1      45.977  20.851  34.901  1.00  0.00     0.046 A 
ATOM     26  O   UNL A   1      45.277  22.338  36.422  1.00  0.00    -0.459 OA
ATOM     27  C   UNL A   1      45.364  21.936  34.223  1.00  0.00     0.054 A 
ENDBRANCH  17  22
ENDBRANCH   9  16
ENDBRANCH   5   8
ENDBRANCH   3   4
ENDBRANCH   2   3
ENDBRANCH   1   2
BRANCH   1  28
ATOM     28  C   UNL A   1      37.339  33.468  29.279  1.00  0.00     0.002 C 
BRANCH  28  29
ATOM     29  C   UNL A   1      35.910  33.384  28.733  1.00  0.00     0.021 C 
BRANCH  29  30
ATOM     30  C   UNL A   1      34.963  32.508  29.547  1.00  0.00     0.116 C 
BRANCH  30  31
ATOM     31  N   UNL A   1      34.265  31.538  28.719  1.00  0.00    -0.352 N 
ATOM     32  C   UNL A   1      34.744  30.427  28.077  1.00  0.00     0.251 C 
ATOM     33  H   UNL A   1      33.302  31.705  28.603  1.00  0.00     0.163 HD
ATOM     34  O   UNL A   1      34.033  29.832  27.271  1.00  0.00    -0.269 OA
BRANCH  32  35
ATOM     35  C   UNL A   1      36.120  29.952  28.330  1.00  0.00     0.039 A 
ATOM     36  C   UNL A   1      37.076  30.119  27.324  1.00  0.00     0.014 A 
ATOM     37  C   UNL A   1      36.467  29.325  29.530  1.00  0.00     0.014 A 
ATOM     38  C   UNL A   1      38.391  29.704  27.543  1.00  0.00     0.010 A 
ATOM     39  C   UNL A   1      37.794  28.976  29.774  1.00  0.00     0.010 A 
ATOM     40  C   UNL A   1      38.768  29.160  28.783  1.00  0.00    -0.014 A 
BRANCH  40  41
ATOM     41  C   UNL A   1      40.185  28.806  29.046  1.00  0.00     0.031 A 
ATOM     42  C   UNL A   1      41.094  29.757  29.771  1.00  0.00     0.074 A 
ATOM     43  C   UNL A   1      40.661  27.631  28.594  1.00  0.00     0.049 A 
ATOM     44  N   UNL A   1      42.352  29.607  30.105  1.00  0.00    -0.248 NA
ATOM     45  C   UNL A   1      40.525  31.058  30.151  1.00  0.00     0.031 C 
ATOM     46  C   UNL A   1      39.896  26.654  27.817  1.00  0.00     0.029 A 
ATOM     47  N   UNL A   1      41.902  27.057  28.720  1.00  0.00    -0.354 N 
ATOM     48  C   UNL A   1      42.722  30.788  30.732  1.00  0.00     0.074 A 
ATOM     49  C   UNL A   1      41.575  31.670  30.679  1.00  0.00     0.031 C 
ATOM     50  C   UNL A   1      40.673  25.591  27.561  1.00  0.00     0.029 A 
ATOM     51  C   UNL A   1      41.997  25.821  28.132  1.00  0.00     0.049 A 
ATOM     52  H   UNL A   1      42.651  27.491  29.190  1.00  0.00     0.167 HD
ATOM     53  C   UNL A   1      43.901  31.098  31.323  1.00  0.00     0.037 A 
ATOM     54  C   UNL A   1      43.035  24.967  28.061  1.00  0.00     0.037 A 
ATOM     55  C   UNL A   1      45.038  30.216  31.379  1.00  0.00     0.049 A 
ATOM     56  C   UNL A   1      44.328  25.329  28.736  1.00  0.00     0.074 A 
ATOM     57  C   UNL A   1      46.259  30.417  31.998  1.00  0.00     0.029 A 
ATOM     58  N   UNL A   1      45.094  28.963  30.784  1.00  0.00    -0.354 N 
ATOM     59  N   UNL A   1      44.641  26.416  29.397  1.00  0.00    -0.248 NA
ATOM     60  C   UNL A   1      45.408  24.335  28.667  1.00  0.00     0.031 C 
ATOM     61  C   UNL A   1      47.070  29.305  31.739  1.00  0.00     0.029 A 
ATOM     62  C   UNL A   1      46.337  28.389  31.003  1.00  0.00     0.049 A 
ATOM     63  H   UNL A   1      44.360  28.543  30.280  1.00  0.00     0.167 HD
ATOM     64  C   UNL A   1      45.946  26.236  29.834  1.00  0.00     0.074 A 
ATOM     65  C   UNL A   1      46.355  24.920  29.388  1.00  0.00     0.031 C 
ATOM     66  C   UNL A   1      46.736  27.084  30.537  1.00  0.00     0.037 A 
BRANCH  53  67
ATOM     67  C   UNL A   1      44.015  32.453  31.964  1.00  0.00     0.064 A 
ATOM     68  C   UNL A   1      44.443  33.575  31.237  1.00  0.00     0.173 A 
ATOM     69  C   UNL A   1      43.667  32.640  33.311  1.00  0.00     0.173 A 
ATOM     70  F   UNL A   1      44.797  33.450  29.950  1.00  0.00    -0.203 F 
ATOM     71  C   UNL A   1      44.553  34.824  31.843  1.00  0.00     0.198 A 
ATOM     72  C   UNL A   1      43.748  33.898  33.904  1.00  0.00     0.198 A 
ATOM     73  F   UNL A   1      43.244  31.604  34.051  1.00  0.00    -0.203 F 
ATOM     74  F   UNL A   1      45.016  35.869  31.142  1.00  0.00    -0.200 F 
ATOM     75  C   UNL A   1      44.199  34.986  33.173  1.00  0.00     0.200 A 
ATOM     76  F   UNL A   1      43.392  34.055  35.187  1.00  0.00    -0.200 F 
ATOM     77  F   UNL A   1      44.300  36.190  33.753  1.00  0.00    -0.200 F 
ENDBRANCH  53  67
BRANCH  54  78
ATOM     78  C   UNL A   1      42.875  23.672  27.352  1.00  0.00     0.064 A 
ATOM     79  C   UNL A   1      43.286  23.521  26.021  1.00  0.00     0.173 A 
ATOM     80  C   UNL A   1      42.323  22.555  27.996  1.00  0.00     0.173 A 
ATOM     81  F   UNL A   1      43.802  24.567  25.358  1.00  0.00    -0.203 F 
ATOM     82  C   UNL A   1      43.134  22.308  25.354  1.00  0.00     0.198 A 
ATOM     83  C   UNL A   1      42.199  21.334  27.337  1.00  0.00     0.198 A 
ATOM     84  F   UNL A   1      41.921  22.646  29.272  1.00  0.00    -0.203 F 
ATOM     85  F   UNL A   1      43.498  22.203  24.069  1.00  0.00    -0.200 F 
ATOM     86  C   UNL A   1      42.598  21.213  26.015  1.00  0.00     0.200 A 
ATOM     87  F   UNL A   1      41.694  20.274  27.984  1.00  0.00    -0.200 F 
ATOM     88  F   UNL A   1      42.462  20.044  25.375  1.00  0.00    -0.200 F 
ENDBRANCH  54  78
BRANCH  66  89
ATOM     89  C   UNL A   1      48.121  26.607  30.867  1.00  0.00     0.064 A 
ATOM     90  C   UNL A   1      48.377  25.828  32.006  1.00  0.00     0.173 A 
ATOM     91  C   UNL A   1      49.204  26.927  30.034  1.00  0.00     0.173 A 
ATOM     92  F   UNL A   1      47.379  25.508  32.843  1.00  0.00    -0.203 F 
ATOM     93  C   UNL A   1      49.672  25.419  32.317  1.00  0.00     0.198 A 
ATOM     94  C   UNL A   1      50.491  26.489  30.332  1.00  0.00     0.198 A 
ATOM     95  F   UNL A   1      49.013  27.664  28.930  1.00  0.00    -0.203 F 
ATOM     96  F   UNL A   1      49.901  24.728  33.442  1.00  0.00    -0.200 F 
ATOM     97  C   UNL A   1      50.725  25.745  31.478  1.00  0.00     0.200 A 
ATOM     98  F   UNL A   1      51.507  26.796  29.513  1.00  0.00    -0.200 F 
ATOM     99  F   UNL A   1      51.971  25.353  31.781  1.00  0.00    -0.200 F 
ENDBRANCH  66  89
ENDBRANCH  40  41
ENDBRANCH  32  35
ENDBRANCH  30  31
ENDBRANCH  29  30
ENDBRANCH  28  29
ENDBRANCH   1  28
TORSDOF 15
ENDMDL
MODEL 3
REMARK VINA RESULT:     -12.4      6.372     12.164
REMARK SMILES Cc1ccc(-c2nc(C)c(C(=O)N3CCC(C(=O)NCCCCCCNC(=O)c4ccc(-c5c6nc(c(-c7c(F)c(F)c(F)c(F)c7F)c7ccc([nH]7)c(-c7c(F)c(F)c(F)c(F)c7F)c7nc(c(-c8c(F)c(F)c(F)c(F)c8F)c8ccc5[nH]8)C=C7)C=C6)cc4)CC3)s2)o1
REMARK SMILES IDX 22 1 21 2 20 3 19 4 17 5 18 6 16 8 11 9 12 10 13 11 14 12
REMARK SMILES IDX 93 13 15 14 92 15 10 16 6 17 7 18 94 19 8 20 9 21 5 22 1 23
REMARK SMILES IDX 2 24 3 25 95 26 4 27 23 28 24 29 25 30 26 31 27 32 28 34
REMARK SMILES IDX 29 35 30 36 91 37 31 38 90 39 32 40 33 41 34 42 84 43 35 44
REMARK SMILES IDX 89 45 83 46 85 47 36 48 88 49 82 50 81 51 37 53 69 54 49 55
REMARK SMILES IDX 68 56 50 57 53 58 67 59 86 60 51 61 52 62 66 64 87 65 54 66
REMARK SMILES IDX 38 67 39 68 47 69 40 70 41 71 45 72 48 73 42 74 43 75 46 76
REMARK SMILES IDX 44 77 70 78 71 79 79 80 72 81 73 82 77 83 80 84 74 85 75 86
REMARK SMILES IDX 78 87 76 88 55 89 56 90 64 91 57 92 58 93 62 94 65 95 59 96
REMARK SMILES IDX 60 97 63 98 61 99
REMARK H PARENT 19 7 26 33 85 52 53 63
REMARK Flexibility Score: inf
ROOT
ATOM      1  C   UNL A   1      40.595  22.085  26.129  1.00  0.00     0.002 C 
ENDROOT
BRANCH   1   2
ATOM      2  C   UNL A   1      39.271  22.751  26.515  1.00  0.00     0.021 C 
BRANCH   2   3
ATOM      3  C   UNL A   1      38.139  22.504  25.521  1.00  0.00     0.116 C 
BRANCH   3   4
ATOM      4  N   UNL A   1      37.043  21.778  26.139  1.00  0.00    -0.356 N 
ATOM      5  C   UNL A   1      35.712  21.778  25.868  1.00  0.00     0.223 C 
ATOM      6  O   UNL A   1      34.977  21.084  26.574  1.00  0.00    -0.275 OA
ATOM      7  H   UNL A   1      37.310  21.186  26.879  1.00  0.00     0.163 HD
BRANCH   5   8
ATOM      8  C   UNL A   1      35.133  22.587  24.718  1.00  0.00     0.082 C 
ATOM      9  C   UNL A   1      31.578  24.348  23.647  1.00  0.00     0.265 C 
ATOM     10  O   UNL A   1      30.749  23.501  23.985  1.00  0.00    -0.268 OA
ATOM     11  N   UNL A   1      32.920  23.986  23.554  1.00  0.00    -0.338 N 
ATOM     12  C   UNL A   1      33.268  22.689  22.997  1.00  0.00     0.120 C 
ATOM     13  C   UNL A   1      34.015  24.778  24.094  1.00  0.00     0.120 C 
ATOM     14  C   UNL A   1      34.029  21.818  23.978  1.00  0.00     0.035 C 
ATOM     15  C   UNL A   1      34.752  24.003  25.177  1.00  0.00     0.035 C 
BRANCH   9  16
ATOM     16  C   UNL A   1      31.207  25.692  23.220  1.00  0.00     0.115 A 
ATOM     17  C   UNL A   1      30.015  27.803  22.985  1.00  0.00     0.159 A 
ATOM     18  N   UNL A   1      30.749  27.582  21.919  1.00  0.00    -0.237 NA
ATOM     19  S   UNL A   1      30.178  26.645  24.234  1.00  0.00    -0.105 S 
ATOM     20  C   UNL A   1      31.416  26.374  22.026  1.00  0.00     0.062 A 
ATOM     21  C   UNL A   1      32.182  25.960  20.822  1.00  0.00     0.068 C 
BRANCH  17  22
ATOM     22  C   UNL A   1      29.105  28.911  23.042  1.00  0.00     0.162 A 
ATOM     23  C   UNL A   1      28.767  32.481  23.123  1.00  0.00     0.087 C 
ATOM     24  C   UNL A   1      28.476  31.034  23.122  1.00  0.00     0.101 A 
ATOM     25  C   UNL A   1      27.320  30.290  23.180  1.00  0.00     0.046 A 
ATOM     26  O   UNL A   1      29.554  30.211  23.053  1.00  0.00    -0.459 OA
ATOM     27  C   UNL A   1      27.721  28.931  23.112  1.00  0.00     0.054 A 
ENDBRANCH  17  22
ENDBRANCH   9  16
ENDBRANCH   5   8
ENDBRANCH   3   4
ENDBRANCH   2   3
ENDBRANCH   1   2
BRANCH   1  28
ATOM     28  C   UNL A   1      40.955  20.841  26.947  1.00  0.00     0.002 C 
BRANCH  28  29
ATOM     29  C   UNL A   1      41.262  19.586  26.124  1.00  0.00     0.021 C 
BRANCH  29  30
ATOM     30  C   UNL A   1      42.564  18.882  26.490  1.00  0.00     0.116 C 
BRANCH  30  31
ATOM     31  N   UNL A   1      43.427  18.688  25.336  1.00  0.00    -0.352 N 
ATOM     32  C   UNL A   1      44.128  19.607  24.601  1.00  0.00     0.251 C 
ATOM     33  H   UNL A   1      43.522  17.755  25.038  1.00  0.00     0.163 HD
ATOM     34  O   UNL A   1      44.657  19.272  23.545  1.00  0.00    -0.269 OA
BRANCH  32  35
ATOM     35  C   UNL A   1      44.233  21.009  25.060  1.00  0.00     0.039 A 
ATOM     36  C   UNL A   1      44.743  21.253  26.339  1.00  0.00     0.014 A 
ATOM     37  C   UNL A   1      43.813  22.073  24.257  1.00  0.00     0.014 A 
ATOM     38  C   UNL A   1      44.879  22.566  26.789  1.00  0.00     0.010 A 
ATOM     39  C   UNL A   1      44.014  23.385  24.681  1.00  0.00     0.010 A 
ATOM     40  C   UNL A   1      44.547  23.644  25.952  1.00  0.00    -0.014 A 
BRANCH  40  41
ATOM     41  C   UNL A   1      44.780  25.040  26.399  1.00  0.00     0.031 A 
ATOM     42  C   UNL A   1      46.139  25.669  26.285  1.00  0.00     0.074 A 
ATOM     43  C   UNL A   1      43.761  25.732  26.944  1.00  0.00     0.049 A 
ATOM     44  N   UNL A   1      46.520  26.880  26.606  1.00  0.00    -0.248 NA
ATOM     45  C   UNL A   1      47.221  24.819  25.764  1.00  0.00     0.031 C 
ATOM     46  C   UNL A   1      42.414  25.208  27.172  1.00  0.00     0.029 A 
ATOM     47  N   UNL A   1      43.700  27.022  27.408  1.00  0.00    -0.354 N 
ATOM     48  C   UNL A   1      47.878  26.938  26.326  1.00  0.00     0.074 A 
ATOM     49  C   UNL A   1      48.269  25.622  25.867  1.00  0.00     0.031 C 
ATOM     50  C   UNL A   1      41.651  26.174  27.705  1.00  0.00     0.029 A 
ATOM     51  C   UNL A   1      42.461  27.377  27.880  1.00  0.00     0.049 A 
ATOM     52  H   UNL A   1      44.471  27.635  27.401  1.00  0.00     0.167 HD
ATOM     53  C   UNL A   1      48.716  27.998  26.417  1.00  0.00     0.037 A 
ATOM     54  C   UNL A   1      42.025  28.541  28.394  1.00  0.00     0.037 A 
ATOM     55  C   UNL A   1      48.322  29.308  26.869  1.00  0.00     0.049 A 
ATOM     56  C   UNL A   1      42.970  29.707  28.472  1.00  0.00     0.074 A 
ATOM     57  C   UNL A   1      49.083  30.461  26.950  1.00  0.00     0.029 A 
ATOM     58  N   UNL A   1      47.053  29.636  27.326  1.00  0.00    -0.354 N 
ATOM     59  N   UNL A   1      44.233  29.773  28.129  1.00  0.00    -0.248 NA
ATOM     60  C   UNL A   1      42.423  30.965  28.997  1.00  0.00     0.031 C 
ATOM     61  C   UNL A   1      48.287  31.475  27.497  1.00  0.00     0.029 A 
ATOM     62  C   UNL A   1      47.016  30.968  27.710  1.00  0.00     0.049 A 
ATOM     63  H   UNL A   1      46.291  29.014  27.371  1.00  0.00     0.167 HD
ATOM     64  C   UNL A   1      44.630  31.079  28.382  1.00  0.00     0.074 A 
ATOM     65  C   UNL A   1      43.464  31.779  28.880  1.00  0.00     0.031 C 
ATOM     66  C   UNL A   1      45.851  31.646  28.221  1.00  0.00     0.037 A 
BRANCH  53  67
ATOM     67  C   UNL A   1      50.147  27.783  26.011  1.00  0.00     0.064 A 
ATOM     68  C   UNL A   1      50.534  27.773  24.662  1.00  0.00     0.173 A 
ATOM     69  C   UNL A   1      51.149  27.612  26.980  1.00  0.00     0.173 A 
ATOM     70  F   UNL A   1      49.615  27.921  23.696  1.00  0.00    -0.203 F 
ATOM     71  C   UNL A   1      51.862  27.565  24.296  1.00  0.00     0.198 A 
ATOM     72  C   UNL A   1      52.480  27.436  26.611  1.00  0.00     0.198 A 
ATOM     73  F   UNL A   1      50.837  27.621  28.284  1.00  0.00    -0.203 F 
ATOM     74  F   UNL A   1      52.197  27.506  23.000  1.00  0.00    -0.200 F 
ATOM     75  C   UNL A   1      52.834  27.403  25.271  1.00  0.00     0.200 A 
ATOM     76  F   UNL A   1      53.421  27.293  27.555  1.00  0.00    -0.200 F 
ATOM     77  F   UNL A   1      54.112  27.208  24.918  1.00  0.00    -0.200 F 
ENDBRANCH  53  67
BRANCH  54  78
ATOM     78  C   UNL A   1      40.613  28.666  28.841  1.00  0.00     0.064 A 
ATOM     79  C   UNL A   1      39.606  29.059  27.950  1.00  0.00     0.173 A 
ATOM     80  C   UNL A   1      40.242  28.378  30.162  1.00  0.00     0.173 A 
ATOM     81  F   UNL A   1      39.916  29.364  26.681  1.00  0.00    -0.203 F 
ATOM     82  C   UNL A   1      38.282  29.179  28.368  1.00  0.00     0.198 A 
ATOM     83  C   UNL A   1      38.914  28.468  30.571  1.00  0.00     0.198 A 
ATOM     84  F   UNL A   1      41.168  27.989  31.051  1.00  0.00    -0.203 F 
ATOM     85  F   UNL A   1      37.345  29.597  27.507  1.00  0.00    -0.200 F 
ATOM     86  C   UNL A   1      37.936  28.876  29.676  1.00  0.00     0.200 A 
ATOM     87  F   UNL A   1      38.580  28.160  31.833  1.00  0.00    -0.200 F 
ATOM     88  F   UNL A   1      36.661  28.981  30.075  1.00  0.00    -0.200 F 
ENDBRANCH  54  78
BRANCH  66  89
ATOM     89  C   UNL A   1      45.979  33.097  28.585  1.00  0.00     0.064 A 
ATOM     90  C   UNL A   1      45.737  34.113  27.649  1.00  0.00     0.173 A 
ATOM     91  C   UNL A   1      46.343  33.477  29.887  1.00  0.00     0.173 A 
ATOM     92  F   UNL A   1      45.402  33.804  26.387  1.00  0.00    -0.203 F 
ATOM     93  C   UNL A   1      45.891  35.455  27.992  1.00  0.00     0.198 A 
ATOM     94  C   UNL A   1      46.465  34.819  30.234  1.00  0.00     0.198 A 
ATOM     95  F   UNL A   1      46.580  32.545  30.822  1.00  0.00    -0.203 F 
ATOM     96  F   UNL A   1      45.714  36.406  27.064  1.00  0.00    -0.200 F 
ATOM     97  C   UNL A   1      46.249  35.806  29.284  1.00  0.00     0.200 A 
ATOM     98  F   UNL A   1      46.800  35.158  31.487  1.00  0.00    -0.200 F 
ATOM     99  F   UNL A   1      46.399  37.098  29.612  1.00  0.00    -0.200 F 
ENDBRANCH  66  89
ENDBRANCH  40  41
ENDBRANCH  32  35
ENDBRANCH  30  31
ENDBRANCH  29  30
ENDBRANCH  28  29
ENDBRANCH   1  28
TORSDOF 15
ENDMDL
