MODEL 1
REMARK VINA RESULT:     -11.8      0.000      0.000
REMARK SMILES O=C(NCCCCCCNC(=O)c1cccc(N[C@H]2CCCC[C@@H]2O)c1)c1ccc(-c2c3nc(c(-c4c(F)c(F)c(F)c(F)c4F)c4ccc([nH]4)c(-c4c(F)c(F)c(F)c(F)c4F)c4nc(c(-c5c(F)c(F)c(F)c(F)c5F)c5ccc2[nH]5)C=C4)C=C3)cc1
REMARK SMILES IDX 7 1 6 2 5 3 4 4 3 5 1 6 2 7 27 9 28 10 89 11 29 12 88 13
REMARK SMILES IDX 30 14 31 15 32 16 82 17 33 18 87 19 81 20 83 21 34 22 86 23
REMARK SMILES IDX 80 24 79 25 35 27 67 28 47 29 66 30 48 31 51 32 65 33 84 34
REMARK SMILES IDX 49 35 50 36 64 38 85 39 52 40 36 41 37 42 45 43 38 44 39 45
REMARK SMILES IDX 43 46 46 47 40 48 41 49 44 50 42 51 68 52 69 53 77 54 70 55
REMARK SMILES IDX 71 56 75 57 78 58 72 59 73 60 76 61 74 62 53 63 54 64 62 65
REMARK SMILES IDX 55 66 56 67 60 68 63 69 57 70 58 71 61 72 59 73 8 74 9 75
REMARK SMILES IDX 10 76 11 77 12 79 13 80 14 81 26 82 15 83 17 84 16 85 18 86
REMARK SMILES IDX 19 88 20 89 24 90 21 91 23 92 22 93 25 94
REMARK H PARENT 3 8 83 26 51 37 10 78 18 87 25 95
REMARK Flexibility Score: inf
ROOT
ATOM      1  C   UNL A   1      35.008  32.845  27.995  1.00  0.00     0.002 C 
ENDROOT
BRANCH   1   2
ATOM      2  C   UNL A   1      34.403  33.569  29.201  1.00  0.00     0.002 C 
BRANCH   2   3
ATOM      3  C   UNL A   1      33.252  34.520  28.878  1.00  0.00     0.021 C 
BRANCH   3   4
ATOM      4  C   UNL A   1      33.408  35.924  29.447  1.00  0.00     0.116 C 
BRANCH   4   5
ATOM      5  N   UNL A   1      32.524  36.170  30.576  1.00  0.00    -0.352 N 
ATOM      6  O   UNL A   1      31.707  35.885  32.663  1.00  0.00    -0.269 OA
ATOM      7  C   UNL A   1      32.627  35.719  31.868  1.00  0.00     0.251 C 
ATOM      8  H   UNL A   1      31.743  36.739  30.387  1.00  0.00     0.163 HD
BRANCH   7   9
ATOM      9  C   UNL A   1      33.850  35.006  32.295  1.00  0.00     0.039 A 
ATOM     10  C   UNL A   1      35.096  35.636  32.228  1.00  0.00     0.014 A 
ATOM     11  C   UNL A   1      33.748  33.695  32.765  1.00  0.00     0.014 A 
ATOM     12  C   UNL A   1      36.249  34.910  32.496  1.00  0.00     0.010 A 
ATOM     13  C   UNL A   1      34.904  32.997  33.125  1.00  0.00     0.010 A 
ATOM     14  C   UNL A   1      36.166  33.591  32.970  1.00  0.00    -0.014 A 
BRANCH  14  15
ATOM     15  C   UNL A   1      37.407  32.887  33.373  1.00  0.00     0.031 A 
ATOM     16  C   UNL A   1      38.083  33.179  34.682  1.00  0.00     0.074 A 
ATOM     17  C   UNL A   1      37.915  31.958  32.539  1.00  0.00     0.049 A 
ATOM     18  N   UNL A   1      39.170  32.648  35.184  1.00  0.00    -0.248 NA
ATOM     19  C   UNL A   1      37.465  34.203  35.538  1.00  0.00     0.031 C 
ATOM     20  C   UNL A   1      37.351  31.604  31.235  1.00  0.00     0.029 A 
ATOM     21  N   UNL A   1      39.005  31.136  32.663  1.00  0.00    -0.354 N 
ATOM     22  C   UNL A   1      39.378  33.283  36.401  1.00  0.00     0.074 A 
ATOM     23  C   UNL A   1      38.318  34.258  36.552  1.00  0.00     0.031 C 
ATOM     24  C   UNL A   1      38.072  30.610  30.698  1.00  0.00     0.029 A 
ATOM     25  C   UNL A   1      39.187  30.305  31.586  1.00  0.00     0.049 A 
ATOM     26  H   UNL A   1      39.600  31.141  33.448  1.00  0.00     0.167 HD
ATOM     27  C   UNL A   1      40.361  33.064  37.309  1.00  0.00     0.037 A 
ATOM     28  C   UNL A   1      40.158  29.410  31.328  1.00  0.00     0.037 A 
ATOM     29  C   UNL A   1      41.406  32.083  37.150  1.00  0.00     0.049 A 
ATOM     30  C   UNL A   1      41.248  29.210  32.338  1.00  0.00     0.074 A 
ATOM     31  C   UNL A   1      42.423  31.756  38.032  1.00  0.00     0.029 A 
ATOM     32  N   UNL A   1      41.574  31.276  36.034  1.00  0.00    -0.354 N 
ATOM     33  N   UNL A   1      41.410  29.786  33.505  1.00  0.00    -0.248 NA
ATOM     34  C   UNL A   1      42.294  28.237  31.997  1.00  0.00     0.031 C 
ATOM     35  C   UNL A   1      43.236  30.793  37.425  1.00  0.00     0.029 A 
ATOM     36  C   UNL A   1      42.694  30.474  36.190  1.00  0.00     0.049 A 
ATOM     37  H   UNL A   1      40.984  31.275  35.245  1.00  0.00     0.167 HD
ATOM     38  C   UNL A   1      42.562  29.234  34.046  1.00  0.00     0.074 A 
ATOM     39  C   UNL A   1      43.047  28.261  33.087  1.00  0.00     0.031 C 
ATOM     40  C   UNL A   1      43.165  29.511  35.228  1.00  0.00     0.037 A 
BRANCH  27  41
ATOM     41  C   UNL A   1      40.374  33.913  38.548  1.00  0.00     0.064 A 
ATOM     42  C   UNL A   1      39.667  33.547  39.703  1.00  0.00     0.173 A 
ATOM     43  C   UNL A   1      41.150  35.081  38.600  1.00  0.00     0.173 A 
ATOM     44  F   UNL A   1      38.902  32.445  39.707  1.00  0.00    -0.203 F 
ATOM     45  C   UNL A   1      39.718  34.331  40.854  1.00  0.00     0.198 A 
ATOM     46  C   UNL A   1      41.222  35.846  39.761  1.00  0.00     0.198 A 
ATOM     47  F   UNL A   1      41.853  35.474  37.527  1.00  0.00    -0.203 F 
ATOM     48  F   UNL A   1      39.001  33.982  41.931  1.00  0.00    -0.200 F 
ATOM     49  C   UNL A   1      40.502  35.474  40.886  1.00  0.00     0.200 A 
ATOM     50  F   UNL A   1      41.993  36.943  39.793  1.00  0.00    -0.200 F 
ATOM     51  F   UNL A   1      40.558  36.220  41.997  1.00  0.00    -0.200 F 
ENDBRANCH  27  41
BRANCH  28  52
ATOM     52  C   UNL A   1      40.135  28.649  30.053  1.00  0.00     0.064 A 
ATOM     53  C   UNL A   1      39.499  27.404  29.964  1.00  0.00     0.173 A 
ATOM     54  C   UNL A   1      40.734  29.161  28.891  1.00  0.00     0.173 A 
ATOM     55  F   UNL A   1      38.928  26.866  31.051  1.00  0.00    -0.203 F 
ATOM     56  C   UNL A   1      39.477  26.692  28.766  1.00  0.00     0.198 A 
ATOM     57  C   UNL A   1      40.682  28.465  27.686  1.00  0.00     0.198 A 
ATOM     58  F   UNL A   1      41.348  30.353  28.921  1.00  0.00    -0.203 F 
ATOM     59  F   UNL A   1      38.898  25.485  28.719  1.00  0.00    -0.200 F 
ATOM     60  C   UNL A   1      40.060  27.226  27.627  1.00  0.00     0.200 A 
ATOM     61  F   UNL A   1      41.228  28.994  26.584  1.00  0.00    -0.200 F 
ATOM     62  F   UNL A   1      40.028  26.547  26.473  1.00  0.00    -0.200 F 
ENDBRANCH  28  52
BRANCH  40  63
ATOM     63  C   UNL A   1      44.401  28.728  35.562  1.00  0.00     0.064 A 
ATOM     64  C   UNL A   1      45.681  29.183  35.211  1.00  0.00     0.173 A 
ATOM     65  C   UNL A   1      44.305  27.517  36.264  1.00  0.00     0.173 A 
ATOM     66  F   UNL A   1      45.825  30.327  34.523  1.00  0.00    -0.203 F 
ATOM     67  C   UNL A   1      46.816  28.442  35.526  1.00  0.00     0.198 A 
ATOM     68  C   UNL A   1      45.444  26.794  36.606  1.00  0.00     0.198 A 
ATOM     69  F   UNL A   1      43.105  27.039  36.628  1.00  0.00    -0.203 F 
ATOM     70  F   UNL A   1      48.023  28.870  35.133  1.00  0.00    -0.200 F 
ATOM     71  C   UNL A   1      46.697  27.251  36.229  1.00  0.00     0.200 A 
ATOM     72  F   UNL A   1      45.328  25.652  37.297  1.00  0.00    -0.200 F 
ATOM     73  F   UNL A   1      47.791  26.541  36.537  1.00  0.00    -0.200 F 
ENDBRANCH  40  63
ENDBRANCH  14  15
ENDBRANCH   7   9
ENDBRANCH   4   5
ENDBRANCH   3   4
ENDBRANCH   2   3
ENDBRANCH   1   2
BRANCH   1  74
ATOM     74  C   UNL A   1      34.796  31.328  27.965  1.00  0.00     0.021 C 
BRANCH  74  75
ATOM     75  C   UNL A   1      33.548  30.868  27.217  1.00  0.00     0.116 C 
BRANCH  75  76
ATOM     76  N   UNL A   1      32.934  29.712  27.847  1.00  0.00    -0.352 N 
ATOM     77  C   UNL A   1      32.377  28.602  27.265  1.00  0.00     0.251 C 
ATOM     78  H   UNL A   1      32.914  29.728  28.832  1.00  0.00     0.163 HD
ATOM     79  O   UNL A   1      31.718  27.816  27.937  1.00  0.00    -0.269 OA
BRANCH  77  80
ATOM     80  C   UNL A   1      32.562  28.366  25.821  1.00  0.00     0.041 A 
ATOM     81  C   UNL A   1      33.848  28.418  25.292  1.00  0.00     0.014 A 
ATOM     82  C   UNL A   1      31.458  28.117  24.993  1.00  0.00     0.039 A 
ATOM     83  C   UNL A   1      34.025  28.180  23.936  1.00  0.00     0.003 A 
ATOM     84  C   UNL A   1      31.618  27.828  23.634  1.00  0.00     0.035 A 
ATOM     85  C   UNL A   1      32.920  27.888  23.125  1.00  0.00     0.026 A 
BRANCH  84  86
ATOM     86  N   UNL A   1      30.488  27.547  22.892  1.00  0.00    -0.380 N 
ATOM     87  H   UNL A   1      30.395  26.614  22.592  1.00  0.00     0.160 HD
BRANCH  86  88
ATOM     88  C   UNL A   1      29.407  28.453  22.492  1.00  0.00     0.107 C 
ATOM     89  C   UNL A   1      28.163  28.229  23.363  1.00  0.00     0.027 C 
ATOM     90  C   UNL A   1      29.884  29.925  22.360  1.00  0.00     0.136 C 
ATOM     91  C   UNL A   1      27.077  29.271  23.126  1.00  0.00     0.002 C 
ATOM     92  C   UNL A   1      28.721  30.899  22.173  1.00  0.00     0.034 C 
ATOM     93  C   UNL A   1      27.635  30.685  23.218  1.00  0.00     0.003 C 
BRANCH  90  94
ATOM     94  O   UNL A   1      30.783  30.078  21.251  1.00  0.00    -0.391 OA
ATOM     95  H   UNL A   1      31.676  29.805  21.518  1.00  0.00     0.211 HD
ENDBRANCH  90  94
ENDBRANCH  86  88
ENDBRANCH  84  86
ENDBRANCH  77  80
ENDBRANCH  75  76
ENDBRANCH  74  75
ENDBRANCH   1  74
TORSDOF 16
ENDMDL
MODEL 2
REMARK VINA RESULT:     -11.8      2.508      4.239
REMARK SMILES O=C(NCCCCCCNC(=O)c1cccc(N[C@H]2CCCC[C@@H]2O)c1)c1ccc(-c2c3nc(c(-c4c(F)c(F)c(F)c(F)c4F)c4ccc([nH]4)c(-c4c(F)c(F)c(F)c(F)c4F)c4nc(c(-c5c(F)c(F)c(F)c(F)c5F)c5ccc2[nH]5)C=C4)C=C3)cc1
REMARK SMILES IDX 7 1 6 2 5 3 4 4 3 5 1 6 2 7 27 9 28 10 89 11 29 12 88 13
REMARK SMILES IDX 30 14 31 15 32 16 82 17 33 18 87 19 81 20 83 21 34 22 86 23
REMARK SMILES IDX 80 24 79 25 35 27 67 28 47 29 66 30 48 31 51 32 65 33 84 34
REMARK SMILES IDX 49 35 50 36 64 38 85 39 52 40 36 41 37 42 45 43 38 44 39 45
REMARK SMILES IDX 43 46 46 47 40 48 41 49 44 50 42 51 68 52 69 53 77 54 70 55
REMARK SMILES IDX 71 56 75 57 78 58 72 59 73 60 76 61 74 62 53 63 54 64 62 65
REMARK SMILES IDX 55 66 56 67 60 68 63 69 57 70 58 71 61 72 59 73 8 74 9 75
REMARK SMILES IDX 10 76 11 77 12 79 13 80 14 81 26 82 15 83 17 84 16 85 18 86
REMARK SMILES IDX 19 88 20 89 24 90 21 91 23 92 22 93 25 94
REMARK H PARENT 3 8 83 26 51 37 10 78 18 87 25 95
REMARK Flexibility Score: inf
ROOT
ATOM      1  C   UNL A   1      31.766  29.846  25.511  1.00  0.00     0.002 C 
ENDROOT
BRANCH   1   2
ATOM      2  C   UNL A   1      31.833  30.532  26.879  1.00  0.00     0.002 C 
BRANCH   2   3
ATOM      3  C   UNL A   1      31.510  32.024  26.876  1.00  0.00     0.021 C 
BRANCH   3   4
ATOM      4  C   UNL A   1      32.727  32.939  26.903  1.00  0.00     0.116 C 
BRANCH   4   5
ATOM      5  N   UNL A   1      32.458  34.205  27.567  1.00  0.00    -0.352 N 
ATOM      6  O   UNL A   1      32.588  35.745  29.216  1.00  0.00    -0.269 OA
ATOM      7  C   UNL A   1      33.044  34.734  28.690  1.00  0.00     0.251 C 
ATOM      8  H   UNL A   1      31.757  34.760  27.153  1.00  0.00     0.163 HD
BRANCH   7   9
ATOM      9  C   UNL A   1      34.221  34.063  29.280  1.00  0.00     0.039 A 
ATOM     10  C   UNL A   1      34.057  33.056  30.235  1.00  0.00     0.014 A 
ATOM     11  C   UNL A   1      35.501  34.446  28.874  1.00  0.00     0.014 A 
ATOM     12  C   UNL A   1      35.169  32.534  30.884  1.00  0.00     0.010 A 
ATOM     13  C   UNL A   1      36.621  33.851  29.462  1.00  0.00     0.010 A 
ATOM     14  C   UNL A   1      36.464  32.909  30.489  1.00  0.00    -0.014 A 
BRANCH  14  15
ATOM     15  C   UNL A   1      37.631  32.237  31.110  1.00  0.00     0.031 A 
ATOM     16  C   UNL A   1      38.094  32.591  32.494  1.00  0.00     0.074 A 
ATOM     17  C   UNL A   1      38.268  31.281  30.405  1.00  0.00     0.049 A 
ATOM     18  N   UNL A   1      39.093  32.095  33.181  1.00  0.00    -0.248 NA
ATOM     19  C   UNL A   1      37.344  33.642  33.199  1.00  0.00     0.031 C 
ATOM     20  C   UNL A   1      37.915  30.867  29.046  1.00  0.00     0.029 A 
ATOM     21  N   UNL A   1      39.330  30.479  30.731  1.00  0.00    -0.354 N 
ATOM     22  C   UNL A   1      39.105  32.782  34.387  1.00  0.00     0.074 A 
ATOM     23  C   UNL A   1      38.029  33.750  34.330  1.00  0.00     0.031 C 
ATOM     24  C   UNL A   1      38.716  29.861  28.670  1.00  0.00     0.029 A 
ATOM     25  C   UNL A   1      39.681  29.606  29.732  1.00  0.00     0.049 A 
ATOM     26  H   UNL A   1      39.795  30.523  31.598  1.00  0.00     0.167 HD
ATOM     27  C   UNL A   1      39.936  32.613  35.445  1.00  0.00     0.037 A 
ATOM     28  C   UNL A   1      40.686  28.713  29.666  1.00  0.00     0.037 A 
ATOM     29  C   UNL A   1      40.999  31.638  35.493  1.00  0.00     0.049 A 
ATOM     30  C   UNL A   1      41.607  28.568  30.841  1.00  0.00     0.074 A 
ATOM     31  C   UNL A   1      41.867  31.360  36.534  1.00  0.00     0.029 A 
ATOM     32  N   UNL A   1      41.343  30.789  34.451  1.00  0.00    -0.354 N 
ATOM     33  N   UNL A   1      41.582  29.194  31.993  1.00  0.00    -0.248 NA
ATOM     34  C   UNL A   1      42.698  27.595  30.708  1.00  0.00     0.031 C 
ATOM     35  C   UNL A   1      42.771  30.384  36.103  1.00  0.00     0.029 A 
ATOM     36  C   UNL A   1      42.429  30.008  34.813  1.00  0.00     0.049 A 
ATOM     37  H   UNL A   1      40.883  30.747  33.581  1.00  0.00     0.167 HD
ATOM     38  C   UNL A   1      42.639  28.679  32.729  1.00  0.00     0.074 A 
ATOM     39  C   UNL A   1      43.272  27.673  31.900  1.00  0.00     0.031 C 
ATOM     40  C   UNL A   1      43.049  29.012  33.977  1.00  0.00     0.037 A 
BRANCH  27  41
ATOM     41  C   UNL A   1      39.751  33.512  36.634  1.00  0.00     0.064 A 
ATOM     42  C   UNL A   1      40.416  34.744  36.740  1.00  0.00     0.173 A 
ATOM     43  C   UNL A   1      38.855  33.164  37.655  1.00  0.00     0.173 A 
ATOM     44  F   UNL A   1      41.291  35.124  35.796  1.00  0.00    -0.203 F 
ATOM     45  C   UNL A   1      40.206  35.580  37.835  1.00  0.00     0.198 A 
ATOM     46  C   UNL A   1      38.626  34.015  38.733  1.00  0.00     0.198 A 
ATOM     47  F   UNL A   1      38.186  32.001  37.601  1.00  0.00    -0.203 F 
ATOM     48  F   UNL A   1      40.884  36.732  37.934  1.00  0.00    -0.200 F 
ATOM     49  C   UNL A   1      39.306  35.219  38.826  1.00  0.00     0.200 A 
ATOM     50  F   UNL A   1      37.744  33.670  39.682  1.00  0.00    -0.200 F 
ATOM     51  F   UNL A   1      39.098  36.030  39.872  1.00  0.00    -0.200 F 
ENDBRANCH  27  41
BRANCH  28  52
ATOM     52  C   UNL A   1      40.866  27.900  28.436  1.00  0.00     0.064 A 
ATOM     53  C   UNL A   1      41.657  28.359  27.375  1.00  0.00     0.173 A 
ATOM     54  C   UNL A   1      40.265  26.639  28.305  1.00  0.00     0.173 A 
ATOM     55  F   UNL A   1      42.238  29.566  27.446  1.00  0.00    -0.203 F 
ATOM     56  C   UNL A   1      41.827  27.595  26.222  1.00  0.00     0.198 A 
ATOM     57  C   UNL A   1      40.462  25.861  27.167  1.00  0.00     0.198 A 
ATOM     58  F   UNL A   1      39.505  26.151  29.296  1.00  0.00    -0.203 F 
ATOM     59  F   UNL A   1      42.554  28.075  25.205  1.00  0.00    -0.200 F 
ATOM     60  C   UNL A   1      41.237  26.343  26.122  1.00  0.00     0.200 A 
ATOM     61  F   UNL A   1      39.907  24.645  27.084  1.00  0.00    -0.200 F 
ATOM     62  F   UNL A   1      41.409  25.604  25.019  1.00  0.00    -0.200 F 
ENDBRANCH  28  52
BRANCH  40  63
ATOM     63  C   UNL A   1      44.223  28.258  34.532  1.00  0.00     0.064 A 
ATOM     64  C   UNL A   1      44.064  27.042  35.213  1.00  0.00     0.173 A 
ATOM     65  C   UNL A   1      45.527  28.749  34.361  1.00  0.00     0.173 A 
ATOM     66  F   UNL A   1      42.836  26.540  35.420  1.00  0.00    -0.203 F 
ATOM     67  C   UNL A   1      45.164  26.358  35.725  1.00  0.00     0.198 A 
ATOM     68  C   UNL A   1      46.626  28.047  34.845  1.00  0.00     0.198 A 
ATOM     69  F   UNL A   1      45.734  29.906  33.713  1.00  0.00    -0.203 F 
ATOM     70  F   UNL A   1      44.983  25.226  36.417  1.00  0.00    -0.200 F 
ATOM     71  C   UNL A   1      46.444  26.858  35.534  1.00  0.00     0.200 A 
ATOM     72  F   UNL A   1      47.863  28.524  34.647  1.00  0.00    -0.200 F 
ATOM     73  F   UNL A   1      47.502  26.196  36.022  1.00  0.00    -0.200 F 
ENDBRANCH  40  63
ENDBRANCH  14  15
ENDBRANCH   7   9
ENDBRANCH   4   5
ENDBRANCH   3   4
ENDBRANCH   2   3
ENDBRANCH   1   2
BRANCH   1  74
ATOM     74  C   UNL A   1      33.096  29.299  24.983  1.00  0.00     0.021 C 
BRANCH  74  75
ATOM     75  C   UNL A   1      33.120  28.998  23.488  1.00  0.00     0.116 C 
BRANCH  75  76
ATOM     76  N   UNL A   1      31.868  29.356  22.843  1.00  0.00    -0.352 N 
ATOM     77  C   UNL A   1      30.829  28.548  22.460  1.00  0.00     0.251 C 
ATOM     78  H   UNL A   1      31.749  30.315  22.654  1.00  0.00     0.163 HD
ATOM     79  O   UNL A   1      29.936  28.985  21.743  1.00  0.00    -0.269 OA
BRANCH  77  80
ATOM     80  C   UNL A   1      30.798  27.141  22.904  1.00  0.00     0.041 A 
ATOM     81  C   UNL A   1      29.956  26.787  23.955  1.00  0.00     0.014 A 
ATOM     82  C   UNL A   1      31.621  26.184  22.295  1.00  0.00     0.039 A 
ATOM     83  C   UNL A   1      29.914  25.462  24.364  1.00  0.00     0.003 A 
ATOM     84  C   UNL A   1      31.560  24.834  22.658  1.00  0.00     0.035 A 
ATOM     85  C   UNL A   1      30.708  24.504  23.718  1.00  0.00     0.026 A 
BRANCH  84  86
ATOM     86  N   UNL A   1      32.367  23.942  21.981  1.00  0.00    -0.380 N 
ATOM     87  H   UNL A   1      32.510  24.134  21.026  1.00  0.00     0.160 HD
BRANCH  86  88
ATOM     88  C   UNL A   1      33.040  22.745  22.495  1.00  0.00     0.107 C 
ATOM     89  C   UNL A   1      33.981  23.110  23.653  1.00  0.00     0.027 C 
ATOM     90  C   UNL A   1      32.054  21.579  22.768  1.00  0.00     0.136 C 
ATOM     91  C   UNL A   1      34.559  21.889  24.355  1.00  0.00     0.002 C 
ATOM     92  C   UNL A   1      32.713  20.421  23.518  1.00  0.00     0.034 C 
ATOM     93  C   UNL A   1      33.465  20.905  24.750  1.00  0.00     0.003 C 
BRANCH  90  94
ATOM     94  O   UNL A   1      31.507  21.068  21.542  1.00  0.00    -0.391 OA
ATOM     95  H   UNL A   1      30.592  21.379  21.442  1.00  0.00     0.211 HD
ENDBRANCH  90  94
ENDBRANCH  86  88
ENDBRANCH  84  86
ENDBRANCH  77  80
ENDBRANCH  75  76
ENDBRANCH  74  75
ENDBRANCH   1  74
TORSDOF 16
ENDMDL
MODEL 3
REMARK VINA RESULT:     -11.8      2.489      8.136
REMARK SMILES O=C(NCCCCCCNC(=O)c1cccc(N[C@H]2CCCC[C@@H]2O)c1)c1ccc(-c2c3nc(c(-c4c(F)c(F)c(F)c(F)c4F)c4ccc([nH]4)c(-c4c(F)c(F)c(F)c(F)c4F)c4nc(c(-c5c(F)c(F)c(F)c(F)c5F)c5ccc2[nH]5)C=C4)C=C3)cc1
REMARK SMILES IDX 7 1 6 2 5 3 4 4 3 5 1 6 2 7 27 9 28 10 89 11 29 12 88 13
REMARK SMILES IDX 30 14 31 15 32 16 82 17 33 18 87 19 81 20 83 21 34 22 86 23
REMARK SMILES IDX 80 24 79 25 35 27 67 28 47 29 66 30 48 31 51 32 65 33 84 34
REMARK SMILES IDX 49 35 50 36 64 38 85 39 52 40 36 41 37 42 45 43 38 44 39 45
REMARK SMILES IDX 43 46 46 47 40 48 41 49 44 50 42 51 68 52 69 53 77 54 70 55
REMARK SMILES IDX 71 56 75 57 78 58 72 59 73 60 76 61 74 62 53 63 54 64 62 65
REMARK SMILES IDX 55 66 56 67 60 68 63 69 57 70 58 71 61 72 59 73 8 74 9 75
REMARK SMILES IDX 10 76 11 77 12 79 13 80 14 81 26 82 15 83 17 84 16 85 18 86
REMARK SMILES IDX 19 88 20 89 24 90 21 91 23 92 22 93 25 94
REMARK H PARENT 3 8 83 26 51 37 10 78 18 87 25 95
REMARK Flexibility Score: inf
ROOT
ATOM      1  C   UNL A   1      31.695  30.062  25.411  1.00  0.00     0.002 C 
ENDROOT
BRANCH   1   2
ATOM      2  C   UNL A   1      31.733  30.673  26.814  1.00  0.00     0.002 C 
BRANCH   2   3
ATOM      3  C   UNL A   1      31.484  32.178  26.876  1.00  0.00     0.021 C 
BRANCH   3   4
ATOM      4  C   UNL A   1      32.738  33.024  27.052  1.00  0.00     0.116 C 
BRANCH   4   5
ATOM      5  N   UNL A   1      32.454  34.330  27.626  1.00  0.00    -0.352 N 
ATOM      6  O   UNL A   1      32.529  35.965  29.184  1.00  0.00    -0.269 OA
ATOM      7  C   UNL A   1      32.996  34.921  28.740  1.00  0.00     0.251 C 
ATOM      8  H   UNL A   1      31.777  34.865  27.150  1.00  0.00     0.163 HD
BRANCH   7   9
ATOM      9  C   UNL A   1      34.140  34.277  29.421  1.00  0.00     0.039 A 
ATOM     10  C   UNL A   1      35.449  34.542  29.011  1.00  0.00     0.014 A 
ATOM     11  C   UNL A   1      33.898  33.398  30.479  1.00  0.00     0.014 A 
ATOM     12  C   UNL A   1      36.502  33.825  29.563  1.00  0.00     0.010 A 
ATOM     13  C   UNL A   1      34.970  32.748  31.097  1.00  0.00     0.010 A 
ATOM     14  C   UNL A   1      36.278  32.937  30.627  1.00  0.00    -0.014 A 
BRANCH  14  15
ATOM     15  C   UNL A   1      37.438  32.286  31.283  1.00  0.00     0.031 A 
ATOM     16  C   UNL A   1      38.215  31.199  30.598  1.00  0.00     0.074 A 
ATOM     17  C   UNL A   1      37.795  32.704  32.513  1.00  0.00     0.049 A 
ATOM     18  N   UNL A   1      39.256  30.532  31.031  1.00  0.00    -0.248 NA
ATOM     19  C   UNL A   1      37.765  30.802  29.255  1.00  0.00     0.031 C 
ATOM     20  C   UNL A   1      37.102  33.741  33.280  1.00  0.00     0.029 A 
ATOM     21  N   UNL A   1      38.827  32.323  33.329  1.00  0.00    -0.354 N 
ATOM     22  C   UNL A   1      39.575  29.627  30.028  1.00  0.00     0.074 A 
ATOM     23  C   UNL A   1      38.601  29.811  28.972  1.00  0.00     0.031 C 
ATOM     24  C   UNL A   1      37.751  33.944  34.434  1.00  0.00     0.029 A 
ATOM     25  C   UNL A   1      38.863  33.005  34.520  1.00  0.00     0.049 A 
ATOM     26  H   UNL A   1      39.481  31.627  33.086  1.00  0.00     0.167 HD
ATOM     27  C   UNL A   1      40.591  28.731  29.993  1.00  0.00     0.037 A 
ATOM     28  C   UNL A   1      39.685  32.875  35.577  1.00  0.00     0.037 A 
ATOM     29  C   UNL A   1      41.561  28.564  31.048  1.00  0.00     0.049 A 
ATOM     30  C   UNL A   1      40.784  31.855  35.521  1.00  0.00     0.074 A 
ATOM     31  C   UNL A   1      42.653  27.713  31.089  1.00  0.00     0.029 A 
ATOM     32  N   UNL A   1      41.550  29.255  32.252  1.00  0.00    -0.354 N 
ATOM     33  N   UNL A   1      41.101  31.034  34.549  1.00  0.00    -0.248 NA
ATOM     34  C   UNL A   1      41.638  31.740  36.709  1.00  0.00     0.031 C 
ATOM     35  C   UNL A   1      43.268  27.850  32.338  1.00  0.00     0.029 A 
ATOM     36  C   UNL A   1      42.597  28.829  33.054  1.00  0.00     0.049 A 
ATOM     37  H   UNL A   1      40.894  29.946  32.500  1.00  0.00     0.167 HD
ATOM     38  C   UNL A   1      42.201  30.319  34.998  1.00  0.00     0.074 A 
ATOM     39  C   UNL A   1      42.510  30.819  36.323  1.00  0.00     0.031 C 
ATOM     40  C   UNL A   1      42.891  29.335  34.371  1.00  0.00     0.037 A 
BRANCH  27  41
ATOM     41  C   UNL A   1      40.702  27.841  28.788  1.00  0.00     0.064 A 
ATOM     42  C   UNL A   1      39.978  26.643  28.684  1.00  0.00     0.173 A 
ATOM     43  C   UNL A   1      41.500  28.218  27.698  1.00  0.00     0.173 A 
ATOM     44  F   UNL A   1      39.205  26.230  29.700  1.00  0.00    -0.203 F 
ATOM     45  C   UNL A   1      40.068  25.847  27.544  1.00  0.00     0.198 A 
ATOM     46  C   UNL A   1      41.565  27.435  26.549  1.00  0.00     0.198 A 
ATOM     47  F   UNL A   1      42.208  29.357  27.740  1.00  0.00    -0.203 F 
ATOM     48  F   UNL A   1      39.399  24.687  27.485  1.00  0.00    -0.200 F 
ATOM     49  C   UNL A   1      40.854  26.247  26.474  1.00  0.00     0.200 A 
ATOM     50  F   UNL A   1      42.315  27.832  25.510  1.00  0.00    -0.200 F 
ATOM     51  F   UNL A   1      40.930  25.485  25.375  1.00  0.00    -0.200 F 
ENDBRANCH  27  41
BRANCH  28  52
ATOM     52  C   UNL A   1      39.485  33.732  36.773  1.00  0.00     0.064 A 
ATOM     53  C   UNL A   1      38.714  33.293  37.857  1.00  0.00     0.173 A 
ATOM     54  C   UNL A   1      40.076  35.002  36.863  1.00  0.00     0.173 A 
ATOM     55  F   UNL A   1      38.114  32.095  37.810  1.00  0.00    -0.203 F 
ATOM     56  C   UNL A   1      38.528  34.098  38.979  1.00  0.00     0.198 A 
ATOM     57  C   UNL A   1      39.918  35.791  37.999  1.00  0.00     0.198 A 
ATOM     58  F   UNL A   1      40.831  35.465  35.856  1.00  0.00    -0.203 F 
ATOM     59  F   UNL A   1      37.752  33.672  39.984  1.00  0.00    -0.200 F 
ATOM     60  C   UNL A   1      39.137  35.342  39.053  1.00  0.00     0.200 A 
ATOM     61  F   UNL A   1      40.524  36.983  38.074  1.00  0.00    -0.200 F 
ATOM     62  F   UNL A   1      38.968  36.110  40.137  1.00  0.00    -0.200 F 
ENDBRANCH  28  52
BRANCH  40  63
ATOM     63  C   UNL A   1      44.067  28.755  35.101  1.00  0.00     0.064 A 
ATOM     64  C   UNL A   1      43.940  27.630  35.930  1.00  0.00     0.173 A 
ATOM     65  C   UNL A   1      45.344  29.319  34.951  1.00  0.00     0.173 A 
ATOM     66  F   UNL A   1      42.737  27.065  36.121  1.00  0.00    -0.203 F 
ATOM     67  C   UNL A   1      45.041  27.108  36.603  1.00  0.00     0.198 A 
ATOM     68  C   UNL A   1      46.448  28.775  35.600  1.00  0.00     0.198 A 
ATOM     69  F   UNL A   1      45.521  30.393  34.167  1.00  0.00    -0.203 F 
ATOM     70  F   UNL A   1      44.886  26.067  37.431  1.00  0.00    -0.200 F 
ATOM     71  C   UNL A   1      46.296  27.677  36.432  1.00  0.00     0.200 A 
ATOM     72  F   UNL A   1      47.661  29.317  35.422  1.00  0.00    -0.200 F 
ATOM     73  F   UNL A   1      47.356  27.170  37.076  1.00  0.00    -0.200 F 
ENDBRANCH  40  63
ENDBRANCH  14  15
ENDBRANCH   7   9
ENDBRANCH   4   5
ENDBRANCH   3   4
ENDBRANCH   2   3
ENDBRANCH   1   2
BRANCH   1  74
ATOM     74  C   UNL A   1      32.970  29.331  24.976  1.00  0.00     0.021 C 
BRANCH  74  75
ATOM     75  C   UNL A   1      33.060  29.028  23.484  1.00  0.00     0.116 C 
BRANCH  75  76
ATOM     76  N   UNL A   1      31.830  29.362  22.788  1.00  0.00    -0.352 N 
ATOM     77  C   UNL A   1      30.807  28.539  22.392  1.00  0.00     0.251 C 
ATOM     78  H   UNL A   1      31.714  30.315  22.567  1.00  0.00     0.163 HD
ATOM     79  O   UNL A   1      29.937  28.953  21.633  1.00  0.00    -0.269 OA
BRANCH  77  80
ATOM     80  C   UNL A   1      30.765  27.146  22.875  1.00  0.00     0.041 A 
ATOM     81  C   UNL A   1      29.942  26.833  23.953  1.00  0.00     0.014 A 
ATOM     82  C   UNL A   1      31.559  26.159  22.272  1.00  0.00     0.039 A 
ATOM     83  C   UNL A   1      29.890  25.520  24.398  1.00  0.00     0.003 A 
ATOM     84  C   UNL A   1      31.486  24.821  22.673  1.00  0.00     0.035 A 
ATOM     85  C   UNL A   1      30.654  24.532  23.760  1.00  0.00     0.026 A 
BRANCH  84  86
ATOM     86  N   UNL A   1      32.264  23.898  22.001  1.00  0.00    -0.380 N 
ATOM     87  H   UNL A   1      32.401  24.073  21.042  1.00  0.00     0.160 HD
BRANCH  86  88
ATOM     88  C   UNL A   1      32.912  22.693  22.527  1.00  0.00     0.107 C 
ATOM     89  C   UNL A   1      33.808  23.041  23.725  1.00  0.00     0.027 C 
ATOM     90  C   UNL A   1      31.911  21.528  22.748  1.00  0.00     0.136 C 
ATOM     91  C   UNL A   1      34.354  21.809  24.435  1.00  0.00     0.002 C 
ATOM     92  C   UNL A   1      32.536  20.359  23.509  1.00  0.00     0.034 C 
ATOM     93  C   UNL A   1      33.241  20.825  24.775  1.00  0.00     0.003 C 
BRANCH  90  94
ATOM     94  O   UNL A   1      31.410  21.034  21.496  1.00  0.00    -0.391 OA
ATOM     95  H   UNL A   1      31.045  21.771  20.981  1.00  0.00     0.211 HD
ENDBRANCH  90  94
ENDBRANCH  86  88
ENDBRANCH  84  86
ENDBRANCH  77  80
ENDBRANCH  75  76
ENDBRANCH  74  75
ENDBRANCH   1  74
TORSDOF 16
ENDMDL
