MODEL 1
REMARK VINA RESULT:     -13.0      0.000      0.000
REMARK SMILES CC[C@H]([NH2+]C1c2ccccc2-c2ccccc21)C(=O)NCCCCCCNC(=O)c1ccc(-c2c3nc(c(-c4c(F)c(F)c(F)c(F)c4F)c4ccc([nH]4)c(-c4c(F)c(F)c(F)c(F)c4F)c4nc(c(-c5c(F)c(F)c(F)c(F)c5F)c5ccc2[nH]5)C=C4)C=C3)cc1
REMARK SMILES IDX 23 1 22 2 21 3 20 4 18 5 19 6 3 8 2 9 1 10 4 11 5 14 6 15
REMARK SMILES IDX 17 16 7 17 11 18 12 19 16 20 8 21 10 22 13 23 15 24 9 25
REMARK SMILES IDX 14 26 24 27 25 28 26 29 27 30 28 31 29 33 30 34 31 35 92 36
REMARK SMILES IDX 32 37 91 38 33 39 34 40 35 41 85 42 36 43 90 44 84 45 86 46
REMARK SMILES IDX 37 47 89 48 83 49 82 50 38 52 70 53 50 54 69 55 51 56 54 57
REMARK SMILES IDX 68 58 87 59 52 60 53 61 67 63 88 64 55 65 39 66 40 67 48 68
REMARK SMILES IDX 41 69 42 70 46 71 49 72 43 73 44 74 47 75 45 76 71 77 72 78
REMARK SMILES IDX 80 79 73 80 74 81 78 82 81 83 75 84 76 85 79 86 77 87 56 88
REMARK SMILES IDX 57 89 65 90 58 91 59 92 63 93 66 94 60 95 61 96 64 97 62 98
REMARK H PARENT 20 7 4 12 4 13 27 32 86 51 54 62
REMARK Flexibility Score: inf
ROOT
ATOM      1  C   UNL A   1      32.437  29.916  27.142  1.00  0.00     0.002 C 
ENDROOT
BRANCH   1   2
ATOM      2  C   UNL A   1      31.796  28.593  27.576  1.00  0.00     0.021 C 
BRANCH   2   3
ATOM      3  C   UNL A   1      32.137  27.408  26.674  1.00  0.00     0.116 C 
BRANCH   3   4
ATOM      4  N   UNL A   1      31.315  26.238  26.934  1.00  0.00    -0.351 N 
ATOM      5  C   UNL A   1      31.521  24.930  26.573  1.00  0.00     0.278 C 
ATOM      6  O   UNL A   1      30.740  24.080  27.009  1.00  0.00    -0.268 OA
ATOM      7  H   UNL A   1      30.490  26.409  27.443  1.00  0.00     0.163 HD
BRANCH   5   8
ATOM      8  C   UNL A   1      32.761  24.537  25.740  1.00  0.00     0.273 C 
BRANCH   8   9
ATOM      9  C   UNL A   1      32.367  24.833  24.263  1.00  0.00     0.072 C 
ATOM     10  C   UNL A   1      33.358  25.622  23.424  1.00  0.00     0.011 C 
ENDBRANCH   8   9
BRANCH   8  11
ATOM     11  N   UNL A   1      33.161  23.139  26.024  1.00  0.00    -0.326 N 
ATOM     12  H   UNL A   1      32.309  22.607  26.202  1.00  0.00     0.347 HD
ATOM     13  H   UNL A   1      33.804  23.204  26.813  1.00  0.00     0.347 HD
BRANCH  11  14
ATOM     14  C   UNL A   1      33.917  22.428  24.977  1.00  0.00     0.246 C 
ATOM     15  C   UNL A   1      35.424  22.394  25.216  1.00  0.00     0.022 A 
ATOM     16  C   UNL A   1      33.610  20.961  24.700  1.00  0.00     0.022 A 
ATOM     17  C   UNL A   1      36.295  23.453  25.427  1.00  0.00     0.011 A 
ATOM     18  C   UNL A   1      35.903  21.071  25.084  1.00  0.00    -0.008 A 
ATOM     19  C   UNL A   1      34.790  20.192  24.795  1.00  0.00    -0.008 A 
ATOM     20  C   UNL A   1      32.422  20.366  24.307  1.00  0.00     0.011 A 
ATOM     21  C   UNL A   1      37.662  23.176  25.510  1.00  0.00     0.001 A 
ATOM     22  C   UNL A   1      37.259  20.799  25.164  1.00  0.00     0.009 A 
ATOM     23  C   UNL A   1      34.765  18.822  24.579  1.00  0.00     0.009 A 
ATOM     24  C   UNL A   1      32.389  18.986  24.101  1.00  0.00     0.001 A 
ATOM     25  C   UNL A   1      38.139  21.862  25.377  1.00  0.00     0.001 A 
ATOM     26  C   UNL A   1      33.550  18.218  24.245  1.00  0.00     0.001 A 
ENDBRANCH  11  14
ENDBRANCH   8  11
ENDBRANCH   5   8
ENDBRANCH   3   4
ENDBRANCH   2   3
ENDBRANCH   1   2
BRANCH   1  27
ATOM     27  C   UNL A   1      31.601  30.737  26.158  1.00  0.00     0.002 C 
BRANCH  27  28
ATOM     28  C   UNL A   1      31.401  32.199  26.557  1.00  0.00     0.021 C 
BRANCH  28  29
ATOM     29  C   UNL A   1      32.552  32.790  27.362  1.00  0.00     0.116 C 
BRANCH  29  30
ATOM     30  N   UNL A   1      32.349  34.201  27.644  1.00  0.00    -0.352 N 
ATOM     31  C   UNL A   1      32.950  34.986  28.592  1.00  0.00     0.251 C 
ATOM     32  H   UNL A   1      31.688  34.657  27.074  1.00  0.00     0.163 HD
ATOM     33  O   UNL A   1      32.515  36.108  28.841  1.00  0.00    -0.269 OA
BRANCH  31  34
ATOM     34  C   UNL A   1      34.117  34.468  29.335  1.00  0.00     0.039 A 
ATOM     35  C   UNL A   1      33.924  33.918  30.604  1.00  0.00     0.014 A 
ATOM     36  C   UNL A   1      35.397  34.518  28.774  1.00  0.00     0.014 A 
ATOM     37  C   UNL A   1      35.007  33.364  31.287  1.00  0.00     0.010 A 
ATOM     38  C   UNL A   1      36.459  33.894  29.420  1.00  0.00     0.010 A 
ATOM     39  C   UNL A   1      36.275  33.315  30.686  1.00  0.00    -0.014 A 
BRANCH  39  40
ATOM     40  C   UNL A   1      37.423  32.664  31.366  1.00  0.00     0.031 A 
ATOM     41  C   UNL A   1      38.109  31.488  30.730  1.00  0.00     0.074 A 
ATOM     42  C   UNL A   1      37.799  33.086  32.588  1.00  0.00     0.049 A 
ATOM     43  N   UNL A   1      39.078  30.741  31.198  1.00  0.00    -0.248 NA
ATOM     44  C   UNL A   1      37.623  31.077  29.404  1.00  0.00     0.031 C 
ATOM     45  C   UNL A   1      37.177  34.182  33.332  1.00  0.00     0.029 A 
ATOM     46  N   UNL A   1      38.787  32.633  33.428  1.00  0.00    -0.354 N 
ATOM     47  C   UNL A   1      39.303  29.768  30.233  1.00  0.00     0.074 A 
ATOM     48  C   UNL A   1      38.333  29.982  29.182  1.00  0.00     0.031 C 
ATOM     49  C   UNL A   1      37.805  34.327  34.508  1.00  0.00     0.029 A 
ATOM     50  C   UNL A   1      38.845  33.310  34.621  1.00  0.00     0.049 A 
ATOM     51  H   UNL A   1      39.394  31.894  33.196  1.00  0.00     0.167 HD
ATOM     52  C   UNL A   1      40.249  28.798  30.215  1.00  0.00     0.037 A 
ATOM     53  C   UNL A   1      39.639  33.121  35.693  1.00  0.00     0.037 A 
ATOM     54  C   UNL A   1      41.222  28.601  31.257  1.00  0.00     0.049 A 
ATOM     55  C   UNL A   1      40.677  32.032  35.654  1.00  0.00     0.074 A 
ATOM     56  C   UNL A   1      42.265  27.693  31.304  1.00  0.00     0.029 A 
ATOM     57  N   UNL A   1      41.266  29.321  32.444  1.00  0.00    -0.354 N 
ATOM     58  N   UNL A   1      40.937  31.169  34.702  1.00  0.00    -0.248 NA
ATOM     59  C   UNL A   1      41.539  31.896  36.836  1.00  0.00     0.031 C 
ATOM     60  C   UNL A   1      42.901  27.820  32.543  1.00  0.00     0.029 A 
ATOM     61  C   UNL A   1      42.298  28.853  33.243  1.00  0.00     0.049 A 
ATOM     62  H   UNL A   1      40.655  30.055  32.682  1.00  0.00     0.167 HD
ATOM     63  C   UNL A   1      42.005  30.407  35.155  1.00  0.00     0.074 A 
ATOM     64  C   UNL A   1      42.357  30.921  36.462  1.00  0.00     0.031 C 
ATOM     65  C   UNL A   1      42.637  29.375  34.543  1.00  0.00     0.037 A 
BRANCH  52  66
ATOM     66  C   UNL A   1      40.268  27.869  29.034  1.00  0.00     0.064 A 
ATOM     67  C   UNL A   1      41.007  28.159  27.876  1.00  0.00     0.173 A 
ATOM     68  C   UNL A   1      39.558  26.659  29.070  1.00  0.00     0.173 A 
ATOM     69  F   UNL A   1      41.698  29.305  27.785  1.00  0.00    -0.203 F 
ATOM     70  C   UNL A   1      41.001  27.294  26.785  1.00  0.00     0.198 A 
ATOM     71  C   UNL A   1      39.584  25.779  27.991  1.00  0.00     0.198 A 
ATOM     72  F   UNL A   1      38.841  26.326  30.153  1.00  0.00    -0.203 F 
ATOM     73  F   UNL A   1      41.665  27.623  25.668  1.00  0.00    -0.200 F 
ATOM     74  C   UNL A   1      40.296  26.101  26.846  1.00  0.00     0.200 A 
ATOM     75  F   UNL A   1      38.914  24.620  28.057  1.00  0.00    -0.200 F 
ATOM     76  F   UNL A   1      40.295  25.268  25.796  1.00  0.00    -0.200 F 
ENDBRANCH  52  66
BRANCH  53  77
ATOM     77  C   UNL A   1      39.486  33.992  36.888  1.00  0.00     0.064 A 
ATOM     78  C   UNL A   1      38.733  33.577  37.995  1.00  0.00     0.173 A 
ATOM     79  C   UNL A   1      40.095  35.255  36.950  1.00  0.00     0.173 A 
ATOM     80  F   UNL A   1      38.116  32.386  37.976  1.00  0.00    -0.203 F 
ATOM     81  C   UNL A   1      38.578  34.399  39.109  1.00  0.00     0.198 A 
ATOM     82  C   UNL A   1      39.966  36.062  38.078  1.00  0.00     0.198 A 
ATOM     83  F   UNL A   1      40.833  35.697  35.920  1.00  0.00    -0.203 F 
ATOM     84  F   UNL A   1      37.815  33.996  40.135  1.00  0.00    -0.200 F 
ATOM     85  C   UNL A   1      39.200  35.637  39.153  1.00  0.00     0.200 A 
ATOM     86  F   UNL A   1      40.583  37.250  38.123  1.00  0.00    -0.200 F 
ATOM     87  F   UNL A   1      39.057  36.424  40.229  1.00  0.00    -0.200 F 
ENDBRANCH  53  77
BRANCH  65  88
ATOM     88  C   UNL A   1      43.798  28.751  35.265  1.00  0.00     0.064 A 
ATOM     89  C   UNL A   1      45.113  29.199  35.075  1.00  0.00     0.173 A 
ATOM     90  C   UNL A   1      43.583  27.720  36.193  1.00  0.00     0.173 A 
ATOM     91  F   UNL A   1      45.373  30.172  34.189  1.00  0.00    -0.203 F 
ATOM     92  C   UNL A   1      46.173  28.622  35.769  1.00  0.00     0.198 A 
ATOM     93  C   UNL A   1      44.642  27.168  36.909  1.00  0.00     0.198 A 
ATOM     94  F   UNL A   1      42.345  27.258  36.417  1.00  0.00    -0.203 F 
ATOM     95  F   UNL A   1      47.427  29.033  35.535  1.00  0.00    -0.200 F 
ATOM     96  C   UNL A   1      45.937  27.614  36.691  1.00  0.00     0.200 A 
ATOM     97  F   UNL A   1      44.408  26.206  37.812  1.00  0.00    -0.200 F 
ATOM     98  F   UNL A   1      46.958  27.067  37.365  1.00  0.00    -0.200 F 
ENDBRANCH  65  88
ENDBRANCH  39  40
ENDBRANCH  31  34
ENDBRANCH  29  30
ENDBRANCH  28  29
ENDBRANCH  27  28
ENDBRANCH   1  27
TORSDOF 16
ENDMDL
MODEL 2
REMARK VINA RESULT:     -12.3      0.655      2.398
REMARK SMILES CC[C@H]([NH2+]C1c2ccccc2-c2ccccc21)C(=O)NCCCCCCNC(=O)c1ccc(-c2c3nc(c(-c4c(F)c(F)c(F)c(F)c4F)c4ccc([nH]4)c(-c4c(F)c(F)c(F)c(F)c4F)c4nc(c(-c5c(F)c(F)c(F)c(F)c5F)c5ccc2[nH]5)C=C4)C=C3)cc1
REMARK SMILES IDX 23 1 22 2 21 3 20 4 18 5 19 6 3 8 2 9 1 10 4 11 5 14 6 15
REMARK SMILES IDX 17 16 7 17 11 18 12 19 16 20 8 21 10 22 13 23 15 24 9 25
REMARK SMILES IDX 14 26 24 27 25 28 26 29 27 30 28 31 29 33 30 34 31 35 92 36
REMARK SMILES IDX 32 37 91 38 33 39 34 40 35 41 85 42 36 43 90 44 84 45 86 46
REMARK SMILES IDX 37 47 89 48 83 49 82 50 38 52 70 53 50 54 69 55 51 56 54 57
REMARK SMILES IDX 68 58 87 59 52 60 53 61 67 63 88 64 55 65 39 66 40 67 48 68
REMARK SMILES IDX 41 69 42 70 46 71 49 72 43 73 44 74 47 75 45 76 71 77 72 78
REMARK SMILES IDX 80 79 73 80 74 81 78 82 81 83 75 84 76 85 79 86 77 87 56 88
REMARK SMILES IDX 57 89 65 90 58 91 59 92 63 93 66 94 60 95 61 96 64 97 62 98
REMARK H PARENT 20 7 4 12 4 13 27 32 86 51 54 62
REMARK Flexibility Score: inf
ROOT
ATOM      1  C   UNL A   1      33.109  30.110  26.502  1.00  0.00     0.002 C 
ENDROOT
BRANCH   1   2
ATOM      2  C   UNL A   1      33.151  28.614  26.831  1.00  0.00     0.021 C 
BRANCH   2   3
ATOM      3  C   UNL A   1      33.387  27.715  25.618  1.00  0.00     0.116 C 
BRANCH   3   4
ATOM      4  N   UNL A   1      32.211  26.949  25.239  1.00  0.00    -0.351 N 
ATOM      5  C   UNL A   1      32.120  25.816  24.470  1.00  0.00     0.278 C 
ATOM      6  O   UNL A   1      31.019  25.266  24.378  1.00  0.00    -0.268 OA
ATOM      7  H   UNL A   1      31.356  27.294  25.583  1.00  0.00     0.163 HD
BRANCH   5   8
ATOM      8  C   UNL A   1      33.387  25.196  23.840  1.00  0.00     0.273 C 
BRANCH   8   9
ATOM      9  C   UNL A   1      33.604  25.981  22.512  1.00  0.00     0.072 C 
ATOM     10  C   UNL A   1      32.707  25.623  21.340  1.00  0.00     0.011 C 
ENDBRANCH   8   9
BRANCH   8  11
ATOM     11  N   UNL A   1      33.237  23.730  23.695  1.00  0.00    -0.326 N 
ATOM     12  H   UNL A   1      33.699  23.458  22.827  1.00  0.00     0.347 HD
ATOM     13  H   UNL A   1      32.230  23.565  23.718  1.00  0.00     0.347 HD
BRANCH  11  14
ATOM     14  C   UNL A   1      33.785  22.885  24.772  1.00  0.00     0.246 C 
ATOM     15  C   UNL A   1      33.539  21.392  24.573  1.00  0.00     0.022 A 
ATOM     16  C   UNL A   1      35.280  22.922  25.062  1.00  0.00     0.022 A 
ATOM     17  C   UNL A   1      32.338  20.727  24.370  1.00  0.00     0.011 A 
ATOM     18  C   UNL A   1      34.748  20.679  24.737  1.00  0.00    -0.008 A 
ATOM     19  C   UNL A   1      35.817  21.617  25.008  1.00  0.00    -0.008 A 
ATOM     20  C   UNL A   1      36.083  23.989  25.431  1.00  0.00     0.011 A 
ATOM     21  C   UNL A   1      32.356  19.331  24.328  1.00  0.00     0.001 A 
ATOM     22  C   UNL A   1      34.764  19.295  24.697  1.00  0.00     0.009 A 
ATOM     23  C   UNL A   1      37.165  21.393  25.244  1.00  0.00     0.009 A 
ATOM     24  C   UNL A   1      37.443  23.771  25.656  1.00  0.00     0.001 A 
ATOM     25  C   UNL A   1      33.557  18.622  24.492  1.00  0.00     0.001 A 
ATOM     26  C   UNL A   1      37.982  22.483  25.554  1.00  0.00     0.001 A 
ENDBRANCH  11  14
ENDBRANCH   8  11
ENDBRANCH   5   8
ENDBRANCH   3   4
ENDBRANCH   2   3
ENDBRANCH   1   2
BRANCH   1  27
ATOM     27  C   UNL A   1      31.713  30.656  26.192  1.00  0.00     0.002 C 
BRANCH  27  28
ATOM     28  C   UNL A   1      31.468  32.087  26.671  1.00  0.00     0.021 C 
BRANCH  28  29
ATOM     29  C   UNL A   1      32.680  32.746  27.316  1.00  0.00     0.116 C 
BRANCH  29  30
ATOM     30  N   UNL A   1      32.435  34.144  27.632  1.00  0.00    -0.352 N 
ATOM     31  C   UNL A   1      32.997  34.918  28.612  1.00  0.00     0.251 C 
ATOM     32  H   UNL A   1      31.773  34.597  27.062  1.00  0.00     0.163 HD
ATOM     33  O   UNL A   1      32.528  36.021  28.882  1.00  0.00    -0.269 OA
BRANCH  31  34
ATOM     34  C   UNL A   1      34.163  34.410  29.363  1.00  0.00     0.039 A 
ATOM     35  C   UNL A   1      33.956  33.769  30.586  1.00  0.00     0.014 A 
ATOM     36  C   UNL A   1      35.457  34.561  28.856  1.00  0.00     0.014 A 
ATOM     37  C   UNL A   1      35.042  33.225  31.273  1.00  0.00     0.010 A 
ATOM     38  C   UNL A   1      36.527  33.949  29.500  1.00  0.00     0.010 A 
ATOM     39  C   UNL A   1      36.331  33.279  30.717  1.00  0.00    -0.014 A 
BRANCH  39  40
ATOM     40  C   UNL A   1      37.487  32.642  31.397  1.00  0.00     0.031 A 
ATOM     41  C   UNL A   1      38.182  31.469  30.764  1.00  0.00     0.074 A 
ATOM     42  C   UNL A   1      37.864  33.074  32.615  1.00  0.00     0.049 A 
ATOM     43  N   UNL A   1      39.159  30.734  31.233  1.00  0.00    -0.248 NA
ATOM     44  C   UNL A   1      37.694  31.047  29.442  1.00  0.00     0.031 C 
ATOM     45  C   UNL A   1      37.234  34.169  33.355  1.00  0.00     0.029 A 
ATOM     46  N   UNL A   1      38.859  32.635  33.453  1.00  0.00    -0.354 N 
ATOM     47  C   UNL A   1      39.390  29.757  30.272  1.00  0.00     0.074 A 
ATOM     48  C   UNL A   1      38.414  29.957  29.223  1.00  0.00     0.031 C 
ATOM     49  C   UNL A   1      37.866  34.326  34.528  1.00  0.00     0.029 A 
ATOM     50  C   UNL A   1      38.916  33.319  34.643  1.00  0.00     0.049 A 
ATOM     51  H   UNL A   1      39.472  31.901  33.224  1.00  0.00     0.167 HD
ATOM     52  C   UNL A   1      40.344  28.796  30.256  1.00  0.00     0.037 A 
ATOM     53  C   UNL A   1      39.715  33.143  35.713  1.00  0.00     0.037 A 
ATOM     54  C   UNL A   1      41.324  28.614  31.296  1.00  0.00     0.049 A 
ATOM     55  C   UNL A   1      40.763  32.064  35.676  1.00  0.00     0.074 A 
ATOM     56  C   UNL A   1      42.374  27.716  31.344  1.00  0.00     0.029 A 
ATOM     57  N   UNL A   1      41.365  29.341  32.478  1.00  0.00    -0.354 N 
ATOM     58  N   UNL A   1      41.027  31.198  34.727  1.00  0.00    -0.248 NA
ATOM     59  C   UNL A   1      41.631  31.942  36.856  1.00  0.00     0.031 C 
ATOM     60  C   UNL A   1      43.014  27.856  32.579  1.00  0.00     0.029 A 
ATOM     61  C   UNL A   1      42.404  28.887  33.276  1.00  0.00     0.049 A 
ATOM     62  H   UNL A   1      40.748  30.070  32.715  1.00  0.00     0.167 HD
ATOM     63  C   UNL A   1      42.104  30.448  35.181  1.00  0.00     0.074 A 
ATOM     64  C   UNL A   1      42.455  30.972  36.484  1.00  0.00     0.031 C 
ATOM     65  C   UNL A   1      42.743  29.419  34.572  1.00  0.00     0.037 A 
BRANCH  52  66
ATOM     66  C   UNL A   1      40.368  27.861  29.080  1.00  0.00     0.064 A 
ATOM     67  C   UNL A   1      39.654  26.652  29.080  1.00  0.00     0.173 A 
ATOM     68  C   UNL A   1      41.096  28.190  27.925  1.00  0.00     0.173 A 
ATOM     69  F   UNL A   1      38.948  26.285  30.161  1.00  0.00    -0.203 F 
ATOM     70  C   UNL A   1      39.700  25.791  27.988  1.00  0.00     0.198 A 
ATOM     71  C   UNL A   1      41.110  27.342  26.820  1.00  0.00     0.198 A 
ATOM     72  F   UNL A   1      41.790  29.335  27.866  1.00  0.00    -0.203 F 
ATOM     73  F   UNL A   1      39.060  24.615  28.037  1.00  0.00    -0.200 F 
ATOM     74  C   UNL A   1      40.422  26.139  26.856  1.00  0.00     0.200 A 
ATOM     75  F   UNL A   1      41.796  27.688  25.722  1.00  0.00    -0.200 F 
ATOM     76  F   UNL A   1      40.462  25.310  25.804  1.00  0.00    -0.200 F 
ENDBRANCH  52  66
BRANCH  53  77
ATOM     77  C   UNL A   1      39.559  34.020  36.904  1.00  0.00     0.064 A 
ATOM     78  C   UNL A   1      40.168  35.281  36.959  1.00  0.00     0.173 A 
ATOM     79  C   UNL A   1      38.792  33.617  38.007  1.00  0.00     0.173 A 
ATOM     80  F   UNL A   1      40.927  35.703  35.936  1.00  0.00    -0.203 F 
ATOM     81  C   UNL A   1      40.033  36.097  38.080  1.00  0.00     0.198 A 
ATOM     82  C   UNL A   1      38.631  34.447  39.114  1.00  0.00     0.198 A 
ATOM     83  F   UNL A   1      38.182  32.422  38.003  1.00  0.00    -0.203 F 
ATOM     84  F   UNL A   1      40.663  37.279  38.125  1.00  0.00    -0.200 F 
ATOM     85  C   UNL A   1      39.259  35.683  39.153  1.00  0.00     0.200 A 
ATOM     86  F   UNL A   1      37.868  34.051  40.141  1.00  0.00    -0.200 F 
ATOM     87  F   UNL A   1      39.122  36.473  40.228  1.00  0.00    -0.200 F 
ENDBRANCH  53  77
BRANCH  65  88
ATOM     88  C   UNL A   1      43.912  28.810  35.293  1.00  0.00     0.064 A 
ATOM     89  C   UNL A   1      45.225  29.256  35.083  1.00  0.00     0.173 A 
ATOM     90  C   UNL A   1      43.709  27.794  36.241  1.00  0.00     0.173 A 
ATOM     91  F   UNL A   1      45.474  30.215  34.176  1.00  0.00    -0.203 F 
ATOM     92  C   UNL A   1      46.293  28.693  35.776  1.00  0.00     0.198 A 
ATOM     93  C   UNL A   1      44.775  27.257  36.956  1.00  0.00     0.198 A 
ATOM     94  F   UNL A   1      42.474  27.334  36.486  1.00  0.00    -0.203 F 
ATOM     95  F   UNL A   1      47.544  29.102  35.521  1.00  0.00    -0.200 F 
ATOM     96  C   UNL A   1      46.067  27.701  36.717  1.00  0.00     0.200 A 
ATOM     97  F   UNL A   1      44.553  26.309  37.878  1.00  0.00    -0.200 F 
ATOM     98  F   UNL A   1      47.096  27.167  37.391  1.00  0.00    -0.200 F 
ENDBRANCH  65  88
ENDBRANCH  39  40
ENDBRANCH  31  34
ENDBRANCH  29  30
ENDBRANCH  28  29
ENDBRANCH  27  28
ENDBRANCH   1  27
TORSDOF 16
ENDMDL
MODEL 3
REMARK VINA RESULT:     -12.3      5.565     11.260
REMARK SMILES CC[C@H]([NH2+]C1c2ccccc2-c2ccccc21)C(=O)NCCCCCCNC(=O)c1ccc(-c2c3nc(c(-c4c(F)c(F)c(F)c(F)c4F)c4ccc([nH]4)c(-c4c(F)c(F)c(F)c(F)c4F)c4nc(c(-c5c(F)c(F)c(F)c(F)c5F)c5ccc2[nH]5)C=C4)C=C3)cc1
REMARK SMILES IDX 23 1 22 2 21 3 20 4 18 5 19 6 3 8 2 9 1 10 4 11 5 14 6 15
REMARK SMILES IDX 17 16 7 17 11 18 12 19 16 20 8 21 10 22 13 23 15 24 9 25
REMARK SMILES IDX 14 26 24 27 25 28 26 29 27 30 28 31 29 33 30 34 31 35 92 36
REMARK SMILES IDX 32 37 91 38 33 39 34 40 35 41 85 42 36 43 90 44 84 45 86 46
REMARK SMILES IDX 37 47 89 48 83 49 82 50 38 52 70 53 50 54 69 55 51 56 54 57
REMARK SMILES IDX 68 58 87 59 52 60 53 61 67 63 88 64 55 65 39 66 40 67 48 68
REMARK SMILES IDX 41 69 42 70 46 71 49 72 43 73 44 74 47 75 45 76 71 77 72 78
REMARK SMILES IDX 80 79 73 80 74 81 78 82 81 83 75 84 76 85 79 86 77 87 56 88
REMARK SMILES IDX 57 89 65 90 58 91 59 92 63 93 66 94 60 95 61 96 64 97 62 98
REMARK H PARENT 20 7 4 12 4 13 27 32 86 51 54 62
REMARK Flexibility Score: inf
ROOT
ATOM      1  C   UNL A   1      36.184  21.635  25.377  1.00  0.00     0.002 C 
ENDROOT
BRANCH   1   2
ATOM      2  C   UNL A   1      36.353  23.107  25.770  1.00  0.00     0.021 C 
BRANCH   2   3
ATOM      3  C   UNL A   1      35.183  24.000  25.362  1.00  0.00     0.116 C 
BRANCH   3   4
ATOM      4  N   UNL A   1      34.873  23.921  23.944  1.00  0.00    -0.351 N 
ATOM      5  C   UNL A   1      33.704  24.217  23.289  1.00  0.00     0.278 C 
ATOM      6  O   UNL A   1      33.707  24.187  22.055  1.00  0.00    -0.268 OA
ATOM      7  H   UNL A   1      35.609  23.609  23.370  1.00  0.00     0.163 HD
BRANCH   5   8
ATOM      8  C   UNL A   1      32.462  24.682  24.082  1.00  0.00     0.273 C 
BRANCH   8   9
ATOM      9  C   UNL A   1      31.505  23.453  24.093  1.00  0.00     0.072 C 
ATOM     10  C   UNL A   1      31.608  22.503  25.273  1.00  0.00     0.011 C 
ENDBRANCH   8   9
BRANCH   8  11
ATOM     11  N   UNL A   1      31.899  25.921  23.495  1.00  0.00    -0.326 N 
ATOM     12  H   UNL A   1      31.210  25.644  22.797  1.00  0.00     0.347 HD
ATOM     13  H   UNL A   1      32.705  26.428  23.130  1.00  0.00     0.347 HD
BRANCH  11  14
ATOM     14  C   UNL A   1      31.242  26.865  24.417  1.00  0.00     0.246 C 
ATOM     15  C   UNL A   1      32.214  27.744  25.200  1.00  0.00     0.022 A 
ATOM     16  C   UNL A   1      30.267  27.895  23.861  1.00  0.00     0.022 A 
ATOM     17  C   UNL A   1      33.276  27.360  26.008  1.00  0.00     0.011 A 
ATOM     18  C   UNL A   1      31.827  29.099  25.099  1.00  0.00    -0.008 A 
ATOM     19  C   UNL A   1      30.653  29.194  24.258  1.00  0.00    -0.008 A 
ATOM     20  C   UNL A   1      29.094  27.707  23.148  1.00  0.00     0.011 A 
ATOM     21  C   UNL A   1      33.956  28.353  26.717  1.00  0.00     0.001 A 
ATOM     22  C   UNL A   1      32.502  30.081  25.805  1.00  0.00     0.009 A 
ATOM     23  C   UNL A   1      29.913  30.303  23.876  1.00  0.00     0.009 A 
ATOM     24  C   UNL A   1      28.353  28.821  22.750  1.00  0.00     0.001 A 
ATOM     25  C   UNL A   1      33.571  29.700  26.618  1.00  0.00     0.001 A 
ATOM     26  C   UNL A   1      28.765  30.111  23.103  1.00  0.00     0.001 A 
ENDBRANCH  11  14
ENDBRANCH   8  11
ENDBRANCH   5   8
ENDBRANCH   3   4
ENDBRANCH   2   3
ENDBRANCH   1   2
BRANCH   1  27
ATOM     27  C   UNL A   1      37.276  21.094  24.451  1.00  0.00     0.002 C 
BRANCH  27  28
ATOM     28  C   UNL A   1      38.037  19.888  25.001  1.00  0.00     0.021 C 
BRANCH  28  29
ATOM     29  C   UNL A   1      39.166  20.246  25.960  1.00  0.00     0.116 C 
BRANCH  29  30
ATOM     30  N   UNL A   1      40.177  19.202  26.022  1.00  0.00    -0.352 N 
ATOM     31  C   UNL A   1      41.537  19.325  26.126  1.00  0.00     0.251 C 
ATOM     32  H   UNL A   1      39.836  18.280  25.985  1.00  0.00     0.163 HD
ATOM     33  O   UNL A   1      42.266  18.351  25.954  1.00  0.00    -0.269 OA
BRANCH  31  34
ATOM     34  C   UNL A   1      42.129  20.645  26.425  1.00  0.00     0.039 A 
ATOM     35  C   UNL A   1      42.530  21.464  25.368  1.00  0.00     0.014 A 
ATOM     36  C   UNL A   1      42.280  21.074  27.747  1.00  0.00     0.014 A 
ATOM     37  C   UNL A   1      43.029  22.740  25.635  1.00  0.00     0.010 A 
ATOM     38  C   UNL A   1      42.700  22.374  28.008  1.00  0.00     0.010 A 
ATOM     39  C   UNL A   1      43.084  23.218  26.954  1.00  0.00    -0.014 A 
BRANCH  39  40
ATOM     40  C   UNL A   1      43.541  24.599  27.252  1.00  0.00     0.031 A 
ATOM     41  C   UNL A   1      42.560  25.633  27.727  1.00  0.00     0.074 A 
ATOM     42  C   UNL A   1      44.824  24.938  27.025  1.00  0.00     0.049 A 
ATOM     43  N   UNL A   1      42.750  26.906  27.970  1.00  0.00    -0.248 NA
ATOM     44  C   UNL A   1      41.173  25.185  27.929  1.00  0.00     0.031 C 
ATOM     45  C   UNL A   1      45.858  24.038  26.514  1.00  0.00     0.029 A 
ATOM     46  N   UNL A   1      45.475  26.137  27.180  1.00  0.00    -0.354 N 
ATOM     47  C   UNL A   1      41.508  27.409  28.335  1.00  0.00     0.074 A 
ATOM     48  C   UNL A   1      40.562  26.321  28.227  1.00  0.00     0.031 C 
ATOM     49  C   UNL A   1      47.015  24.710  26.413  1.00  0.00     0.029 A 
ATOM     50  C   UNL A   1      46.796  26.097  26.810  1.00  0.00     0.049 A 
ATOM     51  H   UNL A   1      45.035  26.948  27.524  1.00  0.00     0.167 HD
ATOM     52  C   UNL A   1      41.191  28.661  28.746  1.00  0.00     0.037 A 
ATOM     53  C   UNL A   1      47.724  27.074  26.780  1.00  0.00     0.037 A 
ATOM     54  C   UNL A   1      42.142  29.735  28.868  1.00  0.00     0.049 A 
ATOM     55  C   UNL A   1      47.347  28.458  27.233  1.00  0.00     0.074 A 
ATOM     56  C   UNL A   1      41.937  31.019  29.340  1.00  0.00     0.029 A 
ATOM     57  N   UNL A   1      43.479  29.651  28.504  1.00  0.00    -0.354 N 
ATOM     58  N   UNL A   1      46.189  28.904  27.656  1.00  0.00    -0.248 NA
ATOM     59  C   UNL A   1      48.409  29.473  27.214  1.00  0.00     0.031 C 
ATOM     60  C   UNL A   1      43.133  31.731  29.205  1.00  0.00     0.029 A 
ATOM     61  C   UNL A   1      44.103  30.873  28.711  1.00  0.00     0.049 A 
ATOM     62  H   UNL A   1      43.919  28.845  28.153  1.00  0.00     0.167 HD
ATOM     63  C   UNL A   1      46.386  30.240  27.978  1.00  0.00     0.074 A 
ATOM     64  C   UNL A   1      47.781  30.528  27.717  1.00  0.00     0.031 C 
ATOM     65  C   UNL A   1      45.493  31.146  28.447  1.00  0.00     0.037 A 
BRANCH  52  66
ATOM     66  C   UNL A   1      39.754  28.936  29.085  1.00  0.00     0.064 A 
ATOM     67  C   UNL A   1      38.843  29.406  28.125  1.00  0.00     0.173 A 
ATOM     68  C   UNL A   1      39.272  28.705  30.383  1.00  0.00     0.173 A 
ATOM     69  F   UNL A   1      39.251  29.652  26.871  1.00  0.00    -0.203 F 
ATOM     70  C   UNL A   1      37.518  29.671  28.461  1.00  0.00     0.198 A 
ATOM     71  C   UNL A   1      37.937  28.937  30.706  1.00  0.00     0.198 A 
ATOM     72  F   UNL A   1      40.095  28.249  31.339  1.00  0.00    -0.203 F 
ATOM     73  F   UNL A   1      36.684  30.176  27.541  1.00  0.00    -0.200 F 
ATOM     74  C   UNL A   1      37.064  29.430  29.748  1.00  0.00     0.200 A 
ATOM     75  F   UNL A   1      37.497  28.688  31.947  1.00  0.00    -0.200 F 
ATOM     76  F   UNL A   1      35.787  29.681  30.068  1.00  0.00    -0.200 F 
ENDBRANCH  52  66
BRANCH  53  77
ATOM     77  C   UNL A   1      49.102  26.769  26.311  1.00  0.00     0.064 A 
ATOM     78  C   UNL A   1      49.471  26.964  24.973  1.00  0.00     0.173 A 
ATOM     79  C   UNL A   1      50.078  26.282  27.193  1.00  0.00     0.173 A 
ATOM     80  F   UNL A   1      48.567  27.410  24.088  1.00  0.00    -0.203 F 
ATOM     81  C   UNL A   1      50.758  26.665  24.531  1.00  0.00     0.198 A 
ATOM     82  C   UNL A   1      51.374  26.014  26.756  1.00  0.00     0.198 A 
ATOM     83  F   UNL A   1      49.779  26.083  28.485  1.00  0.00    -0.203 F 
ATOM     84  F   UNL A   1      51.071  26.819  23.236  1.00  0.00    -0.200 F 
ATOM     85  C   UNL A   1      51.710  26.198  25.423  1.00  0.00     0.200 A 
ATOM     86  F   UNL A   1      52.295  25.579  27.626  1.00  0.00    -0.200 F 
ATOM     87  F   UNL A   1      52.951  25.918  24.999  1.00  0.00    -0.200 F 
ENDBRANCH  53  77
BRANCH  65  88
ATOM     88  C   UNL A   1      46.001  32.528  28.742  1.00  0.00     0.064 A 
ATOM     89  C   UNL A   1      46.561  32.861  29.984  1.00  0.00     0.173 A 
ATOM     90  C   UNL A   1      45.968  33.522  27.750  1.00  0.00     0.173 A 
ATOM     91  F   UNL A   1      46.604  31.951  30.970  1.00  0.00    -0.203 F 
ATOM     92  C   UNL A   1      47.046  34.142  30.230  1.00  0.00     0.198 A 
ATOM     93  C   UNL A   1      46.484  34.792  27.990  1.00  0.00     0.198 A 
ATOM     94  F   UNL A   1      45.449  33.256  26.543  1.00  0.00    -0.203 F 
ATOM     95  F   UNL A   1      47.532  34.450  31.442  1.00  0.00    -0.200 F 
ATOM     96  C   UNL A   1      47.015  35.104  29.233  1.00  0.00     0.200 A 
ATOM     97  F   UNL A   1      46.469  35.714  27.018  1.00  0.00    -0.200 F 
ATOM     98  F   UNL A   1      47.493  36.334  29.469  1.00  0.00    -0.200 F 
ENDBRANCH  65  88
ENDBRANCH  39  40
ENDBRANCH  31  34
ENDBRANCH  29  30
ENDBRANCH  28  29
ENDBRANCH  27  28
ENDBRANCH   1  27
TORSDOF 16
ENDMDL
