MODEL 1
REMARK VINA RESULT:     -11.8      0.000      0.000
REMARK SMILES CC(C)(O)CCOc1ccc(C(=O)NCCCCCCNC(=O)c2ccc(-c3c4nc(c(-c5c(F)c(F)c(F)c(F)c5F)c5ccc([nH]5)c(-c5c(F)c(F)c(F)c(F)c5F)c5nc(c(-c6c(F)c(F)c(F)c(F)c6F)c6ccc3[nH]6)C=C5)C=C4)cc2)cc1
REMARK SMILES IDX 16 1 15 2 14 3 12 4 13 5 11 7 8 8 9 9 88 10 10 11 87 12 7 13
REMARK SMILES IDX 6 14 5 15 2 16 1 17 3 18 4 19 17 21 18 22 19 23 20 24 21 25
REMARK SMILES IDX 22 26 23 28 24 29 25 30 86 31 26 32 85 33 27 34 28 35 29 36
REMARK SMILES IDX 79 37 30 38 84 39 78 40 80 41 31 42 83 43 77 44 76 45 32 47
REMARK SMILES IDX 64 48 44 49 63 50 45 51 48 52 62 53 81 54 46 55 47 56 61 58
REMARK SMILES IDX 82 59 49 60 33 61 34 62 42 63 35 64 36 65 40 66 43 67 37 68
REMARK SMILES IDX 38 69 41 70 39 71 65 72 66 73 74 74 67 75 68 76 72 77 75 78
REMARK SMILES IDX 69 79 70 80 73 81 71 82 50 83 51 84 59 85 52 86 53 87 57 88
REMARK SMILES IDX 60 89 54 90 55 91 58 92 56 93
REMARK H PARENT 14 6 4 20 21 27 80 46 48 57
REMARK Flexibility Score: inf
ROOT
ATOM      1  C   UNL A   1      32.613  28.471  26.483  1.00  0.00     0.021 C 
ENDROOT
BRANCH   1   2
ATOM      2  C   UNL A   1      31.476  27.630  27.074  1.00  0.00     0.116 C 
BRANCH   2   3
ATOM      3  N   UNL A   1      31.579  26.221  26.726  1.00  0.00    -0.352 N 
ATOM      4  C   UNL A   1      31.112  25.553  25.615  1.00  0.00     0.251 C 
ATOM      5  O   UNL A   1      31.167  24.328  25.565  1.00  0.00    -0.269 OA
ATOM      6  H   UNL A   1      32.053  25.662  27.383  1.00  0.00     0.163 HD
BRANCH   4   7
ATOM      7  C   UNL A   1      30.501  26.307  24.500  1.00  0.00     0.040 A 
ATOM      8  C   UNL A   1      29.345  28.091  22.695  1.00  0.00     0.119 A 
ATOM      9  C   UNL A   1      28.535  27.317  23.532  1.00  0.00     0.047 A 
ATOM     10  C   UNL A   1      30.705  27.799  22.616  1.00  0.00     0.047 A 
ATOM     11  C   UNL A   1      29.110  26.418  24.435  1.00  0.00     0.017 A 
ATOM     12  C   UNL A   1      31.292  26.930  23.537  1.00  0.00     0.017 A 
BRANCH   8  13
ATOM     13  O   UNL A   1      28.720  29.155  22.108  1.00  0.00    -0.493 OA
BRANCH  13  14
ATOM     14  C   UNL A   1      27.608  29.762  22.773  1.00  0.00     0.232 C 
BRANCH  14  15
ATOM     15  C   UNL A   1      27.801  31.225  23.237  1.00  0.00     0.076 C 
BRANCH  15  16
ATOM     16  C   UNL A   1      28.640  32.191  22.368  1.00  0.00     0.062 C 
ATOM     17  C   UNL A   1      28.953  33.503  23.096  1.00  0.00     0.042 C 
ATOM     18  C   UNL A   1      27.895  32.547  21.072  1.00  0.00     0.042 C 
BRANCH  16  19
ATOM     19  O   UNL A   1      29.836  31.541  21.945  1.00  0.00    -0.390 OA
ATOM     20  H   UNL A   1      30.560  31.772  22.548  1.00  0.00     0.211 HD
ENDBRANCH  16  19
ENDBRANCH  15  16
ENDBRANCH  14  15
ENDBRANCH  13  14
ENDBRANCH   8  13
ENDBRANCH   4   7
ENDBRANCH   2   3
ENDBRANCH   1   2
BRANCH   1  21
ATOM     21  C   UNL A   1      32.573  29.965  26.826  1.00  0.00     0.002 C 
BRANCH  21  22
ATOM     22  C   UNL A   1      31.488  30.782  26.118  1.00  0.00     0.002 C 
BRANCH  22  23
ATOM     23  C   UNL A   1      31.326  32.230  26.591  1.00  0.00     0.021 C 
BRANCH  23  24
ATOM     24  C   UNL A   1      32.567  32.860  27.221  1.00  0.00     0.116 C 
BRANCH  24  25
ATOM     25  N   UNL A   1      32.352  34.238  27.631  1.00  0.00    -0.352 N 
ATOM     26  C   UNL A   1      32.968  34.975  28.613  1.00  0.00     0.251 C 
ATOM     27  H   UNL A   1      31.657  34.719  27.125  1.00  0.00     0.163 HD
ATOM     28  O   UNL A   1      32.531  36.080  28.917  1.00  0.00    -0.269 OA
BRANCH  26  29
ATOM     29  C   UNL A   1      34.148  34.437  29.329  1.00  0.00     0.039 A 
ATOM     30  C   UNL A   1      33.959  33.809  30.563  1.00  0.00     0.014 A 
ATOM     31  C   UNL A   1      35.438  34.573  28.807  1.00  0.00     0.014 A 
ATOM     32  C   UNL A   1      35.050  33.260  31.242  1.00  0.00     0.010 A 
ATOM     33  C   UNL A   1      36.515  33.963  29.448  1.00  0.00     0.010 A 
ATOM     34  C   UNL A   1      36.334  33.301  30.672  1.00  0.00    -0.014 A 
BRANCH  34  35
ATOM     35  C   UNL A   1      37.493  32.652  31.339  1.00  0.00     0.031 A 
ATOM     36  C   UNL A   1      38.208  31.507  30.676  1.00  0.00     0.074 A 
ATOM     37  C   UNL A   1      37.863  33.054  32.571  1.00  0.00     0.049 A 
ATOM     38  N   UNL A   1      39.191  30.770  31.129  1.00  0.00    -0.248 NA
ATOM     39  C   UNL A   1      37.740  31.124  29.335  1.00  0.00     0.031 C 
ATOM     40  C   UNL A   1      37.227  34.125  33.338  1.00  0.00     0.029 A 
ATOM     41  N   UNL A   1      38.861  32.601  33.400  1.00  0.00    -0.354 N 
ATOM     42  C   UNL A   1      39.450  29.832  30.137  1.00  0.00     0.074 A 
ATOM     43  C   UNL A   1      38.486  30.058  29.082  1.00  0.00     0.031 C 
ATOM     44  C   UNL A   1      37.859  34.261  34.514  1.00  0.00     0.029 A 
ATOM     45  C   UNL A   1      38.920  33.261  34.603  1.00  0.00     0.049 A 
ATOM     46  H   UNL A   1      39.475  31.871  33.156  1.00  0.00     0.167 HD
ATOM     47  C   UNL A   1      40.419  28.886  30.099  1.00  0.00     0.037 A 
ATOM     48  C   UNL A   1      39.730  33.077  35.662  1.00  0.00     0.037 A 
ATOM     49  C   UNL A   1      41.390  28.677  31.142  1.00  0.00     0.049 A 
ATOM     50  C   UNL A   1      40.785  32.004  35.602  1.00  0.00     0.074 A 
ATOM     51  C   UNL A   1      42.443  27.779  31.173  1.00  0.00     0.029 A 
ATOM     52  N   UNL A   1      41.423  29.373  32.342  1.00  0.00    -0.354 N 
ATOM     53  N   UNL A   1      41.062  31.168  34.631  1.00  0.00    -0.248 NA
ATOM     54  C   UNL A   1      41.644  31.853  36.785  1.00  0.00     0.031 C 
ATOM     55  C   UNL A   1      43.082  27.896  32.412  1.00  0.00     0.029 A 
ATOM     56  C   UNL A   1      42.463  28.906  33.131  1.00  0.00     0.049 A 
ATOM     57  H   UNL A   1      40.799  30.091  32.595  1.00  0.00     0.167 HD
ATOM     58  C   UNL A   1      42.142  30.415  35.072  1.00  0.00     0.074 A 
ATOM     59  C   UNL A   1      42.481  30.905  36.391  1.00  0.00     0.031 C 
ATOM     60  C   UNL A   1      42.794  29.408  34.440  1.00  0.00     0.037 A 
BRANCH  47  61
ATOM     61  C   UNL A   1      40.480  28.001  28.886  1.00  0.00     0.064 A 
ATOM     62  C   UNL A   1      41.265  28.334  27.772  1.00  0.00     0.173 A 
ATOM     63  C   UNL A   1      39.778  26.787  28.852  1.00  0.00     0.173 A 
ATOM     64  F   UNL A   1      41.949  29.488  27.747  1.00  0.00    -0.203 F 
ATOM     65  C   UNL A   1      41.320  27.500  26.658  1.00  0.00     0.198 A 
ATOM     66  C   UNL A   1      39.861  25.940  27.751  1.00  0.00     0.198 A 
ATOM     67  F   UNL A   1      39.017  26.416  29.894  1.00  0.00    -0.203 F 
ATOM     68  F   UNL A   1      42.037  27.863  25.585  1.00  0.00    -0.200 F 
ATOM     69  C   UNL A   1      40.625  26.299  26.651  1.00  0.00     0.200 A 
ATOM     70  F   UNL A   1      39.200  24.773  27.752  1.00  0.00    -0.200 F 
ATOM     71  F   UNL A   1      40.687  25.494  25.583  1.00  0.00    -0.200 F 
ENDBRANCH  47  61
BRANCH  48  72
ATOM     72  C   UNL A   1      39.592  33.938  36.866  1.00  0.00     0.064 A 
ATOM     73  C   UNL A   1      38.813  33.528  37.959  1.00  0.00     0.173 A 
ATOM     74  C   UNL A   1      40.220  35.190  36.946  1.00  0.00     0.173 A 
ATOM     75  F   UNL A   1      38.176  32.350  37.921  1.00  0.00    -0.203 F 
ATOM     76  C   UNL A   1      38.649  34.348  39.074  1.00  0.00     0.198 A 
ATOM     77  C   UNL A   1      40.079  35.994  38.076  1.00  0.00     0.198 A 
ATOM     78  F   UNL A   1      40.979  35.627  35.932  1.00  0.00    -0.203 F 
ATOM     79  F   UNL A   1      37.859  33.953  40.081  1.00  0.00    -0.200 F 
ATOM     80  C   UNL A   1      39.287  35.577  39.134  1.00  0.00     0.200 A 
ATOM     81  F   UNL A   1      40.711  37.175  38.136  1.00  0.00    -0.200 F 
ATOM     82  F   UNL A   1      39.131  36.364  40.208  1.00  0.00    -0.200 F 
ENDBRANCH  48  72
BRANCH  60  83
ATOM     83  C   UNL A   1      43.966  28.793  35.151  1.00  0.00     0.064 A 
ATOM     84  C   UNL A   1      45.269  29.285  34.989  1.00  0.00     0.173 A 
ATOM     85  C   UNL A   1      43.775  27.720  36.036  1.00  0.00     0.173 A 
ATOM     86  F   UNL A   1      45.507  30.299  34.142  1.00  0.00    -0.203 F 
ATOM     87  C   UNL A   1      46.341  28.708  35.663  1.00  0.00     0.198 A 
ATOM     88  C   UNL A   1      44.844  27.167  36.734  1.00  0.00     0.198 A 
ATOM     89  F   UNL A   1      42.548  27.217  36.233  1.00  0.00    -0.203 F 
ATOM     90  F   UNL A   1      47.585  29.161  35.453  1.00  0.00    -0.200 F 
ATOM     91  C   UNL A   1      46.128  27.655  36.541  1.00  0.00     0.200 A 
ATOM     92  F   UNL A   1      44.633  26.160  37.594  1.00  0.00    -0.200 F 
ATOM     93  F   UNL A   1      47.160  27.107  37.196  1.00  0.00    -0.200 F 
ENDBRANCH  60  83
ENDBRANCH  34  35
ENDBRANCH  26  29
ENDBRANCH  24  25
ENDBRANCH  23  24
ENDBRANCH  22  23
ENDBRANCH  21  22
ENDBRANCH   1  21
TORSDOF 18
ENDMDL
MODEL 2
REMARK VINA RESULT:     -11.2      5.480      9.331
REMARK SMILES CC(C)(O)CCOc1ccc(C(=O)NCCCCCCNC(=O)c2ccc(-c3c4nc(c(-c5c(F)c(F)c(F)c(F)c5F)c5ccc([nH]5)c(-c5c(F)c(F)c(F)c(F)c5F)c5nc(c(-c6c(F)c(F)c(F)c(F)c6F)c6ccc3[nH]6)C=C5)C=C4)cc2)cc1
REMARK SMILES IDX 16 1 15 2 14 3 12 4 13 5 11 7 8 8 9 9 88 10 10 11 87 12 7 13
REMARK SMILES IDX 6 14 5 15 2 16 1 17 3 18 4 19 17 21 18 22 19 23 20 24 21 25
REMARK SMILES IDX 22 26 23 28 24 29 25 30 86 31 26 32 85 33 27 34 28 35 29 36
REMARK SMILES IDX 79 37 30 38 84 39 78 40 80 41 31 42 83 43 77 44 76 45 32 47
REMARK SMILES IDX 64 48 44 49 63 50 45 51 48 52 62 53 81 54 46 55 47 56 61 58
REMARK SMILES IDX 82 59 49 60 33 61 34 62 42 63 35 64 36 65 40 66 43 67 37 68
REMARK SMILES IDX 38 69 41 70 39 71 65 72 66 73 74 74 67 75 68 76 72 77 75 78
REMARK SMILES IDX 69 79 70 80 73 81 71 82 50 83 51 84 59 85 52 86 53 87 57 88
REMARK SMILES IDX 60 89 54 90 55 91 58 92 56 93
REMARK H PARENT 14 6 4 20 21 27 80 46 48 57
REMARK Flexibility Score: inf
ROOT
ATOM      1  C   UNL A   1      34.335  25.481  24.861  1.00  0.00     0.021 C 
ENDROOT
BRANCH   1   2
ATOM      2  C   UNL A   1      33.667  25.461  23.482  1.00  0.00     0.116 C 
BRANCH   2   3
ATOM      3  N   UNL A   1      32.215  25.492  23.560  1.00  0.00    -0.352 N 
ATOM      4  C   UNL A   1      31.315  24.450  23.636  1.00  0.00     0.251 C 
ATOM      5  O   UNL A   1      30.111  24.668  23.547  1.00  0.00    -0.269 OA
ATOM      6  H   UNL A   1      31.815  26.391  23.558  1.00  0.00     0.163 HD
BRANCH   4   7
ATOM      7  C   UNL A   1      31.801  23.062  23.780  1.00  0.00     0.040 A 
ATOM      8  C   UNL A   1      32.265  20.327  24.067  1.00  0.00     0.119 A 
ATOM      9  C   UNL A   1      32.153  21.142  25.199  1.00  0.00     0.047 A 
ATOM     10  C   UNL A   1      32.367  20.925  22.814  1.00  0.00     0.047 A 
ATOM     11  C   UNL A   1      31.926  22.513  25.060  1.00  0.00     0.017 A 
ATOM     12  C   UNL A   1      32.106  22.288  22.662  1.00  0.00     0.017 A 
BRANCH   8  13
ATOM     13  O   UNL A   1      32.149  18.986  24.306  1.00  0.00    -0.493 OA
BRANCH  13  14
ATOM     14  C   UNL A   1      32.481  18.062  23.265  1.00  0.00     0.232 C 
BRANCH  14  15
ATOM     15  C   UNL A   1      33.491  16.950  23.631  1.00  0.00     0.076 C 
BRANCH  15  16
ATOM     16  C   UNL A   1      34.395  17.126  24.874  1.00  0.00     0.062 C 
ATOM     17  C   UNL A   1      35.445  18.225  24.678  1.00  0.00     0.042 C 
ATOM     18  C   UNL A   1      35.144  15.823  25.193  1.00  0.00     0.042 C 
BRANCH  16  19
ATOM     19  O   UNL A   1      33.590  17.385  26.021  1.00  0.00    -0.390 OA
ATOM     20  H   UNL A   1      33.460  18.341  26.116  1.00  0.00     0.211 HD
ENDBRANCH  16  19
ENDBRANCH  15  16
ENDBRANCH  14  15
ENDBRANCH  13  14
ENDBRANCH   8  13
ENDBRANCH   4   7
ENDBRANCH   2   3
ENDBRANCH   1   2
BRANCH   1  21
ATOM     21  C   UNL A   1      35.263  24.297  25.160  1.00  0.00     0.002 C 
BRANCH  21  22
ATOM     22  C   UNL A   1      35.468  23.305  24.010  1.00  0.00     0.002 C 
BRANCH  22  23
ATOM     23  C   UNL A   1      36.462  22.171  24.276  1.00  0.00     0.021 C 
BRANCH  23  24
ATOM     24  C   UNL A   1      36.820  21.939  25.743  1.00  0.00     0.116 C 
BRANCH  24  25
ATOM     25  N   UNL A   1      37.877  20.955  25.915  1.00  0.00    -0.352 N 
ATOM     26  C   UNL A   1      39.204  21.128  26.224  1.00  0.00     0.251 C 
ATOM     27  H   UNL A   1      37.598  20.018  25.791  1.00  0.00     0.163 HD
ATOM     28  O   UNL A   1      39.977  20.178  26.164  1.00  0.00    -0.269 OA
BRANCH  26  29
ATOM     29  C   UNL A   1      39.718  22.462  26.611  1.00  0.00     0.039 A 
ATOM     30  C   UNL A   1      40.681  22.547  27.621  1.00  0.00     0.014 A 
ATOM     31  C   UNL A   1      39.238  23.628  26.008  1.00  0.00     0.014 A 
ATOM     32  C   UNL A   1      41.210  23.790  27.979  1.00  0.00     0.010 A 
ATOM     33  C   UNL A   1      39.816  24.858  26.314  1.00  0.00     0.010 A 
ATOM     34  C   UNL A   1      40.807  24.954  27.303  1.00  0.00    -0.014 A 
BRANCH  34  35
ATOM     35  C   UNL A   1      41.416  26.273  27.613  1.00  0.00     0.031 A 
ATOM     36  C   UNL A   1      42.830  26.575  27.198  1.00  0.00     0.074 A 
ATOM     37  C   UNL A   1      40.716  27.180  28.324  1.00  0.00     0.049 A 
ATOM     38  N   UNL A   1      43.556  27.638  27.439  1.00  0.00    -0.248 NA
ATOM     39  C   UNL A   1      43.529  25.532  26.432  1.00  0.00     0.031 C 
ATOM     40  C   UNL A   1      39.352  26.994  28.819  1.00  0.00     0.029 A 
ATOM     41  N   UNL A   1      41.060  28.436  28.761  1.00  0.00    -0.354 N 
ATOM     42  C   UNL A   1      44.796  27.388  26.865  1.00  0.00     0.074 A 
ATOM     43  C   UNL A   1      44.743  26.052  26.312  1.00  0.00     0.031 C 
ATOM     44  C   UNL A   1      38.967  28.100  29.474  1.00  0.00     0.029 A 
ATOM     45  C   UNL A   1      40.069  29.059  29.481  1.00  0.00     0.049 A 
ATOM     46  H   UNL A   1      41.934  28.850  28.578  1.00  0.00     0.167 HD
ATOM     47  C   UNL A   1      45.873  28.206  26.785  1.00  0.00     0.037 A 
ATOM     48  C   UNL A   1      40.053  30.261  30.085  1.00  0.00     0.037 A 
ATOM     49  C   UNL A   1      45.916  29.543  27.318  1.00  0.00     0.049 A 
ATOM     50  C   UNL A   1      41.270  31.144  29.999  1.00  0.00     0.074 A 
ATOM     51  C   UNL A   1      46.941  30.471  27.242  1.00  0.00     0.029 A 
ATOM     52  N   UNL A   1      44.889  30.143  28.033  1.00  0.00    -0.354 N 
ATOM     53  N   UNL A   1      42.413  30.921  29.397  1.00  0.00    -0.248 NA
ATOM     54  C   UNL A   1      41.192  32.447  30.673  1.00  0.00     0.031 C 
ATOM     55  C   UNL A   1      46.554  31.611  27.953  1.00  0.00     0.029 A 
ATOM     56  C   UNL A   1      45.267  31.418  28.425  1.00  0.00     0.049 A 
ATOM     57  H   UNL A   1      44.020  29.724  28.232  1.00  0.00     0.167 HD
ATOM     58  C   UNL A   1      43.176  32.065  29.593  1.00  0.00     0.074 A 
ATOM     59  C   UNL A   1      42.360  32.985  30.356  1.00  0.00     0.031 C 
ATOM     60  C   UNL A   1      44.440  32.328  29.178  1.00  0.00     0.037 A 
BRANCH  47  61
ATOM     61  C   UNL A   1      47.098  27.680  26.091  1.00  0.00     0.064 A 
ATOM     62  C   UNL A   1      47.242  27.753  24.698  1.00  0.00     0.173 A 
ATOM     63  C   UNL A   1      48.157  27.134  26.832  1.00  0.00     0.173 A 
ATOM     64  F   UNL A   1      46.255  28.257  23.941  1.00  0.00    -0.203 F 
ATOM     65  C   UNL A   1      48.387  27.269  24.069  1.00  0.00     0.198 A 
ATOM     66  C   UNL A   1      49.314  26.682  26.203  1.00  0.00     0.198 A 
ATOM     67  F   UNL A   1      48.075  27.047  28.168  1.00  0.00    -0.203 F 
ATOM     68  F   UNL A   1      48.481  27.302  22.733  1.00  0.00    -0.200 F 
ATOM     69  C   UNL A   1      49.426  26.743  24.822  1.00  0.00     0.200 A 
ATOM     70  F   UNL A   1      50.323  26.187  26.934  1.00  0.00    -0.200 F 
ATOM     71  F   UNL A   1      50.531  26.287  24.217  1.00  0.00    -0.200 F 
ENDBRANCH  47  61
BRANCH  48  72
ATOM     72  C   UNL A   1      38.838  30.714  30.813  1.00  0.00     0.064 A 
ATOM     73  C   UNL A   1      38.729  30.555  32.202  1.00  0.00     0.173 A 
ATOM     74  C   UNL A   1      37.757  31.301  30.137  1.00  0.00     0.173 A 
ATOM     75  F   UNL A   1      39.726  29.980  32.889  1.00  0.00    -0.203 F 
ATOM     76  C   UNL A   1      37.577  30.943  32.884  1.00  0.00     0.198 A 
ATOM     77  C   UNL A   1      36.619  31.717  30.825  1.00  0.00     0.198 A 
ATOM     78  F   UNL A   1      37.812  31.480  28.810  1.00  0.00    -0.203 F 
ATOM     79  F   UNL A   1      37.480  30.733  34.203  1.00  0.00    -0.200 F 
ATOM     80  C   UNL A   1      36.526  31.530  32.196  1.00  0.00     0.200 A 
ATOM     81  F   UNL A   1      35.611  32.297  30.159  1.00  0.00    -0.200 F 
ATOM     82  F   UNL A   1      35.419  31.905  32.852  1.00  0.00    -0.200 F 
ENDBRANCH  48  72
BRANCH  60  83
ATOM     83  C   UNL A   1      45.006  33.680  29.507  1.00  0.00     0.064 A 
ATOM     84  C   UNL A   1      45.749  33.904  30.676  1.00  0.00     0.173 A 
ATOM     85  C   UNL A   1      44.835  34.755  28.621  1.00  0.00     0.173 A 
ATOM     86  F   UNL A   1      45.928  32.914  31.563  1.00  0.00    -0.203 F 
ATOM     87  C   UNL A   1      46.274  35.162  30.959  1.00  0.00     0.198 A 
ATOM     88  C   UNL A   1      45.390  36.002  28.891  1.00  0.00     0.198 A 
ATOM     89  F   UNL A   1      44.140  34.591  27.486  1.00  0.00    -0.203 F 
ATOM     90  F   UNL A   1      46.936  35.366  32.106  1.00  0.00    -0.200 F 
ATOM     91  C   UNL A   1      46.101  36.207  30.064  1.00  0.00     0.200 A 
ATOM     92  F   UNL A   1      45.236  37.007  28.017  1.00  0.00    -0.200 F 
ATOM     93  F   UNL A   1      46.615  37.415  30.334  1.00  0.00    -0.200 F 
ENDBRANCH  60  83
ENDBRANCH  34  35
ENDBRANCH  26  29
ENDBRANCH  24  25
ENDBRANCH  23  24
ENDBRANCH  22  23
ENDBRANCH  21  22
ENDBRANCH   1  21
TORSDOF 18
ENDMDL
MODEL 3
REMARK VINA RESULT:     -11.2      5.513     10.958
REMARK SMILES CC(C)(O)CCOc1ccc(C(=O)NCCCCCCNC(=O)c2ccc(-c3c4nc(c(-c5c(F)c(F)c(F)c(F)c5F)c5ccc([nH]5)c(-c5c(F)c(F)c(F)c(F)c5F)c5nc(c(-c6c(F)c(F)c(F)c(F)c6F)c6ccc3[nH]6)C=C5)C=C4)cc2)cc1
REMARK SMILES IDX 16 1 15 2 14 3 12 4 13 5 11 7 8 8 9 9 88 10 10 11 87 12 7 13
REMARK SMILES IDX 6 14 5 15 2 16 1 17 3 18 4 19 17 21 18 22 19 23 20 24 21 25
REMARK SMILES IDX 22 26 23 28 24 29 25 30 86 31 26 32 85 33 27 34 28 35 29 36
REMARK SMILES IDX 79 37 30 38 84 39 78 40 80 41 31 42 83 43 77 44 76 45 32 47
REMARK SMILES IDX 64 48 44 49 63 50 45 51 48 52 62 53 81 54 46 55 47 56 61 58
REMARK SMILES IDX 82 59 49 60 33 61 34 62 42 63 35 64 36 65 40 66 43 67 37 68
REMARK SMILES IDX 38 69 41 70 39 71 65 72 66 73 74 74 67 75 68 76 72 77 75 78
REMARK SMILES IDX 69 79 70 80 73 81 71 82 50 83 51 84 59 85 52 86 53 87 57 88
REMARK SMILES IDX 60 89 54 90 55 91 58 92 56 93
REMARK H PARENT 14 6 4 20 21 27 80 46 48 57
REMARK Flexibility Score: inf
ROOT
ATOM      1  C   UNL A   1      34.032  25.701  25.074  1.00  0.00     0.021 C 
ENDROOT
BRANCH   1   2
ATOM      2  C   UNL A   1      33.457  25.815  23.658  1.00  0.00     0.116 C 
BRANCH   2   3
ATOM      3  N   UNL A   1      32.003  25.758  23.635  1.00  0.00    -0.352 N 
ATOM      4  C   UNL A   1      31.165  24.665  23.674  1.00  0.00     0.251 C 
ATOM      5  O   UNL A   1      29.959  24.806  23.496  1.00  0.00    -0.269 OA
ATOM      6  H   UNL A   1      31.551  26.631  23.583  1.00  0.00     0.163 HD
BRANCH   4   7
ATOM      7  C   UNL A   1      31.722  23.312  23.885  1.00  0.00     0.040 A 
ATOM      8  C   UNL A   1      32.331  20.613  24.235  1.00  0.00     0.119 A 
ATOM      9  C   UNL A   1      32.004  21.407  25.339  1.00  0.00     0.047 A 
ATOM     10  C   UNL A   1      32.566  21.229  23.008  1.00  0.00     0.047 A 
ATOM     11  C   UNL A   1      31.703  22.761  25.169  1.00  0.00     0.017 A 
ATOM     12  C   UNL A   1      32.234  22.572  22.821  1.00  0.00     0.017 A 
BRANCH   8  13
ATOM     13  O   UNL A   1      32.276  19.265  24.456  1.00  0.00    -0.493 OA
BRANCH  13  14
ATOM     14  C   UNL A   1      33.063  18.393  23.638  1.00  0.00     0.232 C 
BRANCH  14  15
ATOM     15  C   UNL A   1      32.921  16.879  23.915  1.00  0.00     0.076 C 
BRANCH  15  16
ATOM     16  C   UNL A   1      33.383  16.311  25.277  1.00  0.00     0.062 C 
ATOM     17  C   UNL A   1      34.859  15.900  25.264  1.00  0.00     0.042 C 
ATOM     18  C   UNL A   1      32.561  15.070  25.659  1.00  0.00     0.042 C 
BRANCH  16  19
ATOM     19  O   UNL A   1      33.124  17.261  26.308  1.00  0.00    -0.390 OA
ATOM     20  H   UNL A   1      32.214  17.585  26.227  1.00  0.00     0.211 HD
ENDBRANCH  16  19
ENDBRANCH  15  16
ENDBRANCH  14  15
ENDBRANCH  13  14
ENDBRANCH   8  13
ENDBRANCH   4   7
ENDBRANCH   2   3
ENDBRANCH   1   2
BRANCH   1  21
ATOM     21  C   UNL A   1      35.025  24.553  25.292  1.00  0.00     0.002 C 
BRANCH  21  22
ATOM     22  C   UNL A   1      35.376  23.732  24.046  1.00  0.00     0.002 C 
BRANCH  22  23
ATOM     23  C   UNL A   1      36.218  22.477  24.290  1.00  0.00     0.021 C 
BRANCH  23  24
ATOM     24  C   UNL A   1      36.660  22.249  25.734  1.00  0.00     0.116 C 
BRANCH  24  25
ATOM     25  N   UNL A   1      37.653  21.194  25.860  1.00  0.00    -0.352 N 
ATOM     26  C   UNL A   1      38.995  21.273  26.143  1.00  0.00     0.251 C 
ATOM     27  H   UNL A   1      37.310  20.282  25.720  1.00  0.00     0.163 HD
ATOM     28  O   UNL A   1      39.702  20.276  26.044  1.00  0.00    -0.269 OA
BRANCH  26  29
ATOM     29  C   UNL A   1      39.604  22.560  26.549  1.00  0.00     0.039 A 
ATOM     30  C   UNL A   1      40.474  22.579  27.643  1.00  0.00     0.014 A 
ATOM     31  C   UNL A   1      39.302  23.749  25.880  1.00  0.00     0.014 A 
ATOM     32  C   UNL A   1      41.091  23.774  28.024  1.00  0.00     0.010 A 
ATOM     33  C   UNL A   1      39.971  24.925  26.214  1.00  0.00     0.010 A 
ATOM     34  C   UNL A   1      40.872  24.951  27.290  1.00  0.00    -0.014 A 
BRANCH  34  35
ATOM     35  C   UNL A   1      41.580  26.213  27.629  1.00  0.00     0.031 A 
ATOM     36  C   UNL A   1      40.870  27.306  28.380  1.00  0.00     0.074 A 
ATOM     37  C   UNL A   1      42.846  26.400  27.206  1.00  0.00     0.049 A 
ATOM     38  N   UNL A   1      41.297  28.501  28.704  1.00  0.00    -0.248 NA
ATOM     39  C   UNL A   1      39.489  27.028  28.800  1.00  0.00     0.031 C 
ATOM     40  C   UNL A   1      43.632  25.435  26.436  1.00  0.00     0.029 A 
ATOM     41  N   UNL A   1      43.693  27.471  27.356  1.00  0.00    -0.354 N 
ATOM     42  C   UNL A   1      40.235  29.118  29.354  1.00  0.00     0.074 A 
ATOM     43  C   UNL A   1      39.128  28.188  29.330  1.00  0.00     0.031 C 
ATOM     44  C   UNL A   1      44.849  25.947  26.199  1.00  0.00     0.029 A 
ATOM     45  C   UNL A   1      44.919  27.292  26.764  1.00  0.00     0.049 A 
ATOM     46  H   UNL A   1      43.444  28.291  27.842  1.00  0.00     0.167 HD
ATOM     47  C   UNL A   1      40.196  30.340  29.939  1.00  0.00     0.037 A 
ATOM     48  C   UNL A   1      45.977  28.120  26.676  1.00  0.00     0.037 A 
ATOM     49  C   UNL A   1      41.307  31.256  29.978  1.00  0.00     0.049 A 
ATOM     50  C   UNL A   1      45.900  29.481  27.317  1.00  0.00     0.074 A 
ATOM     51  C   UNL A   1      41.382  32.494  30.592  1.00  0.00     0.029 A 
ATOM     52  N   UNL A   1      42.536  31.034  29.374  1.00  0.00    -0.354 N 
ATOM     53  N   UNL A   1      44.913  30.027  27.985  1.00  0.00    -0.248 NA
ATOM     54  C   UNL A   1      47.086  30.339  27.194  1.00  0.00     0.031 C 
ATOM     55  C   UNL A   1      42.639  33.044  30.316  1.00  0.00     0.029 A 
ATOM     56  C   UNL A   1      43.367  32.125  29.579  1.00  0.00     0.049 A 
ATOM     57  H   UNL A   1      42.781  30.223  28.874  1.00  0.00     0.167 HD
ATOM     58  C   UNL A   1      45.369  31.275  28.388  1.00  0.00     0.074 A 
ATOM     59  C   UNL A   1      46.727  31.399  27.902  1.00  0.00     0.031 C 
ATOM     60  C   UNL A   1      44.721  32.232  29.096  1.00  0.00     0.037 A 
BRANCH  47  61
ATOM     61  C   UNL A   1      38.908  30.759  30.588  1.00  0.00     0.064 A 
ATOM     62  C   UNL A   1      37.850  31.300  29.842  1.00  0.00     0.173 A 
ATOM     63  C   UNL A   1      38.712  30.582  31.966  1.00  0.00     0.173 A 
ATOM     64  F   UNL A   1      37.987  31.500  28.522  1.00  0.00    -0.203 F 
ATOM     65  C   UNL A   1      36.657  31.676  30.455  1.00  0.00     0.198 A 
ATOM     66  C   UNL A   1      37.507  30.928  32.571  1.00  0.00     0.198 A 
ATOM     67  F   UNL A   1      39.689  30.063  32.727  1.00  0.00    -0.203 F 
ATOM     68  F   UNL A   1      35.680  32.237  29.730  1.00  0.00    -0.200 F 
ATOM     69  C   UNL A   1      36.484  31.482  31.818  1.00  0.00     0.200 A 
ATOM     70  F   UNL A   1      37.336  30.726  33.885  1.00  0.00    -0.200 F 
ATOM     71  F   UNL A   1      35.332  31.835  32.405  1.00  0.00    -0.200 F 
ENDBRANCH  47  61
BRANCH  48  72
ATOM     72  C   UNL A   1      47.210  27.683  25.970  1.00  0.00     0.064 A 
ATOM     73  C   UNL A   1      48.312  27.188  26.683  1.00  0.00     0.173 A 
ATOM     74  C   UNL A   1      47.320  27.763  24.574  1.00  0.00     0.173 A 
ATOM     75  F   UNL A   1      48.263  27.113  28.021  1.00  0.00    -0.203 F 
ATOM     76  C   UNL A   1      49.483  26.813  26.030  1.00  0.00     0.198 A 
ATOM     77  C   UNL A   1      48.482  27.358  23.919  1.00  0.00     0.198 A 
ATOM     78  F   UNL A   1      46.295  28.225  23.844  1.00  0.00    -0.203 F 
ATOM     79  F   UNL A   1      50.538  26.391  26.740  1.00  0.00    -0.200 F 
ATOM     80  C   UNL A   1      49.566  26.891  24.648  1.00  0.00     0.200 A 
ATOM     81  F   UNL A   1      48.552  27.421  22.582  1.00  0.00    -0.200 F 
ATOM     82  F   UNL A   1      50.692  26.528  24.019  1.00  0.00    -0.200 F 
ENDBRANCH  48  72
BRANCH  60  83
ATOM     83  C   UNL A   1      45.484  33.484  29.423  1.00  0.00     0.064 A 
ATOM     84  C   UNL A   1      45.429  34.618  28.598  1.00  0.00     0.173 A 
ATOM     85  C   UNL A   1      46.250  33.562  30.596  1.00  0.00     0.173 A 
ATOM     86  F   UNL A   1      44.724  34.589  27.457  1.00  0.00    -0.203 F 
ATOM     87  C   UNL A   1      46.135  35.773  28.922  1.00  0.00     0.198 A 
ATOM     88  C   UNL A   1      46.929  34.729  30.933  1.00  0.00     0.198 A 
ATOM     89  F   UNL A   1      46.330  32.509  31.422  1.00  0.00    -0.203 F 
ATOM     90  F   UNL A   1      46.110  36.826  28.093  1.00  0.00    -0.200 F 
ATOM     91  C   UNL A   1      46.878  35.831  30.093  1.00  0.00     0.200 A 
ATOM     92  F   UNL A   1      47.632  34.789  32.073  1.00  0.00    -0.200 F 
ATOM     93  F   UNL A   1      47.550  36.947  30.406  1.00  0.00    -0.200 F 
ENDBRANCH  60  83
ENDBRANCH  34  35
ENDBRANCH  26  29
ENDBRANCH  24  25
ENDBRANCH  23  24
ENDBRANCH  22  23
ENDBRANCH  21  22
ENDBRANCH   1  21
TORSDOF 18
ENDMDL
