MODEL 1
REMARK VINA RESULT:     -13.0      0.000      0.000
REMARK SMILES CCOC(=O)c1c(NC(=O)[C@@H]2[C@@H](C(=O)NCCCCCCNC(=O)c3ccc(-c4c5nc(c(-c6c(F)c(F)c(F)c(F)c6F)c6ccc([nH]6)c(-c6c(F)c(F)c(F)c(F)c6F)c6nc(c(-c7c(F)c(F)c(F)c(F)c7F)c7ccc4[nH]7)C=C6)C=C5)cc3)[C@@H]3C=C[C@H]2CC3)sc2c1CCC2
REMARK SMILES IDX 17 1 16 2 15 3 13 4 14 5 12 7 11 8 91 9 88 10 90 11 92 12
REMARK SMILES IDX 89 13 93 14 9 15 8 16 10 18 7 19 6 20 96 21 94 22 95 23
REMARK SMILES IDX 97 24 99 25 98 26 4 27 5 28 3 29 2 30 1 31 18 32 19 33 20 34
REMARK SMILES IDX 21 35 22 36 23 37 24 39 25 40 26 41 87 42 27 43 86 44 28 45
REMARK SMILES IDX 29 46 30 47 80 48 31 49 85 50 79 51 81 52 32 53 84 54 78 55
REMARK SMILES IDX 77 56 33 58 65 59 45 60 64 61 46 62 49 63 63 64 82 65 47 66
REMARK SMILES IDX 48 67 62 69 83 70 50 71 34 72 35 73 43 74 36 75 37 76 41 77
REMARK SMILES IDX 44 78 38 79 39 80 42 81 40 82 66 83 67 84 75 85 68 86 69 87
REMARK SMILES IDX 73 88 76 89 70 90 71 91 74 92 72 93 51 94 52 95 60 96 53 97
REMARK SMILES IDX 54 98 58 99 61 100 55 101 56 102 59 103 57 104
REMARK H PARENT 15 6 8 17 22 38 81 57 49 68
REMARK Flexibility Score: inf
ROOT
ATOM      1  C   UNL A   1      37.184  23.313  24.864  1.00  0.00     0.021 C 
ENDROOT
BRANCH   1   2
ATOM      2  C   UNL A   1      36.275  24.169  25.749  1.00  0.00     0.116 C 
BRANCH   2   3
ATOM      3  N   UNL A   1      35.601  23.346  26.732  1.00  0.00    -0.356 N 
ATOM      4  C   UNL A   1      34.301  23.019  26.942  1.00  0.00     0.224 C 
ATOM      5  O   UNL A   1      34.100  22.262  27.897  1.00  0.00    -0.275 OA
ATOM      6  H   UNL A   1      36.214  22.938  27.385  1.00  0.00     0.163 HD
BRANCH   4   7
ATOM      7  C   UNL A   1      33.178  23.389  25.965  1.00  0.00     0.098 C 
ATOM      8  C   UNL A   1      31.743  22.902  26.280  1.00  0.00     0.099 C 
ATOM      9  C   UNL A   1      31.268  21.907  25.171  1.00  0.00     0.025 C 
ATOM     10  C   UNL A   1      33.564  22.906  24.505  1.00  0.00     0.025 C 
ATOM     11  C   UNL A   1      31.243  22.653  23.862  1.00  0.00    -0.027 C 
ATOM     12  C   UNL A   1      32.333  20.780  25.006  1.00  0.00     0.009 C 
ATOM     13  C   UNL A   1      32.436  23.153  23.507  1.00  0.00    -0.027 C 
ATOM     14  C   UNL A   1      33.669  21.368  24.489  1.00  0.00     0.009 C 
BRANCH   8  15
ATOM     15  C   UNL A   1      30.588  23.902  26.642  1.00  0.00     0.229 C 
ATOM     16  N   UNL A   1      30.511  25.258  26.452  1.00  0.00    -0.317 N 
ATOM     17  H   UNL A   1      29.851  25.699  27.033  1.00  0.00     0.170 HD
ATOM     18  O   UNL A   1      29.661  23.433  27.331  1.00  0.00    -0.274 OA
BRANCH  16  19
ATOM     19  C   UNL A   1      31.171  26.126  25.612  1.00  0.00     0.110 A 
ATOM     20  C   UNL A   1      32.006  27.231  25.829  1.00  0.00     0.098 A 
ATOM     21  C   UNL A   1      32.723  27.473  24.613  1.00  0.00    -0.017 A 
ATOM     22  S   UNL A   1      30.666  26.262  23.977  1.00  0.00    -0.122 S 
ATOM     23  C   UNL A   1      32.216  26.721  23.591  1.00  0.00     0.011 A 
ATOM     24  C   UNL A   1      33.848  28.307  24.109  1.00  0.00     0.038 C 
ATOM     25  C   UNL A   1      32.989  26.744  22.343  1.00  0.00     0.047 C 
ATOM     26  C   UNL A   1      33.773  28.065  22.552  1.00  0.00     0.010 C 
BRANCH  20  27
ATOM     27  C   UNL A   1      32.124  27.958  27.081  1.00  0.00     0.341 C 
ATOM     28  O   UNL A   1      31.404  27.800  28.036  1.00  0.00    -0.246 OA
BRANCH  27  29
ATOM     29  O   UNL A   1      33.076  28.935  26.941  1.00  0.00    -0.462 OA
BRANCH  29  30
ATOM     30  C   UNL A   1      32.704  30.284  27.251  1.00  0.00     0.230 C 
ATOM     31  C   UNL A   1      31.756  30.873  26.219  1.00  0.00     0.049 C 
ENDBRANCH  29  30
ENDBRANCH  27  29
ENDBRANCH  20  27
ENDBRANCH  16  19
ENDBRANCH   8  15
ENDBRANCH   4   7
ENDBRANCH   2   3
ENDBRANCH   1   2
BRANCH   1  32
ATOM     32  C   UNL A   1      37.633  21.994  25.511  1.00  0.00     0.002 C 
BRANCH  32  33
ATOM     33  C   UNL A   1      37.346  20.713  24.711  1.00  0.00     0.002 C 
BRANCH  33  34
ATOM     34  C   UNL A   1      38.351  19.563  24.866  1.00  0.00     0.021 C 
BRANCH  34  35
ATOM     35  C   UNL A   1      39.377  19.770  25.969  1.00  0.00     0.116 C 
BRANCH  35  36
ATOM     36  N   UNL A   1      40.525  18.858  25.872  1.00  0.00    -0.352 N 
ATOM     37  C   UNL A   1      41.875  19.168  25.919  1.00  0.00     0.251 C 
ATOM     38  H   UNL A   1      40.307  17.905  25.760  1.00  0.00     0.163 HD
ATOM     39  O   UNL A   1      42.727  18.402  25.490  1.00  0.00    -0.269 OA
BRANCH  37  40
ATOM     40  C   UNL A   1      42.264  20.453  26.519  1.00  0.00     0.039 A 
ATOM     41  C   UNL A   1      42.979  21.436  25.827  1.00  0.00     0.014 A 
ATOM     42  C   UNL A   1      41.806  20.683  27.806  1.00  0.00     0.014 A 
ATOM     43  C   UNL A   1      43.152  22.685  26.426  1.00  0.00     0.010 A 
ATOM     44  C   UNL A   1      41.754  21.964  28.269  1.00  0.00     0.010 A 
ATOM     45  C   UNL A   1      42.522  22.943  27.650  1.00  0.00    -0.014 A 
BRANCH  45  46
ATOM     46  C   UNL A   1      42.635  24.221  28.345  1.00  0.00     0.031 A 
ATOM     47  C   UNL A   1      41.556  25.219  28.106  1.00  0.00     0.074 A 
ATOM     48  C   UNL A   1      43.518  24.376  29.359  1.00  0.00     0.049 A 
ATOM     49  N   UNL A   1      41.672  26.430  27.664  1.00  0.00    -0.248 NA
ATOM     50  C   UNL A   1      40.164  24.805  28.345  1.00  0.00     0.031 C 
ATOM     51  C   UNL A   1      44.428  23.379  29.950  1.00  0.00     0.029 A 
ATOM     52  N   UNL A   1      43.688  25.443  30.181  1.00  0.00    -0.354 N 
ATOM     53  C   UNL A   1      40.396  26.991  27.718  1.00  0.00     0.074 A 
ATOM     54  C   UNL A   1      39.491  25.910  28.018  1.00  0.00     0.031 C 
ATOM     55  C   UNL A   1      44.838  23.798  31.165  1.00  0.00     0.029 A 
ATOM     56  C   UNL A   1      44.403  25.167  31.335  1.00  0.00     0.049 A 
ATOM     57  H   UNL A   1      43.332  26.338  29.973  1.00  0.00     0.167 HD
ATOM     58  C   UNL A   1      40.206  28.341  27.714  1.00  0.00     0.037 A 
ATOM     59  C   UNL A   1      44.610  26.003  32.377  1.00  0.00     0.037 A 
ATOM     60  C   UNL A   1      41.381  29.038  27.259  1.00  0.00     0.049 A 
ATOM     61  C   UNL A   1      44.370  27.379  31.884  1.00  0.00     0.074 A 
ATOM     62  C   UNL A   1      42.110  29.048  26.086  1.00  0.00     0.029 A 
ATOM     63  N   UNL A   1      42.196  29.622  28.196  1.00  0.00    -0.354 N 
ATOM     64  N   UNL A   1      45.111  27.971  30.988  1.00  0.00    -0.248 NA
ATOM     65  C   UNL A   1      43.036  27.932  32.057  1.00  0.00     0.031 C 
ATOM     66  C   UNL A   1      43.472  29.148  26.501  1.00  0.00     0.029 A 
ATOM     67  C   UNL A   1      43.481  29.249  27.894  1.00  0.00     0.049 A 
ATOM     68  H   UNL A   1      41.912  30.197  28.942  1.00  0.00     0.167 HD
ATOM     69  C   UNL A   1      44.216  28.681  30.200  1.00  0.00     0.074 A 
ATOM     70  C   UNL A   1      42.972  28.697  30.964  1.00  0.00     0.031 C 
ATOM     71  C   UNL A   1      44.485  28.945  28.887  1.00  0.00     0.037 A 
BRANCH  58  72
ATOM     72  C   UNL A   1      39.085  29.055  28.429  1.00  0.00     0.064 A 
ATOM     73  C   UNL A   1      38.859  28.801  29.797  1.00  0.00     0.173 A 
ATOM     74  C   UNL A   1      38.049  29.742  27.759  1.00  0.00     0.173 A 
ATOM     75  F   UNL A   1      39.767  28.135  30.527  1.00  0.00    -0.203 F 
ATOM     76  C   UNL A   1      37.658  29.144  30.425  1.00  0.00     0.198 A 
ATOM     77  C   UNL A   1      36.875  30.132  28.402  1.00  0.00     0.198 A 
ATOM     78  F   UNL A   1      38.082  29.960  26.439  1.00  0.00    -0.203 F 
ATOM     79  F   UNL A   1      37.439  28.772  31.693  1.00  0.00    -0.200 F 
ATOM     80  C   UNL A   1      36.665  29.805  29.725  1.00  0.00     0.200 A 
ATOM     81  F   UNL A   1      35.916  30.755  27.703  1.00  0.00    -0.200 F 
ATOM     82  F   UNL A   1      35.490  30.080  30.307  1.00  0.00    -0.200 F 
ENDBRANCH  58  72
BRANCH  59  83
ATOM     83  C   UNL A   1      44.671  25.648  33.810  1.00  0.00     0.064 A 
ATOM     84  C   UNL A   1      43.503  25.432  34.552  1.00  0.00     0.173 A 
ATOM     85  C   UNL A   1      45.884  25.249  34.409  1.00  0.00     0.173 A 
ATOM     86  F   UNL A   1      42.309  25.753  34.033  1.00  0.00    -0.203 F 
ATOM     87  C   UNL A   1      43.541  24.828  35.812  1.00  0.00     0.198 A 
ATOM     88  C   UNL A   1      45.921  24.650  35.668  1.00  0.00     0.198 A 
ATOM     89  F   UNL A   1      47.045  25.349  33.742  1.00  0.00    -0.203 F 
ATOM     90  F   UNL A   1      42.399  24.584  36.470  1.00  0.00    -0.200 F 
ATOM     91  C   UNL A   1      44.748  24.426  36.364  1.00  0.00     0.200 A 
ATOM     92  F   UNL A   1      47.092  24.235  36.173  1.00  0.00    -0.200 F 
ATOM     93  F   UNL A   1      44.776  23.790  37.542  1.00  0.00    -0.200 F 
ENDBRANCH  59  83
BRANCH  71  94
ATOM     94  C   UNL A   1      45.872  28.657  28.381  1.00  0.00     0.064 A 
ATOM     95  C   UNL A   1      46.251  27.438  27.789  1.00  0.00     0.173 A 
ATOM     96  C   UNL A   1      46.806  29.698  28.354  1.00  0.00     0.173 A 
ATOM     97  F   UNL A   1      45.385  26.428  27.675  1.00  0.00    -0.203 F 
ATOM     98  C   UNL A   1      47.520  27.259  27.237  1.00  0.00     0.198 A 
ATOM     99  C   UNL A   1      48.061  29.529  27.773  1.00  0.00     0.198 A 
ATOM    100  F   UNL A   1      46.482  30.903  28.848  1.00  0.00    -0.203 F 
ATOM    101  F   UNL A   1      47.854  26.082  26.686  1.00  0.00    -0.200 F 
ATOM    102  C   UNL A   1      48.422  28.308  27.225  1.00  0.00     0.200 A 
ATOM    103  F   UNL A   1      48.913  30.561  27.717  1.00  0.00    -0.200 F 
ATOM    104  F   UNL A   1      49.626  28.152  26.658  1.00  0.00    -0.200 F 
ENDBRANCH  71  94
ENDBRANCH  45  46
ENDBRANCH  37  40
ENDBRANCH  35  36
ENDBRANCH  34  35
ENDBRANCH  33  34
ENDBRANCH  32  33
ENDBRANCH   1  32
TORSDOF 18
ENDMDL
MODEL 2
REMARK VINA RESULT:     -12.6      2.291      6.355
REMARK SMILES CCOC(=O)c1c(NC(=O)[C@@H]2[C@@H](C(=O)NCCCCCCNC(=O)c3ccc(-c4c5nc(c(-c6c(F)c(F)c(F)c(F)c6F)c6ccc([nH]6)c(-c6c(F)c(F)c(F)c(F)c6F)c6nc(c(-c7c(F)c(F)c(F)c(F)c7F)c7ccc4[nH]7)C=C6)C=C5)cc3)[C@@H]3C=C[C@H]2CC3)sc2c1CCC2
REMARK SMILES IDX 17 1 16 2 15 3 13 4 14 5 12 7 11 8 91 9 88 10 90 11 92 12
REMARK SMILES IDX 89 13 93 14 9 15 8 16 10 18 7 19 6 20 96 21 94 22 95 23
REMARK SMILES IDX 97 24 99 25 98 26 4 27 5 28 3 29 2 30 1 31 18 32 19 33 20 34
REMARK SMILES IDX 21 35 22 36 23 37 24 39 25 40 26 41 87 42 27 43 86 44 28 45
REMARK SMILES IDX 29 46 30 47 80 48 31 49 85 50 79 51 81 52 32 53 84 54 78 55
REMARK SMILES IDX 77 56 33 58 65 59 45 60 64 61 46 62 49 63 63 64 82 65 47 66
REMARK SMILES IDX 48 67 62 69 83 70 50 71 34 72 35 73 43 74 36 75 37 76 41 77
REMARK SMILES IDX 44 78 38 79 39 80 42 81 40 82 66 83 67 84 75 85 68 86 69 87
REMARK SMILES IDX 73 88 76 89 70 90 71 91 74 92 72 93 51 94 52 95 60 96 53 97
REMARK SMILES IDX 54 98 58 99 61 100 55 101 56 102 59 103 57 104
REMARK H PARENT 15 6 8 17 22 38 81 57 49 68
REMARK Flexibility Score: inf
ROOT
ATOM      1  C   UNL A   1      38.715  22.634  26.116  1.00  0.00     0.021 C 
ENDROOT
BRANCH   1   2
ATOM      2  C   UNL A   1      37.452  22.913  25.297  1.00  0.00     0.116 C 
BRANCH   2   3
ATOM      3  N   UNL A   1      36.331  23.194  26.171  1.00  0.00    -0.356 N 
ATOM      4  C   UNL A   1      34.992  23.278  25.973  1.00  0.00     0.224 C 
ATOM      5  O   UNL A   1      34.328  23.530  26.983  1.00  0.00    -0.275 OA
ATOM      6  H   UNL A   1      36.596  23.358  27.104  1.00  0.00     0.163 HD
BRANCH   4   7
ATOM      7  C   UNL A   1      34.318  22.897  24.649  1.00  0.00     0.098 C 
ATOM      8  C   UNL A   1      33.184  23.806  24.116  1.00  0.00     0.099 C 
ATOM      9  C   UNL A   1      31.839  23.009  24.086  1.00  0.00     0.025 C 
ATOM     10  C   UNL A   1      33.772  21.412  24.738  1.00  0.00     0.025 C 
ATOM     11  C   UNL A   1      32.009  21.852  23.136  1.00  0.00    -0.027 C 
ATOM     12  C   UNL A   1      31.586  22.381  25.490  1.00  0.00     0.009 C 
ATOM     13  C   UNL A   1      32.997  21.013  23.485  1.00  0.00    -0.027 C 
ATOM     14  C   UNL A   1      32.678  21.336  25.822  1.00  0.00     0.009 C 
BRANCH   8  15
ATOM     15  C   UNL A   1      33.344  24.650  22.801  1.00  0.00     0.229 C 
ATOM     16  N   UNL A   1      33.003  25.954  22.550  1.00  0.00    -0.317 N 
ATOM     17  H   UNL A   1      32.904  26.157  21.593  1.00  0.00     0.170 HD
ATOM     18  O   UNL A   1      33.700  24.015  21.789  1.00  0.00    -0.274 OA
BRANCH  16  19
ATOM     19  C   UNL A   1      32.772  27.036  23.369  1.00  0.00     0.110 A 
ATOM     20  C   UNL A   1      31.607  27.660  23.836  1.00  0.00     0.098 A 
ATOM     21  C   UNL A   1      31.971  28.457  24.969  1.00  0.00    -0.017 A 
ATOM     22  S   UNL A   1      34.025  28.182  23.623  1.00  0.00    -0.122 S 
ATOM     23  C   UNL A   1      33.330  28.536  25.091  1.00  0.00     0.011 A 
ATOM     24  C   UNL A   1      31.326  29.244  26.055  1.00  0.00     0.038 C 
ATOM     25  C   UNL A   1      33.820  29.169  26.322  1.00  0.00     0.047 C 
ATOM     26  C   UNL A   1      32.556  29.977  26.715  1.00  0.00     0.010 C 
BRANCH  20  27
ATOM     27  C   UNL A   1      30.279  27.484  23.273  1.00  0.00     0.341 C 
ATOM     28  O   UNL A   1      29.428  26.767  23.736  1.00  0.00    -0.246 OA
BRANCH  27  29
ATOM     29  O   UNL A   1      30.214  28.142  22.072  1.00  0.00    -0.462 OA
BRANCH  29  30
ATOM     30  C   UNL A   1      30.201  29.575  22.090  1.00  0.00     0.230 C 
ATOM     31  C   UNL A   1      28.948  30.132  22.745  1.00  0.00     0.049 C 
ENDBRANCH  29  30
ENDBRANCH  27  29
ENDBRANCH  20  27
ENDBRANCH  16  19
ENDBRANCH   8  15
ENDBRANCH   4   7
ENDBRANCH   2   3
ENDBRANCH   1   2
BRANCH   1  32
ATOM     32  C   UNL A   1      39.244  21.198  25.990  1.00  0.00     0.002 C 
BRANCH  32  33
ATOM     33  C   UNL A   1      40.632  20.930  26.594  1.00  0.00     0.002 C 
BRANCH  33  34
ATOM     34  C   UNL A   1      41.342  19.644  26.148  1.00  0.00     0.021 C 
BRANCH  34  35
ATOM     35  C   UNL A   1      42.771  19.510  26.652  1.00  0.00     0.116 C 
BRANCH  35  36
ATOM     36  N   UNL A   1      43.762  19.421  25.570  1.00  0.00    -0.352 N 
ATOM     37  C   UNL A   1      44.255  20.440  24.771  1.00  0.00     0.251 C 
ATOM     38  H   UNL A   1      44.121  18.523  25.390  1.00  0.00     0.163 HD
ATOM     39  O   UNL A   1      44.798  20.213  23.698  1.00  0.00    -0.269 OA
BRANCH  37  40
ATOM     40  C   UNL A   1      44.119  21.822  25.259  1.00  0.00     0.039 A 
ATOM     41  C   UNL A   1      43.142  22.706  24.791  1.00  0.00     0.014 A 
ATOM     42  C   UNL A   1      44.974  22.187  26.286  1.00  0.00     0.014 A 
ATOM     43  C   UNL A   1      42.988  23.935  25.435  1.00  0.00     0.010 A 
ATOM     44  C   UNL A   1      44.650  23.259  27.063  1.00  0.00     0.010 A 
ATOM     45  C   UNL A   1      43.745  24.198  26.584  1.00  0.00    -0.014 A 
BRANCH  45  46
ATOM     46  C   UNL A   1      43.643  25.447  27.330  1.00  0.00     0.031 A 
ATOM     47  C   UNL A   1      44.614  26.523  26.986  1.00  0.00     0.074 A 
ATOM     48  C   UNL A   1      42.552  25.708  28.088  1.00  0.00     0.049 A 
ATOM     49  N   UNL A   1      45.448  27.126  27.770  1.00  0.00    -0.248 NA
ATOM     50  C   UNL A   1      44.703  26.953  25.582  1.00  0.00     0.031 C 
ATOM     51  C   UNL A   1      41.338  24.891  28.269  1.00  0.00     0.029 A 
ATOM     52  N   UNL A   1      42.237  26.845  28.759  1.00  0.00    -0.354 N 
ATOM     53  C   UNL A   1      46.056  28.121  27.006  1.00  0.00     0.074 A 
ATOM     54  C   UNL A   1      45.658  27.883  25.641  1.00  0.00     0.031 C 
ATOM     55  C   UNL A   1      40.344  25.656  28.763  1.00  0.00     0.029 A 
ATOM     56  C   UNL A   1      40.906  26.937  29.134  1.00  0.00     0.049 A 
ATOM     57  H   UNL A   1      42.899  27.545  28.962  1.00  0.00     0.167 HD
ATOM     58  C   UNL A   1      46.678  29.189  27.582  1.00  0.00     0.037 A 
ATOM     59  C   UNL A   1      40.296  28.003  29.697  1.00  0.00     0.037 A 
ATOM     60  C   UNL A   1      46.961  28.948  28.972  1.00  0.00     0.049 A 
ATOM     61  C   UNL A   1      41.360  28.857  30.276  1.00  0.00     0.074 A 
ATOM     62  C   UNL A   1      47.719  28.022  29.663  1.00  0.00     0.029 A 
ATOM     63  N   UNL A   1      46.134  29.510  29.913  1.00  0.00    -0.354 N 
ATOM     64  N   UNL A   1      42.118  28.495  31.275  1.00  0.00    -0.248 NA
ATOM     65  C   UNL A   1      41.882  29.933  29.451  1.00  0.00     0.031 C 
ATOM     66  C   UNL A   1      46.955  27.719  30.830  1.00  0.00     0.029 A 
ATOM     67  C   UNL A   1      45.811  28.519  30.804  1.00  0.00     0.049 A 
ATOM     68  H   UNL A   1      45.831  30.447  29.941  1.00  0.00     0.167 HD
ATOM     69  C   UNL A   1      43.375  28.993  30.963  1.00  0.00     0.074 A 
ATOM     70  C   UNL A   1      43.146  29.947  29.882  1.00  0.00     0.031 C 
ATOM     71  C   UNL A   1      44.510  28.380  31.415  1.00  0.00     0.037 A 
BRANCH  58  72
ATOM     72  C   UNL A   1      46.736  30.575  26.987  1.00  0.00     0.064 A 
ATOM     73  C   UNL A   1      47.958  31.278  26.978  1.00  0.00     0.173 A 
ATOM     74  C   UNL A   1      45.589  31.347  26.701  1.00  0.00     0.173 A 
ATOM     75  F   UNL A   1      49.110  30.649  27.259  1.00  0.00    -0.203 F 
ATOM     76  C   UNL A   1      48.016  32.659  26.773  1.00  0.00     0.198 A 
ATOM     77  C   UNL A   1      45.657  32.716  26.442  1.00  0.00     0.198 A 
ATOM     78  F   UNL A   1      44.354  30.836  26.774  1.00  0.00    -0.203 F 
ATOM     79  F   UNL A   1      49.184  33.304  26.898  1.00  0.00    -0.200 F 
ATOM     80  C   UNL A   1      46.864  33.378  26.509  1.00  0.00     0.200 A 
ATOM     81  F   UNL A   1      44.527  33.399  26.206  1.00  0.00    -0.200 F 
ATOM     82  F   UNL A   1      46.908  34.710  26.373  1.00  0.00    -0.200 F 
ENDBRANCH  58  72
BRANCH  59  83
ATOM     83  C   UNL A   1      38.913  28.468  29.463  1.00  0.00     0.064 A 
ATOM     84  C   UNL A   1      38.036  28.697  30.531  1.00  0.00     0.173 A 
ATOM     85  C   UNL A   1      38.513  28.955  28.201  1.00  0.00     0.173 A 
ATOM     86  F   UNL A   1      38.365  28.296  31.768  1.00  0.00    -0.203 F 
ATOM     87  C   UNL A   1      36.838  29.397  30.354  1.00  0.00     0.198 A 
ATOM     88  C   UNL A   1      37.316  29.648  28.025  1.00  0.00     0.198 A 
ATOM     89  F   UNL A   1      39.322  28.846  27.136  1.00  0.00    -0.203 F 
ATOM     90  F   UNL A   1      36.050  29.648  31.409  1.00  0.00    -0.200 F 
ATOM     91  C   UNL A   1      36.485  29.881  29.105  1.00  0.00     0.200 A 
ATOM     92  F   UNL A   1      37.004  30.142  26.818  1.00  0.00    -0.200 F 
ATOM     93  F   UNL A   1      35.369  30.606  28.950  1.00  0.00    -0.200 F 
ENDBRANCH  59  83
BRANCH  71  94
ATOM     94  C   UNL A   1      44.361  27.298  32.450  1.00  0.00     0.064 A 
ATOM     95  C   UNL A   1      44.282  25.928  32.144  1.00  0.00     0.173 A 
ATOM     96  C   UNL A   1      44.455  27.646  33.802  1.00  0.00     0.173 A 
ATOM     97  F   UNL A   1      44.297  25.502  30.878  1.00  0.00    -0.203 F 
ATOM     98  C   UNL A   1      44.253  24.958  33.145  1.00  0.00     0.198 A 
ATOM     99  C   UNL A   1      44.460  26.674  34.800  1.00  0.00     0.198 A 
ATOM    100  F   UNL A   1      44.594  28.934  34.155  1.00  0.00    -0.203 F 
ATOM    101  F   UNL A   1      44.170  23.658  32.821  1.00  0.00    -0.200 F 
ATOM    102  C   UNL A   1      44.349  25.333  34.473  1.00  0.00     0.200 A 
ATOM    103  F   UNL A   1      44.604  27.038  36.082  1.00  0.00    -0.200 F 
ATOM    104  F   UNL A   1      44.365  24.400  35.436  1.00  0.00    -0.200 F 
ENDBRANCH  71  94
ENDBRANCH  45  46
ENDBRANCH  37  40
ENDBRANCH  35  36
ENDBRANCH  34  35
ENDBRANCH  33  34
ENDBRANCH  32  33
ENDBRANCH   1  32
TORSDOF 18
ENDMDL
MODEL 3
REMARK VINA RESULT:     -12.3      2.974      8.081
REMARK SMILES CCOC(=O)c1c(NC(=O)[C@@H]2[C@@H](C(=O)NCCCCCCNC(=O)c3ccc(-c4c5nc(c(-c6c(F)c(F)c(F)c(F)c6F)c6ccc([nH]6)c(-c6c(F)c(F)c(F)c(F)c6F)c6nc(c(-c7c(F)c(F)c(F)c(F)c7F)c7ccc4[nH]7)C=C6)C=C5)cc3)[C@@H]3C=C[C@H]2CC3)sc2c1CCC2
REMARK SMILES IDX 17 1 16 2 15 3 13 4 14 5 12 7 11 8 91 9 88 10 90 11 92 12
REMARK SMILES IDX 89 13 93 14 9 15 8 16 10 18 7 19 6 20 96 21 94 22 95 23
REMARK SMILES IDX 97 24 99 25 98 26 4 27 5 28 3 29 2 30 1 31 18 32 19 33 20 34
REMARK SMILES IDX 21 35 22 36 23 37 24 39 25 40 26 41 87 42 27 43 86 44 28 45
REMARK SMILES IDX 29 46 30 47 80 48 31 49 85 50 79 51 81 52 32 53 84 54 78 55
REMARK SMILES IDX 77 56 33 58 65 59 45 60 64 61 46 62 49 63 63 64 82 65 47 66
REMARK SMILES IDX 48 67 62 69 83 70 50 71 34 72 35 73 43 74 36 75 37 76 41 77
REMARK SMILES IDX 44 78 38 79 39 80 42 81 40 82 66 83 67 84 75 85 68 86 69 87
REMARK SMILES IDX 73 88 76 89 70 90 71 91 74 92 72 93 51 94 52 95 60 96 53 97
REMARK SMILES IDX 54 98 58 99 61 100 55 101 56 102 59 103 57 104
REMARK H PARENT 15 6 8 17 22 38 81 57 49 68
REMARK Flexibility Score: inf
ROOT
ATOM      1  C   UNL A   1      33.929  29.217  27.417  1.00  0.00     0.021 C 
ENDROOT
BRANCH   1   2
ATOM      2  C   UNL A   1      34.390  28.197  26.372  1.00  0.00     0.116 C 
BRANCH   2   3
ATOM      3  N   UNL A   1      34.343  28.774  25.044  1.00  0.00    -0.356 N 
ATOM      4  C   UNL A   1      33.769  28.385  23.878  1.00  0.00     0.224 C 
ATOM      5  O   UNL A   1      33.935  29.159  22.930  1.00  0.00    -0.275 OA
ATOM      6  H   UNL A   1      34.831  29.625  24.972  1.00  0.00     0.163 HD
BRANCH   4   7
ATOM      7  C   UNL A   1      32.817  27.187  23.774  1.00  0.00     0.098 C 
ATOM      8  C   UNL A   1      32.189  26.867  22.396  1.00  0.00     0.099 C 
ATOM      9  C   UNL A   1      30.638  27.050  22.468  1.00  0.00     0.025 C 
ATOM     10  C   UNL A   1      31.649  27.342  24.835  1.00  0.00     0.025 C 
ATOM     11  C   UNL A   1      30.103  26.067  23.476  1.00  0.00    -0.027 C 
ATOM     12  C   UNL A   1      30.317  28.467  23.034  1.00  0.00     0.009 C 
ATOM     13  C   UNL A   1      30.611  26.231  24.707  1.00  0.00    -0.027 C 
ATOM     14  C   UNL A   1      30.815  28.594  24.494  1.00  0.00     0.009 C 
BRANCH   8  15
ATOM     15  C   UNL A   1      32.545  25.558  21.605  1.00  0.00     0.229 C 
ATOM     16  N   UNL A   1      33.078  24.378  22.058  1.00  0.00    -0.317 N 
ATOM     17  H   UNL A   1      33.498  23.840  21.350  1.00  0.00     0.170 HD
ATOM     18  O   UNL A   1      32.470  25.637  20.364  1.00  0.00    -0.274 OA
BRANCH  16  19
ATOM     19  C   UNL A   1      33.142  23.796  23.304  1.00  0.00     0.110 A 
ATOM     20  C   UNL A   1      34.188  23.572  24.209  1.00  0.00     0.098 A 
ATOM     21  C   UNL A   1      33.599  23.316  25.490  1.00  0.00    -0.017 A 
ATOM     22  S   UNL A   1      31.880  22.748  23.809  1.00  0.00    -0.122 S 
ATOM     23  C   UNL A   1      32.248  23.150  25.380  1.00  0.00     0.011 A 
ATOM     24  C   UNL A   1      34.006  23.159  26.913  1.00  0.00     0.038 C 
ATOM     25  C   UNL A   1      31.513  23.070  26.648  1.00  0.00     0.047 C 
ATOM     26  C   UNL A   1      32.673  22.660  27.591  1.00  0.00     0.010 C 
BRANCH  20  27
ATOM     27  C   UNL A   1      35.603  23.627  23.886  1.00  0.00     0.341 C 
ATOM     28  O   UNL A   1      36.090  23.206  22.867  1.00  0.00    -0.246 OA
BRANCH  27  29
ATOM     29  O   UNL A   1      36.292  24.091  24.977  1.00  0.00    -0.462 OA
BRANCH  29  30
ATOM     30  C   UNL A   1      37.435  23.348  25.417  1.00  0.00     0.230 C 
ATOM     31  C   UNL A   1      38.235  24.091  26.473  1.00  0.00     0.049 C 
ENDBRANCH  29  30
ENDBRANCH  27  29
ENDBRANCH  20  27
ENDBRANCH  16  19
ENDBRANCH   8  15
ENDBRANCH   4   7
ENDBRANCH   2   3
ENDBRANCH   1   2
BRANCH   1  32
ATOM     32  C   UNL A   1      34.916  30.371  27.650  1.00  0.00     0.002 C 
BRANCH  32  33
ATOM     33  C   UNL A   1      34.302  31.774  27.775  1.00  0.00     0.002 C 
BRANCH  33  34
ATOM     34  C   UNL A   1      35.281  32.957  27.786  1.00  0.00     0.021 C 
BRANCH  34  35
ATOM     35  C   UNL A   1      36.261  32.951  28.950  1.00  0.00     0.116 C 
BRANCH  35  36
ATOM     36  N   UNL A   1      35.601  32.939  30.262  1.00  0.00    -0.352 N 
ATOM     37  C   UNL A   1      35.689  31.980  31.260  1.00  0.00     0.251 C 
ATOM     38  H   UNL A   1      35.023  33.710  30.459  1.00  0.00     0.163 HD
ATOM     39  O   UNL A   1      34.850  31.894  32.146  1.00  0.00    -0.269 OA
BRANCH  37  40
ATOM     40  C   UNL A   1      36.841  31.065  31.233  1.00  0.00     0.039 A 
ATOM     41  C   UNL A   1      36.766  29.756  30.749  1.00  0.00     0.014 A 
ATOM     42  C   UNL A   1      38.050  31.603  31.643  1.00  0.00     0.014 A 
ATOM     43  C   UNL A   1      37.948  29.026  30.608  1.00  0.00     0.010 A 
ATOM     44  C   UNL A   1      39.207  30.989  31.264  1.00  0.00     0.010 A 
ATOM     45  C   UNL A   1      39.171  29.660  30.861  1.00  0.00    -0.014 A 
BRANCH  45  46
ATOM     46  C   UNL A   1      40.456  28.983  30.728  1.00  0.00     0.031 A 
ATOM     47  C   UNL A   1      41.200  28.690  31.985  1.00  0.00     0.074 A 
ATOM     48  C   UNL A   1      40.812  28.406  29.556  1.00  0.00     0.049 A 
ATOM     49  N   UNL A   1      42.400  29.053  32.306  1.00  0.00    -0.248 NA
ATOM     50  C   UNL A   1      40.507  27.935  33.041  1.00  0.00     0.031 C 
ATOM     51  C   UNL A   1      40.040  28.309  28.304  1.00  0.00     0.029 A 
ATOM     52  N   UNL A   1      41.906  27.651  29.279  1.00  0.00    -0.354 N 
ATOM     53  C   UNL A   1      42.681  28.445  33.529  1.00  0.00     0.074 A 
ATOM     54  C   UNL A   1      41.439  27.881  33.995  1.00  0.00     0.031 C 
ATOM     55  C   UNL A   1      40.558  27.340  27.523  1.00  0.00     0.029 A 
ATOM     56  C   UNL A   1      41.807  26.911  28.112  1.00  0.00     0.049 A 
ATOM     57  H   UNL A   1      42.701  27.632  29.859  1.00  0.00     0.167 HD
ATOM     58  C   UNL A   1      43.960  28.276  33.969  1.00  0.00     0.037 A 
ATOM     59  C   UNL A   1      42.687  25.987  27.664  1.00  0.00     0.037 A 
ATOM     60  C   UNL A   1      44.881  29.118  33.252  1.00  0.00     0.049 A 
ATOM     61  C   UNL A   1      43.972  26.240  28.356  1.00  0.00     0.074 A 
ATOM     62  C   UNL A   1      45.023  30.483  33.089  1.00  0.00     0.029 A 
ATOM     63  N   UNL A   1      45.640  28.555  32.257  1.00  0.00    -0.354 N 
ATOM     64  N   UNL A   1      44.690  27.316  28.185  1.00  0.00    -0.248 NA
ATOM     65  C   UNL A   1      44.234  25.500  29.580  1.00  0.00     0.031 C 
ATOM     66  C   UNL A   1      45.416  30.651  31.727  1.00  0.00     0.029 A 
ATOM     67  C   UNL A   1      45.541  29.379  31.165  1.00  0.00     0.049 A 
ATOM     68  H   UNL A   1      46.156  27.719  32.316  1.00  0.00     0.167 HD
ATOM     69  C   UNL A   1      45.182  27.618  29.446  1.00  0.00     0.074 A 
ATOM     70  C   UNL A   1      44.949  26.415  30.241  1.00  0.00     0.031 C 
ATOM     71  C   UNL A   1      45.474  28.904  29.802  1.00  0.00     0.037 A 
BRANCH  58  72
ATOM     72  C   UNL A   1      44.434  27.118  34.813  1.00  0.00     0.064 A 
ATOM     73  C   UNL A   1      44.230  25.798  34.361  1.00  0.00     0.173 A 
ATOM     74  C   UNL A   1      44.805  27.245  36.169  1.00  0.00     0.173 A 
ATOM     75  F   UNL A   1      43.853  25.560  33.096  1.00  0.00    -0.203 F 
ATOM     76  C   UNL A   1      44.320  24.699  35.220  1.00  0.00     0.198 A 
ATOM     77  C   UNL A   1      44.948  26.142  37.010  1.00  0.00     0.198 A 
ATOM     78  F   UNL A   1      44.932  28.440  36.759  1.00  0.00    -0.203 F 
ATOM     79  F   UNL A   1      43.995  23.477  34.777  1.00  0.00    -0.200 F 
ATOM     80  C   UNL A   1      44.674  24.873  36.546  1.00  0.00     0.200 A 
ATOM     81  F   UNL A   1      45.274  26.332  38.296  1.00  0.00    -0.200 F 
ATOM     82  F   UNL A   1      44.701  23.830  37.386  1.00  0.00    -0.200 F 
ENDBRANCH  58  72
BRANCH  59  83
ATOM     83  C   UNL A   1      42.378  24.732  26.948  1.00  0.00     0.064 A 
ATOM     84  C   UNL A   1      43.020  24.407  25.747  1.00  0.00     0.173 A 
ATOM     85  C   UNL A   1      41.642  23.702  27.571  1.00  0.00     0.173 A 
ATOM     86  F   UNL A   1      43.768  25.324  25.115  1.00  0.00    -0.203 F 
ATOM     87  C   UNL A   1      42.954  23.118  25.210  1.00  0.00     0.198 A 
ATOM     88  C   UNL A   1      41.574  22.417  27.032  1.00  0.00     0.198 A 
ATOM     89  F   UNL A   1      41.055  23.901  28.761  1.00  0.00    -0.203 F 
ATOM     90  F   UNL A   1      43.628  22.826  24.089  1.00  0.00    -0.200 F 
ATOM     91  C   UNL A   1      42.241  22.122  25.859  1.00  0.00     0.200 A 
ATOM     92  F   UNL A   1      40.909  21.455  27.689  1.00  0.00    -0.200 F 
ATOM     93  F   UNL A   1      42.232  20.871  25.377  1.00  0.00    -0.200 F 
ENDBRANCH  59  83
BRANCH  71  94
ATOM     94  C   UNL A   1      45.475  29.950  28.721  1.00  0.00     0.064 A 
ATOM     95  C   UNL A   1      44.362  30.752  28.405  1.00  0.00     0.173 A 
ATOM     96  C   UNL A   1      46.684  30.259  28.087  1.00  0.00     0.173 A 
ATOM     97  F   UNL A   1      43.199  30.596  29.041  1.00  0.00    -0.203 F 
ATOM     98  C   UNL A   1      44.448  31.781  27.468  1.00  0.00     0.198 A 
ATOM     99  C   UNL A   1      46.776  31.309  27.176  1.00  0.00     0.198 A 
ATOM    100  F   UNL A   1      47.795  29.571  28.392  1.00  0.00    -0.203 F 
ATOM    101  F   UNL A   1      43.366  32.522  27.183  1.00  0.00    -0.200 F 
ATOM    102  C   UNL A   1      45.657  32.062  26.859  1.00  0.00     0.200 A 
ATOM    103  F   UNL A   1      47.960  31.611  26.627  1.00  0.00    -0.200 F 
ATOM    104  F   UNL A   1      45.752  33.078  25.989  1.00  0.00    -0.200 F 
ENDBRANCH  71  94
ENDBRANCH  45  46
ENDBRANCH  37  40
ENDBRANCH  35  36
ENDBRANCH  34  35
ENDBRANCH  33  34
ENDBRANCH  32  33
ENDBRANCH   1  32
TORSDOF 18
ENDMDL
