MODEL 1
REMARK VINA RESULT:     -11.8      0.000      0.000
REMARK SMILES O=C(NCCCCCCNC(=O)[C@H]1CC=CC[C@@H]1C(=O)NC1CCCCC1)c1ccc(-c2c3nc(c(-c4c(F)c(F)c(F)c(F)c4F)c4ccc([nH]4)c(-c4c(F)c(F)c(F)c(F)c4F)c4nc(c(-c5c(F)c(F)c(F)c(F)c5F)c5ccc2[nH]5)C=C4)C=C3)cc1
REMARK SMILES IDX 6 1 5 2 4 3 3 4 1 5 2 6 28 8 29 9 90 10 30 11 89 12 31 13
REMARK SMILES IDX 32 14 33 15 83 16 34 17 88 18 82 19 84 20 35 21 87 22 81 23
REMARK SMILES IDX 80 24 36 26 68 27 48 28 67 29 49 30 52 31 66 32 85 33 50 34
REMARK SMILES IDX 51 35 65 37 86 38 53 39 37 40 38 41 46 42 39 43 40 44 44 45
REMARK SMILES IDX 47 46 41 47 42 48 45 49 43 50 69 51 70 52 78 53 71 54 72 55
REMARK SMILES IDX 76 56 79 57 73 58 74 59 77 60 75 61 54 62 55 63 63 64 56 65
REMARK SMILES IDX 57 66 61 67 64 68 58 69 59 70 62 71 60 72 7 73 8 74 9 75
REMARK SMILES IDX 10 76 11 77 12 79 13 80 14 81 18 82 15 83 17 84 16 85 19 86
REMARK SMILES IDX 20 87 21 88 22 90 23 91 27 92 24 93 26 94 25 95
REMARK H PARENT 3 7 84 25 52 36 10 78 21 89
REMARK Flexibility Score: inf
ROOT
ATOM      1  C   UNL A   1      37.064  20.656  24.856  1.00  0.00     0.002 C 
ENDROOT
BRANCH   1   2
ATOM      2  C   UNL A   1      38.245  19.686  24.899  1.00  0.00     0.021 C 
BRANCH   2   3
ATOM      3  C   UNL A   1      39.254  19.934  26.014  1.00  0.00     0.116 C 
BRANCH   3   4
ATOM      4  N   UNL A   1      40.438  19.097  25.904  1.00  0.00    -0.352 N 
ATOM      5  O   UNL A   1      42.631  18.605  25.751  1.00  0.00    -0.269 OA
ATOM      6  C   UNL A   1      41.766  19.431  26.008  1.00  0.00     0.251 C 
ATOM      7  H   UNL A   1      40.260  18.145  25.728  1.00  0.00     0.163 HD
BRANCH   6   8
ATOM      8  C   UNL A   1      42.153  20.801  26.411  1.00  0.00     0.039 A 
ATOM      9  C   UNL A   1      42.380  21.794  25.456  1.00  0.00     0.014 A 
ATOM     10  C   UNL A   1      42.262  21.100  27.773  1.00  0.00     0.014 A 
ATOM     11  C   UNL A   1      42.844  23.041  25.853  1.00  0.00     0.010 A 
ATOM     12  C   UNL A   1      42.646  22.381  28.175  1.00  0.00     0.010 A 
ATOM     13  C   UNL A   1      42.963  23.356  27.217  1.00  0.00    -0.014 A 
BRANCH  13  14
ATOM     14  C   UNL A   1      43.347  24.733  27.614  1.00  0.00     0.031 A 
ATOM     15  C   UNL A   1      44.784  25.164  27.650  1.00  0.00     0.074 A 
ATOM     16  C   UNL A   1      42.369  25.604  27.931  1.00  0.00     0.049 A 
ATOM     17  N   UNL A   1      45.287  26.334  27.960  1.00  0.00    -0.248 NA
ATOM     18  C   UNL A   1      45.792  24.153  27.299  1.00  0.00     0.031 C 
ATOM     19  C   UNL A   1      40.939  25.290  27.948  1.00  0.00     0.029 A 
ATOM     20  N   UNL A   1      42.423  26.927  28.286  1.00  0.00    -0.354 N 
ATOM     21  C   UNL A   1      46.665  26.196  27.857  1.00  0.00     0.074 A 
ATOM     22  C   UNL A   1      46.923  24.821  27.483  1.00  0.00     0.031 C 
ATOM     23  C   UNL A   1      40.248  26.398  28.251  1.00  0.00     0.029 A 
ATOM     24  C   UNL A   1      41.188  27.482  28.515  1.00  0.00     0.049 A 
ATOM     25  H   UNL A   1      43.264  27.431  28.369  1.00  0.00     0.167 HD
ATOM     26  C   UNL A   1      47.622  27.136  28.049  1.00  0.00     0.037 A 
ATOM     27  C   UNL A   1      40.847  28.720  28.913  1.00  0.00     0.037 A 
ATOM     28  C   UNL A   1      47.353  28.504  28.417  1.00  0.00     0.049 A 
ATOM     29  C   UNL A   1      41.932  29.730  29.152  1.00  0.00     0.074 A 
ATOM     30  C   UNL A   1      48.252  29.543  28.596  1.00  0.00     0.029 A 
ATOM     31  N   UNL A   1      46.091  29.021  28.674  1.00  0.00    -0.354 N 
ATOM     32  N   UNL A   1      43.228  29.602  29.006  1.00  0.00    -0.248 NA
ATOM     33  C   UNL A   1      41.506  31.057  29.616  1.00  0.00     0.031 C 
ATOM     34  C   UNL A   1      47.539  30.671  29.014  1.00  0.00     0.029 A 
ATOM     35  C   UNL A   1      46.190  30.356  29.039  1.00  0.00     0.049 A 
ATOM     36  H   UNL A   1      45.249  28.515  28.607  1.00  0.00     0.167 HD
ATOM     37  C   UNL A   1      43.773  30.832  29.342  1.00  0.00     0.074 A 
ATOM     38  C   UNL A   1      42.663  31.701  29.677  1.00  0.00     0.031 C 
ATOM     39  C   UNL A   1      45.075  31.207  29.374  1.00  0.00     0.037 A 
BRANCH  26  40
ATOM     40  C   UNL A   1      49.056  26.715  27.888  1.00  0.00     0.064 A 
ATOM     41  C   UNL A   1      49.855  26.374  28.991  1.00  0.00     0.173 A 
ATOM     42  C   UNL A   1      49.628  26.609  26.611  1.00  0.00     0.173 A 
ATOM     43  F   UNL A   1      49.363  26.466  30.236  1.00  0.00    -0.203 F 
ATOM     44  C   UNL A   1      51.178  25.971  28.822  1.00  0.00     0.198 A 
ATOM     45  C   UNL A   1      50.941  26.178  26.444  1.00  0.00     0.198 A 
ATOM     46  F   UNL A   1      48.907  26.915  25.521  1.00  0.00    -0.203 F 
ATOM     47  F   UNL A   1      51.935  25.697  29.894  1.00  0.00    -0.200 F 
ATOM     48  C   UNL A   1      51.718  25.867  27.549  1.00  0.00     0.200 A 
ATOM     49  F   UNL A   1      51.456  26.064  25.211  1.00  0.00    -0.200 F 
ATOM     50  F   UNL A   1      52.989  25.473  27.388  1.00  0.00    -0.200 F 
ENDBRANCH  26  40
BRANCH  27  51
ATOM     51  C   UNL A   1      39.415  29.063  29.108  1.00  0.00     0.064 A 
ATOM     52  C   UNL A   1      38.615  29.464  28.031  1.00  0.00     0.173 A 
ATOM     53  C   UNL A   1      38.813  28.975  30.373  1.00  0.00     0.173 A 
ATOM     54  F   UNL A   1      39.149  29.579  26.806  1.00  0.00    -0.203 F 
ATOM     55  C   UNL A   1      37.270  29.778  28.213  1.00  0.00     0.198 A 
ATOM     56  C   UNL A   1      37.460  29.257  30.547  1.00  0.00     0.198 A 
ATOM     57  F   UNL A   1      39.534  28.589  31.436  1.00  0.00    -0.203 F 
ATOM     58  F   UNL A   1      36.536  30.196  27.173  1.00  0.00    -0.200 F 
ATOM     59  C   UNL A   1      36.692  29.666  29.469  1.00  0.00     0.200 A 
ATOM     60  F   UNL A   1      36.903  29.129  31.759  1.00  0.00    -0.200 F 
ATOM     61  F   UNL A   1      35.395  29.956  29.640  1.00  0.00    -0.200 F 
ENDBRANCH  27  51
BRANCH  39  62
ATOM     62  C   UNL A   1      45.366  32.628  29.759  1.00  0.00     0.064 A 
ATOM     63  C   UNL A   1      45.385  33.660  28.810  1.00  0.00     0.173 A 
ATOM     64  C   UNL A   1      45.606  32.965  31.101  1.00  0.00     0.173 A 
ATOM     65  F   UNL A   1      45.180  33.387  27.512  1.00  0.00    -0.203 F 
ATOM     66  C   UNL A   1      45.663  34.972  29.184  1.00  0.00     0.198 A 
ATOM     67  C   UNL A   1      45.852  34.283  31.476  1.00  0.00     0.198 A 
ATOM     68  F   UNL A   1      45.595  32.016  32.048  1.00  0.00    -0.203 F 
ATOM     69  F   UNL A   1      45.730  35.932  28.251  1.00  0.00    -0.200 F 
ATOM     70  C   UNL A   1      45.888  35.283  30.516  1.00  0.00     0.200 A 
ATOM     71  F   UNL A   1      46.055  34.584  32.765  1.00  0.00    -0.200 F 
ATOM     72  F   UNL A   1      46.150  36.548  30.875  1.00  0.00    -0.200 F 
ENDBRANCH  39  62
ENDBRANCH  13  14
ENDBRANCH   6   8
ENDBRANCH   3   4
ENDBRANCH   2   3
ENDBRANCH   1   2
BRANCH   1  73
ATOM     73  C   UNL A   1      37.388  22.120  25.173  1.00  0.00     0.002 C 
BRANCH  73  74
ATOM     74  C   UNL A   1      36.259  22.924  25.820  1.00  0.00     0.021 C 
BRANCH  74  75
ATOM     75  C   UNL A   1      35.798  24.134  25.020  1.00  0.00     0.116 C 
BRANCH  75  76
ATOM     76  N   UNL A   1      35.166  23.805  23.771  1.00  0.00    -0.356 N 
ATOM     77  C   UNL A   1      33.996  24.290  23.260  1.00  0.00     0.224 C 
ATOM     78  H   UNL A   1      35.637  23.144  23.212  1.00  0.00     0.163 HD
ATOM     79  O   UNL A   1      33.811  24.096  22.058  1.00  0.00    -0.275 OA
BRANCH  77  80
ATOM     80  C   UNL A   1      32.977  25.018  24.169  1.00  0.00     0.095 C 
ATOM     81  C   UNL A   1      31.655  25.225  23.397  1.00  0.00     0.041 C 
ATOM     82  C   UNL A   1      32.708  24.241  25.477  1.00  0.00     0.095 C 
ATOM     83  C   UNL A   1      30.796  23.994  23.334  1.00  0.00    -0.030 C 
ATOM     84  C   UNL A   1      32.144  22.838  25.100  1.00  0.00     0.041 C 
ATOM     85  C   UNL A   1      31.037  22.904  24.078  1.00  0.00    -0.030 C 
BRANCH  82  86
ATOM     86  C   UNL A   1      31.726  24.899  26.483  1.00  0.00     0.224 C 
ATOM     87  O   UNL A   1      30.995  24.202  27.200  1.00  0.00    -0.275 OA
ATOM     88  N   UNL A   1      31.622  26.221  26.763  1.00  0.00    -0.353 N 
ATOM     89  H   UNL A   1      30.978  26.371  27.492  1.00  0.00     0.163 HD
BRANCH  88  90
ATOM     90  C   UNL A   1      32.183  27.491  26.300  1.00  0.00     0.082 C 
ATOM     91  C   UNL A   1      31.274  28.221  25.317  1.00  0.00     0.025 C 
ATOM     92  C   UNL A   1      32.788  28.301  27.452  1.00  0.00     0.025 C 
ATOM     93  C   UNL A   1      31.640  29.684  25.081  1.00  0.00     0.002 C 
ATOM     94  C   UNL A   1      33.161  29.726  27.069  1.00  0.00     0.002 C 
ATOM     95  C   UNL A   1      32.012  30.423  26.360  1.00  0.00     0.000 C 
ENDBRANCH  88  90
ENDBRANCH  82  86
ENDBRANCH  77  80
ENDBRANCH  75  76
ENDBRANCH  74  75
ENDBRANCH  73  74
ENDBRANCH   1  73
TORSDOF 15
ENDMDL
MODEL 2
REMARK VINA RESULT:     -11.8      0.134      2.010
REMARK SMILES O=C(NCCCCCCNC(=O)[C@H]1CC=CC[C@@H]1C(=O)NC1CCCCC1)c1ccc(-c2c3nc(c(-c4c(F)c(F)c(F)c(F)c4F)c4ccc([nH]4)c(-c4c(F)c(F)c(F)c(F)c4F)c4nc(c(-c5c(F)c(F)c(F)c(F)c5F)c5ccc2[nH]5)C=C4)C=C3)cc1
REMARK SMILES IDX 6 1 5 2 4 3 3 4 1 5 2 6 28 8 29 9 90 10 30 11 89 12 31 13
REMARK SMILES IDX 32 14 33 15 83 16 34 17 88 18 82 19 84 20 35 21 87 22 81 23
REMARK SMILES IDX 80 24 36 26 68 27 48 28 67 29 49 30 52 31 66 32 85 33 50 34
REMARK SMILES IDX 51 35 65 37 86 38 53 39 37 40 38 41 46 42 39 43 40 44 44 45
REMARK SMILES IDX 47 46 41 47 42 48 45 49 43 50 69 51 70 52 78 53 71 54 72 55
REMARK SMILES IDX 76 56 79 57 73 58 74 59 77 60 75 61 54 62 55 63 63 64 56 65
REMARK SMILES IDX 57 66 61 67 64 68 58 69 59 70 62 71 60 72 7 73 8 74 9 75
REMARK SMILES IDX 10 76 11 77 12 79 13 80 14 81 18 82 15 83 17 84 16 85 19 86
REMARK SMILES IDX 20 87 21 88 22 90 23 91 27 92 24 93 26 94 25 95
REMARK H PARENT 3 7 84 25 52 36 10 78 21 89
REMARK Flexibility Score: inf
ROOT
ATOM      1  C   UNL A   1      36.939  20.525  24.878  1.00  0.00     0.002 C 
ENDROOT
BRANCH   1   2
ATOM      2  C   UNL A   1      38.130  19.569  24.952  1.00  0.00     0.021 C 
BRANCH   2   3
ATOM      3  C   UNL A   1      39.209  19.946  25.961  1.00  0.00     0.116 C 
BRANCH   3   4
ATOM      4  N   UNL A   1      40.378  19.085  25.887  1.00  0.00    -0.352 N 
ATOM      5  O   UNL A   1      42.564  18.549  25.798  1.00  0.00    -0.269 OA
ATOM      6  C   UNL A   1      41.710  19.393  26.027  1.00  0.00     0.251 C 
ATOM      7  H   UNL A   1      40.186  18.136  25.712  1.00  0.00     0.163 HD
BRANCH   6   8
ATOM      8  C   UNL A   1      42.112  20.757  26.433  1.00  0.00     0.039 A 
ATOM      9  C   UNL A   1      42.217  21.105  27.782  1.00  0.00     0.014 A 
ATOM     10  C   UNL A   1      42.418  21.696  25.442  1.00  0.00     0.014 A 
ATOM     11  C   UNL A   1      42.493  22.419  28.137  1.00  0.00     0.010 A 
ATOM     12  C   UNL A   1      42.781  22.995  25.803  1.00  0.00     0.010 A 
ATOM     13  C   UNL A   1      42.798  23.374  27.154  1.00  0.00    -0.014 A 
BRANCH  13  14
ATOM     14  C   UNL A   1      43.206  24.740  27.568  1.00  0.00     0.031 A 
ATOM     15  C   UNL A   1      44.650  25.145  27.607  1.00  0.00     0.074 A 
ATOM     16  C   UNL A   1      42.243  25.623  27.897  1.00  0.00     0.049 A 
ATOM     17  N   UNL A   1      45.173  26.302  27.931  1.00  0.00    -0.248 NA
ATOM     18  C   UNL A   1      45.640  24.121  27.242  1.00  0.00     0.031 C 
ATOM     19  C   UNL A   1      40.807  25.333  27.912  1.00  0.00     0.029 A 
ATOM     20  N   UNL A   1      42.320  26.940  28.268  1.00  0.00    -0.354 N 
ATOM     21  C   UNL A   1      46.548  26.142  27.824  1.00  0.00     0.074 A 
ATOM     22  C   UNL A   1      46.782  24.767  27.433  1.00  0.00     0.031 C 
ATOM     23  C   UNL A   1      40.136  26.449  28.229  1.00  0.00     0.029 A 
ATOM     24  C   UNL A   1      41.095  27.513  28.506  1.00  0.00     0.049 A 
ATOM     25  H   UNL A   1      43.170  27.428  28.356  1.00  0.00     0.167 HD
ATOM     26  C   UNL A   1      47.522  27.063  28.027  1.00  0.00     0.037 A 
ATOM     27  C   UNL A   1      40.776  28.752  28.919  1.00  0.00     0.037 A 
ATOM     28  C   UNL A   1      47.277  28.430  28.412  1.00  0.00     0.049 A 
ATOM     29  C   UNL A   1      41.879  29.740  29.170  1.00  0.00     0.074 A 
ATOM     30  C   UNL A   1      48.193  29.451  28.603  1.00  0.00     0.029 A 
ATOM     31  N   UNL A   1      46.024  28.966  28.677  1.00  0.00    -0.354 N 
ATOM     32  N   UNL A   1      43.172  29.592  29.021  1.00  0.00    -0.248 NA
ATOM     33  C   UNL A   1      41.476  31.068  29.651  1.00  0.00     0.031 C 
ATOM     34  C   UNL A   1      47.501  30.586  29.036  1.00  0.00     0.029 A 
ATOM     35  C   UNL A   1      46.147  30.294  29.058  1.00  0.00     0.049 A 
ATOM     36  H   UNL A   1      45.174  28.476  28.605  1.00  0.00     0.167 HD
ATOM     37  C   UNL A   1      43.738  30.808  29.371  1.00  0.00     0.074 A 
ATOM     38  C   UNL A   1      42.644  31.692  29.718  1.00  0.00     0.031 C 
ATOM     39  C   UNL A   1      45.047  31.160  29.405  1.00  0.00     0.037 A 
BRANCH  26  40
ATOM     40  C   UNL A   1      48.949  26.619  27.858  1.00  0.00     0.064 A 
ATOM     41  C   UNL A   1      49.548  26.518  26.593  1.00  0.00     0.173 A 
ATOM     42  C   UNL A   1      49.741  26.331  28.980  1.00  0.00     0.173 A 
ATOM     43  F   UNL A   1      48.834  26.772  25.486  1.00  0.00    -0.203 F 
ATOM     44  C   UNL A   1      50.875  26.120  26.457  1.00  0.00     0.198 A 
ATOM     45  C   UNL A   1      51.076  25.962  28.842  1.00  0.00     0.198 A 
ATOM     46  F   UNL A   1      49.222  26.419  30.215  1.00  0.00    -0.203 F 
ATOM     47  F   UNL A   1      51.411  25.985  25.236  1.00  0.00    -0.200 F 
ATOM     48  C   UNL A   1      51.641  25.848  27.581  1.00  0.00     0.200 A 
ATOM     49  F   UNL A   1      51.818  25.714  29.931  1.00  0.00    -0.200 F 
ATOM     50  F   UNL A   1      52.920  25.471  27.449  1.00  0.00    -0.200 F 
ENDBRANCH  26  40
BRANCH  27  51
ATOM     51  C   UNL A   1      39.351  29.117  29.121  1.00  0.00     0.064 A 
ATOM     52  C   UNL A   1      38.768  29.076  30.394  1.00  0.00     0.173 A 
ATOM     53  C   UNL A   1      38.548  29.535  28.048  1.00  0.00     0.173 A 
ATOM     54  F   UNL A   1      39.489  28.667  31.448  1.00  0.00    -0.203 F 
ATOM     55  C   UNL A   1      37.432  29.425  30.585  1.00  0.00     0.198 A 
ATOM     56  C   UNL A   1      37.223  29.916  28.245  1.00  0.00     0.198 A 
ATOM     57  F   UNL A   1      39.061  29.598  26.810  1.00  0.00    -0.203 F 
ATOM     58  F   UNL A   1      36.889  29.340  31.806  1.00  0.00    -0.200 F 
ATOM     59  C   UNL A   1      36.664  29.853  29.512  1.00  0.00     0.200 A 
ATOM     60  F   UNL A   1      36.492  30.346  27.209  1.00  0.00    -0.200 F 
ATOM     61  F   UNL A   1      35.384  30.201  29.699  1.00  0.00    -0.200 F 
ENDBRANCH  27  51
BRANCH  39  62
ATOM     62  C   UNL A   1      45.363  32.571  29.808  1.00  0.00     0.064 A 
ATOM     63  C   UNL A   1      45.629  32.914  31.142  1.00  0.00     0.173 A 
ATOM     64  C   UNL A   1      45.422  33.589  28.844  1.00  0.00     0.173 A 
ATOM     65  F   UNL A   1      45.568  31.980  32.105  1.00  0.00    -0.203 F 
ATOM     66  C   UNL A   1      45.914  34.229  31.500  1.00  0.00     0.198 A 
ATOM     67  C   UNL A   1      45.739  34.897  29.201  1.00  0.00     0.198 A 
ATOM     68  F   UNL A   1      45.179  33.313  27.554  1.00  0.00    -0.203 F 
ATOM     69  F   UNL A   1      46.112  34.543  32.788  1.00  0.00    -0.200 F 
ATOM     70  C   UNL A   1      45.976  35.217  30.528  1.00  0.00     0.200 A 
ATOM     71  F   UNL A   1      45.811  35.847  28.259  1.00  0.00    -0.200 F 
ATOM     72  F   UNL A   1      46.256  36.481  30.874  1.00  0.00    -0.200 F 
ENDBRANCH  39  62
ENDBRANCH  13  14
ENDBRANCH   6   8
ENDBRANCH   3   4
ENDBRANCH   2   3
ENDBRANCH   1   2
BRANCH   1  73
ATOM     73  C   UNL A   1      37.281  22.006  24.676  1.00  0.00     0.002 C 
BRANCH  73  74
ATOM     74  C   UNL A   1      36.670  22.972  25.693  1.00  0.00     0.021 C 
BRANCH  74  75
ATOM     75  C   UNL A   1      35.849  24.101  25.086  1.00  0.00     0.116 C 
BRANCH  75  76
ATOM     76  N   UNL A   1      35.245  23.773  23.822  1.00  0.00    -0.356 N 
ATOM     77  C   UNL A   1      34.084  24.254  23.289  1.00  0.00     0.224 C 
ATOM     78  H   UNL A   1      35.732  23.118  23.271  1.00  0.00     0.163 HD
ATOM     79  O   UNL A   1      33.926  24.064  22.082  1.00  0.00    -0.275 OA
BRANCH  77  80
ATOM     80  C   UNL A   1      33.042  24.973  24.179  1.00  0.00     0.095 C 
ATOM     81  C   UNL A   1      31.718  25.127  23.399  1.00  0.00     0.041 C 
ATOM     82  C   UNL A   1      32.790  24.217  25.503  1.00  0.00     0.095 C 
ATOM     83  C   UNL A   1      30.894  23.871  23.360  1.00  0.00    -0.030 C 
ATOM     84  C   UNL A   1      32.267  22.791  25.154  1.00  0.00     0.041 C 
ATOM     85  C   UNL A   1      31.162  22.804  24.127  1.00  0.00    -0.030 C 
BRANCH  82  86
ATOM     86  C   UNL A   1      31.787  24.868  26.492  1.00  0.00     0.224 C 
ATOM     87  O   UNL A   1      31.051  24.166  27.199  1.00  0.00    -0.275 OA
ATOM     88  N   UNL A   1      31.666  26.190  26.766  1.00  0.00    -0.353 N 
ATOM     89  H   UNL A   1      31.010  26.336  27.484  1.00  0.00     0.163 HD
BRANCH  88  90
ATOM     90  C   UNL A   1      32.223  27.463  26.309  1.00  0.00     0.082 C 
ATOM     91  C   UNL A   1      31.331  28.175  25.297  1.00  0.00     0.025 C 
ATOM     92  C   UNL A   1      32.787  28.289  27.469  1.00  0.00     0.025 C 
ATOM     93  C   UNL A   1      31.684  29.641  25.060  1.00  0.00     0.002 C 
ATOM     94  C   UNL A   1      33.153  29.716  27.086  1.00  0.00     0.002 C 
ATOM     95  C   UNL A   1      32.013  30.393  26.342  1.00  0.00     0.000 C 
ENDBRANCH  88  90
ENDBRANCH  82  86
ENDBRANCH  77  80
ENDBRANCH  75  76
ENDBRANCH  74  75
ENDBRANCH  73  74
ENDBRANCH   1  73
TORSDOF 15
ENDMDL
MODEL 3
REMARK VINA RESULT:     -11.8      1.806      3.467
REMARK SMILES O=C(NCCCCCCNC(=O)[C@H]1CC=CC[C@@H]1C(=O)NC1CCCCC1)c1ccc(-c2c3nc(c(-c4c(F)c(F)c(F)c(F)c4F)c4ccc([nH]4)c(-c4c(F)c(F)c(F)c(F)c4F)c4nc(c(-c5c(F)c(F)c(F)c(F)c5F)c5ccc2[nH]5)C=C4)C=C3)cc1
REMARK SMILES IDX 6 1 5 2 4 3 3 4 1 5 2 6 28 8 29 9 90 10 30 11 89 12 31 13
REMARK SMILES IDX 32 14 33 15 83 16 34 17 88 18 82 19 84 20 35 21 87 22 81 23
REMARK SMILES IDX 80 24 36 26 68 27 48 28 67 29 49 30 52 31 66 32 85 33 50 34
REMARK SMILES IDX 51 35 65 37 86 38 53 39 37 40 38 41 46 42 39 43 40 44 44 45
REMARK SMILES IDX 47 46 41 47 42 48 45 49 43 50 69 51 70 52 78 53 71 54 72 55
REMARK SMILES IDX 76 56 79 57 73 58 74 59 77 60 75 61 54 62 55 63 63 64 56 65
REMARK SMILES IDX 57 66 61 67 64 68 58 69 59 70 62 71 60 72 7 73 8 74 9 75
REMARK SMILES IDX 10 76 11 77 12 79 13 80 14 81 18 82 15 83 17 84 16 85 19 86
REMARK SMILES IDX 20 87 21 88 22 90 23 91 27 92 24 93 26 94 25 95
REMARK H PARENT 3 7 84 25 52 36 10 78 21 89
REMARK Flexibility Score: inf
ROOT
ATOM      1  C   UNL A   1      37.334  20.763  24.797  1.00  0.00     0.002 C 
ENDROOT
BRANCH   1   2
ATOM      2  C   UNL A   1      38.308  19.600  24.989  1.00  0.00     0.021 C 
BRANCH   2   3
ATOM      3  C   UNL A   1      39.281  19.747  26.154  1.00  0.00     0.116 C 
BRANCH   3   4
ATOM      4  N   UNL A   1      40.461  18.910  26.015  1.00  0.00    -0.352 N 
ATOM      5  O   UNL A   1      42.644  18.419  25.751  1.00  0.00    -0.269 OA
ATOM      6  C   UNL A   1      41.791  19.255  26.017  1.00  0.00     0.251 C 
ATOM      7  H   UNL A   1      40.280  17.949  25.904  1.00  0.00     0.163 HD
BRANCH   6   8
ATOM      8  C   UNL A   1      42.192  20.646  26.317  1.00  0.00     0.039 A 
ATOM      9  C   UNL A   1      42.322  21.593  25.299  1.00  0.00     0.014 A 
ATOM     10  C   UNL A   1      42.413  21.014  27.648  1.00  0.00     0.014 A 
ATOM     11  C   UNL A   1      42.802  22.863  25.593  1.00  0.00     0.010 A 
ATOM     12  C   UNL A   1      42.812  22.317  27.953  1.00  0.00     0.010 A 
ATOM     13  C   UNL A   1      43.033  23.246  26.924  1.00  0.00    -0.014 A 
BRANCH  13  14
ATOM     14  C   UNL A   1      43.430  24.645  27.220  1.00  0.00     0.031 A 
ATOM     15  C   UNL A   1      44.823  25.135  26.949  1.00  0.00     0.074 A 
ATOM     16  C   UNL A   1      42.503  25.481  27.726  1.00  0.00     0.049 A 
ATOM     17  N   UNL A   1      45.327  26.330  27.135  1.00  0.00    -0.248 NA
ATOM     18  C   UNL A   1      45.778  24.160  26.404  1.00  0.00     0.031 C 
ATOM     19  C   UNL A   1      41.123  25.109  28.046  1.00  0.00     0.029 A 
ATOM     20  N   UNL A   1      42.571  26.811  28.049  1.00  0.00    -0.354 N 
ATOM     21  C   UNL A   1      46.658  26.247  26.747  1.00  0.00     0.074 A 
ATOM     22  C   UNL A   1      46.892  24.877  26.340  1.00  0.00     0.031 C 
ATOM     23  C   UNL A   1      40.462  26.192  28.476  1.00  0.00     0.029 A 
ATOM     24  C   UNL A   1      41.388  27.318  28.527  1.00  0.00     0.049 A 
ATOM     25  H   UNL A   1      43.388  27.350  27.950  1.00  0.00     0.167 HD
ATOM     26  C   UNL A   1      47.592  27.229  26.725  1.00  0.00     0.037 A 
ATOM     27  C   UNL A   1      41.084  28.549  28.976  1.00  0.00     0.037 A 
ATOM     28  C   UNL A   1      47.345  28.591  27.128  1.00  0.00     0.049 A 
ATOM     29  C   UNL A   1      42.149  29.607  28.973  1.00  0.00     0.074 A 
ATOM     30  C   UNL A   1      48.215  29.669  27.105  1.00  0.00     0.029 A 
ATOM     31  N   UNL A   1      46.144  29.061  27.639  1.00  0.00    -0.354 N 
ATOM     32  N   UNL A   1      43.390  29.529  28.560  1.00  0.00    -0.248 NA
ATOM     33  C   UNL A   1      41.772  30.923  29.503  1.00  0.00     0.031 C 
ATOM     34  C   UNL A   1      47.556  30.775  27.653  1.00  0.00     0.029 A 
ATOM     35  C   UNL A   1      46.258  30.405  27.963  1.00  0.00     0.049 A 
ATOM     36  H   UNL A   1      45.329  28.520  27.755  1.00  0.00     0.167 HD
ATOM     37  C   UNL A   1      43.939  30.787  28.762  1.00  0.00     0.074 A 
ATOM     38  C   UNL A   1      42.886  31.616  29.315  1.00  0.00     0.031 C 
ATOM     39  C   UNL A   1      45.201  31.215  28.516  1.00  0.00     0.037 A 
BRANCH  26  40
ATOM     40  C   UNL A   1      48.978  26.864  26.271  1.00  0.00     0.064 A 
ATOM     41  C   UNL A   1      49.939  26.360  27.161  1.00  0.00     0.173 A 
ATOM     42  C   UNL A   1      49.336  26.979  24.919  1.00  0.00     0.173 A 
ATOM     43  F   UNL A   1      49.653  26.239  28.466  1.00  0.00    -0.203 F 
ATOM     44  C   UNL A   1      51.214  26.013  26.719  1.00  0.00     0.198 A 
ATOM     45  C   UNL A   1      50.602  26.604  24.476  1.00  0.00     0.198 A 
ATOM     46  F   UNL A   1      48.454  27.448  24.023  1.00  0.00    -0.203 F 
ATOM     47  F   UNL A   1      52.130  25.580  27.597  1.00  0.00    -0.200 F 
ATOM     48  C   UNL A   1      51.543  26.129  25.377  1.00  0.00     0.200 A 
ATOM     49  F   UNL A   1      50.913  26.703  23.176  1.00  0.00    -0.200 F 
ATOM     50  F   UNL A   1      52.768  25.788  24.953  1.00  0.00    -0.200 F 
ENDBRANCH  26  40
BRANCH  27  51
ATOM     51  C   UNL A   1      39.711  28.836  29.464  1.00  0.00     0.064 A 
ATOM     52  C   UNL A   1      38.717  29.299  28.593  1.00  0.00     0.173 A 
ATOM     53  C   UNL A   1      39.360  28.632  30.808  1.00  0.00     0.173 A 
ATOM     54  F   UNL A   1      39.008  29.526  27.304  1.00  0.00    -0.203 F 
ATOM     55  C   UNL A   1      37.427  29.561  29.050  1.00  0.00     0.198 A 
ATOM     56  C   UNL A   1      38.062  28.863  31.256  1.00  0.00     0.198 A 
ATOM     57  F   UNL A   1      40.274  28.183  31.681  1.00  0.00    -0.203 F 
ATOM     58  F   UNL A   1      36.505  30.040  28.204  1.00  0.00    -0.200 F 
ATOM     59  C   UNL A   1      37.098  29.334  30.378  1.00  0.00     0.200 A 
ATOM     60  F   UNL A   1      37.745  28.623  32.535  1.00  0.00    -0.200 F 
ATOM     61  F   UNL A   1      35.854  29.575  30.813  1.00  0.00    -0.200 F 
ENDBRANCH  27  51
BRANCH  39  62
ATOM     62  C   UNL A   1      45.503  32.654  28.819  1.00  0.00     0.064 A 
ATOM     63  C   UNL A   1      45.271  33.669  27.879  1.00  0.00     0.173 A 
ATOM     64  C   UNL A   1      46.011  33.024  30.074  1.00  0.00     0.173 A 
ATOM     65  F   UNL A   1      44.803  33.365  26.659  1.00  0.00    -0.203 F 
ATOM     66  C   UNL A   1      45.563  34.999  28.175  1.00  0.00     0.198 A 
ATOM     67  C   UNL A   1      46.271  34.358  30.377  1.00  0.00     0.198 A 
ATOM     68  F   UNL A   1      46.247  32.093  31.009  1.00  0.00    -0.203 F 
ATOM     69  F   UNL A   1      45.383  35.944  27.242  1.00  0.00    -0.200 F 
ATOM     70  C   UNL A   1      46.055  35.342  29.425  1.00  0.00     0.200 A 
ATOM     71  F   UNL A   1      46.734  34.690  31.590  1.00  0.00    -0.200 F 
ATOM     72  F   UNL A   1      46.331  36.623  29.709  1.00  0.00    -0.200 F 
ENDBRANCH  39  62
ENDBRANCH  13  14
ENDBRANCH   6   8
ENDBRANCH   3   4
ENDBRANCH   2   3
ENDBRANCH   1   2
BRANCH   1  73
ATOM     73  C   UNL A   1      37.807  22.125  25.319  1.00  0.00     0.002 C 
BRANCH  73  74
ATOM     74  C   UNL A   1      37.156  23.347  24.668  1.00  0.00     0.021 C 
BRANCH  74  75
ATOM     75  C   UNL A   1      36.243  23.031  23.491  1.00  0.00     0.116 C 
BRANCH  75  76
ATOM     76  N   UNL A   1      35.127  23.928  23.359  1.00  0.00    -0.356 N 
ATOM     77  C   UNL A   1      34.199  24.271  24.300  1.00  0.00     0.224 C 
ATOM     78  H   UNL A   1      35.016  24.349  22.474  1.00  0.00     0.163 HD
ATOM     79  O   UNL A   1      33.526  25.273  24.054  1.00  0.00    -0.275 OA
BRANCH  77  80
ATOM     80  C   UNL A   1      34.017  23.419  25.580  1.00  0.00     0.095 C 
ATOM     81  C   UNL A   1      32.865  24.002  26.426  1.00  0.00     0.041 C 
ATOM     82  C   UNL A   1      33.736  21.936  25.253  1.00  0.00     0.095 C 
ATOM     83  C   UNL A   1      31.500  23.628  25.922  1.00  0.00    -0.030 C 
ATOM     84  C   UNL A   1      32.430  21.866  24.405  1.00  0.00     0.041 C 
ATOM     85  C   UNL A   1      31.306  22.688  24.985  1.00  0.00    -0.030 C 
BRANCH  82  86
ATOM     86  C   UNL A   1      33.572  20.980  26.465  1.00  0.00     0.224 C 
ATOM     87  O   UNL A   1      33.655  21.409  27.624  1.00  0.00    -0.275 OA
ATOM     88  N   UNL A   1      33.239  19.667  26.418  1.00  0.00    -0.353 N 
ATOM     89  H   UNL A   1      33.124  19.306  27.327  1.00  0.00     0.163 HD
BRANCH  88  90
ATOM     90  C   UNL A   1      33.000  18.628  25.416  1.00  0.00     0.082 C 
ATOM     91  C   UNL A   1      34.088  18.566  24.349  1.00  0.00     0.025 C 
ATOM     92  C   UNL A   1      32.552  17.310  26.057  1.00  0.00     0.025 C 
ATOM     93  C   UNL A   1      34.075  17.297  23.501  1.00  0.00     0.002 C 
ATOM     94  C   UNL A   1      32.528  16.135  25.089  1.00  0.00     0.002 C 
ATOM     95  C   UNL A   1      33.832  16.034  24.316  1.00  0.00     0.000 C 
ENDBRANCH  88  90
ENDBRANCH  82  86
ENDBRANCH  77  80
ENDBRANCH  75  76
ENDBRANCH  74  75
ENDBRANCH  73  74
ENDBRANCH   1  73
TORSDOF 15
ENDMDL
