MODEL 1
REMARK VINA RESULT:     -12.1      0.000      0.000
REMARK SMILES C[C@@H](C(=O)NCCCCCCNC(=O)c1ccc(-c2c3nc(c(-c4c(F)c(F)c(F)c(F)c4F)c4ccc([nH]4)c(-c4c(F)c(F)c(F)c(F)c4F)c4nc(c(-c5c(F)c(F)c(F)c(F)c5F)c5ccc2[nH]5)C=C4)C=C3)cc1)c1ccc(C[C@H]2CCC[C@H]2O)cc1
REMARK SMILES IDX 7 1 6 2 5 3 3 4 4 5 2 7 1 8 78 9 79 10 90 11 80 12 89 13
REMARK SMILES IDX 81 14 82 15 83 16 84 17 87 18 85 19 86 20 88 21 8 23 9 24
REMARK SMILES IDX 10 25 11 26 12 27 13 28 14 30 15 31 16 32 77 33 17 34 76 35
REMARK SMILES IDX 18 36 19 37 20 38 70 39 21 40 75 41 69 42 71 43 22 44 74 45
REMARK SMILES IDX 68 46 67 47 23 49 55 50 35 51 54 52 36 53 39 54 53 55 72 56
REMARK SMILES IDX 37 57 38 58 52 60 73 61 40 62 24 63 25 64 33 65 26 66 27 67
REMARK SMILES IDX 31 68 34 69 28 70 29 71 32 72 30 73 56 74 57 75 65 76 58 77
REMARK SMILES IDX 59 78 63 79 66 80 60 81 61 82 64 83 62 84 41 85 42 86 50 87
REMARK SMILES IDX 43 88 44 89 48 90 51 91 45 92 46 93 49 94 47 95
REMARK H PARENT 5 6 88 22 12 29 71 48 39 59
REMARK Flexibility Score: inf
ROOT
ATOM      1  C   UNL A   1      31.895  28.097  26.337  1.00  0.00     0.021 C 
ENDROOT
BRANCH   1   2
ATOM      2  C   UNL A   1      33.152  27.374  25.844  1.00  0.00     0.116 C 
BRANCH   2   3
ATOM      3  N   UNL A   1      33.059  25.960  26.130  1.00  0.00    -0.356 N 
ATOM      4  C   UNL A   1      32.672  24.921  25.338  1.00  0.00     0.227 C 
ATOM      5  O   UNL A   1      32.533  23.836  25.906  1.00  0.00    -0.274 OA
ATOM      6  H   UNL A   1      33.318  25.706  27.045  1.00  0.00     0.163 HD
BRANCH   4   7
ATOM      7  C   UNL A   1      32.488  25.144  23.830  1.00  0.00     0.105 C 
ATOM      8  C   UNL A   1      33.717  25.761  23.152  1.00  0.00     0.023 C 
BRANCH   7   9
ATOM      9  C   UNL A   1      31.286  26.002  23.456  1.00  0.00    -0.036 A 
ATOM     10  C   UNL A   1      31.469  27.115  22.626  1.00  0.00     0.005 A 
ATOM     11  C   UNL A   1      30.025  25.798  24.036  1.00  0.00     0.005 A 
ATOM     12  C   UNL A   1      30.435  28.033  22.435  1.00  0.00     0.004 A 
ATOM     13  C   UNL A   1      28.994  26.713  23.840  1.00  0.00     0.004 A 
ATOM     14  C   UNL A   1      29.214  27.875  23.096  1.00  0.00    -0.048 A 
BRANCH  14  15
ATOM     15  C   UNL A   1      28.184  28.975  23.087  1.00  0.00     0.041 C 
BRANCH  15  16
ATOM     16  C   UNL A   1      28.666  30.360  22.609  1.00  0.00     0.022 C 
ATOM     17  C   UNL A   1      28.248  30.784  21.188  1.00  0.00     0.007 C 
ATOM     18  C   UNL A   1      28.341  31.582  23.485  1.00  0.00     0.117 C 
ATOM     19  C   UNL A   1      28.161  32.313  21.206  1.00  0.00     0.003 C 
ATOM     20  C   UNL A   1      28.693  32.748  22.568  1.00  0.00     0.032 C 
BRANCH  18  21
ATOM     21  O   UNL A   1      26.980  31.704  23.861  1.00  0.00    -0.393 OA
ATOM     22  H   UNL A   1      26.458  31.023  23.408  1.00  0.00     0.210 HD
ENDBRANCH  18  21
ENDBRANCH  15  16
ENDBRANCH  14  15
ENDBRANCH   7   9
ENDBRANCH   4   7
ENDBRANCH   2   3
ENDBRANCH   1   2
BRANCH   1  23
ATOM     23  C   UNL A   1      32.102  29.594  26.602  1.00  0.00     0.002 C 
BRANCH  23  24
ATOM     24  C   UNL A   1      31.255  30.525  25.729  1.00  0.00     0.002 C 
BRANCH  24  25
ATOM     25  C   UNL A   1      31.153  31.959  26.247  1.00  0.00     0.021 C 
BRANCH  25  26
ATOM     26  C   UNL A   1      32.424  32.470  26.911  1.00  0.00     0.116 C 
BRANCH  26  27
ATOM     27  N   UNL A   1      32.284  33.845  27.361  1.00  0.00    -0.352 N 
ATOM     28  C   UNL A   1      32.966  34.499  28.358  1.00  0.00     0.251 C 
ATOM     29  H   UNL A   1      31.609  34.382  26.886  1.00  0.00     0.163 HD
ATOM     30  O   UNL A   1      32.589  35.591  28.759  1.00  0.00    -0.269 OA
BRANCH  28  31
ATOM     31  C   UNL A   1      34.155  33.859  28.958  1.00  0.00     0.039 A 
ATOM     32  C   UNL A   1      35.420  34.376  28.671  1.00  0.00     0.014 A 
ATOM     33  C   UNL A   1      34.018  32.756  29.807  1.00  0.00     0.014 A 
ATOM     34  C   UNL A   1      36.546  33.815  29.276  1.00  0.00     0.010 A 
ATOM     35  C   UNL A   1      35.129  32.257  30.474  1.00  0.00     0.010 A 
ATOM     36  C   UNL A   1      36.406  32.771  30.205  1.00  0.00    -0.014 A 
BRANCH  36  37
ATOM     37  C   UNL A   1      37.586  32.187  30.888  1.00  0.00     0.031 A 
ATOM     38  C   UNL A   1      38.403  31.128  30.204  1.00  0.00     0.074 A 
ATOM     39  C   UNL A   1      37.887  32.566  32.144  1.00  0.00     0.049 A 
ATOM     40  N   UNL A   1      39.435  30.457  30.650  1.00  0.00    -0.248 NA
ATOM     41  C   UNL A   1      37.984  30.748  28.845  1.00  0.00     0.031 C 
ATOM     42  C   UNL A   1      37.144  33.552  32.930  1.00  0.00     0.029 A 
ATOM     43  N   UNL A   1      38.893  32.161  32.984  1.00  0.00    -0.354 N 
ATOM     44  C   UNL A   1      39.776  29.571  29.636  1.00  0.00     0.074 A 
ATOM     45  C   UNL A   1      38.803  29.741  28.581  1.00  0.00     0.031 C 
ATOM     46  C   UNL A   1      37.739  33.701  34.123  1.00  0.00     0.029 A 
ATOM     47  C   UNL A   1      38.878  32.791  34.204  1.00  0.00     0.049 A 
ATOM     48  H   UNL A   1      39.563  31.483  32.735  1.00  0.00     0.167 HD
ATOM     49  C   UNL A   1      40.821  28.711  29.581  1.00  0.00     0.037 A 
ATOM     50  C   UNL A   1      39.688  32.645  35.269  1.00  0.00     0.037 A 
ATOM     51  C   UNL A   1      41.794  28.557  30.631  1.00  0.00     0.049 A 
ATOM     52  C   UNL A   1      40.828  31.666  35.194  1.00  0.00     0.074 A 
ATOM     53  C   UNL A   1      42.923  27.758  30.651  1.00  0.00     0.029 A 
ATOM     54  N   UNL A   1      41.746  29.211  31.854  1.00  0.00    -0.354 N 
ATOM     55  N   UNL A   1      41.187  30.885  34.204  1.00  0.00    -0.248 NA
ATOM     56  C   UNL A   1      41.682  31.554  36.384  1.00  0.00     0.031 C 
ATOM     57  C   UNL A   1      43.522  27.881  31.910  1.00  0.00     0.029 A 
ATOM     58  C   UNL A   1      42.808  28.809  32.649  1.00  0.00     0.049 A 
ATOM     59  H   UNL A   1      41.058  29.865  32.118  1.00  0.00     0.167 HD
ATOM     60  C   UNL A   1      42.325  30.216  34.637  1.00  0.00     0.074 A 
ATOM     61  C   UNL A   1      42.602  30.692  35.976  1.00  0.00     0.031 C 
ATOM     62  C   UNL A   1      43.074  29.294  33.981  1.00  0.00     0.037 A 
BRANCH  49  63
ATOM     63  C   UNL A   1      40.952  27.862  28.346  1.00  0.00     0.064 A 
ATOM     64  C   UNL A   1      40.349  26.597  28.248  1.00  0.00     0.173 A 
ATOM     65  C   UNL A   1      41.689  28.320  27.244  1.00  0.00     0.173 A 
ATOM     66  F   UNL A   1      39.641  26.105  29.276  1.00  0.00    -0.203 F 
ATOM     67  C   UNL A   1      40.519  25.806  27.115  1.00  0.00     0.198 A 
ATOM     68  C   UNL A   1      41.824  27.542  26.096  1.00  0.00     0.198 A 
ATOM     69  F   UNL A   1      42.281  29.523  27.277  1.00  0.00    -0.203 F 
ATOM     70  F   UNL A   1      39.995  24.573  27.077  1.00  0.00    -0.200 F 
ATOM     71  C   UNL A   1      41.252  26.280  26.039  1.00  0.00     0.200 A 
ATOM     72  F   UNL A   1      42.520  28.010  25.051  1.00  0.00    -0.200 F 
ATOM     73  F   UNL A   1      41.416  25.518  24.948  1.00  0.00    -0.200 F 
ENDBRANCH  49  63
BRANCH  50  74
ATOM     74  C   UNL A   1      39.470  33.476  36.482  1.00  0.00     0.064 A 
ATOM     75  C   UNL A   1      40.056  34.745  36.595  1.00  0.00     0.173 A 
ATOM     76  C   UNL A   1      38.667  33.031  37.540  1.00  0.00     0.173 A 
ATOM     77  F   UNL A   1      40.848  35.207  35.618  1.00  0.00    -0.203 F 
ATOM     78  C   UNL A   1      39.858  35.530  37.729  1.00  0.00     0.198 A 
ATOM     79  C   UNL A   1      38.445  33.830  38.661  1.00  0.00     0.198 A 
ATOM     80  F   UNL A   1      38.078  31.828  37.479  1.00  0.00    -0.203 F 
ATOM     81  F   UNL A   1      40.462  36.722  37.830  1.00  0.00    -0.200 F 
ATOM     82  C   UNL A   1      39.047  35.075  38.758  1.00  0.00     0.200 A 
ATOM     83  F   UNL A   1      37.646  33.393  39.645  1.00  0.00    -0.200 F 
ATOM     84  F   UNL A   1      38.848  35.835  39.843  1.00  0.00    -0.200 F 
ENDBRANCH  50  74
BRANCH  62  85
ATOM     85  C   UNL A   1      44.295  28.771  34.684  1.00  0.00     0.064 A 
ATOM     86  C   UNL A   1      45.534  29.422  34.603  1.00  0.00     0.173 A 
ATOM     87  C   UNL A   1      44.211  27.620  35.484  1.00  0.00     0.173 A 
ATOM     88  F   UNL A   1      45.673  30.518  33.841  1.00  0.00    -0.203 F 
ATOM     89  C   UNL A   1      46.650  28.925  35.272  1.00  0.00     0.198 A 
ATOM     90  C   UNL A   1      45.318  27.146  36.180  1.00  0.00     0.198 A 
ATOM     91  F   UNL A   1      43.047  26.962  35.602  1.00  0.00    -0.203 F 
ATOM     92  F   UNL A   1      47.837  29.532  35.138  1.00  0.00    -0.200 F 
ATOM     93  C   UNL A   1      46.539  27.794  36.067  1.00  0.00     0.200 A 
ATOM     94  F   UNL A   1      45.203  26.063  36.962  1.00  0.00    -0.200 F 
ATOM     95  F   UNL A   1      47.610  27.322  36.718  1.00  0.00    -0.200 F 
ENDBRANCH  62  85
ENDBRANCH  36  37
ENDBRANCH  28  31
ENDBRANCH  26  27
ENDBRANCH  25  26
ENDBRANCH  24  25
ENDBRANCH  23  24
ENDBRANCH   1  23
TORSDOF 17
ENDMDL
MODEL 2
REMARK VINA RESULT:     -12.0      5.855     11.553
REMARK SMILES C[C@@H](C(=O)NCCCCCCNC(=O)c1ccc(-c2c3nc(c(-c4c(F)c(F)c(F)c(F)c4F)c4ccc([nH]4)c(-c4c(F)c(F)c(F)c(F)c4F)c4nc(c(-c5c(F)c(F)c(F)c(F)c5F)c5ccc2[nH]5)C=C4)C=C3)cc1)c1ccc(C[C@H]2CCC[C@H]2O)cc1
REMARK SMILES IDX 7 1 6 2 5 3 3 4 4 5 2 7 1 8 78 9 79 10 90 11 80 12 89 13
REMARK SMILES IDX 81 14 82 15 83 16 84 17 87 18 85 19 86 20 88 21 8 23 9 24
REMARK SMILES IDX 10 25 11 26 12 27 13 28 14 30 15 31 16 32 77 33 17 34 76 35
REMARK SMILES IDX 18 36 19 37 20 38 70 39 21 40 75 41 69 42 71 43 22 44 74 45
REMARK SMILES IDX 68 46 67 47 23 49 55 50 35 51 54 52 36 53 39 54 53 55 72 56
REMARK SMILES IDX 37 57 38 58 52 60 73 61 40 62 24 63 25 64 33 65 26 66 27 67
REMARK SMILES IDX 31 68 34 69 28 70 29 71 32 72 30 73 56 74 57 75 65 76 58 77
REMARK SMILES IDX 59 78 63 79 66 80 60 81 61 82 64 83 62 84 41 85 42 86 50 87
REMARK SMILES IDX 43 88 44 89 48 90 51 91 45 92 46 93 49 94 47 95
REMARK H PARENT 5 6 88 22 12 29 71 48 39 59
REMARK Flexibility Score: inf
ROOT
ATOM      1  C   UNL A   1      36.676  22.539  25.608  1.00  0.00     0.021 C 
ENDROOT
BRANCH   1   2
ATOM      2  C   UNL A   1      36.487  23.958  25.065  1.00  0.00     0.116 C 
BRANCH   2   3
ATOM      3  N   UNL A   1      35.266  24.532  25.582  1.00  0.00    -0.356 N 
ATOM      4  C   UNL A   1      34.061  24.736  24.981  1.00  0.00     0.227 C 
ATOM      5  O   UNL A   1      33.245  25.402  25.622  1.00  0.00    -0.274 OA
ATOM      6  H   UNL A   1      35.312  24.824  26.521  1.00  0.00     0.163 HD
BRANCH   4   7
ATOM      7  C   UNL A   1      33.779  24.102  23.611  1.00  0.00     0.105 C 
ATOM      8  C   UNL A   1      32.874  24.958  22.719  1.00  0.00     0.023 C 
BRANCH   7   9
ATOM      9  C   UNL A   1      33.168  22.707  23.670  1.00  0.00    -0.036 A 
ATOM     10  C   UNL A   1      33.376  21.913  24.805  1.00  0.00     0.005 A 
ATOM     11  C   UNL A   1      32.525  22.136  22.562  1.00  0.00     0.005 A 
ATOM     12  C   UNL A   1      33.009  20.567  24.804  1.00  0.00     0.004 A 
ATOM     13  C   UNL A   1      32.155  20.794  22.565  1.00  0.00     0.004 A 
ATOM     14  C   UNL A   1      32.459  19.982  23.660  1.00  0.00    -0.048 A 
BRANCH  14  15
ATOM     15  C   UNL A   1      32.283  18.488  23.567  1.00  0.00     0.041 C 
BRANCH  15  16
ATOM     16  C   UNL A   1      33.153  17.635  24.514  1.00  0.00     0.022 C 
ATOM     17  C   UNL A   1      32.435  16.515  25.290  1.00  0.00     0.007 C 
ATOM     18  C   UNL A   1      34.403  16.956  23.932  1.00  0.00     0.117 C 
ATOM     19  C   UNL A   1      33.480  15.422  25.529  1.00  0.00     0.003 C 
ATOM     20  C   UNL A   1      34.807  15.997  25.046  1.00  0.00     0.032 C 
BRANCH  18  21
ATOM     21  O   UNL A   1      34.182  16.203  22.752  1.00  0.00    -0.393 OA
ATOM     22  H   UNL A   1      33.269  15.874  22.746  1.00  0.00     0.210 HD
ENDBRANCH  18  21
ENDBRANCH  15  16
ENDBRANCH  14  15
ENDBRANCH   7   9
ENDBRANCH   4   7
ENDBRANCH   2   3
ENDBRANCH   1   2
BRANCH   1  23
ATOM     23  C   UNL A   1      37.118  21.520  24.548  1.00  0.00     0.002 C 
BRANCH  23  24
ATOM     24  C   UNL A   1      36.873  20.056  24.923  1.00  0.00     0.002 C 
BRANCH  24  25
ATOM     25  C   UNL A   1      38.139  19.203  25.002  1.00  0.00     0.021 C 
BRANCH  25  26
ATOM     26  C   UNL A   1      39.243  19.811  25.856  1.00  0.00     0.116 C 
BRANCH  26  27
ATOM     27  N   UNL A   1      40.383  18.917  25.985  1.00  0.00    -0.352 N 
ATOM     28  C   UNL A   1      41.711  19.230  26.124  1.00  0.00     0.251 C 
ATOM     29  H   UNL A   1      40.172  17.955  25.972  1.00  0.00     0.163 HD
ATOM     30  O   UNL A   1      42.571  18.368  26.008  1.00  0.00    -0.269 OA
BRANCH  28  31
ATOM     31  C   UNL A   1      42.099  20.630  26.397  1.00  0.00     0.039 A 
ATOM     32  C   UNL A   1      42.275  21.038  27.720  1.00  0.00     0.014 A 
ATOM     33  C   UNL A   1      42.292  21.533  25.346  1.00  0.00     0.014 A 
ATOM     34  C   UNL A   1      42.694  22.343  27.987  1.00  0.00     0.010 A 
ATOM     35  C   UNL A   1      42.792  22.801  25.610  1.00  0.00     0.010 A 
ATOM     36  C   UNL A   1      42.985  23.224  26.933  1.00  0.00    -0.014 A 
BRANCH  36  37
ATOM     37  C   UNL A   1      43.469  24.602  27.195  1.00  0.00     0.031 A 
ATOM     38  C   UNL A   1      42.531  25.636  27.751  1.00  0.00     0.074 A 
ATOM     39  C   UNL A   1      44.734  24.938  26.879  1.00  0.00     0.049 A 
ATOM     40  N   UNL A   1      42.744  26.904  27.999  1.00  0.00    -0.248 NA
ATOM     41  C   UNL A   1      41.157  25.193  28.036  1.00  0.00     0.031 C 
ATOM     42  C   UNL A   1      45.726  24.036  26.294  1.00  0.00     0.029 A 
ATOM     43  N   UNL A   1      45.399  26.131  26.998  1.00  0.00    -0.354 N 
ATOM     44  C   UNL A   1      41.532  27.408  28.453  1.00  0.00     0.074 A 
ATOM     45  C   UNL A   1      40.572  26.329  28.384  1.00  0.00     0.031 C 
ATOM     46  C   UNL A   1      46.883  24.698  26.137  1.00  0.00     0.029 A 
ATOM     47  C   UNL A   1      46.702  26.080  26.569  1.00  0.00     0.049 A 
ATOM     48  H   UNL A   1      44.981  26.948  27.358  1.00  0.00     0.167 HD
ATOM     49  C   UNL A   1      41.253  28.652  28.912  1.00  0.00     0.037 A 
ATOM     50  C   UNL A   1      47.642  27.043  26.524  1.00  0.00     0.037 A 
ATOM     51  C   UNL A   1      42.218  29.717  28.991  1.00  0.00     0.049 A 
ATOM     52  C   UNL A   1      47.301  28.424  27.015  1.00  0.00     0.074 A 
ATOM     53  C   UNL A   1      42.053  30.995  29.493  1.00  0.00     0.029 A 
ATOM     54  N   UNL A   1      43.529  29.629  28.545  1.00  0.00    -0.354 N 
ATOM     55  N   UNL A   1      46.174  28.873  27.511  1.00  0.00    -0.248 NA
ATOM     56  C   UNL A   1      48.369  29.431  26.946  1.00  0.00     0.031 C 
ATOM     57  C   UNL A   1      43.245  31.700  29.293  1.00  0.00     0.029 A 
ATOM     58  C   UNL A   1      44.175  30.841  28.731  1.00  0.00     0.049 A 
ATOM     59  H   UNL A   1      43.940  28.823  28.154  1.00  0.00     0.167 HD
ATOM     60  C   UNL A   1      46.405  30.201  27.845  1.00  0.00     0.074 A 
ATOM     61  C   UNL A   1      47.785  30.481  27.504  1.00  0.00     0.031 C 
ATOM     62  C   UNL A   1      45.552  31.105  28.390  1.00  0.00     0.037 A 
BRANCH  49  63
ATOM     63  C   UNL A   1      39.839  28.925  29.347  1.00  0.00     0.064 A 
ATOM     64  C   UNL A   1      39.414  28.708  30.668  1.00  0.00     0.173 A 
ATOM     65  C   UNL A   1      38.895  29.412  28.431  1.00  0.00     0.173 A 
ATOM     66  F   UNL A   1      40.272  28.233  31.584  1.00  0.00    -0.203 F 
ATOM     67  C   UNL A   1      38.090  28.922  31.041  1.00  0.00     0.198 A 
ATOM     68  C   UNL A   1      37.581  29.663  28.817  1.00  0.00     0.198 A 
ATOM     69  F   UNL A   1      39.245  29.645  27.157  1.00  0.00    -0.203 F 
ATOM     70  F   UNL A   1      37.694  28.637  32.290  1.00  0.00    -0.200 F 
ATOM     71  C   UNL A   1      37.176  29.404  30.118  1.00  0.00     0.200 A 
ATOM     72  F   UNL A   1      36.702  30.144  27.926  1.00  0.00    -0.200 F 
ATOM     73  F   UNL A   1      35.901  29.609  30.478  1.00  0.00    -0.200 F 
ENDBRANCH  49  63
BRANCH  50  74
ATOM     74  C   UNL A   1      49.006  26.720  26.029  1.00  0.00     0.064 A 
ATOM     75  C   UNL A   1      49.373  27.002  24.706  1.00  0.00     0.173 A 
ATOM     76  C   UNL A   1      49.971  26.141  26.865  1.00  0.00     0.173 A 
ATOM     77  F   UNL A   1      48.480  27.539  23.862  1.00  0.00    -0.203 F 
ATOM     78  C   UNL A   1      50.649  26.702  24.233  1.00  0.00     0.198 A 
ATOM     79  C   UNL A   1      51.256  25.868  26.399  1.00  0.00     0.198 A 
ATOM     80  F   UNL A   1      49.673  25.857  28.141  1.00  0.00    -0.203 F 
ATOM     81  F   UNL A   1      50.961  26.944  22.953  1.00  0.00    -0.200 F 
ATOM     82  C   UNL A   1      51.592  26.142  25.082  1.00  0.00     0.200 A 
ATOM     83  F   UNL A   1      52.169  25.344  27.228  1.00  0.00    -0.200 F 
ATOM     84  F   UNL A   1      52.822  25.863  24.631  1.00  0.00    -0.200 F 
ENDBRANCH  50  74
BRANCH  62  85
ATOM     85  C   UNL A   1      46.097  32.472  28.695  1.00  0.00     0.064 A 
ATOM     86  C   UNL A   1      46.717  32.767  29.918  1.00  0.00     0.173 A 
ATOM     87  C   UNL A   1      46.033  33.490  27.730  1.00  0.00     0.173 A 
ATOM     88  F   UNL A   1      46.793  31.835  30.880  1.00  0.00    -0.203 F 
ATOM     89  C   UNL A   1      47.225  34.039  30.175  1.00  0.00     0.198 A 
ATOM     90  C   UNL A   1      46.573  34.748  27.975  1.00  0.00     0.198 A 
ATOM     91  F   UNL A   1      45.457  33.258  26.540  1.00  0.00    -0.203 F 
ATOM     92  F   UNL A   1      47.765  34.315  31.370  1.00  0.00    -0.200 F 
ATOM     93  C   UNL A   1      47.161  35.025  29.201  1.00  0.00     0.200 A 
ATOM     94  F   UNL A   1      46.527  35.693  27.026  1.00  0.00    -0.200 F 
ATOM     95  F   UNL A   1      47.659  36.244  29.445  1.00  0.00    -0.200 F 
ENDBRANCH  62  85
ENDBRANCH  36  37
ENDBRANCH  28  31
ENDBRANCH  26  27
ENDBRANCH  25  26
ENDBRANCH  24  25
ENDBRANCH  23  24
ENDBRANCH   1  23
TORSDOF 17
ENDMDL
MODEL 3
REMARK VINA RESULT:     -12.0      5.576     10.020
REMARK SMILES C[C@@H](C(=O)NCCCCCCNC(=O)c1ccc(-c2c3nc(c(-c4c(F)c(F)c(F)c(F)c4F)c4ccc([nH]4)c(-c4c(F)c(F)c(F)c(F)c4F)c4nc(c(-c5c(F)c(F)c(F)c(F)c5F)c5ccc2[nH]5)C=C4)C=C3)cc1)c1ccc(C[C@H]2CCC[C@H]2O)cc1
REMARK SMILES IDX 7 1 6 2 5 3 3 4 4 5 2 7 1 8 78 9 79 10 90 11 80 12 89 13
REMARK SMILES IDX 81 14 82 15 83 16 84 17 87 18 85 19 86 20 88 21 8 23 9 24
REMARK SMILES IDX 10 25 11 26 12 27 13 28 14 30 15 31 16 32 77 33 17 34 76 35
REMARK SMILES IDX 18 36 19 37 20 38 70 39 21 40 75 41 69 42 71 43 22 44 74 45
REMARK SMILES IDX 68 46 67 47 23 49 55 50 35 51 54 52 36 53 39 54 53 55 72 56
REMARK SMILES IDX 37 57 38 58 52 60 73 61 40 62 24 63 25 64 33 65 26 66 27 67
REMARK SMILES IDX 31 68 34 69 28 70 29 71 32 72 30 73 56 74 57 75 65 76 58 77
REMARK SMILES IDX 59 78 63 79 66 80 60 81 61 82 64 83 62 84 41 85 42 86 50 87
REMARK SMILES IDX 43 88 44 89 48 90 51 91 45 92 46 93 49 94 47 95
REMARK H PARENT 5 6 88 22 12 29 71 48 39 59
REMARK Flexibility Score: inf
ROOT
ATOM      1  C   UNL A   1      36.081  22.817  25.778  1.00  0.00     0.021 C 
ENDROOT
BRANCH   1   2
ATOM      2  C   UNL A   1      35.678  24.216  25.301  1.00  0.00     0.116 C 
BRANCH   2   3
ATOM      3  N   UNL A   1      34.450  24.628  25.941  1.00  0.00    -0.356 N 
ATOM      4  C   UNL A   1      33.211  24.846  25.420  1.00  0.00     0.227 C 
ATOM      5  O   UNL A   1      32.388  25.355  26.183  1.00  0.00    -0.274 OA
ATOM      6  H   UNL A   1      34.520  24.775  26.912  1.00  0.00     0.163 HD
BRANCH   4   7
ATOM      7  C   UNL A   1      32.907  24.411  23.979  1.00  0.00     0.105 C 
ATOM      8  C   UNL A   1      31.799  25.237  23.315  1.00  0.00     0.023 C 
BRANCH   7   9
ATOM      9  C   UNL A   1      32.531  22.943  23.824  1.00  0.00    -0.036 A 
ATOM     10  C   UNL A   1      32.513  22.115  24.954  1.00  0.00     0.005 A 
ATOM     11  C   UNL A   1      32.344  22.359  22.563  1.00  0.00     0.005 A 
ATOM     12  C   UNL A   1      32.378  20.733  24.817  1.00  0.00     0.004 A 
ATOM     13  C   UNL A   1      32.204  20.980  22.429  1.00  0.00     0.004 A 
ATOM     14  C   UNL A   1      32.292  20.150  23.549  1.00  0.00    -0.048 A 
BRANCH  14  15
ATOM     15  C   UNL A   1      32.386  18.656  23.380  1.00  0.00     0.041 C 
BRANCH  15  16
ATOM     16  C   UNL A   1      33.285  17.908  24.386  1.00  0.00     0.022 C 
ATOM     17  C   UNL A   1      32.586  16.907  25.326  1.00  0.00     0.007 C 
ATOM     18  C   UNL A   1      34.498  17.137  23.839  1.00  0.00     0.117 C 
ATOM     19  C   UNL A   1      33.624  15.830  25.652  1.00  0.00     0.003 C 
ATOM     20  C   UNL A   1      34.937  16.313  25.045  1.00  0.00     0.032 C 
BRANCH  18  21
ATOM     21  O   UNL A   1      34.211  16.249  22.772  1.00  0.00    -0.393 OA
ATOM     22  H   UNL A   1      33.382  16.516  22.344  1.00  0.00     0.210 HD
ENDBRANCH  18  21
ENDBRANCH  15  16
ENDBRANCH  14  15
ENDBRANCH   7   9
ENDBRANCH   4   7
ENDBRANCH   2   3
ENDBRANCH   1   2
BRANCH   1  23
ATOM     23  C   UNL A   1      36.474  21.861  24.644  1.00  0.00     0.002 C 
BRANCH  23  24
ATOM     24  C   UNL A   1      36.465  20.378  25.022  1.00  0.00     0.002 C 
BRANCH  24  25
ATOM     25  C   UNL A   1      37.797  19.660  24.802  1.00  0.00     0.021 C 
BRANCH  25  26
ATOM     26  C   UNL A   1      38.949  20.230  25.618  1.00  0.00     0.116 C 
BRANCH  26  27
ATOM     27  N   UNL A   1      39.984  19.238  25.861  1.00  0.00    -0.352 N 
ATOM     28  C   UNL A   1      41.316  19.431  26.128  1.00  0.00     0.251 C 
ATOM     29  H   UNL A   1      39.688  18.300  25.831  1.00  0.00     0.163 HD
ATOM     30  O   UNL A   1      42.100  18.492  26.101  1.00  0.00    -0.269 OA
BRANCH  28  31
ATOM     31  C   UNL A   1      41.802  20.793  26.433  1.00  0.00     0.039 A 
ATOM     32  C   UNL A   1      42.095  21.659  25.378  1.00  0.00     0.014 A 
ATOM     33  C   UNL A   1      41.960  21.212  27.757  1.00  0.00     0.014 A 
ATOM     34  C   UNL A   1      42.502  22.966  25.654  1.00  0.00     0.010 A 
ATOM     35  C   UNL A   1      42.280  22.536  28.028  1.00  0.00     0.010 A 
ATOM     36  C   UNL A   1      42.568  23.423  26.981  1.00  0.00    -0.014 A 
BRANCH  36  37
ATOM     37  C   UNL A   1      42.960  24.819  27.294  1.00  0.00     0.031 A 
ATOM     38  C   UNL A   1      44.365  25.283  27.029  1.00  0.00     0.074 A 
ATOM     39  C   UNL A   1      42.071  25.650  27.869  1.00  0.00     0.049 A 
ATOM     40  N   UNL A   1      44.918  26.443  27.281  1.00  0.00    -0.248 NA
ATOM     41  C   UNL A   1      45.281  24.300  26.430  1.00  0.00     0.031 C 
ATOM     42  C   UNL A   1      40.692  25.304  28.215  1.00  0.00     0.029 A 
ATOM     43  N   UNL A   1      42.198  26.955  28.272  1.00  0.00    -0.354 N 
ATOM     44  C   UNL A   1      46.244  26.322  26.885  1.00  0.00     0.074 A 
ATOM     45  C   UNL A   1      46.430  24.958  26.440  1.00  0.00     0.031 C 
ATOM     46  C   UNL A   1      40.090  26.379  28.746  1.00  0.00     0.029 A 
ATOM     47  C   UNL A   1      41.050  27.476  28.818  1.00  0.00     0.049 A 
ATOM     48  H   UNL A   1      43.032  27.470  28.177  1.00  0.00     0.167 HD
ATOM     49  C   UNL A   1      47.212  27.270  26.871  1.00  0.00     0.037 A 
ATOM     50  C   UNL A   1      40.805  28.699  29.325  1.00  0.00     0.037 A 
ATOM     51  C   UNL A   1      47.015  28.629  27.303  1.00  0.00     0.049 A 
ATOM     52  C   UNL A   1      41.903  29.728  29.321  1.00  0.00     0.074 A 
ATOM     53  C   UNL A   1      47.911  29.681  27.275  1.00  0.00     0.029 A 
ATOM     54  N   UNL A   1      45.839  29.119  27.853  1.00  0.00    -0.354 N 
ATOM     55  N   UNL A   1      43.132  29.627  28.879  1.00  0.00    -0.248 NA
ATOM     56  C   UNL A   1      41.574  31.045  29.883  1.00  0.00     0.031 C 
ATOM     57  C   UNL A   1      47.299  30.792  27.865  1.00  0.00     0.029 A 
ATOM     58  C   UNL A   1      45.997  30.453  28.198  1.00  0.00     0.049 A 
ATOM     59  H   UNL A   1      45.013  28.597  27.978  1.00  0.00     0.167 HD
ATOM     60  C   UNL A   1      43.713  30.873  29.074  1.00  0.00     0.074 A 
ATOM     61  C   UNL A   1      42.696  31.717  29.667  1.00  0.00     0.031 C 
ATOM     62  C   UNL A   1      44.974  31.282  28.784  1.00  0.00     0.037 A 
BRANCH  49  63
ATOM     63  C   UNL A   1      48.573  26.857  26.384  1.00  0.00     0.064 A 
ATOM     64  C   UNL A   1      48.978  27.056  25.054  1.00  0.00     0.173 A 
ATOM     65  C   UNL A   1      49.489  26.254  27.260  1.00  0.00     0.173 A 
ATOM     66  F   UNL A   1      48.140  27.619  24.170  1.00  0.00    -0.203 F 
ATOM     67  C   UNL A   1      50.226  26.626  24.610  1.00  0.00     0.198 A 
ATOM     68  C   UNL A   1      50.751  25.861  26.823  1.00  0.00     0.198 A 
ATOM     69  F   UNL A   1      49.161  26.045  28.544  1.00  0.00    -0.203 F 
ATOM     70  F   UNL A   1      50.559  26.761  23.319  1.00  0.00    -0.200 F 
ATOM     71  C   UNL A   1      51.113  26.033  25.495  1.00  0.00     0.200 A 
ATOM     72  F   UNL A   1      51.613  25.303  27.684  1.00  0.00    -0.200 F 
ATOM     73  F   UNL A   1      52.314  25.618  25.067  1.00  0.00    -0.200 F 
ENDBRANCH  49  63
BRANCH  50  74
ATOM     74  C   UNL A   1      39.450  29.025  29.843  1.00  0.00     0.064 A 
ATOM     75  C   UNL A   1      39.106  28.749  31.174  1.00  0.00     0.173 A 
ATOM     76  C   UNL A   1      38.480  29.627  29.030  1.00  0.00     0.173 A 
ATOM     77  F   UNL A   1      39.994  28.156  31.986  1.00  0.00    -0.203 F 
ATOM     78  C   UNL A   1      37.839  29.051  31.667  1.00  0.00     0.198 A 
ATOM     79  C   UNL A   1      37.222  29.955  29.532  1.00  0.00     0.198 A 
ATOM     80  F   UNL A   1      38.760  29.917  27.751  1.00  0.00    -0.203 F 
ATOM     81  F   UNL A   1      37.523  28.740  32.931  1.00  0.00    -0.200 F 
ATOM     82  C   UNL A   1      36.900  29.660  30.848  1.00  0.00     0.200 A 
ATOM     83  F   UNL A   1      36.324  30.560  28.742  1.00  0.00    -0.200 F 
ATOM     84  F   UNL A   1      35.685  29.959  31.325  1.00  0.00    -0.200 F 
ENDBRANCH  50  74
BRANCH  62  85
ATOM     85  C   UNL A   1      45.314  32.720  29.061  1.00  0.00     0.064 A 
ATOM     86  C   UNL A   1      45.874  33.128  30.281  1.00  0.00     0.173 A 
ATOM     87  C   UNL A   1      45.112  33.697  28.074  1.00  0.00     0.173 A 
ATOM     88  F   UNL A   1      46.075  32.237  31.264  1.00  0.00    -0.203 F 
ATOM     89  C   UNL A   1      46.192  34.464  30.512  1.00  0.00     0.198 A 
ATOM     90  C   UNL A   1      45.464  35.025  28.294  1.00  0.00     0.198 A 
ATOM     91  F   UNL A   1      44.586  33.359  26.886  1.00  0.00    -0.203 F 
ATOM     92  F   UNL A   1      46.676  34.841  31.703  1.00  0.00    -0.200 F 
ATOM     93  C   UNL A   1      45.995  35.410  29.516  1.00  0.00     0.200 A 
ATOM     94  F   UNL A   1      45.290  35.932  27.323  1.00  0.00    -0.200 F 
ATOM     95  F   UNL A   1      46.311  36.693  29.735  1.00  0.00    -0.200 F 
ENDBRANCH  62  85
ENDBRANCH  36  37
ENDBRANCH  28  31
ENDBRANCH  26  27
ENDBRANCH  25  26
ENDBRANCH  24  25
ENDBRANCH  23  24
ENDBRANCH   1  23
TORSDOF 17
ENDMDL
