MODEL 1
REMARK VINA RESULT:     -13.3      0.000      0.000
REMARK SMILES O=C(CC1(CC(=O)Nc2ccc3ccccc3n2)CCCCC1)NCCCCCCNC(=O)c1ccc(-c2c3nc(c(-c4c(F)c(F)c(F)c(F)c4F)c4ccc([nH]4)c(-c4c(F)c(F)c(F)c(F)c4F)c4nc(c(-c5c(F)c(F)c(F)c(F)c5F)c5ccc2[nH]5)C=C4)C=C3)cc1
REMARK SMILES IDX 26 1 25 2 24 3 1 4 2 5 3 7 4 8 19 9 23 10 20 11 22 12 21 13
REMARK SMILES IDX 5 14 6 15 7 16 8 17 9 19 10 20 18 21 11 22 17 23 12 24 16 25
REMARK SMILES IDX 13 26 15 27 14 28 27 29 28 30 29 31 30 32 31 33 32 34 33 36
REMARK SMILES IDX 34 37 35 38 96 39 36 40 95 41 37 42 38 43 39 44 89 45 40 46
REMARK SMILES IDX 94 47 88 48 90 49 41 50 93 51 87 52 86 53 42 55 74 56 54 57
REMARK SMILES IDX 73 58 55 59 58 60 72 61 91 62 56 63 57 64 71 66 92 67 59 68
REMARK SMILES IDX 43 69 44 70 52 71 45 72 46 73 50 74 53 75 47 76 48 77 51 78
REMARK SMILES IDX 49 79 75 80 76 81 84 82 77 83 78 84 82 85 85 86 79 87 80 88
REMARK SMILES IDX 83 89 81 90 60 91 61 92 69 93 62 94 63 95 67 96 70 97 64 98
REMARK SMILES IDX 65 99 68 100 66 101
REMARK H PARENT 24 6 8 18 31 35 90 54 58 65
REMARK Flexibility Score: inf
ROOT
ATOM      1  C   UNL A   1      32.845  28.389  27.321  1.00  0.00     0.021 C 
ENDROOT
BRANCH   1   2
ATOM      2  C   UNL A   1      31.543  27.696  26.917  1.00  0.00     0.116 C 
BRANCH   2   3
ATOM      3  N   UNL A   1      31.796  26.677  25.928  1.00  0.00    -0.356 N 
ATOM      4  O   UNL A   1      31.284  24.853  27.195  1.00  0.00    -0.275 OA
ATOM      5  C   UNL A   1      31.621  25.335  26.117  1.00  0.00     0.220 C 
ATOM      6  H   UNL A   1      32.121  26.971  25.047  1.00  0.00     0.163 HD
BRANCH   5   7
ATOM      7  C   UNL A   1      32.013  24.451  24.932  1.00  0.00     0.107 C 
BRANCH   7   8
ATOM      8  C   UNL A   1      33.506  24.351  24.474  1.00  0.00    -0.012 C 
ATOM      9  C   UNL A   1      34.497  24.486  25.685  1.00  0.00     0.008 C 
ATOM     10  C   UNL A   1      33.747  22.897  24.029  1.00  0.00     0.008 C 
ATOM     11  C   UNL A   1      35.963  24.138  25.397  1.00  0.00     0.001 C 
ATOM     12  C   UNL A   1      35.175  22.664  23.524  1.00  0.00     0.001 C 
ATOM     13  C   UNL A   1      36.163  22.828  24.658  1.00  0.00     0.000 C 
BRANCH   8  14
ATOM     14  C   UNL A   1      33.809  25.362  23.325  1.00  0.00     0.108 C 
BRANCH  14  15
ATOM     15  C   UNL A   1      33.033  25.359  21.987  1.00  0.00     0.226 C 
ATOM     16  O   UNL A   1      33.375  24.545  21.117  1.00  0.00    -0.275 OA
ATOM     17  N   UNL A   1      31.847  26.001  21.773  1.00  0.00    -0.311 N 
ATOM     18  H   UNL A   1      31.311  25.619  21.042  1.00  0.00     0.171 HD
BRANCH  17  19
ATOM     19  C   UNL A   1      31.254  27.095  22.396  1.00  0.00     0.133 A 
ATOM     20  C   UNL A   1      32.052  28.165  22.757  1.00  0.00     0.048 A 
ATOM     21  N   UNL A   1      29.950  27.059  22.700  1.00  0.00    -0.231 NA
ATOM     22  C   UNL A   1      31.429  29.333  23.202  1.00  0.00     0.014 A 
ATOM     23  C   UNL A   1      29.331  28.186  23.105  1.00  0.00     0.073 A 
ATOM     24  C   UNL A   1      30.033  29.387  23.291  1.00  0.00     0.000 A 
ATOM     25  C   UNL A   1      27.940  28.215  23.177  1.00  0.00     0.029 A 
ATOM     26  C   UNL A   1      29.328  30.594  23.459  1.00  0.00     0.010 A 
ATOM     27  C   UNL A   1      27.235  29.418  23.268  1.00  0.00     0.002 A 
ATOM     28  C   UNL A   1      27.934  30.613  23.394  1.00  0.00     0.001 A 
ENDBRANCH  17  19
ENDBRANCH  14  15
ENDBRANCH   8  14
ENDBRANCH   7   8
ENDBRANCH   5   7
ENDBRANCH   2   3
ENDBRANCH   1   2
BRANCH   1  29
ATOM     29  C   UNL A   1      32.794  29.927  27.308  1.00  0.00     0.002 C 
BRANCH  29  30
ATOM     30  C   UNL A   1      31.668  30.548  26.475  1.00  0.00     0.002 C 
BRANCH  30  31
ATOM     31  C   UNL A   1      31.537  32.066  26.595  1.00  0.00     0.021 C 
BRANCH  31  32
ATOM     32  C   UNL A   1      32.612  32.737  27.443  1.00  0.00     0.116 C 
BRANCH  32  33
ATOM     33  N   UNL A   1      32.349  34.150  27.668  1.00  0.00    -0.352 N 
ATOM     34  C   UNL A   1      32.954  35.014  28.547  1.00  0.00     0.251 C 
ATOM     35  H   UNL A   1      31.637  34.541  27.113  1.00  0.00     0.163 HD
ATOM     36  O   UNL A   1      32.498  36.143  28.723  1.00  0.00    -0.269 OA
BRANCH  34  37
ATOM     37  C   UNL A   1      34.137  34.572  29.313  1.00  0.00     0.039 A 
ATOM     38  C   UNL A   1      33.959  34.094  30.614  1.00  0.00     0.014 A 
ATOM     39  C   UNL A   1      35.413  34.603  28.743  1.00  0.00     0.014 A 
ATOM     40  C   UNL A   1      35.049  33.569  31.312  1.00  0.00     0.010 A 
ATOM     41  C   UNL A   1      36.482  34.011  29.409  1.00  0.00     0.010 A 
ATOM     42  C   UNL A   1      36.308  33.479  30.696  1.00  0.00    -0.014 A 
BRANCH  42  43
ATOM     43  C   UNL A   1      37.441  32.791  31.368  1.00  0.00     0.031 A 
ATOM     44  C   UNL A   1      38.100  31.602  30.732  1.00  0.00     0.074 A 
ATOM     45  C   UNL A   1      37.824  33.197  32.594  1.00  0.00     0.049 A 
ATOM     46  N   UNL A   1      39.056  30.837  31.196  1.00  0.00    -0.248 NA
ATOM     47  C   UNL A   1      37.600  31.202  29.409  1.00  0.00     0.031 C 
ATOM     48  C   UNL A   1      37.223  34.304  33.341  1.00  0.00     0.029 A 
ATOM     49  N   UNL A   1      38.799  32.718  33.434  1.00  0.00    -0.354 N 
ATOM     50  C   UNL A   1      39.270  29.869  30.226  1.00  0.00     0.074 A 
ATOM     51  C   UNL A   1      38.300  30.102  29.177  1.00  0.00     0.031 C 
ATOM     52  C   UNL A   1      37.850  34.428  34.521  1.00  0.00     0.029 A 
ATOM     53  C   UNL A   1      38.865  33.384  34.633  1.00  0.00     0.049 A 
ATOM     54  H   UNL A   1      39.393  31.970  33.199  1.00  0.00     0.167 HD
ATOM     55  C   UNL A   1      40.207  28.889  30.201  1.00  0.00     0.037 A 
ATOM     56  C   UNL A   1      39.641  33.168  35.712  1.00  0.00     0.037 A 
ATOM     57  C   UNL A   1      41.165  28.660  31.251  1.00  0.00     0.049 A 
ATOM     58  C   UNL A   1      40.652  32.055  35.677  1.00  0.00     0.074 A 
ATOM     59  C   UNL A   1      42.189  27.730  31.299  1.00  0.00     0.029 A 
ATOM     60  N   UNL A   1      41.207  29.358  32.450  1.00  0.00    -0.354 N 
ATOM     61  N   UNL A   1      40.903  31.196  34.720  1.00  0.00    -0.248 NA
ATOM     62  C   UNL A   1      41.492  31.886  36.870  1.00  0.00     0.031 C 
ATOM     63  C   UNL A   1      42.808  27.823  32.549  1.00  0.00     0.029 A 
ATOM     64  C   UNL A   1      42.214  28.854  33.259  1.00  0.00     0.049 A 
ATOM     65  H   UNL A   1      40.609  30.103  32.692  1.00  0.00     0.167 HD
ATOM     66  C   UNL A   1      41.935  30.393  35.186  1.00  0.00     0.074 A 
ATOM     67  C   UNL A   1      42.281  30.885  36.504  1.00  0.00     0.031 C 
ATOM     68  C   UNL A   1      42.540  29.343  34.577  1.00  0.00     0.037 A 
BRANCH  55  69
ATOM     69  C   UNL A   1      40.229  27.989  28.997  1.00  0.00     0.064 A 
ATOM     70  C   UNL A   1      39.526  26.773  28.973  1.00  0.00     0.173 A 
ATOM     71  C   UNL A   1      40.951  28.346  27.849  1.00  0.00     0.173 A 
ATOM     72  F   UNL A   1      38.824  26.377  30.046  1.00  0.00    -0.203 F 
ATOM     73  C   UNL A   1      39.585  25.930  27.866  1.00  0.00     0.198 A 
ATOM     74  C   UNL A   1      40.979  27.519  26.729  1.00  0.00     0.198 A 
ATOM     75  F   UNL A   1      41.634  29.501  27.811  1.00  0.00    -0.203 F 
ATOM     76  F   UNL A   1      38.962  24.744  27.895  1.00  0.00    -0.200 F 
ATOM     77  C   UNL A   1      40.307  26.306  26.743  1.00  0.00     0.200 A 
ATOM     78  F   UNL A   1      41.662  27.891  25.638  1.00  0.00    -0.200 F 
ATOM     79  F   UNL A   1      40.363  25.494  25.679  1.00  0.00    -0.200 F 
ENDBRANCH  55  69
BRANCH  56  80
ATOM     80  C   UNL A   1      39.485  34.032  36.911  1.00  0.00     0.064 A 
ATOM     81  C   UNL A   1      38.717  33.617  38.008  1.00  0.00     0.173 A 
ATOM     82  C   UNL A   1      40.123  35.278  36.996  1.00  0.00     0.173 A 
ATOM     83  F   UNL A   1      38.071  32.443  37.967  1.00  0.00    -0.203 F 
ATOM     84  C   UNL A   1      38.586  34.420  39.139  1.00  0.00     0.198 A 
ATOM     85  C   UNL A   1      40.018  36.065  38.140  1.00  0.00     0.198 A 
ATOM     86  F   UNL A   1      40.875  35.718  35.975  1.00  0.00    -0.203 F 
ATOM     87  F   UNL A   1      37.818  34.015  40.160  1.00  0.00    -0.200 F 
ATOM     88  C   UNL A   1      39.245  35.639  39.208  1.00  0.00     0.200 A 
ATOM     89  F   UNL A   1      40.671  37.234  38.209  1.00  0.00    -0.200 F 
ATOM     90  F   UNL A   1      39.132  36.403  40.303  1.00  0.00    -0.200 F 
ENDBRANCH  56  80
BRANCH  68  91
ATOM     91  C   UNL A   1      43.646  28.656  35.327  1.00  0.00     0.064 A 
ATOM     92  C   UNL A   1      44.990  29.018  35.148  1.00  0.00     0.173 A 
ATOM     93  C   UNL A   1      43.357  27.653  36.265  1.00  0.00     0.173 A 
ATOM     94  F   UNL A   1      45.324  29.959  34.252  1.00  0.00    -0.203 F 
ATOM     95  C   UNL A   1      46.004  28.384  35.862  1.00  0.00     0.198 A 
ATOM     96  C   UNL A   1      44.370  27.045  37.001  1.00  0.00     0.198 A 
ATOM     97  F   UNL A   1      42.089  27.272  36.478  1.00  0.00    -0.203 F 
ATOM     98  F   UNL A   1      47.284  28.711  35.639  1.00  0.00    -0.200 F 
ATOM     99  C   UNL A   1      45.692  27.405  36.794  1.00  0.00     0.200 A 
ATOM    100  F   UNL A   1      44.065  26.110  37.912  1.00  0.00    -0.200 F 
ATOM    101  F   UNL A   1      46.668  26.803  37.488  1.00  0.00    -0.200 F 
ENDBRANCH  68  91
ENDBRANCH  42  43
ENDBRANCH  34  37
ENDBRANCH  32  33
ENDBRANCH  31  32
ENDBRANCH  30  31
ENDBRANCH  29  30
ENDBRANCH   1  29
TORSDOF 17
ENDMDL
MODEL 2
REMARK VINA RESULT:     -13.3      0.598      7.061
REMARK SMILES O=C(CC1(CC(=O)Nc2ccc3ccccc3n2)CCCCC1)NCCCCCCNC(=O)c1ccc(-c2c3nc(c(-c4c(F)c(F)c(F)c(F)c4F)c4ccc([nH]4)c(-c4c(F)c(F)c(F)c(F)c4F)c4nc(c(-c5c(F)c(F)c(F)c(F)c5F)c5ccc2[nH]5)C=C4)C=C3)cc1
REMARK SMILES IDX 26 1 25 2 24 3 1 4 2 5 3 7 4 8 19 9 23 10 20 11 22 12 21 13
REMARK SMILES IDX 5 14 6 15 7 16 8 17 9 19 10 20 18 21 11 22 17 23 12 24 16 25
REMARK SMILES IDX 13 26 15 27 14 28 27 29 28 30 29 31 30 32 31 33 32 34 33 36
REMARK SMILES IDX 34 37 35 38 96 39 36 40 95 41 37 42 38 43 39 44 89 45 40 46
REMARK SMILES IDX 94 47 88 48 90 49 41 50 93 51 87 52 86 53 42 55 74 56 54 57
REMARK SMILES IDX 73 58 55 59 58 60 72 61 91 62 56 63 57 64 71 66 92 67 59 68
REMARK SMILES IDX 43 69 44 70 52 71 45 72 46 73 50 74 53 75 47 76 48 77 51 78
REMARK SMILES IDX 49 79 75 80 76 81 84 82 77 83 78 84 82 85 85 86 79 87 80 88
REMARK SMILES IDX 83 89 81 90 60 91 61 92 69 93 62 94 63 95 67 96 70 97 64 98
REMARK SMILES IDX 65 99 68 100 66 101
REMARK H PARENT 24 6 8 18 31 35 90 54 58 65
REMARK Flexibility Score: inf
ROOT
ATOM      1  C   UNL A   1      32.791  28.479  27.218  1.00  0.00     0.021 C 
ENDROOT
BRANCH   1   2
ATOM      2  C   UNL A   1      31.485  27.778  26.844  1.00  0.00     0.116 C 
BRANCH   2   3
ATOM      3  N   UNL A   1      31.700  26.849  25.761  1.00  0.00    -0.356 N 
ATOM      4  O   UNL A   1      31.141  24.930  26.855  1.00  0.00    -0.275 OA
ATOM      5  C   UNL A   1      31.486  25.502  25.824  1.00  0.00     0.220 C 
ATOM      6  H   UNL A   1      32.028  27.216  24.908  1.00  0.00     0.163 HD
BRANCH   5   7
ATOM      7  C   UNL A   1      31.842  24.723  24.558  1.00  0.00     0.107 C 
BRANCH   7   8
ATOM      8  C   UNL A   1      33.335  24.565  24.113  1.00  0.00    -0.012 C 
ATOM      9  C   UNL A   1      34.310  24.550  25.345  1.00  0.00     0.008 C 
ATOM     10  C   UNL A   1      33.497  23.137  23.565  1.00  0.00     0.008 C 
ATOM     11  C   UNL A   1      35.757  24.136  25.051  1.00  0.00     0.001 C 
ATOM     12  C   UNL A   1      34.917  22.855  23.062  1.00  0.00     0.001 C 
ATOM     13  C   UNL A   1      35.892  22.874  24.219  1.00  0.00     0.000 C 
BRANCH   8  14
ATOM     14  C   UNL A   1      33.718  25.639  23.048  1.00  0.00     0.108 C 
BRANCH  14  15
ATOM     15  C   UNL A   1      32.974  25.776  21.699  1.00  0.00     0.226 C 
ATOM     16  O   UNL A   1      33.333  25.054  20.758  1.00  0.00    -0.275 OA
ATOM     17  N   UNL A   1      31.794  26.442  21.525  1.00  0.00    -0.311 N 
ATOM     18  H   UNL A   1      31.274  26.139  20.746  1.00  0.00     0.171 HD
BRANCH  17  19
ATOM     19  C   UNL A   1      31.190  27.470  22.243  1.00  0.00     0.133 A 
ATOM     20  C   UNL A   1      31.985  28.480  22.752  1.00  0.00     0.048 A 
ATOM     21  N   UNL A   1      29.874  27.422  22.491  1.00  0.00    -0.231 NA
ATOM     22  C   UNL A   1      31.359  29.601  23.301  1.00  0.00     0.014 A 
ATOM     23  C   UNL A   1      29.253  28.506  22.995  1.00  0.00     0.073 A 
ATOM     24  C   UNL A   1      29.961  29.667  23.340  1.00  0.00     0.000 A 
ATOM     25  C   UNL A   1      27.860  28.550  23.016  1.00  0.00     0.029 A 
ATOM     26  C   UNL A   1      29.264  30.860  23.615  1.00  0.00     0.010 A 
ATOM     27  C   UNL A   1      27.167  29.747  23.214  1.00  0.00     0.002 A 
ATOM     28  C   UNL A   1      27.874  30.908  23.499  1.00  0.00     0.001 A 
ENDBRANCH  17  19
ENDBRANCH  14  15
ENDBRANCH   8  14
ENDBRANCH   7   8
ENDBRANCH   5   7
ENDBRANCH   2   3
ENDBRANCH   1   2
BRANCH   1  29
ATOM     29  C   UNL A   1      32.711  30.015  27.275  1.00  0.00     0.002 C 
BRANCH  29  30
ATOM     30  C   UNL A   1      31.494  30.644  26.588  1.00  0.00     0.002 C 
BRANCH  30  31
ATOM     31  C   UNL A   1      31.434  32.170  26.649  1.00  0.00     0.021 C 
BRANCH  31  32
ATOM     32  C   UNL A   1      32.651  32.834  27.284  1.00  0.00     0.116 C 
BRANCH  32  33
ATOM     33  N   UNL A   1      32.408  34.224  27.642  1.00  0.00    -0.352 N 
ATOM     34  C   UNL A   1      33.016  34.988  28.606  1.00  0.00     0.251 C 
ATOM     35  H   UNL A   1      31.710  34.679  27.118  1.00  0.00     0.163 HD
ATOM     36  O   UNL A   1      32.576  36.103  28.885  1.00  0.00    -0.269 OA
BRANCH  34  37
ATOM     37  C   UNL A   1      34.181  34.453  29.340  1.00  0.00     0.039 A 
ATOM     38  C   UNL A   1      33.975  33.833  30.575  1.00  0.00     0.014 A 
ATOM     39  C   UNL A   1      35.468  34.538  28.801  1.00  0.00     0.014 A 
ATOM     40  C   UNL A   1      35.047  33.225  31.230  1.00  0.00     0.010 A 
ATOM     41  C   UNL A   1      36.520  33.867  29.417  1.00  0.00     0.010 A 
ATOM     42  C   UNL A   1      36.318  33.194  30.632  1.00  0.00    -0.014 A 
BRANCH  42  43
ATOM     43  C   UNL A   1      37.433  32.426  31.243  1.00  0.00     0.031 A 
ATOM     44  C   UNL A   1      37.963  32.794  32.598  1.00  0.00     0.074 A 
ATOM     45  C   UNL A   1      38.018  31.439  30.537  1.00  0.00     0.049 A 
ATOM     46  N   UNL A   1      38.969  32.281  33.262  1.00  0.00    -0.248 NA
ATOM     47  C   UNL A   1      37.291  33.904  33.289  1.00  0.00     0.031 C 
ATOM     48  C   UNL A   1      37.631  31.026  29.187  1.00  0.00     0.029 A 
ATOM     49  N   UNL A   1      39.072  30.616  30.848  1.00  0.00    -0.354 N 
ATOM     50  C   UNL A   1      39.050  33.005  34.443  1.00  0.00     0.074 A 
ATOM     51  C   UNL A   1      38.035  34.034  34.377  1.00  0.00     0.031 C 
ATOM     52  C   UNL A   1      38.425  30.020  28.791  1.00  0.00     0.029 A 
ATOM     53  C   UNL A   1      39.404  29.747  29.839  1.00  0.00     0.049 A 
ATOM     54  H   UNL A   1      39.543  30.647  31.711  1.00  0.00     0.167 HD
ATOM     55  C   UNL A   1      39.880  32.812  35.498  1.00  0.00     0.037 A 
ATOM     56  C   UNL A   1      40.400  28.843  29.755  1.00  0.00     0.037 A 
ATOM     57  C   UNL A   1      40.891  31.788  35.554  1.00  0.00     0.049 A 
ATOM     58  C   UNL A   1      41.330  28.667  30.924  1.00  0.00     0.074 A 
ATOM     59  C   UNL A   1      41.747  31.475  36.596  1.00  0.00     0.029 A 
ATOM     60  N   UNL A   1      41.197  30.920  34.515  1.00  0.00    -0.354 N 
ATOM     61  N   UNL A   1      41.346  29.301  32.070  1.00  0.00    -0.248 NA
ATOM     62  C   UNL A   1      42.377  27.645  30.788  1.00  0.00     0.031 C 
ATOM     63  C   UNL A   1      42.610  30.462  36.166  1.00  0.00     0.029 A 
ATOM     64  C   UNL A   1      42.253  30.097  34.877  1.00  0.00     0.049 A 
ATOM     65  H   UNL A   1      40.733  30.893  33.647  1.00  0.00     0.167 HD
ATOM     66  C   UNL A   1      42.391  28.749  32.798  1.00  0.00     0.074 A 
ATOM     67  C   UNL A   1      42.971  27.711  31.972  1.00  0.00     0.031 C 
ATOM     68  C   UNL A   1      42.832  29.076  34.039  1.00  0.00     0.037 A 
BRANCH  55  69
ATOM     69  C   UNL A   1      39.727  33.738  36.673  1.00  0.00     0.064 A 
ATOM     70  C   UNL A   1      38.920  33.406  37.773  1.00  0.00     0.173 A 
ATOM     71  C   UNL A   1      40.400  34.968  36.705  1.00  0.00     0.173 A 
ATOM     72  F   UNL A   1      38.247  32.245  37.792  1.00  0.00    -0.203 F 
ATOM     73  C   UNL A   1      38.758  34.289  38.837  1.00  0.00     0.198 A 
ATOM     74  C   UNL A   1      40.264  35.834  37.788  1.00  0.00     0.198 A 
ATOM     75  F   UNL A   1      41.192  35.334  35.685  1.00  0.00    -0.203 F 
ATOM     76  F   UNL A   1      37.929  33.978  39.843  1.00  0.00    -0.200 F 
ATOM     77  C   UNL A   1      39.434  35.500  38.847  1.00  0.00     0.200 A 
ATOM     78  F   UNL A   1      40.932  36.996  37.803  1.00  0.00    -0.200 F 
ATOM     79  F   UNL A   1      39.276  36.349  39.871  1.00  0.00    -0.200 F 
ENDBRANCH  55  69
BRANCH  56  80
ATOM     80  C   UNL A   1      40.557  28.040  28.515  1.00  0.00     0.064 A 
ATOM     81  C   UNL A   1      41.347  28.496  27.451  1.00  0.00     0.173 A 
ATOM     82  C   UNL A   1      39.942  26.786  28.379  1.00  0.00     0.173 A 
ATOM     83  F   UNL A   1      41.938  29.697  27.524  1.00  0.00    -0.203 F 
ATOM     84  C   UNL A   1      41.508  27.733  26.296  1.00  0.00     0.198 A 
ATOM     85  C   UNL A   1      40.130  26.011  27.238  1.00  0.00     0.198 A 
ATOM     86  F   UNL A   1      39.181  26.301  29.372  1.00  0.00    -0.203 F 
ATOM     87  F   UNL A   1      42.241  28.208  25.279  1.00  0.00    -0.200 F 
ATOM     88  C   UNL A   1      40.908  26.487  26.194  1.00  0.00     0.200 A 
ATOM     89  F   UNL A   1      39.563  24.799  27.153  1.00  0.00    -0.200 F 
ATOM     90  F   UNL A   1      41.077  25.747  25.091  1.00  0.00    -0.200 F 
ENDBRANCH  56  80
BRANCH  68  91
ATOM     91  C   UNL A   1      43.995  28.295  34.584  1.00  0.00     0.064 A 
ATOM     92  C   UNL A   1      45.314  28.754  34.452  1.00  0.00     0.173 A 
ATOM     93  C   UNL A   1      43.784  27.096  35.281  1.00  0.00     0.173 A 
ATOM     94  F   UNL A   1      45.573  29.886  33.780  1.00  0.00    -0.203 F 
ATOM     95  C   UNL A   1      46.381  28.028  34.976  1.00  0.00     0.198 A 
ATOM     96  C   UNL A   1      44.850  26.390  35.833  1.00  0.00     0.198 A 
ATOM     97  F   UNL A   1      42.543  26.615  35.441  1.00  0.00    -0.203 F 
ATOM     98  F   UNL A   1      47.636  28.459  34.794  1.00  0.00    -0.200 F 
ATOM     99  C   UNL A   1      46.147  26.852  35.674  1.00  0.00     0.200 A 
ATOM    100  F   UNL A   1      44.620  25.262  36.520  1.00  0.00    -0.200 F 
ATOM    101  F   UNL A   1      47.174  26.160  36.187  1.00  0.00    -0.200 F 
ENDBRANCH  68  91
ENDBRANCH  42  43
ENDBRANCH  34  37
ENDBRANCH  32  33
ENDBRANCH  31  32
ENDBRANCH  30  31
ENDBRANCH  29  30
ENDBRANCH   1  29
TORSDOF 17
ENDMDL
MODEL 3
REMARK VINA RESULT:     -13.1      1.911      4.116
REMARK SMILES O=C(CC1(CC(=O)Nc2ccc3ccccc3n2)CCCCC1)NCCCCCCNC(=O)c1ccc(-c2c3nc(c(-c4c(F)c(F)c(F)c(F)c4F)c4ccc([nH]4)c(-c4c(F)c(F)c(F)c(F)c4F)c4nc(c(-c5c(F)c(F)c(F)c(F)c5F)c5ccc2[nH]5)C=C4)C=C3)cc1
REMARK SMILES IDX 26 1 25 2 24 3 1 4 2 5 3 7 4 8 19 9 23 10 20 11 22 12 21 13
REMARK SMILES IDX 5 14 6 15 7 16 8 17 9 19 10 20 18 21 11 22 17 23 12 24 16 25
REMARK SMILES IDX 13 26 15 27 14 28 27 29 28 30 29 31 30 32 31 33 32 34 33 36
REMARK SMILES IDX 34 37 35 38 96 39 36 40 95 41 37 42 38 43 39 44 89 45 40 46
REMARK SMILES IDX 94 47 88 48 90 49 41 50 93 51 87 52 86 53 42 55 74 56 54 57
REMARK SMILES IDX 73 58 55 59 58 60 72 61 91 62 56 63 57 64 71 66 92 67 59 68
REMARK SMILES IDX 43 69 44 70 52 71 45 72 46 73 50 74 53 75 47 76 48 77 51 78
REMARK SMILES IDX 49 79 75 80 76 81 84 82 77 83 78 84 82 85 85 86 79 87 80 88
REMARK SMILES IDX 83 89 81 90 60 91 61 92 69 93 62 94 63 95 67 96 70 97 64 98
REMARK SMILES IDX 65 99 68 100 66 101
REMARK H PARENT 24 6 8 18 31 35 90 54 58 65
REMARK Flexibility Score: inf
ROOT
ATOM      1  C   UNL A   1      32.261  29.136  24.484  1.00  0.00     0.021 C 
ENDROOT
BRANCH   1   2
ATOM      2  C   UNL A   1      33.619  28.480  24.736  1.00  0.00     0.116 C 
BRANCH   2   3
ATOM      3  N   UNL A   1      33.580  27.081  24.387  1.00  0.00    -0.356 N 
ATOM      4  O   UNL A   1      33.073  26.240  26.443  1.00  0.00    -0.275 OA
ATOM      5  C   UNL A   1      33.280  26.062  25.245  1.00  0.00     0.220 C 
ATOM      6  H   UNL A   1      33.786  26.842  23.454  1.00  0.00     0.163 HD
BRANCH   5   7
ATOM      7  C   UNL A   1      33.360  24.658  24.647  1.00  0.00     0.107 C 
BRANCH   7   8
ATOM      8  C   UNL A   1      34.504  23.676  25.071  1.00  0.00    -0.012 C 
ATOM      9  C   UNL A   1      35.006  22.811  23.861  1.00  0.00     0.008 C 
ATOM     10  C   UNL A   1      35.743  24.531  25.385  1.00  0.00     0.008 C 
ATOM     11  C   UNL A   1      36.295  22.011  24.095  1.00  0.00     0.001 C 
ATOM     12  C   UNL A   1      36.939  23.691  25.846  1.00  0.00     0.001 C 
ATOM     13  C   UNL A   1      37.425  22.811  24.715  1.00  0.00     0.000 C 
BRANCH   8  14
ATOM     14  C   UNL A   1      34.073  22.812  26.298  1.00  0.00     0.108 C 
BRANCH  14  15
ATOM     15  C   UNL A   1      32.591  22.547  26.650  1.00  0.00     0.226 C 
ATOM     16  O   UNL A   1      32.039  23.303  27.462  1.00  0.00    -0.275 OA
ATOM     17  N   UNL A   1      31.764  21.707  25.959  1.00  0.00    -0.311 N 
ATOM     18  H   UNL A   1      30.808  21.918  26.055  1.00  0.00     0.171 HD
BRANCH  17  19
ATOM     19  C   UNL A   1      32.022  20.608  25.144  1.00  0.00     0.133 A 
ATOM     20  C   UNL A   1      32.084  20.796  23.776  1.00  0.00     0.048 A 
ATOM     21  N   UNL A   1      32.127  19.389  25.690  1.00  0.00    -0.231 NA
ATOM     22  C   UNL A   1      32.531  19.738  22.983  1.00  0.00     0.014 A 
ATOM     23  C   UNL A   1      32.584  18.364  24.943  1.00  0.00     0.073 A 
ATOM     24  C   UNL A   1      32.882  18.521  23.581  1.00  0.00     0.000 A 
ATOM     25  C   UNL A   1      32.933  17.167  25.563  1.00  0.00     0.029 A 
ATOM     26  C   UNL A   1      33.594  17.516  22.897  1.00  0.00     0.010 A 
ATOM     27  C   UNL A   1      33.704  16.201  24.911  1.00  0.00     0.002 A 
ATOM     28  C   UNL A   1      34.048  16.385  23.577  1.00  0.00     0.001 A 
ENDBRANCH  17  19
ENDBRANCH  14  15
ENDBRANCH   8  14
ENDBRANCH   7   8
ENDBRANCH   5   7
ENDBRANCH   2   3
ENDBRANCH   1   2
BRANCH   1  29
ATOM     29  C   UNL A   1      31.408  29.371  25.743  1.00  0.00     0.002 C 
BRANCH  29  30
ATOM     30  C   UNL A   1      32.083  30.168  26.864  1.00  0.00     0.002 C 
BRANCH  30  31
ATOM     31  C   UNL A   1      31.773  31.665  26.872  1.00  0.00     0.021 C 
BRANCH  31  32
ATOM     32  C   UNL A   1      32.958  32.563  27.208  1.00  0.00     0.116 C 
BRANCH  32  33
ATOM     33  N   UNL A   1      32.555  33.919  27.550  1.00  0.00    -0.352 N 
ATOM     34  C   UNL A   1      33.032  34.739  28.542  1.00  0.00     0.251 C 
ATOM     35  H   UNL A   1      31.840  34.300  26.993  1.00  0.00     0.163 HD
ATOM     36  O   UNL A   1      32.466  35.801  28.797  1.00  0.00    -0.269 OA
BRANCH  34  37
ATOM     37  C   UNL A   1      34.210  34.326  29.333  1.00  0.00     0.039 A 
ATOM     38  C   UNL A   1      34.009  33.716  30.574  1.00  0.00     0.014 A 
ATOM     39  C   UNL A   1      35.504  34.514  28.842  1.00  0.00     0.014 A 
ATOM     40  C   UNL A   1      35.104  33.219  31.284  1.00  0.00     0.010 A 
ATOM     41  C   UNL A   1      36.586  33.952  29.514  1.00  0.00     0.010 A 
ATOM     42  C   UNL A   1      36.395  33.290  30.737  1.00  0.00    -0.014 A 
BRANCH  42  43
ATOM     43  C   UNL A   1      37.548  32.638  31.410  1.00  0.00     0.031 A 
ATOM     44  C   UNL A   1      38.227  31.453  30.786  1.00  0.00     0.074 A 
ATOM     45  C   UNL A   1      37.934  33.072  32.625  1.00  0.00     0.049 A 
ATOM     46  N   UNL A   1      39.204  30.717  31.254  1.00  0.00    -0.248 NA
ATOM     47  C   UNL A   1      37.725  31.021  29.474  1.00  0.00     0.031 C 
ATOM     48  C   UNL A   1      37.315  34.177  33.360  1.00  0.00     0.029 A 
ATOM     49  N   UNL A   1      38.925  32.627  33.463  1.00  0.00    -0.354 N 
ATOM     50  C   UNL A   1      39.430  29.738  30.297  1.00  0.00     0.074 A 
ATOM     51  C   UNL A   1      38.447  29.934  29.254  1.00  0.00     0.031 C 
ATOM     52  C   UNL A   1      37.949  34.333  34.532  1.00  0.00     0.029 A 
ATOM     53  C   UNL A   1      38.987  33.314  34.651  1.00  0.00     0.049 A 
ATOM     54  H   UNL A   1      39.534  31.888  33.235  1.00  0.00     0.167 HD
ATOM     55  C   UNL A   1      40.388  28.779  30.279  1.00  0.00     0.037 A 
ATOM     56  C   UNL A   1      39.777  33.132  35.727  1.00  0.00     0.037 A 
ATOM     57  C   UNL A   1      41.360  28.587  31.324  1.00  0.00     0.049 A 
ATOM     58  C   UNL A   1      40.812  32.040  35.700  1.00  0.00     0.074 A 
ATOM     59  C   UNL A   1      42.404  27.679  31.377  1.00  0.00     0.029 A 
ATOM     60  N   UNL A   1      41.397  29.305  32.512  1.00  0.00    -0.354 N 
ATOM     61  N   UNL A   1      41.073  31.171  34.755  1.00  0.00    -0.248 NA
ATOM     62  C   UNL A   1      41.666  31.909  36.888  1.00  0.00     0.031 C 
ATOM     63  C   UNL A   1      43.032  27.806  32.621  1.00  0.00     0.029 A 
ATOM     64  C   UNL A   1      42.423  28.836  33.320  1.00  0.00     0.049 A 
ATOM     65  H   UNL A   1      40.785  30.040  32.747  1.00  0.00     0.167 HD
ATOM     66  C   UNL A   1      42.126  30.399  35.224  1.00  0.00     0.074 A 
ATOM     67  C   UNL A   1      42.473  30.919  36.531  1.00  0.00     0.031 C 
ATOM     68  C   UNL A   1      42.748  29.352  34.626  1.00  0.00     0.037 A 
BRANCH  55  69
ATOM     69  C   UNL A   1      40.419  27.859  29.089  1.00  0.00     0.064 A 
ATOM     70  C   UNL A   1      41.194  28.149  27.954  1.00  0.00     0.173 A 
ATOM     71  C   UNL A   1      39.675  26.671  29.085  1.00  0.00     0.173 A 
ATOM     72  F   UNL A   1      41.920  29.276  27.901  1.00  0.00    -0.203 F 
ATOM     73  C   UNL A   1      41.184  27.307  26.844  1.00  0.00     0.198 A 
ATOM     74  C   UNL A   1      39.696  25.813  27.988  1.00  0.00     0.198 A 
ATOM     75  F   UNL A   1      38.924  26.338  30.146  1.00  0.00    -0.203 F 
ATOM     76  F   UNL A   1      41.878  27.641  25.747  1.00  0.00    -0.200 F 
ATOM     77  C   UNL A   1      40.440  26.138  26.864  1.00  0.00     0.200 A 
ATOM     78  F   UNL A   1      38.990  24.674  28.015  1.00  0.00    -0.200 F 
ATOM     79  F   UNL A   1      40.431  25.330  25.795  1.00  0.00    -0.200 F 
ENDBRANCH  55  69
BRANCH  56  80
ATOM     80  C   UNL A   1      39.612  34.011  36.913  1.00  0.00     0.064 A 
ATOM     81  C   UNL A   1      38.830  33.614  38.006  1.00  0.00     0.173 A 
ATOM     82  C   UNL A   1      40.258  35.254  36.990  1.00  0.00     0.173 A 
ATOM     83  F   UNL A   1      38.177  32.444  37.971  1.00  0.00    -0.203 F 
ATOM     84  C   UNL A   1      38.691  34.432  39.126  1.00  0.00     0.198 A 
ATOM     85  C   UNL A   1      40.145  36.056  38.123  1.00  0.00     0.198 A 
ATOM     86  F   UNL A   1      41.024  35.677  35.973  1.00  0.00    -0.203 F 
ATOM     87  F   UNL A   1      37.909  34.044  40.142  1.00  0.00    -0.200 F 
ATOM     88  C   UNL A   1      39.356  35.648  39.188  1.00  0.00     0.200 A 
ATOM     89  F   UNL A   1      40.804  37.221  38.186  1.00  0.00    -0.200 F 
ATOM     90  F   UNL A   1      39.236  36.426  40.272  1.00  0.00    -0.200 F 
ENDBRANCH  56  80
BRANCH  68  91
ATOM     91  C   UNL A   1      43.876  28.702  35.377  1.00  0.00     0.064 A 
ATOM     92  C   UNL A   1      45.206  29.120  35.214  1.00  0.00     0.173 A 
ATOM     93  C   UNL A   1      43.620  27.676  36.300  1.00  0.00     0.173 A 
ATOM     94  F   UNL A   1      45.508  30.085  34.332  1.00  0.00    -0.203 F 
ATOM     95  C   UNL A   1      46.239  28.518  35.929  1.00  0.00     0.198 A 
ATOM     96  C   UNL A   1      44.651  27.100  37.038  1.00  0.00     0.198 A 
ATOM     97  F   UNL A   1      42.367  27.242  36.499  1.00  0.00    -0.203 F 
ATOM     98  F   UNL A   1      47.506  28.900  35.720  1.00  0.00    -0.200 F 
ATOM     99  C   UNL A   1      45.960  27.516  36.846  1.00  0.00     0.200 A 
ATOM    100  F   UNL A   1      44.377  26.143  37.935  1.00  0.00    -0.200 F 
ATOM    101  F   UNL A   1      46.954  26.946  37.541  1.00  0.00    -0.200 F 
ENDBRANCH  68  91
ENDBRANCH  42  43
ENDBRANCH  34  37
ENDBRANCH  32  33
ENDBRANCH  31  32
ENDBRANCH  30  31
ENDBRANCH  29  30
ENDBRANCH   1  29
TORSDOF 17
ENDMDL
