MODEL 1
REMARK VINA RESULT:     -13.0      0.000      0.000
REMARK SMILES COc1cccc(N2C(=O)/C(=C/c3ccccc3C(=O)NCCCCCCNC(=O)c3ccc(-c4c5nc(c(-c6c(F)c(F)c(F)c(F)c6F)c6ccc([nH]6)c(-c6c(F)c(F)c(F)c(F)c6F)c6nc(c(-c7c(F)c(F)c(F)c(F)c7F)c7ccc4[nH]7)C=C6)C=C5)cc3)SC2=S)c1
REMARK SMILES IDX 24 1 23 2 22 3 21 4 19 5 20 6 18 8 13 9 14 10 15 11 17 12
REMARK SMILES IDX 16 13 12 14 8 15 9 16 95 17 10 18 11 19 94 20 96 21 7 22
REMARK SMILES IDX 3 23 4 24 97 25 5 26 6 27 2 28 1 29 25 30 26 31 27 32 28 33
REMARK SMILES IDX 29 34 30 36 31 37 32 38 93 39 33 40 92 41 34 42 35 43 36 44
REMARK SMILES IDX 86 45 37 46 91 47 85 48 87 49 38 50 90 51 84 52 83 53 39 55
REMARK SMILES IDX 71 56 51 57 70 58 52 59 55 60 69 61 88 62 53 63 54 64 68 66
REMARK SMILES IDX 89 67 56 68 40 69 41 70 49 71 42 72 43 73 47 74 50 75 44 76
REMARK SMILES IDX 45 77 48 78 46 79 72 80 73 81 81 82 74 83 75 84 79 85 82 86
REMARK SMILES IDX 76 87 77 88 80 89 78 90 57 91 58 92 66 93 59 94 60 95 64 96
REMARK SMILES IDX 67 97 61 98 62 99 65 100 63 101
REMARK H PARENT 21 7 28 35 87 54 55 65
REMARK Flexibility Score: inf
ROOT
ATOM      1  C   UNL A   1      30.008  29.690  23.527  1.00  0.00     0.002 C 
ENDROOT
BRANCH   1   2
ATOM      2  C   UNL A   1      30.550  28.864  22.351  1.00  0.00     0.021 C 
BRANCH   2   3
ATOM      3  C   UNL A   1      30.596  27.351  22.544  1.00  0.00     0.116 C 
BRANCH   3   4
ATOM      4  N   UNL A   1      31.749  26.712  21.948  1.00  0.00    -0.352 N 
ATOM      5  C   UNL A   1      33.008  26.543  22.471  1.00  0.00     0.251 C 
ATOM      6  O   UNL A   1      33.877  26.017  21.780  1.00  0.00    -0.269 OA
ATOM      7  H   UNL A   1      31.613  26.347  21.043  1.00  0.00     0.163 HD
BRANCH   5   8
ATOM      8  C   UNL A   1      33.364  27.060  23.817  1.00  0.00     0.047 A 
ATOM      9  C   UNL A   1      33.205  26.362  25.033  1.00  0.00    -0.012 A 
ATOM     10  C   UNL A   1      33.505  27.038  26.231  1.00  0.00     0.009 A 
ATOM     11  C   UNL A   1      34.011  28.341  26.222  1.00  0.00     0.001 A 
ATOM     12  C   UNL A   1      33.916  28.355  23.818  1.00  0.00     0.014 A 
ATOM     13  C   UNL A   1      34.236  28.992  25.015  1.00  0.00     0.001 A 
BRANCH   9  14
ATOM     14  C   UNL A   1      32.666  24.997  25.179  1.00  0.00     0.030 C 
ATOM     15  N   UNL A   1      33.587  21.526  25.058  1.00  0.00    -0.261 N 
ATOM     16  C   UNL A   1      32.643  22.534  25.232  1.00  0.00     0.270 C 
ATOM     17  C   UNL A   1      34.915  21.891  25.228  1.00  0.00     0.152 C 
ATOM     18  O   UNL A   1      31.421  22.436  25.186  1.00  0.00    -0.268 OA
ATOM     19  C   UNL A   1      33.335  23.849  25.363  1.00  0.00     0.081 C 
ATOM     20  S   UNL A   1      35.013  23.615  25.585  1.00  0.00    -0.054 SA
ATOM     21  S   UNL A   1      36.287  20.935  25.218  1.00  0.00    -0.051 S 
BRANCH  15  22
ATOM     22  C   UNL A   1      33.162  20.231  24.636  1.00  0.00     0.054 A 
ATOM     23  C   UNL A   1      32.642  17.909  25.123  1.00  0.00     0.120 A 
ATOM     24  C   UNL A   1      32.196  17.740  23.811  1.00  0.00     0.046 A 
ATOM     25  C   UNL A   1      33.083  19.167  25.547  1.00  0.00     0.073 A 
ATOM     26  C   UNL A   1      32.240  18.798  22.907  1.00  0.00     0.006 A 
ATOM     27  C   UNL A   1      32.744  20.032  23.312  1.00  0.00     0.027 A 
BRANCH  23  28
ATOM     28  O   UNL A   1      32.587  16.778  25.890  1.00  0.00    -0.497 OA
ATOM     29  C   UNL A   1      32.896  15.551  25.240  1.00  0.00     0.278 C 
ENDBRANCH  23  28
ENDBRANCH  15  22
ENDBRANCH   9  14
ENDBRANCH   5   8
ENDBRANCH   3   4
ENDBRANCH   2   3
ENDBRANCH   1   2
BRANCH   1  30
ATOM     30  C   UNL A   1      30.916  29.837  24.752  1.00  0.00     0.002 C 
BRANCH  30  31
ATOM     31  C   UNL A   1      30.812  31.156  25.517  1.00  0.00     0.021 C 
BRANCH  31  32
ATOM     32  C   UNL A   1      31.912  31.420  26.535  1.00  0.00     0.116 C 
BRANCH  32  33
ATOM     33  N   UNL A   1      32.038  32.826  26.885  1.00  0.00    -0.352 N 
ATOM     34  C   UNL A   1      32.898  33.481  27.734  1.00  0.00     0.251 C 
ATOM     35  H   UNL A   1      31.391  33.414  26.433  1.00  0.00     0.163 HD
ATOM     36  O   UNL A   1      32.695  34.669  27.980  1.00  0.00    -0.269 OA
BRANCH  34  37
ATOM     37  C   UNL A   1      34.054  32.798  28.371  1.00  0.00     0.039 A 
ATOM     38  C   UNL A   1      35.108  33.581  28.861  1.00  0.00     0.014 A 
ATOM     39  C   UNL A   1      34.156  31.408  28.440  1.00  0.00     0.014 A 
ATOM     40  C   UNL A   1      36.217  32.977  29.468  1.00  0.00     0.010 A 
ATOM     41  C   UNL A   1      35.209  30.812  29.134  1.00  0.00     0.010 A 
ATOM     42  C   UNL A   1      36.261  31.587  29.645  1.00  0.00    -0.014 A 
BRANCH  42  43
ATOM     43  C   UNL A   1      37.399  30.911  30.329  1.00  0.00     0.031 A 
ATOM     44  C   UNL A   1      37.708  31.228  31.770  1.00  0.00     0.074 A 
ATOM     45  C   UNL A   1      38.209  30.085  29.639  1.00  0.00     0.049 A 
ATOM     46  N   UNL A   1      38.742  30.883  32.495  1.00  0.00    -0.248 NA
ATOM     47  C   UNL A   1      36.740  32.080  32.478  1.00  0.00     0.031 C 
ATOM     48  C   UNL A   1      38.053  29.723  28.230  1.00  0.00     0.029 A 
ATOM     49  N   UNL A   1      39.344  29.415  30.030  1.00  0.00    -0.354 N 
ATOM     50  C   UNL A   1      38.572  31.510  33.723  1.00  0.00     0.074 A 
ATOM     51  C   UNL A   1      37.355  32.288  33.633  1.00  0.00     0.031 C 
ATOM     52  C   UNL A   1      39.040  28.882  27.880  1.00  0.00     0.029 A 
ATOM     53  C   UNL A   1      39.924  28.681  29.024  1.00  0.00     0.049 A 
ATOM     54  H   UNL A   1      39.707  29.455  30.944  1.00  0.00     0.167 HD
ATOM     55  C   UNL A   1      39.345  31.430  34.832  1.00  0.00     0.037 A 
ATOM     56  C   UNL A   1      41.049  27.941  29.019  1.00  0.00     0.037 A 
ATOM     57  C   UNL A   1      40.520  30.606  34.942  1.00  0.00     0.049 A 
ATOM     58  C   UNL A   1      41.872  27.835  30.274  1.00  0.00     0.074 A 
ATOM     59  C   UNL A   1      41.332  30.403  36.046  1.00  0.00     0.029 A 
ATOM     60  N   UNL A   1      41.043  29.835  33.915  1.00  0.00    -0.354 N 
ATOM     61  N   UNL A   1      41.678  28.403  31.440  1.00  0.00    -0.248 NA
ATOM     62  C   UNL A   1      43.067  26.982  30.215  1.00  0.00     0.031 C 
ATOM     63  C   UNL A   1      42.361  29.531  35.678  1.00  0.00     0.029 A 
ATOM     64  C   UNL A   1      42.169  29.161  34.357  1.00  0.00     0.049 A 
ATOM     65  H   UNL A   1      40.668  29.776  33.006  1.00  0.00     0.167 HD
ATOM     66  C   UNL A   1      42.705  27.955  32.258  1.00  0.00     0.074 A 
ATOM     67  C   UNL A   1      43.517  27.060  31.460  1.00  0.00     0.031 C 
ATOM     68  C   UNL A   1      42.954  28.259  33.555  1.00  0.00     0.037 A 
BRANCH  55  69
ATOM     69  C   UNL A   1      38.944  32.252  36.022  1.00  0.00     0.064 A 
ATOM     70  C   UNL A   1      38.156  31.718  37.053  1.00  0.00     0.173 A 
ATOM     71  C   UNL A   1      39.383  33.578  36.153  1.00  0.00     0.173 A 
ATOM     72  F   UNL A   1      37.701  30.459  36.972  1.00  0.00    -0.203 F 
ATOM     73  C   UNL A   1      37.795  32.492  38.154  1.00  0.00     0.198 A 
ATOM     74  C   UNL A   1      39.045  34.339  37.269  1.00  0.00     0.198 A 
ATOM     75  F   UNL A   1      40.145  34.135  35.200  1.00  0.00    -0.203 F 
ATOM     76  F   UNL A   1      36.999  31.976  39.101  1.00  0.00    -0.200 F 
ATOM     77  C   UNL A   1      38.245  33.799  38.264  1.00  0.00     0.200 A 
ATOM     78  F   UNL A   1      39.493  35.598  37.381  1.00  0.00    -0.200 F 
ATOM     79  F   UNL A   1      37.903  34.539  39.327  1.00  0.00    -0.200 F 
ENDBRANCH  55  69
BRANCH  56  80
ATOM     80  C   UNL A   1      41.453  27.215  27.786  1.00  0.00     0.064 A 
ATOM     81  C   UNL A   1      42.216  27.851  26.798  1.00  0.00     0.173 A 
ATOM     82  C   UNL A   1      41.089  25.878  27.571  1.00  0.00     0.173 A 
ATOM     83  F   UNL A   1      42.568  29.137  26.951  1.00  0.00    -0.203 F 
ATOM     84  C   UNL A   1      42.587  27.185  25.634  1.00  0.00     0.198 A 
ATOM     85  C   UNL A   1      41.482  25.203  26.416  1.00  0.00     0.198 A 
ATOM     86  F   UNL A   1      40.361  25.222  28.487  1.00  0.00    -0.203 F 
ATOM     87  F   UNL A   1      43.281  27.830  24.687  1.00  0.00    -0.200 F 
ATOM     88  C   UNL A   1      42.224  25.859  25.446  1.00  0.00     0.200 A 
ATOM     89  F   UNL A   1      41.142  23.918  26.245  1.00  0.00    -0.200 F 
ATOM     90  F   UNL A   1      42.585  25.216  24.328  1.00  0.00    -0.200 F 
ENDBRANCH  56  80
BRANCH  68  91
ATOM     91  C   UNL A   1      44.123  27.585  34.209  1.00  0.00     0.064 A 
ATOM     92  C   UNL A   1      44.001  26.328  34.818  1.00  0.00     0.173 A 
ATOM     93  C   UNL A   1      45.391  28.186  34.184  1.00  0.00     0.173 A 
ATOM     94  F   UNL A   1      42.806  25.722  34.882  1.00  0.00    -0.203 F 
ATOM     95  C   UNL A   1      45.104  25.704  35.395  1.00  0.00     0.198 A 
ATOM     96  C   UNL A   1      46.496  27.547  34.739  1.00  0.00     0.198 A 
ATOM     97  F   UNL A   1      45.559  29.385  33.608  1.00  0.00    -0.203 F 
ATOM     98  F   UNL A   1      44.958  24.520  36.005  1.00  0.00    -0.200 F 
ATOM     99  C   UNL A   1      46.351  26.311  35.349  1.00  0.00     0.200 A 
ATOM    100  F   UNL A   1      47.702  28.129  34.684  1.00  0.00    -0.200 F 
ATOM    101  F   UNL A   1      47.413  25.704  35.897  1.00  0.00    -0.200 F 
ENDBRANCH  68  91
ENDBRANCH  42  43
ENDBRANCH  34  37
ENDBRANCH  32  33
ENDBRANCH  31  32
ENDBRANCH  30  31
ENDBRANCH   1  30
TORSDOF 16
ENDMDL
MODEL 2
REMARK VINA RESULT:     -12.7      1.699      7.188
REMARK SMILES COc1cccc(N2C(=O)/C(=C/c3ccccc3C(=O)NCCCCCCNC(=O)c3ccc(-c4c5nc(c(-c6c(F)c(F)c(F)c(F)c6F)c6ccc([nH]6)c(-c6c(F)c(F)c(F)c(F)c6F)c6nc(c(-c7c(F)c(F)c(F)c(F)c7F)c7ccc4[nH]7)C=C6)C=C5)cc3)SC2=S)c1
REMARK SMILES IDX 24 1 23 2 22 3 21 4 19 5 20 6 18 8 13 9 14 10 15 11 17 12
REMARK SMILES IDX 16 13 12 14 8 15 9 16 95 17 10 18 11 19 94 20 96 21 7 22
REMARK SMILES IDX 3 23 4 24 97 25 5 26 6 27 2 28 1 29 25 30 26 31 27 32 28 33
REMARK SMILES IDX 29 34 30 36 31 37 32 38 93 39 33 40 92 41 34 42 35 43 36 44
REMARK SMILES IDX 86 45 37 46 91 47 85 48 87 49 38 50 90 51 84 52 83 53 39 55
REMARK SMILES IDX 71 56 51 57 70 58 52 59 55 60 69 61 88 62 53 63 54 64 68 66
REMARK SMILES IDX 89 67 56 68 40 69 41 70 49 71 42 72 43 73 47 74 50 75 44 76
REMARK SMILES IDX 45 77 48 78 46 79 72 80 73 81 81 82 74 83 75 84 79 85 82 86
REMARK SMILES IDX 76 87 77 88 80 89 78 90 57 91 58 92 66 93 59 94 60 95 64 96
REMARK SMILES IDX 67 97 61 98 62 99 65 100 63 101
REMARK H PARENT 21 7 28 35 87 54 55 65
REMARK Flexibility Score: inf
ROOT
ATOM      1  C   UNL A   1      32.198  29.887  26.568  1.00  0.00     0.002 C 
ENDROOT
BRANCH   1   2
ATOM      2  C   UNL A   1      31.565  28.707  27.318  1.00  0.00     0.021 C 
BRANCH   2   3
ATOM      3  C   UNL A   1      31.800  27.318  26.730  1.00  0.00     0.116 C 
BRANCH   3   4
ATOM      4  N   UNL A   1      30.669  26.783  26.005  1.00  0.00    -0.352 N 
ATOM      5  C   UNL A   1      30.555  26.512  24.662  1.00  0.00     0.251 C 
ATOM      6  O   UNL A   1      29.482  26.106  24.223  1.00  0.00    -0.269 OA
ATOM      7  H   UNL A   1      29.871  26.584  26.547  1.00  0.00     0.163 HD
BRANCH   5   8
ATOM      8  C   UNL A   1      31.671  26.781  23.720  1.00  0.00     0.047 A 
ATOM      9  C   UNL A   1      32.425  25.801  23.040  1.00  0.00    -0.012 A 
ATOM     10  C   UNL A   1      33.513  26.227  22.254  1.00  0.00     0.009 A 
ATOM     11  C   UNL A   1      33.804  27.585  22.094  1.00  0.00     0.001 A 
ATOM     12  C   UNL A   1      31.946  28.145  23.515  1.00  0.00     0.014 A 
ATOM     13  C   UNL A   1      33.009  28.545  22.707  1.00  0.00     0.001 A 
BRANCH   9  14
ATOM     14  C   UNL A   1      32.232  24.342  23.139  1.00  0.00     0.030 C 
ATOM     15  N   UNL A   1      33.125  21.462  25.093  1.00  0.00    -0.261 N 
ATOM     16  C   UNL A   1      32.463  22.053  24.021  1.00  0.00     0.270 C 
ATOM     17  C   UNL A   1      33.475  22.303  26.140  1.00  0.00     0.152 C 
ATOM     18  O   UNL A   1      32.015  21.506  23.020  1.00  0.00    -0.268 OA
ATOM     19  C   UNL A   1      32.474  23.536  24.184  1.00  0.00     0.081 C 
ATOM     20  S   UNL A   1      32.990  23.955  25.759  1.00  0.00    -0.054 SA
ATOM     21  S   UNL A   1      34.158  21.927  27.619  1.00  0.00    -0.051 S 
BRANCH  15  22
ATOM     22  C   UNL A   1      33.485  20.083  25.022  1.00  0.00     0.054 A 
ATOM     23  C   UNL A   1      32.898  17.731  25.168  1.00  0.00     0.120 A 
ATOM     24  C   UNL A   1      34.183  17.389  24.742  1.00  0.00     0.046 A 
ATOM     25  C   UNL A   1      32.536  19.078  25.265  1.00  0.00     0.073 A 
ATOM     26  C   UNL A   1      35.123  18.379  24.467  1.00  0.00     0.006 A 
ATOM     27  C   UNL A   1      34.782  19.720  24.630  1.00  0.00     0.027 A 
BRANCH  23  28
ATOM     28  O   UNL A   1      32.091  16.662  25.448  1.00  0.00    -0.497 OA
ATOM     29  C   UNL A   1      32.706  15.379  25.442  1.00  0.00     0.278 C 
ENDBRANCH  23  28
ENDBRANCH  15  22
ENDBRANCH   9  14
ENDBRANCH   5   8
ENDBRANCH   3   4
ENDBRANCH   2   3
ENDBRANCH   1   2
BRANCH   1  30
ATOM     30  C   UNL A   1      31.244  30.861  25.870  1.00  0.00     0.002 C 
BRANCH  30  31
ATOM     31  C   UNL A   1      31.145  32.262  26.475  1.00  0.00     0.021 C 
BRANCH  31  32
ATOM     32  C   UNL A   1      32.386  32.761  27.199  1.00  0.00     0.116 C 
BRANCH  32  33
ATOM     33  N   UNL A   1      32.278  34.148  27.625  1.00  0.00    -0.352 N 
ATOM     34  C   UNL A   1      32.976  34.871  28.563  1.00  0.00     0.251 C 
ATOM     35  H   UNL A   1      31.579  34.659  27.160  1.00  0.00     0.163 HD
ATOM     36  O   UNL A   1      32.582  35.999  28.852  1.00  0.00    -0.269 OA
BRANCH  34  37
ATOM     37  C   UNL A   1      34.181  34.329  29.243  1.00  0.00     0.039 A 
ATOM     38  C   UNL A   1      34.009  33.575  30.411  1.00  0.00     0.014 A 
ATOM     39  C   UNL A   1      35.476  34.600  28.798  1.00  0.00     0.014 A 
ATOM     40  C   UNL A   1      35.118  33.048  31.085  1.00  0.00     0.010 A 
ATOM     41  C   UNL A   1      36.573  33.991  29.409  1.00  0.00     0.010 A 
ATOM     42  C   UNL A   1      36.411  33.218  30.568  1.00  0.00    -0.014 A 
BRANCH  42  43
ATOM     43  C   UNL A   1      37.611  32.632  31.227  1.00  0.00     0.031 A 
ATOM     44  C   UNL A   1      38.374  31.520  30.553  1.00  0.00     0.074 A 
ATOM     45  C   UNL A   1      37.966  33.030  32.465  1.00  0.00     0.049 A 
ATOM     46  N   UNL A   1      39.335  30.765  31.024  1.00  0.00    -0.248 NA
ATOM     47  C   UNL A   1      37.975  31.189  29.176  1.00  0.00     0.031 C 
ATOM     48  C   UNL A   1      37.293  34.065  33.250  1.00  0.00     0.029 A 
ATOM     49  N   UNL A   1      38.975  32.591  33.289  1.00  0.00    -0.354 N 
ATOM     50  C   UNL A   1      39.620  29.846  30.023  1.00  0.00     0.074 A 
ATOM     51  C   UNL A   1      38.706  30.112  28.933  1.00  0.00     0.031 C 
ATOM     52  C   UNL A   1      37.918  34.196  34.431  1.00  0.00     0.029 A 
ATOM     53  C   UNL A   1      39.006  33.226  34.507  1.00  0.00     0.049 A 
ATOM     54  H   UNL A   1      39.615  31.889  33.031  1.00  0.00     0.167 HD
ATOM     55  C   UNL A   1      40.570  28.881  30.001  1.00  0.00     0.037 A 
ATOM     56  C   UNL A   1      39.810  33.037  35.571  1.00  0.00     0.037 A 
ATOM     57  C   UNL A   1      41.522  28.658  31.058  1.00  0.00     0.049 A 
ATOM     58  C   UNL A   1      40.885  31.986  35.509  1.00  0.00     0.074 A 
ATOM     59  C   UNL A   1      42.568  27.751  31.101  1.00  0.00     0.029 A 
ATOM     60  N   UNL A   1      41.553  29.360  32.253  1.00  0.00    -0.354 N 
ATOM     61  N   UNL A   1      41.168  31.149  34.541  1.00  0.00    -0.248 NA
ATOM     62  C   UNL A   1      41.754  31.855  36.688  1.00  0.00     0.031 C 
ATOM     63  C   UNL A   1      43.214  27.886  32.334  1.00  0.00     0.029 A 
ATOM     64  C   UNL A   1      42.595  28.902  33.043  1.00  0.00     0.049 A 
ATOM     65  H   UNL A   1      40.927  30.077  32.503  1.00  0.00     0.167 HD
ATOM     66  C   UNL A   1      42.263  30.416  34.978  1.00  0.00     0.074 A 
ATOM     67  C   UNL A   1      42.599  30.911  36.297  1.00  0.00     0.031 C 
ATOM     68  C   UNL A   1      42.928  29.420  34.345  1.00  0.00     0.037 A 
BRANCH  55  69
ATOM     69  C   UNL A   1      40.636  27.992  28.793  1.00  0.00     0.064 A 
ATOM     70  C   UNL A   1      39.900  26.800  28.715  1.00  0.00     0.173 A 
ATOM     71  C   UNL A   1      41.415  28.355  27.684  1.00  0.00     0.173 A 
ATOM     72  F   UNL A   1      39.148  26.402  29.752  1.00  0.00    -0.203 F 
ATOM     73  C   UNL A   1      39.969  25.988  27.585  1.00  0.00     0.198 A 
ATOM     74  C   UNL A   1      41.457  27.557  26.544  1.00  0.00     0.198 A 
ATOM     75  F   UNL A   1      42.132  29.489  27.703  1.00  0.00    -0.203 F 
ATOM     76  F   UNL A   1      39.297  24.829  27.554  1.00  0.00    -0.200 F 
ATOM     77  C   UNL A   1      40.741  26.370  26.499  1.00  0.00     0.200 A 
ATOM     78  F   UNL A   1      42.193  27.934  25.490  1.00  0.00    -0.200 F 
ATOM     79  F   UNL A   1      40.800  25.592  25.410  1.00  0.00    -0.200 F 
ENDBRANCH  55  69
BRANCH  56  80
ATOM     80  C   UNL A   1      39.649  33.885  36.781  1.00  0.00     0.064 A 
ATOM     81  C   UNL A   1      40.273  35.136  36.867  1.00  0.00     0.173 A 
ATOM     82  C   UNL A   1      38.871  33.467  37.869  1.00  0.00     0.173 A 
ATOM     83  F   UNL A   1      41.046  35.568  35.858  1.00  0.00    -0.203 F 
ATOM     84  C   UNL A   1      40.140  35.932  38.001  1.00  0.00     0.198 A 
ATOM     85  C   UNL A   1      38.717  34.274  38.996  1.00  0.00     0.198 A 
ATOM     86  F   UNL A   1      38.250  32.278  37.836  1.00  0.00    -0.203 F 
ATOM     87  F   UNL A   1      40.781  37.106  38.074  1.00  0.00    -0.200 F 
ATOM     88  C   UNL A   1      39.357  35.502  39.063  1.00  0.00     0.200 A 
ATOM     89  F   UNL A   1      37.948  33.862  40.013  1.00  0.00    -0.200 F 
ATOM     90  F   UNL A   1      39.224  36.270  40.153  1.00  0.00    -0.200 F 
ENDBRANCH  56  80
BRANCH  68  91
ATOM     91  C   UNL A   1      44.116  28.830  35.044  1.00  0.00     0.064 A 
ATOM     92  C   UNL A   1      43.993  27.717  35.889  1.00  0.00     0.173 A 
ATOM     93  C   UNL A   1      45.398  29.357  34.828  1.00  0.00     0.173 A 
ATOM     94  F   UNL A   1      42.786  27.188  36.138  1.00  0.00    -0.203 F 
ATOM     95  C   UNL A   1      45.112  27.164  36.507  1.00  0.00     0.198 A 
ATOM     96  C   UNL A   1      46.517  28.785  35.428  1.00  0.00     0.198 A 
ATOM     97  F   UNL A   1      45.567  30.417  34.025  1.00  0.00    -0.203 F 
ATOM     98  F   UNL A   1      44.968  26.123  37.339  1.00  0.00    -0.200 F 
ATOM     99  C   UNL A   1      46.372  27.694  36.270  1.00  0.00     0.200 A 
ATOM    100  F   UNL A   1      47.735  29.291  35.190  1.00  0.00    -0.200 F 
ATOM    101  F   UNL A   1      47.448  27.154  36.860  1.00  0.00    -0.200 F 
ENDBRANCH  68  91
ENDBRANCH  42  43
ENDBRANCH  34  37
ENDBRANCH  32  33
ENDBRANCH  31  32
ENDBRANCH  30  31
ENDBRANCH   1  30
TORSDOF 16
ENDMDL
MODEL 3
REMARK VINA RESULT:     -12.6      4.886      9.459
REMARK SMILES COc1cccc(N2C(=O)/C(=C/c3ccccc3C(=O)NCCCCCCNC(=O)c3ccc(-c4c5nc(c(-c6c(F)c(F)c(F)c(F)c6F)c6ccc([nH]6)c(-c6c(F)c(F)c(F)c(F)c6F)c6nc(c(-c7c(F)c(F)c(F)c(F)c7F)c7ccc4[nH]7)C=C6)C=C5)cc3)SC2=S)c1
REMARK SMILES IDX 24 1 23 2 22 3 21 4 19 5 20 6 18 8 13 9 14 10 15 11 17 12
REMARK SMILES IDX 16 13 12 14 8 15 9 16 95 17 10 18 11 19 94 20 96 21 7 22
REMARK SMILES IDX 3 23 4 24 97 25 5 26 6 27 2 28 1 29 25 30 26 31 27 32 28 33
REMARK SMILES IDX 29 34 30 36 31 37 32 38 93 39 33 40 92 41 34 42 35 43 36 44
REMARK SMILES IDX 86 45 37 46 91 47 85 48 87 49 38 50 90 51 84 52 83 53 39 55
REMARK SMILES IDX 71 56 51 57 70 58 52 59 55 60 69 61 88 62 53 63 54 64 68 66
REMARK SMILES IDX 89 67 56 68 40 69 41 70 49 71 42 72 43 73 47 74 50 75 44 76
REMARK SMILES IDX 45 77 48 78 46 79 72 80 73 81 81 82 74 83 75 84 79 85 82 86
REMARK SMILES IDX 76 87 77 88 80 89 78 90 57 91 58 92 66 93 59 94 60 95 64 96
REMARK SMILES IDX 67 97 61 98 62 99 65 100 63 101
REMARK H PARENT 21 7 28 35 87 54 55 65
REMARK Flexibility Score: inf
ROOT
ATOM      1  C   UNL A   1      36.850  21.890  24.852  1.00  0.00     0.002 C 
ENDROOT
BRANCH   1   2
ATOM      2  C   UNL A   1      36.515  22.541  23.502  1.00  0.00     0.021 C 
BRANCH   2   3
ATOM      3  C   UNL A   1      35.273  23.427  23.461  1.00  0.00     0.116 C 
BRANCH   3   4
ATOM      4  N   UNL A   1      34.123  22.808  22.838  1.00  0.00    -0.352 N 
ATOM      5  C   UNL A   1      32.944  22.403  23.415  1.00  0.00     0.251 C 
ATOM      6  O   UNL A   1      32.101  21.842  22.720  1.00  0.00    -0.269 OA
ATOM      7  H   UNL A   1      34.195  22.658  21.868  1.00  0.00     0.163 HD
BRANCH   5   8
ATOM      8  C   UNL A   1      32.704  22.548  24.874  1.00  0.00     0.047 A 
ATOM      9  C   UNL A   1      31.839  23.487  25.474  1.00  0.00    -0.012 A 
ATOM     10  C   UNL A   1      31.802  23.552  26.880  1.00  0.00     0.009 A 
ATOM     11  C   UNL A   1      32.547  22.670  27.667  1.00  0.00     0.001 A 
ATOM     12  C   UNL A   1      33.415  21.636  25.676  1.00  0.00     0.014 A 
ATOM     13  C   UNL A   1      33.339  21.699  27.066  1.00  0.00     0.001 A 
BRANCH   9  14
ATOM     14  C   UNL A   1      31.017  24.481  24.759  1.00  0.00     0.030 C 
ATOM     15  N   UNL A   1      31.084  27.804  23.394  1.00  0.00    -0.261 N 
ATOM     16  C   UNL A   1      30.427  26.607  23.662  1.00  0.00     0.270 C 
ATOM     17  C   UNL A   1      32.472  27.760  23.401  1.00  0.00     0.152 C 
ATOM     18  O   UNL A   1      29.219  26.394  23.656  1.00  0.00    -0.268 OA
ATOM     19  C   UNL A   1      31.416  25.583  24.106  1.00  0.00     0.081 C 
ATOM     20  S   UNL A   1      33.008  26.132  23.813  1.00  0.00    -0.054 SA
ATOM     21  S   UNL A   1      33.572  28.955  23.009  1.00  0.00    -0.051 S 
BRANCH  15  22
ATOM     22  C   UNL A   1      30.324  28.999  23.222  1.00  0.00     0.054 A 
ATOM     23  C   UNL A   1      28.788  30.366  21.930  1.00  0.00     0.120 A 
ATOM     24  C   UNL A   1      28.738  31.290  22.976  1.00  0.00     0.046 A 
ATOM     25  C   UNL A   1      29.547  29.200  22.072  1.00  0.00     0.073 A 
ATOM     26  C   UNL A   1      29.481  31.085  24.136  1.00  0.00     0.006 A 
ATOM     27  C   UNL A   1      30.290  29.956  24.248  1.00  0.00     0.027 A 
BRANCH  23  28
ATOM     28  O   UNL A   1      28.049  30.713  20.832  1.00  0.00    -0.497 OA
ATOM     29  C   UNL A   1      28.027  32.093  20.488  1.00  0.00     0.278 C 
ENDBRANCH  23  28
ENDBRANCH  15  22
ENDBRANCH   9  14
ENDBRANCH   5   8
ENDBRANCH   3   4
ENDBRANCH   2   3
ENDBRANCH   1   2
BRANCH   1  30
ATOM     30  C   UNL A   1      36.663  20.374  24.960  1.00  0.00     0.002 C 
BRANCH  30  31
ATOM     31  C   UNL A   1      37.938  19.531  24.954  1.00  0.00     0.021 C 
BRANCH  31  32
ATOM     32  C   UNL A   1      39.056  20.014  25.866  1.00  0.00     0.116 C 
BRANCH  32  33
ATOM     33  N   UNL A   1      40.192  19.105  25.906  1.00  0.00    -0.352 N 
ATOM     34  C   UNL A   1      41.537  19.334  26.065  1.00  0.00     0.251 C 
ATOM     35  H   UNL A   1      39.953  18.157  25.798  1.00  0.00     0.163 HD
ATOM     36  O   UNL A   1      42.319  18.399  25.901  1.00  0.00    -0.269 OA
BRANCH  34  37
ATOM     37  C   UNL A   1      42.077  20.673  26.415  1.00  0.00     0.039 A 
ATOM     38  C   UNL A   1      42.466  21.532  25.378  1.00  0.00     0.014 A 
ATOM     39  C   UNL A   1      42.270  21.079  27.736  1.00  0.00     0.014 A 
ATOM     40  C   UNL A   1      42.981  22.802  25.665  1.00  0.00     0.010 A 
ATOM     41  C   UNL A   1      42.686  22.380  28.020  1.00  0.00     0.010 A 
ATOM     42  C   UNL A   1      43.060  23.255  26.990  1.00  0.00    -0.014 A 
BRANCH  42  43
ATOM     43  C   UNL A   1      43.556  24.617  27.334  1.00  0.00     0.031 A 
ATOM     44  C   UNL A   1      42.607  25.645  27.895  1.00  0.00     0.074 A 
ATOM     45  C   UNL A   1      44.828  24.963  27.061  1.00  0.00     0.049 A 
ATOM     46  N   UNL A   1      42.792  26.924  28.102  1.00  0.00    -0.248 NA
ATOM     47  C   UNL A   1      41.254  25.175  28.235  1.00  0.00     0.031 C 
ATOM     48  C   UNL A   1      45.842  24.083  26.479  1.00  0.00     0.029 A 
ATOM     49  N   UNL A   1      45.482  26.162  27.219  1.00  0.00    -0.354 N 
ATOM     50  C   UNL A   1      41.573  27.418  28.549  1.00  0.00     0.074 A 
ATOM     51  C   UNL A   1      40.644  26.309  28.548  1.00  0.00     0.031 C 
ATOM     52  C   UNL A   1      46.993  24.763  26.349  1.00  0.00     0.029 A 
ATOM     53  C   UNL A   1      46.788  26.138  26.794  1.00  0.00     0.049 A 
ATOM     54  H   UNL A   1      45.055  26.962  27.602  1.00  0.00     0.167 HD
ATOM     55  C   UNL A   1      41.259  28.675  28.945  1.00  0.00     0.037 A 
ATOM     56  C   UNL A   1      47.712  27.117  26.753  1.00  0.00     0.037 A 
ATOM     57  C   UNL A   1      42.200  29.763  29.008  1.00  0.00     0.049 A 
ATOM     58  C   UNL A   1      47.352  28.496  27.236  1.00  0.00     0.074 A 
ATOM     59  C   UNL A   1      41.996  31.055  29.462  1.00  0.00     0.029 A 
ATOM     60  N   UNL A   1      43.528  29.681  28.618  1.00  0.00    -0.354 N 
ATOM     61  N   UNL A   1      46.206  28.939  27.691  1.00  0.00    -0.248 NA
ATOM     62  C   UNL A   1      48.416  29.510  27.201  1.00  0.00     0.031 C 
ATOM     63  C   UNL A   1      43.194  31.763  29.320  1.00  0.00     0.029 A 
ATOM     64  C   UNL A   1      44.153  30.901  28.815  1.00  0.00     0.049 A 
ATOM     65  H   UNL A   1      43.962  28.875  28.256  1.00  0.00     0.167 HD
ATOM     66  C   UNL A   1      46.417  30.269  28.025  1.00  0.00     0.074 A 
ATOM     67  C   UNL A   1      47.803  30.562  27.728  1.00  0.00     0.031 C 
ATOM     68  C   UNL A   1      45.539  31.169  28.532  1.00  0.00     0.037 A 
BRANCH  55  69
ATOM     69  C   UNL A   1      39.839  28.944  29.350  1.00  0.00     0.064 A 
ATOM     70  C   UNL A   1      38.884  29.398  28.427  1.00  0.00     0.173 A 
ATOM     71  C   UNL A   1      39.418  28.712  30.668  1.00  0.00     0.173 A 
ATOM     72  F   UNL A   1      39.237  29.645  27.157  1.00  0.00    -0.203 F 
ATOM     73  C   UNL A   1      37.569  29.640  28.817  1.00  0.00     0.198 A 
ATOM     74  C   UNL A   1      38.095  28.926  31.047  1.00  0.00     0.198 A 
ATOM     75  F   UNL A   1      40.289  28.271  31.588  1.00  0.00    -0.203 F 
ATOM     76  F   UNL A   1      36.687  30.121  27.931  1.00  0.00    -0.200 F 
ATOM     77  C   UNL A   1      37.175  29.397  30.124  1.00  0.00     0.200 A 
ATOM     78  F   UNL A   1      37.713  28.678  32.307  1.00  0.00    -0.200 F 
ATOM     79  F   UNL A   1      35.907  29.624  30.496  1.00  0.00    -0.200 F 
ENDBRANCH  55  69
BRANCH  56  80
ATOM     80  C   UNL A   1      49.083  26.821  26.261  1.00  0.00     0.064 A 
ATOM     81  C   UNL A   1      49.416  27.014  24.914  1.00  0.00     0.173 A 
ATOM     82  C   UNL A   1      50.083  26.343  27.120  1.00  0.00     0.173 A 
ATOM     83  F   UNL A   1      48.486  27.449  24.050  1.00  0.00    -0.203 F 
ATOM     84  C   UNL A   1      50.693  26.726  24.439  1.00  0.00     0.198 A 
ATOM     85  C   UNL A   1      51.369  26.079  26.649  1.00  0.00     0.198 A 
ATOM     86  F   UNL A   1      49.816  26.144  28.419  1.00  0.00    -0.203 F 
ATOM     87  F   UNL A   1      50.973  26.882  23.138  1.00  0.00    -0.200 F 
ATOM     88  C   UNL A   1      51.670  26.264  25.308  1.00  0.00     0.200 A 
ATOM     89  F   UNL A   1      52.313  25.647  27.495  1.00  0.00    -0.200 F 
ATOM     90  F   UNL A   1      52.901  25.993  24.854  1.00  0.00    -0.200 F 
ENDBRANCH  56  80
BRANCH  68  91
ATOM     91  C   UNL A   1      46.060  32.541  28.842  1.00  0.00     0.064 A 
ATOM     92  C   UNL A   1      46.635  32.845  30.084  1.00  0.00     0.173 A 
ATOM     93  C   UNL A   1      46.023  33.548  27.867  1.00  0.00     0.173 A 
ATOM     94  F   UNL A   1      46.678  31.920  31.054  1.00  0.00    -0.203 F 
ATOM     95  C   UNL A   1      47.140  34.117  30.344  1.00  0.00     0.198 A 
ATOM     96  C   UNL A   1      46.552  34.811  28.122  1.00  0.00     0.198 A 
ATOM     97  F   UNL A   1      45.488  33.304  26.662  1.00  0.00    -0.203 F 
ATOM     98  F   UNL A   1      47.653  34.398  31.550  1.00  0.00    -0.200 F 
ATOM     99  C   UNL A   1      47.104  35.095  29.361  1.00  0.00     0.200 A 
ATOM    100  F   UNL A   1      46.527  35.752  27.168  1.00  0.00    -0.200 F 
ATOM    101  F   UNL A   1      47.599  36.316  29.611  1.00  0.00    -0.200 F 
ENDBRANCH  68  91
ENDBRANCH  42  43
ENDBRANCH  34  37
ENDBRANCH  32  33
ENDBRANCH  31  32
ENDBRANCH  30  31
ENDBRANCH   1  30
TORSDOF 16
ENDMDL
