MODEL 1
REMARK VINA RESULT:     -14.0      0.000      0.000
REMARK SMILES Cc1ccc(C(=O)NC2CC2)cc1NC(=O)[C@@H]1[C@@H](C(=O)NCCCCCCNC(=O)c2ccc(-c3c4nc(c(-c5c(F)c(F)c(F)c(F)c5F)c5ccc([nH]5)c(-c5c(F)c(F)c(F)c(F)c5F)c5nc(c(-c6c(F)c(F)c(F)c(F)c6F)c6ccc3[nH]6)C=C5)C=C4)cc2)[C@H]2C=C[C@@H]1C2
REMARK SMILES IDX 23 1 22 2 21 3 19 4 20 5 18 7 17 8 97 9 94 10 96 11 98 12
REMARK SMILES IDX 95 13 15 14 14 15 16 17 13 18 1 19 2 20 3 21 4 22 12 23 5 24
REMARK SMILES IDX 6 25 7 26 8 27 9 29 10 30 11 31 24 32 25 33 26 34 27 35
REMARK SMILES IDX 28 36 29 37 30 39 31 40 32 41 93 42 33 43 92 44 34 45 35 46
REMARK SMILES IDX 36 47 86 48 37 49 91 50 85 51 87 52 38 53 90 54 84 55 83 56
REMARK SMILES IDX 39 58 71 59 51 60 70 61 52 62 55 63 69 64 88 65 53 66 54 67
REMARK SMILES IDX 68 69 89 70 56 71 40 72 41 73 49 74 42 75 43 76 47 77 50 78
REMARK SMILES IDX 44 79 45 80 48 81 46 82 72 83 73 84 81 85 74 86 75 87 79 88
REMARK SMILES IDX 82 89 76 90 77 91 80 92 78 93 57 94 58 95 66 96 59 97 60 98
REMARK SMILES IDX 64 99 67 100 61 101 62 102 65 103 63 104
REMARK H PARENT 21 6 14 16 8 28 28 38 87 57 55 68
REMARK Flexibility Score: inf
ROOT
ATOM      1  C   UNL A   1      31.478  29.845  25.022  1.00  0.00     0.021 C 
ENDROOT
BRANCH   1   2
ATOM      2  C   UNL A   1      32.348  28.977  24.113  1.00  0.00     0.116 C 
BRANCH   2   3
ATOM      3  N   UNL A   1      33.204  28.076  24.845  1.00  0.00    -0.356 N 
ATOM      4  C   UNL A   1      33.069  26.768  25.168  1.00  0.00     0.224 C 
ATOM      5  O   UNL A   1      34.008  26.281  25.808  1.00  0.00    -0.275 OA
ATOM      6  H   UNL A   1      34.038  28.487  25.169  1.00  0.00     0.163 HD
BRANCH   4   7
ATOM      7  C   UNL A   1      31.814  25.936  24.897  1.00  0.00     0.098 C 
ATOM      8  C   UNL A   1      32.204  24.401  24.972  1.00  0.00     0.099 C 
ATOM      9  C   UNL A   1      31.507  23.799  23.725  1.00  0.00     0.025 C 
ATOM     10  C   UNL A   1      31.096  25.992  23.530  1.00  0.00     0.025 C 
ATOM     11  C   UNL A   1      32.250  24.293  22.502  1.00  0.00    -0.027 C 
ATOM     12  C   UNL A   1      30.276  24.693  23.593  1.00  0.00     0.017 C 
ATOM     13  C   UNL A   1      32.032  25.612  22.405  1.00  0.00    -0.027 C 
BRANCH   8  14
ATOM     14  C   UNL A   1      31.797  23.694  26.253  1.00  0.00     0.228 C 
ATOM     15  N   UNL A   1      32.137  22.385  26.495  1.00  0.00    -0.326 N 
ATOM     16  H   UNL A   1      31.771  22.037  27.340  1.00  0.00     0.169 HD
ATOM     17  O   UNL A   1      31.072  24.249  27.083  1.00  0.00    -0.274 OA
BRANCH  15  18
ATOM     18  C   UNL A   1      32.903  21.432  25.782  1.00  0.00     0.044 A 
ATOM     19  C   UNL A   1      35.094  22.557  26.560  1.00  0.00     0.046 C 
ATOM     20  C   UNL A   1      34.307  21.468  25.877  1.00  0.00    -0.027 A 
ATOM     21  C   UNL A   1      35.054  20.443  25.272  1.00  0.00     0.006 A 
ATOM     22  C   UNL A   1      34.428  19.404  24.583  1.00  0.00     0.014 A 
ATOM     23  C   UNL A   1      32.312  20.454  24.961  1.00  0.00     0.040 A 
ATOM     24  C   UNL A   1      33.040  19.396  24.403  1.00  0.00     0.041 A 
BRANCH  24  25
ATOM     25  C   UNL A   1      32.470  18.251  23.616  1.00  0.00     0.251 C 
ATOM     26  O   UNL A   1      32.112  18.456  22.452  1.00  0.00    -0.269 OA
ATOM     27  N   UNL A   1      32.344  16.958  24.081  1.00  0.00    -0.349 N 
ATOM     28  H   UNL A   1      31.975  16.326  23.422  1.00  0.00     0.164 HD
BRANCH  27  29
ATOM     29  C   UNL A   1      32.650  16.377  25.335  1.00  0.00     0.082 C 
ATOM     30  C   UNL A   1      32.827  14.888  25.441  1.00  0.00     0.027 C 
ATOM     31  C   UNL A   1      34.000  15.798  25.651  1.00  0.00     0.027 C 
ENDBRANCH  27  29
ENDBRANCH  24  25
ENDBRANCH  15  18
ENDBRANCH   8  14
ENDBRANCH   4   7
ENDBRANCH   2   3
ENDBRANCH   1   2
BRANCH   1  32
ATOM     32  C   UNL A   1      31.732  29.759  26.533  1.00  0.00     0.002 C 
BRANCH  32  33
ATOM     33  C   UNL A   1      32.605  30.843  27.184  1.00  0.00     0.002 C 
BRANCH  33  34
ATOM     34  C   UNL A   1      34.056  30.481  27.505  1.00  0.00     0.021 C 
BRANCH  34  35
ATOM     35  C   UNL A   1      34.994  31.660  27.722  1.00  0.00     0.116 C 
BRANCH  35  36
ATOM     36  N   UNL A   1      35.297  31.975  29.109  1.00  0.00    -0.352 N 
ATOM     37  C   UNL A   1      36.113  31.284  29.999  1.00  0.00     0.251 C 
ATOM     38  H   UNL A   1      34.868  32.786  29.466  1.00  0.00     0.163 HD
ATOM     39  O   UNL A   1      36.219  31.645  31.150  1.00  0.00    -0.269 OA
BRANCH  37  40
ATOM     40  C   UNL A   1      36.948  30.164  29.484  1.00  0.00     0.039 A 
ATOM     41  C   UNL A   1      37.201  29.085  30.338  1.00  0.00     0.014 A 
ATOM     42  C   UNL A   1      37.619  30.263  28.267  1.00  0.00     0.014 A 
ATOM     43  C   UNL A   1      38.290  28.252  30.083  1.00  0.00     0.010 A 
ATOM     44  C   UNL A   1      38.755  29.504  28.062  1.00  0.00     0.010 A 
ATOM     45  C   UNL A   1      39.126  28.539  29.002  1.00  0.00    -0.014 A 
BRANCH  45  46
ATOM     46  C   UNL A   1      40.456  27.960  28.852  1.00  0.00     0.031 A 
ATOM     47  C   UNL A   1      40.633  26.542  28.482  1.00  0.00     0.074 A 
ATOM     48  C   UNL A   1      41.555  28.727  29.034  1.00  0.00     0.049 A 
ATOM     49  N   UNL A   1      41.614  25.816  28.906  1.00  0.00    -0.248 NA
ATOM     50  C   UNL A   1      39.710  25.821  27.614  1.00  0.00     0.031 C 
ATOM     51  C   UNL A   1      42.934  28.366  28.714  1.00  0.00     0.029 A 
ATOM     52  N   UNL A   1      41.663  29.941  29.731  1.00  0.00    -0.354 N 
ATOM     53  C   UNL A   1      41.608  24.647  28.184  1.00  0.00     0.074 A 
ATOM     54  C   UNL A   1      40.363  24.664  27.445  1.00  0.00     0.031 C 
ATOM     55  C   UNL A   1      43.762  29.134  29.437  1.00  0.00     0.029 A 
ATOM     56  C   UNL A   1      42.943  29.931  30.330  1.00  0.00     0.049 A 
ATOM     57  H   UNL A   1      40.986  30.652  29.790  1.00  0.00     0.167 HD
ATOM     58  C   UNL A   1      42.715  23.852  28.170  1.00  0.00     0.037 A 
ATOM     59  C   UNL A   1      43.121  30.032  31.677  1.00  0.00     0.037 A 
ATOM     60  C   UNL A   1      43.815  24.447  28.918  1.00  0.00     0.049 A 
ATOM     61  C   UNL A   1      43.894  28.892  32.285  1.00  0.00     0.074 A 
ATOM     62  C   UNL A   1      44.906  25.196  28.509  1.00  0.00     0.029 A 
ATOM     63  N   UNL A   1      43.745  24.569  30.299  1.00  0.00    -0.354 N 
ATOM     64  N   UNL A   1      44.025  27.728  31.717  1.00  0.00    -0.248 NA
ATOM     65  C   UNL A   1      44.546  28.954  33.589  1.00  0.00     0.031 C 
ATOM     66  C   UNL A   1      45.513  25.755  29.654  1.00  0.00     0.029 A 
ATOM     67  C   UNL A   1      44.788  25.349  30.760  1.00  0.00     0.049 A 
ATOM     68  H   UNL A   1      43.053  24.159  30.867  1.00  0.00     0.167 HD
ATOM     69  C   UNL A   1      44.738  26.891  32.541  1.00  0.00     0.074 A 
ATOM     70  C   UNL A   1      45.056  27.713  33.692  1.00  0.00     0.031 C 
ATOM     71  C   UNL A   1      44.986  25.595  32.179  1.00  0.00     0.037 A 
BRANCH  58  72
ATOM     72  C   UNL A   1      42.897  22.692  27.220  1.00  0.00     0.064 A 
ATOM     73  C   UNL A   1      42.164  21.493  27.374  1.00  0.00     0.173 A 
ATOM     74  C   UNL A   1      43.805  22.698  26.147  1.00  0.00     0.173 A 
ATOM     75  F   UNL A   1      41.185  21.376  28.278  1.00  0.00    -0.203 F 
ATOM     76  C   UNL A   1      42.415  20.358  26.601  1.00  0.00     0.198 A 
ATOM     77  C   UNL A   1      44.090  21.547  25.406  1.00  0.00     0.198 A 
ATOM     78  F   UNL A   1      44.417  23.829  25.768  1.00  0.00    -0.203 F 
ATOM     79  F   UNL A   1      41.699  19.243  26.808  1.00  0.00    -0.200 F 
ATOM     80  C   UNL A   1      43.405  20.372  25.644  1.00  0.00     0.200 A 
ATOM     81  F   UNL A   1      45.041  21.584  24.460  1.00  0.00    -0.200 F 
ATOM     82  F   UNL A   1      43.684  19.266  24.940  1.00  0.00    -0.200 F 
ENDBRANCH  58  72
BRANCH  59  83
ATOM     83  C   UNL A   1      42.038  30.785  32.355  1.00  0.00     0.064 A 
ATOM     84  C   UNL A   1      42.087  32.190  32.318  1.00  0.00     0.173 A 
ATOM     85  C   UNL A   1      40.811  30.183  32.651  1.00  0.00     0.173 A 
ATOM     86  F   UNL A   1      43.243  32.813  32.033  1.00  0.00    -0.203 F 
ATOM     87  C   UNL A   1      40.932  32.956  32.447  1.00  0.00     0.198 A 
ATOM     88  C   UNL A   1      39.656  30.954  32.792  1.00  0.00     0.198 A 
ATOM     89  F   UNL A   1      40.701  28.846  32.682  1.00  0.00    -0.203 F 
ATOM     90  F   UNL A   1      40.990  34.287  32.288  1.00  0.00    -0.200 F 
ATOM     91  C   UNL A   1      39.711  32.334  32.653  1.00  0.00     0.200 A 
ATOM     92  F   UNL A   1      38.471  30.353  32.969  1.00  0.00    -0.200 F 
ATOM     93  F   UNL A   1      38.586  33.061  32.677  1.00  0.00    -0.200 F 
ENDBRANCH  59  83
BRANCH  71  94
ATOM     94  C   UNL A   1      45.542  24.471  33.034  1.00  0.00     0.064 A 
ATOM     95  C   UNL A   1      46.827  24.454  33.598  1.00  0.00     0.173 A 
ATOM     96  C   UNL A   1      44.704  23.392  33.429  1.00  0.00     0.173 A 
ATOM     97  F   UNL A   1      47.688  25.461  33.415  1.00  0.00    -0.203 F 
ATOM     98  C   UNL A   1      47.260  23.417  34.434  1.00  0.00     0.198 A 
ATOM     99  C   UNL A   1      45.119  22.394  34.309  1.00  0.00     0.198 A 
ATOM    100  F   UNL A   1      43.439  23.283  32.999  1.00  0.00    -0.203 F 
ATOM    101  F   UNL A   1      48.513  23.433  34.912  1.00  0.00    -0.200 F 
ATOM    102  C   UNL A   1      46.404  22.396  34.800  1.00  0.00     0.200 A 
ATOM    103  F   UNL A   1      44.254  21.443  34.692  1.00  0.00    -0.200 F 
ATOM    104  F   UNL A   1      46.810  21.435  35.639  1.00  0.00    -0.200 F 
ENDBRANCH  71  94
ENDBRANCH  45  46
ENDBRANCH  37  40
ENDBRANCH  35  36
ENDBRANCH  34  35
ENDBRANCH  33  34
ENDBRANCH  32  33
ENDBRANCH   1  32
TORSDOF 17
ENDMDL
MODEL 2
REMARK VINA RESULT:     -14.0      1.513      3.547
REMARK SMILES Cc1ccc(C(=O)NC2CC2)cc1NC(=O)[C@@H]1[C@@H](C(=O)NCCCCCCNC(=O)c2ccc(-c3c4nc(c(-c5c(F)c(F)c(F)c(F)c5F)c5ccc([nH]5)c(-c5c(F)c(F)c(F)c(F)c5F)c5nc(c(-c6c(F)c(F)c(F)c(F)c6F)c6ccc3[nH]6)C=C5)C=C4)cc2)[C@H]2C=C[C@@H]1C2
REMARK SMILES IDX 23 1 22 2 21 3 19 4 20 5 18 7 17 8 97 9 94 10 96 11 98 12
REMARK SMILES IDX 95 13 15 14 14 15 16 17 13 18 1 19 2 20 3 21 4 22 12 23 5 24
REMARK SMILES IDX 6 25 7 26 8 27 9 29 10 30 11 31 24 32 25 33 26 34 27 35
REMARK SMILES IDX 28 36 29 37 30 39 31 40 32 41 93 42 33 43 92 44 34 45 35 46
REMARK SMILES IDX 36 47 86 48 37 49 91 50 85 51 87 52 38 53 90 54 84 55 83 56
REMARK SMILES IDX 39 58 71 59 51 60 70 61 52 62 55 63 69 64 88 65 53 66 54 67
REMARK SMILES IDX 68 69 89 70 56 71 40 72 41 73 49 74 42 75 43 76 47 77 50 78
REMARK SMILES IDX 44 79 45 80 48 81 46 82 72 83 73 84 81 85 74 86 75 87 79 88
REMARK SMILES IDX 82 89 76 90 77 91 80 92 78 93 57 94 58 95 66 96 59 97 60 98
REMARK SMILES IDX 64 99 67 100 61 101 62 102 65 103 63 104
REMARK H PARENT 21 6 14 16 8 28 28 38 87 57 55 68
REMARK Flexibility Score: inf
ROOT
ATOM      1  C   UNL A   1      31.950  26.621  26.327  1.00  0.00     0.021 C 
ENDROOT
BRANCH   1   2
ATOM      2  C   UNL A   1      33.285  25.931  26.051  1.00  0.00     0.116 C 
BRANCH   2   3
ATOM      3  N   UNL A   1      33.458  24.715  26.808  1.00  0.00    -0.356 N 
ATOM      4  C   UNL A   1      34.071  23.546  26.505  1.00  0.00     0.224 C 
ATOM      5  O   UNL A   1      34.049  22.691  27.399  1.00  0.00    -0.275 OA
ATOM      6  H   UNL A   1      33.059  24.741  27.707  1.00  0.00     0.163 HD
BRANCH   4   7
ATOM      7  C   UNL A   1      34.655  23.205  25.133  1.00  0.00     0.098 C 
ATOM      8  C   UNL A   1      35.195  21.715  25.174  1.00  0.00     0.099 C 
ATOM      9  C   UNL A   1      36.582  21.825  24.488  1.00  0.00     0.025 C 
ATOM     10  C   UNL A   1      35.888  23.953  24.580  1.00  0.00     0.025 C 
ATOM     11  C   UNL A   1      37.504  22.562  25.435  1.00  0.00    -0.027 C 
ATOM     12  C   UNL A   1      36.351  22.963  23.497  1.00  0.00     0.017 C 
ATOM     13  C   UNL A   1      37.068  23.827  25.516  1.00  0.00    -0.027 C 
BRANCH   8  14
ATOM     14  C   UNL A   1      34.303  20.686  24.503  1.00  0.00     0.228 C 
ATOM     15  N   UNL A   1      33.154  21.048  23.842  1.00  0.00    -0.326 N 
ATOM     16  H   UNL A   1      32.647  20.279  23.494  1.00  0.00     0.169 HD
ATOM     17  O   UNL A   1      34.537  19.478  24.603  1.00  0.00    -0.274 OA
BRANCH  15  18
ATOM     18  C   UNL A   1      32.547  22.294  23.559  1.00  0.00     0.044 A 
ATOM     19  C   UNL A   1      30.820  21.921  25.442  1.00  0.00     0.046 C 
ATOM     20  C   UNL A   1      31.488  22.743  24.370  1.00  0.00    -0.027 A 
ATOM     21  C   UNL A   1      30.977  24.035  24.163  1.00  0.00     0.006 A 
ATOM     22  C   UNL A   1      31.499  24.868  23.173  1.00  0.00     0.014 A 
ATOM     23  C   UNL A   1      32.952  23.100  22.479  1.00  0.00     0.040 A 
ATOM     24  C   UNL A   1      32.492  24.410  22.300  1.00  0.00     0.041 A 
BRANCH  24  25
ATOM     25  C   UNL A   1      32.959  25.374  21.247  1.00  0.00     0.251 C 
ATOM     26  O   UNL A   1      33.025  24.982  20.078  1.00  0.00    -0.269 OA
ATOM     27  N   UNL A   1      33.291  26.693  21.475  1.00  0.00    -0.349 N 
ATOM     28  H   UNL A   1      33.550  27.190  20.666  1.00  0.00     0.164 HD
BRANCH  27  29
ATOM     29  C   UNL A   1      33.325  27.460  22.665  1.00  0.00     0.082 C 
ATOM     30  C   UNL A   1      34.122  28.735  22.704  1.00  0.00     0.027 C 
ATOM     31  C   UNL A   1      32.627  28.785  22.794  1.00  0.00     0.027 C 
ENDBRANCH  27  29
ENDBRANCH  24  25
ENDBRANCH  15  18
ENDBRANCH   8  14
ENDBRANCH   4   7
ENDBRANCH   2   3
ENDBRANCH   1   2
BRANCH   1  32
ATOM     32  C   UNL A   1      31.962  28.149  26.473  1.00  0.00     0.002 C 
BRANCH  32  33
ATOM     33  C   UNL A   1      33.320  28.866  26.475  1.00  0.00     0.002 C 
BRANCH  33  34
ATOM     34  C   UNL A   1      33.716  29.623  27.744  1.00  0.00     0.021 C 
BRANCH  34  35
ATOM     35  C   UNL A   1      34.355  30.987  27.522  1.00  0.00     0.116 C 
BRANCH  35  36
ATOM     36  N   UNL A   1      34.868  31.643  28.715  1.00  0.00    -0.352 N 
ATOM     37  C   UNL A   1      35.912  31.245  29.544  1.00  0.00     0.251 C 
ATOM     38  H   UNL A   1      34.416  32.479  28.970  1.00  0.00     0.163 HD
ATOM     39  O   UNL A   1      36.184  31.874  30.543  1.00  0.00    -0.269 OA
BRANCH  37  40
ATOM     40  C   UNL A   1      36.768  30.103  29.120  1.00  0.00     0.039 A 
ATOM     41  C   UNL A   1      37.075  29.123  30.070  1.00  0.00     0.014 A 
ATOM     42  C   UNL A   1      37.406  30.098  27.882  1.00  0.00     0.014 A 
ATOM     43  C   UNL A   1      38.183  28.298  29.870  1.00  0.00     0.010 A 
ATOM     44  C   UNL A   1      38.560  29.354  27.723  1.00  0.00     0.010 A 
ATOM     45  C   UNL A   1      38.983  28.499  28.744  1.00  0.00    -0.014 A 
BRANCH  45  46
ATOM     46  C   UNL A   1      40.325  27.946  28.616  1.00  0.00     0.031 A 
ATOM     47  C   UNL A   1      40.535  26.524  28.278  1.00  0.00     0.074 A 
ATOM     48  C   UNL A   1      41.407  28.739  28.789  1.00  0.00     0.049 A 
ATOM     49  N   UNL A   1      41.528  25.828  28.725  1.00  0.00    -0.248 NA
ATOM     50  C   UNL A   1      39.635  25.765  27.420  1.00  0.00     0.031 C 
ATOM     51  C   UNL A   1      42.796  28.401  28.488  1.00  0.00     0.029 A 
ATOM     52  N   UNL A   1      41.484  29.971  29.461  1.00  0.00    -0.354 N 
ATOM     53  C   UNL A   1      41.552  24.645  28.029  1.00  0.00     0.074 A 
ATOM     54  C   UNL A   1      40.313  24.619  27.281  1.00  0.00     0.031 C 
ATOM     55  C   UNL A   1      43.601  29.202  29.200  1.00  0.00     0.029 A 
ATOM     56  C   UNL A   1      42.759  30.001  30.069  1.00  0.00     0.049 A 
ATOM     57  H   UNL A   1      40.791  30.668  29.499  1.00  0.00     0.167 HD
ATOM     58  C   UNL A   1      42.676  23.872  28.040  1.00  0.00     0.037 A 
ATOM     59  C   UNL A   1      42.924  30.134  31.416  1.00  0.00     0.037 A 
ATOM     60  C   UNL A   1      43.757  24.507  28.783  1.00  0.00     0.049 A 
ATOM     61  C   UNL A   1      43.717  29.024  32.054  1.00  0.00     0.074 A 
ATOM     62  C   UNL A   1      44.836  25.271  28.366  1.00  0.00     0.029 A 
ATOM     63  N   UNL A   1      43.674  24.658  30.161  1.00  0.00    -0.354 N 
ATOM     64  N   UNL A   1      43.876  27.851  31.512  1.00  0.00    -0.248 NA
ATOM     65  C   UNL A   1      44.356  29.128  33.360  1.00  0.00     0.031 C 
ATOM     66  C   UNL A   1      45.421  25.867  29.503  1.00  0.00     0.029 A 
ATOM     67  C   UNL A   1      44.697  25.469  30.612  1.00  0.00     0.049 A 
ATOM     68  H   UNL A   1      42.987  24.245  30.732  1.00  0.00     0.167 HD
ATOM     69  C   UNL A   1      44.600  27.048  32.359  1.00  0.00     0.074 A 
ATOM     70  C   UNL A   1      44.891  27.901  33.494  1.00  0.00     0.031 C 
ATOM     71  C   UNL A   1      44.878  25.750  32.027  1.00  0.00     0.037 A 
BRANCH  58  72
ATOM     72  C   UNL A   1      42.890  22.697  27.117  1.00  0.00     0.064 A 
ATOM     73  C   UNL A   1      42.213  21.473  27.316  1.00  0.00     0.173 A 
ATOM     74  C   UNL A   1      43.776  22.713  26.026  1.00  0.00     0.173 A 
ATOM     75  F   UNL A   1      41.257  21.338  28.243  1.00  0.00    -0.203 F 
ATOM     76  C   UNL A   1      42.498  20.328  26.568  1.00  0.00     0.198 A 
ATOM     77  C   UNL A   1      44.097  21.556  25.309  1.00  0.00     0.198 A 
ATOM     78  F   UNL A   1      44.331  23.859  25.606  1.00  0.00    -0.203 F 
ATOM     79  F   UNL A   1      41.834  19.190  26.818  1.00  0.00    -0.200 F 
ATOM     80  C   UNL A   1      43.468  20.359  25.591  1.00  0.00     0.200 A 
ATOM     81  F   UNL A   1      45.028  21.608  24.344  1.00  0.00    -0.200 F 
ATOM     82  F   UNL A   1      43.781  19.248  24.911  1.00  0.00    -0.200 F 
ENDBRANCH  58  72
BRANCH  59  83
ATOM     83  C   UNL A   1      41.821  30.878  32.069  1.00  0.00     0.064 A 
ATOM     84  C   UNL A   1      41.854  32.284  32.024  1.00  0.00     0.173 A 
ATOM     85  C   UNL A   1      40.595  30.264  32.345  1.00  0.00     0.173 A 
ATOM     86  F   UNL A   1      43.008  32.918  31.758  1.00  0.00    -0.203 F 
ATOM     87  C   UNL A   1      40.688  33.037  32.128  1.00  0.00     0.198 A 
ATOM     88  C   UNL A   1      39.429  31.023  32.460  1.00  0.00     0.198 A 
ATOM     89  F   UNL A   1      40.499  28.927  32.382  1.00  0.00    -0.203 F 
ATOM     90  F   UNL A   1      40.734  34.368  31.963  1.00  0.00    -0.200 F 
ATOM     91  C   UNL A   1      39.471  32.402  32.314  1.00  0.00     0.200 A 
ATOM     92  F   UNL A   1      38.247  30.409  32.619  1.00  0.00    -0.200 F 
ATOM     93  F   UNL A   1      38.337  33.116  32.313  1.00  0.00    -0.200 F 
ENDBRANCH  59  83
BRANCH  71  94
ATOM     94  C   UNL A   1      45.451  24.657  32.910  1.00  0.00     0.064 A 
ATOM     95  C   UNL A   1      46.730  24.682  33.490  1.00  0.00     0.173 A 
ATOM     96  C   UNL A   1      44.635  23.565  33.317  1.00  0.00     0.173 A 
ATOM     97  F   UNL A   1      47.568  25.706  33.296  1.00  0.00    -0.203 F 
ATOM     98  C   UNL A   1      47.177  23.673  34.351  1.00  0.00     0.198 A 
ATOM     99  C   UNL A   1      45.064  22.595  34.221  1.00  0.00     0.198 A 
ATOM    100  F   UNL A   1      43.378  23.417  32.875  1.00  0.00    -0.203 F 
ATOM    101  F   UNL A   1      48.424  23.728  34.842  1.00  0.00    -0.200 F 
ATOM    102  C   UNL A   1      46.343  22.638  34.727  1.00  0.00     0.200 A 
ATOM    103  F   UNL A   1      44.218  21.630  34.613  1.00  0.00    -0.200 F 
ATOM    104  F   UNL A   1      46.761  21.703  35.589  1.00  0.00    -0.200 F 
ENDBRANCH  71  94
ENDBRANCH  45  46
ENDBRANCH  37  40
ENDBRANCH  35  36
ENDBRANCH  34  35
ENDBRANCH  33  34
ENDBRANCH  32  33
ENDBRANCH   1  32
TORSDOF 17
ENDMDL
MODEL 3
REMARK VINA RESULT:     -14.0      2.835      4.505
REMARK SMILES Cc1ccc(C(=O)NC2CC2)cc1NC(=O)[C@@H]1[C@@H](C(=O)NCCCCCCNC(=O)c2ccc(-c3c4nc(c(-c5c(F)c(F)c(F)c(F)c5F)c5ccc([nH]5)c(-c5c(F)c(F)c(F)c(F)c5F)c5nc(c(-c6c(F)c(F)c(F)c(F)c6F)c6ccc3[nH]6)C=C5)C=C4)cc2)[C@H]2C=C[C@@H]1C2
REMARK SMILES IDX 23 1 22 2 21 3 19 4 20 5 18 7 17 8 97 9 94 10 96 11 98 12
REMARK SMILES IDX 95 13 15 14 14 15 16 17 13 18 1 19 2 20 3 21 4 22 12 23 5 24
REMARK SMILES IDX 6 25 7 26 8 27 9 29 10 30 11 31 24 32 25 33 26 34 27 35
REMARK SMILES IDX 28 36 29 37 30 39 31 40 32 41 93 42 33 43 92 44 34 45 35 46
REMARK SMILES IDX 36 47 86 48 37 49 91 50 85 51 87 52 38 53 90 54 84 55 83 56
REMARK SMILES IDX 39 58 71 59 51 60 70 61 52 62 55 63 69 64 88 65 53 66 54 67
REMARK SMILES IDX 68 69 89 70 56 71 40 72 41 73 49 74 42 75 43 76 47 77 50 78
REMARK SMILES IDX 44 79 45 80 48 81 46 82 72 83 73 84 81 85 74 86 75 87 79 88
REMARK SMILES IDX 82 89 76 90 77 91 80 92 78 93 57 94 58 95 66 96 59 97 60 98
REMARK SMILES IDX 64 99 67 100 61 101 62 102 65 103 63 104
REMARK H PARENT 21 6 14 16 8 28 28 38 87 57 55 68
REMARK Flexibility Score: inf
ROOT
ATOM      1  C   UNL A   1      32.782  30.367  26.918  1.00  0.00     0.021 C 
ENDROOT
BRANCH   1   2
ATOM      2  C   UNL A   1      32.175  28.967  26.827  1.00  0.00     0.116 C 
BRANCH   2   3
ATOM      3  N   UNL A   1      33.139  27.959  26.456  1.00  0.00    -0.356 N 
ATOM      4  C   UNL A   1      33.002  26.778  25.807  1.00  0.00     0.224 C 
ATOM      5  O   UNL A   1      34.050  26.143  25.637  1.00  0.00    -0.275 OA
ATOM      6  H   UNL A   1      34.063  28.167  26.724  1.00  0.00     0.163 HD
BRANCH   4   7
ATOM      7  C   UNL A   1      31.660  26.164  25.402  1.00  0.00     0.098 C 
ATOM      8  C   UNL A   1      31.854  24.599  25.238  1.00  0.00     0.099 C 
ATOM      9  C   UNL A   1      31.119  24.292  23.908  1.00  0.00     0.025 C 
ATOM     10  C   UNL A   1      30.990  26.523  24.056  1.00  0.00     0.025 C 
ATOM     11  C   UNL A   1      31.950  24.870  22.782  1.00  0.00    -0.027 C 
ATOM     12  C   UNL A   1      30.013  25.344  23.910  1.00  0.00     0.017 C 
ATOM     13  C   UNL A   1      31.900  26.205  22.892  1.00  0.00    -0.027 C 
BRANCH   8  14
ATOM     14  C   UNL A   1      31.329  23.761  26.390  1.00  0.00     0.228 C 
ATOM     15  N   UNL A   1      31.690  22.444  26.548  1.00  0.00    -0.326 N 
ATOM     16  H   UNL A   1      31.242  22.007  27.308  1.00  0.00     0.169 HD
ATOM     17  O   UNL A   1      30.490  24.212  27.176  1.00  0.00    -0.274 OA
BRANCH  15  18
ATOM     18  C   UNL A   1      32.570  21.587  25.847  1.00  0.00     0.044 A 
ATOM     19  C   UNL A   1      34.613  22.856  26.787  1.00  0.00     0.046 C 
ATOM     20  C   UNL A   1      33.959  21.734  26.023  1.00  0.00    -0.027 A 
ATOM     21  C   UNL A   1      34.821  20.799  25.425  1.00  0.00     0.006 A 
ATOM     22  C   UNL A   1      34.322  19.741  24.665  1.00  0.00     0.014 A 
ATOM     23  C   UNL A   1      32.109  20.598  24.959  1.00  0.00     0.040 A 
ATOM     24  C   UNL A   1      32.952  19.626  24.406  1.00  0.00     0.041 A 
BRANCH  24  25
ATOM     25  C   UNL A   1      32.523  18.471  23.547  1.00  0.00     0.251 C 
ATOM     26  O   UNL A   1      32.226  18.691  22.370  1.00  0.00    -0.269 OA
ATOM     27  N   UNL A   1      32.469  17.157  23.962  1.00  0.00    -0.349 N 
ATOM     28  H   UNL A   1      32.193  16.523  23.261  1.00  0.00     0.164 HD
BRANCH  27  29
ATOM     29  C   UNL A   1      32.739  16.555  25.215  1.00  0.00     0.082 C 
ATOM     30  C   UNL A   1      32.738  15.056  25.336  1.00  0.00     0.027 C 
ATOM     31  C   UNL A   1      34.018  15.819  25.501  1.00  0.00     0.027 C 
ENDBRANCH  27  29
ENDBRANCH  24  25
ENDBRANCH  15  18
ENDBRANCH   8  14
ENDBRANCH   4   7
ENDBRANCH   2   3
ENDBRANCH   1   2
BRANCH   1  32
ATOM     32  C   UNL A   1      34.230  30.478  27.412  1.00  0.00     0.002 C 
BRANCH  32  33
ATOM     33  C   UNL A   1      34.724  31.847  27.905  1.00  0.00     0.002 C 
BRANCH  33  34
ATOM     34  C   UNL A   1      33.670  32.842  28.395  1.00  0.00     0.021 C 
BRANCH  34  35
ATOM     35  C   UNL A   1      34.212  34.081  29.094  1.00  0.00     0.116 C 
BRANCH  35  36
ATOM     36  N   UNL A   1      33.383  34.610  30.167  1.00  0.00    -0.352 N 
ATOM     37  C   UNL A   1      33.584  34.528  31.540  1.00  0.00     0.251 C 
ATOM     38  H   UNL A   1      32.573  35.091  29.882  1.00  0.00     0.163 HD
ATOM     39  O   UNL A   1      32.766  34.973  32.314  1.00  0.00    -0.269 OA
BRANCH  37  40
ATOM     40  C   UNL A   1      34.878  33.991  32.045  1.00  0.00     0.039 A 
ATOM     41  C   UNL A   1      35.985  34.846  32.056  1.00  0.00     0.014 A 
ATOM     42  C   UNL A   1      35.042  32.635  32.316  1.00  0.00     0.014 A 
ATOM     43  C   UNL A   1      37.270  34.303  32.097  1.00  0.00     0.010 A 
ATOM     44  C   UNL A   1      36.308  32.085  32.259  1.00  0.00     0.010 A 
ATOM     45  C   UNL A   1      37.419  32.915  32.086  1.00  0.00    -0.014 A 
BRANCH  45  46
ATOM     46  C   UNL A   1      38.684  32.256  31.781  1.00  0.00     0.031 A 
ATOM     47  C   UNL A   1      38.734  31.075  30.897  1.00  0.00     0.074 A 
ATOM     48  C   UNL A   1      39.840  32.733  32.295  1.00  0.00     0.049 A 
ATOM     49  N   UNL A   1      39.582  30.111  31.048  1.00  0.00    -0.248 NA
ATOM     50  C   UNL A   1      37.822  30.874  29.778  1.00  0.00     0.031 C 
ATOM     51  C   UNL A   1      41.194  32.330  31.920  1.00  0.00     0.029 A 
ATOM     52  N   UNL A   1      40.018  33.564  33.413  1.00  0.00    -0.354 N 
ATOM     53  C   UNL A   1      39.513  29.318  29.929  1.00  0.00     0.074 A 
ATOM     54  C   UNL A   1      38.353  29.789  29.201  1.00  0.00     0.031 C 
ATOM     55  C   UNL A   1      42.031  32.642  32.921  1.00  0.00     0.029 A 
ATOM     56  C   UNL A   1      41.226  33.147  34.017  1.00  0.00     0.049 A 
ATOM     57  H   UNL A   1      39.423  34.287  33.714  1.00  0.00     0.167 HD
ATOM     58  C   UNL A   1      40.519  28.440  29.655  1.00  0.00     0.037 A 
ATOM     59  C   UNL A   1      41.286  32.702  35.304  1.00  0.00     0.037 A 
ATOM     60  C   UNL A   1      41.604  28.545  30.623  1.00  0.00     0.049 A 
ATOM     61  C   UNL A   1      41.865  31.321  35.454  1.00  0.00     0.074 A 
ATOM     62  C   UNL A   1      42.806  29.233  30.586  1.00  0.00     0.029 A 
ATOM     63  N   UNL A   1      41.417  28.143  31.939  1.00  0.00    -0.354 N 
ATOM     64  N   UNL A   1      41.917  30.454  34.484  1.00  0.00    -0.248 NA
ATOM     65  C   UNL A   1      42.393  30.791  36.706  1.00  0.00     0.031 C 
ATOM     66  C   UNL A   1      43.361  29.224  31.884  1.00  0.00     0.029 A 
ATOM     67  C   UNL A   1      42.493  28.534  32.711  1.00  0.00     0.049 A 
ATOM     68  H   UNL A   1      40.633  27.650  32.272  1.00  0.00     0.167 HD
ATOM     69  C   UNL A   1      42.449  29.276  34.948  1.00  0.00     0.074 A 
ATOM     70  C   UNL A   1      42.747  29.546  36.341  1.00  0.00     0.031 C 
ATOM     71  C   UNL A   1      42.582  28.193  34.122  1.00  0.00     0.037 A 
BRANCH  58  72
ATOM     72  C   UNL A   1      40.658  27.714  28.338  1.00  0.00     0.064 A 
ATOM     73  C   UNL A   1      40.132  26.417  28.154  1.00  0.00     0.173 A 
ATOM     74  C   UNL A   1      41.328  28.246  27.222  1.00  0.00     0.173 A 
ATOM     75  F   UNL A   1      39.373  25.825  29.084  1.00  0.00    -0.203 F 
ATOM     76  C   UNL A   1      40.369  25.668  27.000  1.00  0.00     0.198 A 
ATOM     77  C   UNL A   1      41.608  27.479  26.086  1.00  0.00     0.198 A 
ATOM     78  F   UNL A   1      41.702  29.533  27.191  1.00  0.00    -0.203 F 
ATOM     79  F   UNL A   1      39.857  24.433  26.892  1.00  0.00    -0.200 F 
ATOM     80  C   UNL A   1      41.141  26.184  25.982  1.00  0.00     0.200 A 
ATOM     81  F   UNL A   1      42.341  28.005  25.093  1.00  0.00    -0.200 F 
ATOM     82  F   UNL A   1      41.415  25.446  24.898  1.00  0.00    -0.200 F 
ENDBRANCH  58  72
BRANCH  59  83
ATOM     83  C   UNL A   1      40.236  33.286  36.172  1.00  0.00     0.064 A 
ATOM     84  C   UNL A   1      39.098  32.506  36.451  1.00  0.00     0.173 A 
ATOM     85  C   UNL A   1      40.513  34.361  37.024  1.00  0.00     0.173 A 
ATOM     86  F   UNL A   1      38.795  31.461  35.664  1.00  0.00    -0.203 F 
ATOM     87  C   UNL A   1      38.343  32.716  37.601  1.00  0.00     0.198 A 
ATOM     88  C   UNL A   1      39.746  34.576  38.170  1.00  0.00     0.198 A 
ATOM     89  F   UNL A   1      41.594  35.128  36.818  1.00  0.00    -0.203 F 
ATOM     90  F   UNL A   1      37.337  31.882  37.902  1.00  0.00    -0.200 F 
ATOM     91  C   UNL A   1      38.688  33.732  38.477  1.00  0.00     0.200 A 
ATOM     92  F   UNL A   1      40.091  35.546  39.030  1.00  0.00    -0.200 F 
ATOM     93  F   UNL A   1      38.026  33.872  39.633  1.00  0.00    -0.200 F 
ENDBRANCH  59  83
BRANCH  71  94
ATOM     94  C   UNL A   1      42.925  26.763  34.496  1.00  0.00     0.064 A 
ATOM     95  C   UNL A   1      42.009  25.823  34.996  1.00  0.00     0.173 A 
ATOM     96  C   UNL A   1      44.220  26.243  34.225  1.00  0.00     0.173 A 
ATOM     97  F   UNL A   1      40.721  26.133  35.189  1.00  0.00    -0.203 F 
ATOM     98  C   UNL A   1      42.371  24.497  35.260  1.00  0.00     0.198 A 
ATOM     99  C   UNL A   1      44.560  24.907  34.433  1.00  0.00     0.198 A 
ATOM    100  F   UNL A   1      45.198  27.007  33.716  1.00  0.00    -0.203 F 
ATOM    101  F   UNL A   1      41.464  23.654  35.776  1.00  0.00    -0.200 F 
ATOM    102  C   UNL A   1      43.639  24.036  34.967  1.00  0.00     0.200 A 
ATOM    103  F   UNL A   1      45.781  24.470  34.091  1.00  0.00    -0.200 F 
ATOM    104  F   UNL A   1      43.964  22.754  35.177  1.00  0.00    -0.200 F 
ENDBRANCH  71  94
ENDBRANCH  45  46
ENDBRANCH  37  40
ENDBRANCH  35  36
ENDBRANCH  34  35
ENDBRANCH  33  34
ENDBRANCH  32  33
ENDBRANCH   1  32
TORSDOF 17
ENDMDL
