MODEL 1
REMARK VINA RESULT:     -12.2      0.000      0.000
REMARK SMILES O=C(CSc1nnnn1-c1ccc(C(=O)NCCCCCCNC(=O)c2ccc(-c3c4nc(c(-c5c(F)c(F)c(F)c(F)c5F)c5ccc([nH]5)c(-c5c(F)c(F)c(F)c(F)c5F)c5nc(c(-c6c(F)c(F)c(F)c(F)c6F)c6ccc3[nH]6)C=C5)C=C4)cc2)cc1)Nc1nc(-c2ccccc2)cs1
REMARK SMILES IDX 17 1 16 2 14 3 15 4 13 6 10 7 11 8 90 9 12 10 89 11 9 12
REMARK SMILES IDX 5 13 6 14 7 15 8 16 4 17 3 18 2 19 1 20 91 21 92 23 93 24
REMARK SMILES IDX 102 25 94 26 101 27 95 28 96 29 100 30 97 31 99 32 98 33
REMARK SMILES IDX 18 34 19 35 20 36 21 37 22 38 23 39 24 40 25 42 26 43 27 44
REMARK SMILES IDX 88 45 28 46 87 47 29 48 30 49 31 50 81 51 32 52 86 53 80 54
REMARK SMILES IDX 82 55 33 56 85 57 79 58 78 59 34 61 66 62 46 63 65 64 47 65
REMARK SMILES IDX 50 66 64 67 83 68 48 69 49 70 63 72 84 73 51 74 35 75 36 76
REMARK SMILES IDX 44 77 37 78 38 79 42 80 45 81 39 82 40 83 43 84 41 85 67 86
REMARK SMILES IDX 68 87 76 88 69 89 70 90 74 91 77 92 71 93 72 94 75 95 73 96
REMARK SMILES IDX 52 97 53 98 61 99 54 100 55 101 59 102 62 103 56 104 57 105
REMARK SMILES IDX 60 106 58 107
REMARK H PARENT 16 5 91 22 23 41 82 60 50 71
REMARK Flexibility Score: inf
ROOT
ATOM      1  C   UNL A   1      38.643  23.433  26.394  1.00  0.00     0.116 C 
ENDROOT
BRANCH   1   2
ATOM      2  N   UNL A   1      37.870  22.269  26.003  1.00  0.00    -0.352 N 
ATOM      3  C   UNL A   1      36.567  22.093  25.611  1.00  0.00     0.251 C 
ATOM      4  O   UNL A   1      36.204  20.947  25.344  1.00  0.00    -0.269 OA
ATOM      5  H   UNL A   1      38.388  21.431  26.024  1.00  0.00     0.163 HD
BRANCH   3   6
ATOM      6  C   UNL A   1      35.609  23.218  25.417  1.00  0.00     0.039 A 
ATOM      7  C   UNL A   1      34.089  25.528  25.007  1.00  0.00     0.069 A 
ATOM      8  C   UNL A   1      34.884  25.048  23.967  1.00  0.00     0.029 A 
ATOM      9  C   UNL A   1      33.958  24.811  26.199  1.00  0.00     0.029 A 
ATOM     10  C   UNL A   1      35.670  23.912  24.193  1.00  0.00     0.016 A 
ATOM     11  C   UNL A   1      34.671  23.623  26.369  1.00  0.00     0.016 A 
BRANCH   7  12
ATOM     12  N   UNL A   1      33.414  26.750  24.871  1.00  0.00    -0.187 N 
ATOM     13  C   UNL A   1      33.259  27.540  23.750  1.00  0.00     0.214 A 
ATOM     14  N   UNL A   1      32.777  28.706  24.115  1.00  0.00    -0.101 NA
ATOM     15  N   UNL A   1      32.581  28.615  25.474  1.00  0.00    -0.022 NA
ATOM     16  N   UNL A   1      32.895  27.406  25.929  1.00  0.00    -0.039 NA
BRANCH  13  17
ATOM     17  S   UNL A   1      33.266  26.918  22.131  1.00  0.00    -0.074 SA
BRANCH  17  18
ATOM     18  C   UNL A   1      31.823  25.837  22.118  1.00  0.00     0.178 C 
BRANCH  18  19
ATOM     19  C   UNL A   1      32.098  24.382  22.446  1.00  0.00     0.236 C 
ATOM     20  O   UNL A   1      32.848  23.746  21.708  1.00  0.00    -0.274 OA
ATOM     21  N   UNL A   1      31.527  23.936  23.615  1.00  0.00    -0.301 N 
ATOM     22  H   UNL A   1      30.920  24.534  24.108  1.00  0.00     0.172 HD
BRANCH  21  23
ATOM     23  C   UNL A   1      31.775  22.688  24.111  1.00  0.00     0.189 A 
ATOM     24  N   UNL A   1      32.388  21.684  23.545  1.00  0.00    -0.220 NA
ATOM     25  S   UNL A   1      31.202  22.436  25.700  1.00  0.00    -0.105 S 
ATOM     26  C   UNL A   1      32.334  20.588  24.381  1.00  0.00     0.084 A 
ATOM     27  C   UNL A   1      31.707  20.797  25.595  1.00  0.00     0.097 A 
BRANCH  26  28
ATOM     28  C   UNL A   1      32.911  19.318  23.991  1.00  0.00     0.001 A 
ATOM     29  C   UNL A   1      34.009  18.809  24.695  1.00  0.00     0.010 A 
ATOM     30  C   UNL A   1      32.401  18.609  22.898  1.00  0.00     0.010 A 
ATOM     31  C   UNL A   1      34.580  17.591  24.319  1.00  0.00     0.001 A 
ATOM     32  C   UNL A   1      32.981  17.397  22.518  1.00  0.00     0.001 A 
ATOM     33  C   UNL A   1      34.066  16.887  23.231  1.00  0.00     0.000 A 
ENDBRANCH  26  28
ENDBRANCH  21  23
ENDBRANCH  18  19
ENDBRANCH  17  18
ENDBRANCH  13  17
ENDBRANCH   7  12
ENDBRANCH   3   6
ENDBRANCH   1   2
BRANCH   1  34
ATOM     34  C   UNL A   1      40.077  23.022  26.739  1.00  0.00     0.021 C 
BRANCH  34  35
ATOM     35  C   UNL A   1      40.217  21.534  27.089  1.00  0.00     0.002 C 
BRANCH  35  36
ATOM     36  C   UNL A   1      41.423  21.172  27.972  1.00  0.00     0.002 C 
BRANCH  36  37
ATOM     37  C   UNL A   1      42.391  20.126  27.400  1.00  0.00     0.021 C 
BRANCH  37  38
ATOM     38  C   UNL A   1      42.548  20.203  25.889  1.00  0.00     0.116 C 
BRANCH  38  39
ATOM     39  N   UNL A   1      43.924  19.934  25.465  1.00  0.00    -0.352 N 
ATOM     40  C   UNL A   1      44.905  20.832  25.105  1.00  0.00     0.251 C 
ATOM     41  H   UNL A   1      44.183  18.984  25.434  1.00  0.00     0.163 HD
ATOM     42  O   UNL A   1      45.875  20.484  24.438  1.00  0.00    -0.269 OA
BRANCH  40  43
ATOM     43  C   UNL A   1      44.769  22.227  25.543  1.00  0.00     0.039 A 
ATOM     44  C   UNL A   1      43.893  23.113  24.910  1.00  0.00     0.014 A 
ATOM     45  C   UNL A   1      45.512  22.619  26.650  1.00  0.00     0.014 A 
ATOM     46  C   UNL A   1      43.709  24.379  25.460  1.00  0.00     0.010 A 
ATOM     47  C   UNL A   1      45.198  23.789  27.286  1.00  0.00     0.010 A 
ATOM     48  C   UNL A   1      44.354  24.702  26.662  1.00  0.00    -0.014 A 
BRANCH  48  49
ATOM     49  C   UNL A   1      44.100  25.968  27.341  1.00  0.00     0.031 A 
ATOM     50  C   UNL A   1      45.003  27.090  26.964  1.00  0.00     0.074 A 
ATOM     51  C   UNL A   1      42.977  26.174  28.064  1.00  0.00     0.049 A 
ATOM     52  N   UNL A   1      45.802  27.760  27.727  1.00  0.00    -0.248 NA
ATOM     53  C   UNL A   1      45.101  27.450  25.540  1.00  0.00     0.031 C 
ATOM     54  C   UNL A   1      41.842  25.262  28.264  1.00  0.00     0.029 A 
ATOM     55  N   UNL A   1      42.557  27.307  28.685  1.00  0.00    -0.354 N 
ATOM     56  C   UNL A   1      46.366  28.751  26.925  1.00  0.00     0.074 A 
ATOM     57  C   UNL A   1      46.031  28.406  25.568  1.00  0.00     0.031 C 
ATOM     58  C   UNL A   1      40.784  25.949  28.741  1.00  0.00     0.029 A 
ATOM     59  C   UNL A   1      41.220  27.294  29.057  1.00  0.00     0.049 A 
ATOM     60  H   UNL A   1      43.152  28.074  28.857  1.00  0.00     0.167 HD
ATOM     61  C   UNL A   1      46.848  29.904  27.469  1.00  0.00     0.037 A 
ATOM     62  C   UNL A   1      40.508  28.322  29.575  1.00  0.00     0.037 A 
ATOM     63  C   UNL A   1      47.101  29.741  28.880  1.00  0.00     0.049 A 
ATOM     64  C   UNL A   1      41.481  29.294  30.127  1.00  0.00     0.074 A 
ATOM     65  C   UNL A   1      47.907  28.909  29.634  1.00  0.00     0.029 A 
ATOM     66  N   UNL A   1      46.196  30.269  29.766  1.00  0.00    -0.354 N 
ATOM     67  N   UNL A   1      42.250  29.045  31.153  1.00  0.00    -0.248 NA
ATOM     68  C   UNL A   1      41.927  30.371  29.260  1.00  0.00     0.031 C 
ATOM     69  C   UNL A   1      47.134  28.601  30.795  1.00  0.00     0.029 A 
ATOM     70  C   UNL A   1      45.935  29.309  30.708  1.00  0.00     0.049 A 
ATOM     71  H   UNL A   1      45.805  31.172  29.730  1.00  0.00     0.167 HD
ATOM     72  C   UNL A   1      43.468  29.622  30.828  1.00  0.00     0.074 A 
ATOM     73  C   UNL A   1      43.180  30.509  29.702  1.00  0.00     0.031 C 
ATOM     74  C   UNL A   1      44.638  29.113  31.315  1.00  0.00     0.037 A 
BRANCH  61  75
ATOM     75  C   UNL A   1      46.709  31.272  26.832  1.00  0.00     0.064 A 
ATOM     76  C   UNL A   1      47.841  32.114  26.778  1.00  0.00     0.173 A 
ATOM     77  C   UNL A   1      45.474  31.909  26.577  1.00  0.00     0.173 A 
ATOM     78  F   UNL A   1      49.070  31.624  27.002  1.00  0.00    -0.203 F 
ATOM     79  C   UNL A   1      47.729  33.496  26.601  1.00  0.00     0.198 A 
ATOM     80  C   UNL A   1      45.373  33.281  26.348  1.00  0.00     0.198 A 
ATOM     81  F   UNL A   1      44.305  31.265  26.648  1.00  0.00    -0.203 F 
ATOM     82  F   UNL A   1      48.818  34.269  26.706  1.00  0.00    -0.200 F 
ATOM     83  C   UNL A   1      46.494  34.080  26.400  1.00  0.00     0.200 A 
ATOM     84  F   UNL A   1      44.163  33.829  26.168  1.00  0.00    -0.200 F 
ATOM     85  F   UNL A   1      46.374  35.410  26.308  1.00  0.00    -0.200 F 
ENDBRANCH  61  75
BRANCH  62  86
ATOM     86  C   UNL A   1      39.076  28.627  29.365  1.00  0.00     0.064 A 
ATOM     87  C   UNL A   1      38.187  28.744  30.443  1.00  0.00     0.173 A 
ATOM     88  C   UNL A   1      38.605  29.063  28.111  1.00  0.00     0.173 A 
ATOM     89  F   UNL A   1      38.576  28.395  31.678  1.00  0.00    -0.203 F 
ATOM     90  C   UNL A   1      36.905  29.279  30.277  1.00  0.00     0.198 A 
ATOM     91  C   UNL A   1      37.325  29.591  27.946  1.00  0.00     0.198 A 
ATOM     92  F   UNL A   1      39.411  29.070  27.038  1.00  0.00    -0.203 F 
ATOM     93  F   UNL A   1      36.100  29.426  31.339  1.00  0.00    -0.200 F 
ATOM     94  C   UNL A   1      36.478  29.709  29.031  1.00  0.00     0.200 A 
ATOM     95  F   UNL A   1      36.941  30.040  26.741  1.00  0.00    -0.200 F 
ATOM     96  F   UNL A   1      35.272  30.275  28.884  1.00  0.00    -0.200 F 
ENDBRANCH  62  86
BRANCH  74  97
ATOM     97  C   UNL A   1      44.551  28.080  32.405  1.00  0.00     0.064 A 
ATOM     98  C   UNL A   1      44.424  26.699  32.170  1.00  0.00     0.173 A 
ATOM     99  C   UNL A   1      44.751  28.486  33.730  1.00  0.00     0.173 A 
ATOM    100  F   UNL A   1      44.332  26.218  30.926  1.00  0.00    -0.203 F 
ATOM    101  C   UNL A   1      44.452  25.777  33.214  1.00  0.00     0.198 A 
ATOM    102  C   UNL A   1      44.814  27.561  34.768  1.00  0.00     0.198 A 
ATOM    103  F   UNL A   1      44.937  29.785  34.012  1.00  0.00    -0.203 F 
ATOM    104  F   UNL A   1      44.319  24.467  32.959  1.00  0.00    -0.200 F 
ATOM    105  C   UNL A   1      44.655  26.208  34.513  1.00  0.00     0.200 A 
ATOM    106  F   UNL A   1      45.060  27.979  36.018  1.00  0.00    -0.200 F 
ATOM    107  F   UNL A   1      44.724  25.321  35.514  1.00  0.00    -0.200 F 
ENDBRANCH  74  97
ENDBRANCH  48  49
ENDBRANCH  40  43
ENDBRANCH  38  39
ENDBRANCH  37  38
ENDBRANCH  36  37
ENDBRANCH  35  36
ENDBRANCH  34  35
ENDBRANCH   1  34
TORSDOF 19
ENDMDL
MODEL 2
REMARK VINA RESULT:     -11.9      4.767      9.773
REMARK SMILES O=C(CSc1nnnn1-c1ccc(C(=O)NCCCCCCNC(=O)c2ccc(-c3c4nc(c(-c5c(F)c(F)c(F)c(F)c5F)c5ccc([nH]5)c(-c5c(F)c(F)c(F)c(F)c5F)c5nc(c(-c6c(F)c(F)c(F)c(F)c6F)c6ccc3[nH]6)C=C5)C=C4)cc2)cc1)Nc1nc(-c2ccccc2)cs1
REMARK SMILES IDX 17 1 16 2 14 3 15 4 13 6 10 7 11 8 90 9 12 10 89 11 9 12
REMARK SMILES IDX 5 13 6 14 7 15 8 16 4 17 3 18 2 19 1 20 91 21 92 23 93 24
REMARK SMILES IDX 102 25 94 26 101 27 95 28 96 29 100 30 97 31 99 32 98 33
REMARK SMILES IDX 18 34 19 35 20 36 21 37 22 38 23 39 24 40 25 42 26 43 27 44
REMARK SMILES IDX 88 45 28 46 87 47 29 48 30 49 31 50 81 51 32 52 86 53 80 54
REMARK SMILES IDX 82 55 33 56 85 57 79 58 78 59 34 61 66 62 46 63 65 64 47 65
REMARK SMILES IDX 50 66 64 67 83 68 48 69 49 70 63 72 84 73 51 74 35 75 36 76
REMARK SMILES IDX 44 77 37 78 38 79 42 80 45 81 39 82 40 83 43 84 41 85 67 86
REMARK SMILES IDX 68 87 76 88 69 89 70 90 74 91 77 92 71 93 72 94 75 95 73 96
REMARK SMILES IDX 52 97 53 98 61 99 54 100 55 101 59 102 62 103 56 104 57 105
REMARK SMILES IDX 60 106 58 107
REMARK H PARENT 16 5 91 22 23 41 82 60 50 71
REMARK Flexibility Score: inf
ROOT
ATOM      1  C   UNL A   1      46.266  30.207  28.019  1.00  0.00     0.116 C 
ENDROOT
BRANCH   1   2
ATOM      2  N   UNL A   1      46.437  29.999  26.593  1.00  0.00    -0.352 N 
ATOM      3  C   UNL A   1      46.274  28.910  25.776  1.00  0.00     0.251 C 
ATOM      4  O   UNL A   1      46.510  29.060  24.577  1.00  0.00    -0.269 OA
ATOM      5  H   UNL A   1      46.729  30.808  26.113  1.00  0.00     0.163 HD
BRANCH   3   6
ATOM      6  C   UNL A   1      45.755  27.596  26.251  1.00  0.00     0.039 A 
ATOM      7  C   UNL A   1      44.722  25.289  27.445  1.00  0.00     0.069 A 
ATOM      8  C   UNL A   1      43.889  26.395  27.277  1.00  0.00     0.029 A 
ATOM      9  C   UNL A   1      46.019  25.283  26.925  1.00  0.00     0.029 A 
ATOM     10  C   UNL A   1      44.425  27.558  26.713  1.00  0.00     0.016 A 
ATOM     11  C   UNL A   1      46.503  26.417  26.272  1.00  0.00     0.016 A 
BRANCH   7  12
ATOM     12  N   UNL A   1      44.267  24.165  28.150  1.00  0.00    -0.187 N 
ATOM     13  C   UNL A   1      43.278  23.265  27.811  1.00  0.00     0.214 A 
ATOM     14  N   UNL A   1      43.005  22.518  28.855  1.00  0.00    -0.101 NA
ATOM     15  N   UNL A   1      43.876  22.928  29.839  1.00  0.00    -0.022 NA
ATOM     16  N   UNL A   1      44.696  23.876  29.395  1.00  0.00    -0.039 NA
BRANCH  13  17
ATOM     17  S   UNL A   1      42.833  22.902  26.173  1.00  0.00    -0.074 SA
BRANCH  17  18
ATOM     18  C   UNL A   1      42.135  21.246  26.312  1.00  0.00     0.178 C 
BRANCH  18  19
ATOM     19  C   UNL A   1      40.627  21.186  26.465  1.00  0.00     0.236 C 
ATOM     20  O   UNL A   1      40.160  20.649  27.467  1.00  0.00    -0.274 OA
ATOM     21  N   UNL A   1      39.921  21.833  25.478  1.00  0.00    -0.301 N 
ATOM     22  H   UNL A   1      40.408  22.204  24.708  1.00  0.00     0.172 HD
BRANCH  21  23
ATOM     23  C   UNL A   1      38.564  21.974  25.533  1.00  0.00     0.189 A 
ATOM     24  N   UNL A   1      37.634  21.163  25.104  1.00  0.00    -0.220 NA
ATOM     25  S   UNL A   1      38.036  23.416  26.280  1.00  0.00    -0.105 S 
ATOM     26  C   UNL A   1      36.398  21.749  25.291  1.00  0.00     0.084 A 
ATOM     27  C   UNL A   1      36.415  22.989  25.899  1.00  0.00     0.097 A 
BRANCH  26  28
ATOM     28  C   UNL A   1      35.182  21.081  24.876  1.00  0.00     0.001 A 
ATOM     29  C   UNL A   1      34.096  21.837  24.417  1.00  0.00     0.010 A 
ATOM     30  C   UNL A   1      35.071  19.688  24.955  1.00  0.00     0.010 A 
ATOM     31  C   UNL A   1      32.916  21.203  24.025  1.00  0.00     0.001 A 
ATOM     32  C   UNL A   1      33.885  19.058  24.573  1.00  0.00     0.001 A 
ATOM     33  C   UNL A   1      32.811  19.815  24.105  1.00  0.00     0.000 A 
ENDBRANCH  26  28
ENDBRANCH  21  23
ENDBRANCH  18  19
ENDBRANCH  17  18
ENDBRANCH  13  17
ENDBRANCH   7  12
ENDBRANCH   3   6
ENDBRANCH   1   2
BRANCH   1  34
ATOM     34  C   UNL A   1      45.016  31.051  28.283  1.00  0.00     0.021 C 
BRANCH  34  35
ATOM     35  C   UNL A   1      44.108  31.196  27.054  1.00  0.00     0.002 C 
BRANCH  35  36
ATOM     36  C   UNL A   1      43.731  32.639  26.675  1.00  0.00     0.002 C 
BRANCH  36  37
ATOM     37  C   UNL A   1      44.747  33.400  25.812  1.00  0.00     0.021 C 
BRANCH  37  38
ATOM     38  C   UNL A   1      44.331  34.830  25.500  1.00  0.00     0.116 C 
BRANCH  38  39
ATOM     39  N   UNL A   1      45.269  35.809  26.055  1.00  0.00    -0.352 N 
ATOM     40  C   UNL A   1      45.149  36.560  27.203  1.00  0.00     0.251 C 
ATOM     41  H   UNL A   1      46.096  35.947  25.538  1.00  0.00     0.163 HD
ATOM     42  O   UNL A   1      45.810  37.582  27.369  1.00  0.00    -0.269 OA
BRANCH  40  43
ATOM     43  C   UNL A   1      44.210  36.110  28.238  1.00  0.00     0.039 A 
ATOM     44  C   UNL A   1      42.899  36.590  28.299  1.00  0.00     0.014 A 
ATOM     45  C   UNL A   1      44.662  35.142  29.128  1.00  0.00     0.014 A 
ATOM     46  C   UNL A   1      42.020  36.021  29.216  1.00  0.00     0.010 A 
ATOM     47  C   UNL A   1      43.757  34.466  29.898  1.00  0.00     0.010 A 
ATOM     48  C   UNL A   1      42.454  34.944  30.001  1.00  0.00    -0.014 A 
BRANCH  48  49
ATOM     49  C   UNL A   1      41.537  34.235  30.888  1.00  0.00     0.031 A 
ATOM     50  C   UNL A   1      41.992  34.093  32.298  1.00  0.00     0.074 A 
ATOM     51  C   UNL A   1      40.268  33.954  30.520  1.00  0.00     0.049 A 
ATOM     52  N   UNL A   1      42.205  33.003  32.960  1.00  0.00    -0.248 NA
ATOM     53  C   UNL A   1      42.346  35.316  33.037  1.00  0.00     0.031 C 
ATOM     54  C   UNL A   1      39.579  34.314  29.272  1.00  0.00     0.029 A 
ATOM     55  N   UNL A   1      39.275  33.378  31.248  1.00  0.00    -0.354 N 
ATOM     56  C   UNL A   1      42.538  33.396  34.256  1.00  0.00     0.074 A 
ATOM     57  C   UNL A   1      42.773  34.814  34.198  1.00  0.00     0.031 C 
ATOM     58  C   UNL A   1      38.248  34.168  29.429  1.00  0.00     0.029 A 
ATOM     59  C   UNL A   1      38.007  33.529  30.707  1.00  0.00     0.049 A 
ATOM     60  H   UNL A   1      39.443  32.893  32.090  1.00  0.00     0.167 HD
ATOM     61  C   UNL A   1      42.347  32.556  35.313  1.00  0.00     0.037 A 
ATOM     62  C   UNL A   1      36.831  33.169  31.272  1.00  0.00     0.037 A 
ATOM     63  C   UNL A   1      42.226  31.188  34.870  1.00  0.00     0.049 A 
ATOM     64  C   UNL A   1      37.138  32.168  32.321  1.00  0.00     0.074 A 
ATOM     65  C   UNL A   1      43.039  30.316  34.172  1.00  0.00     0.029 A 
ATOM     66  N   UNL A   1      40.973  30.633  34.821  1.00  0.00    -0.354 N 
ATOM     67  N   UNL A   1      37.611  30.978  32.068  1.00  0.00    -0.248 NA
ATOM     68  C   UNL A   1      37.353  32.651  33.675  1.00  0.00     0.031 C 
ATOM     69  C   UNL A   1      42.152  29.576  33.333  1.00  0.00     0.029 A 
ATOM     70  C   UNL A   1      40.852  29.997  33.614  1.00  0.00     0.049 A 
ATOM     71  H   UNL A   1      40.286  30.682  35.525  1.00  0.00     0.167 HD
ATOM     72  C   UNL A   1      38.540  30.748  33.072  1.00  0.00     0.074 A 
ATOM     73  C   UNL A   1      38.264  31.765  34.085  1.00  0.00     0.031 C 
ATOM     74  C   UNL A   1      39.622  29.942  32.856  1.00  0.00     0.037 A 
BRANCH  61  75
ATOM     75  C   UNL A   1      41.871  33.001  36.681  1.00  0.00     0.064 A 
ATOM     76  C   UNL A   1      42.563  32.544  37.823  1.00  0.00     0.173 A 
ATOM     77  C   UNL A   1      40.603  33.570  36.936  1.00  0.00     0.173 A 
ATOM     78  F   UNL A   1      43.778  31.985  37.709  1.00  0.00    -0.203 F 
ATOM     79  C   UNL A   1      41.982  32.551  39.095  1.00  0.00     0.198 A 
ATOM     80  C   UNL A   1      40.049  33.622  38.214  1.00  0.00     0.198 A 
ATOM     81  F   UNL A   1      39.797  33.997  35.958  1.00  0.00    -0.203 F 
ATOM     82  F   UNL A   1      42.621  31.971  40.120  1.00  0.00    -0.200 F 
ATOM     83  C   UNL A   1      40.720  33.078  39.287  1.00  0.00     0.200 A 
ATOM     84  F   UNL A   1      38.818  34.127  38.376  1.00  0.00    -0.200 F 
ATOM     85  F   UNL A   1      40.129  33.015  40.486  1.00  0.00    -0.200 F 
ENDBRANCH  61  75
BRANCH  62  86
ATOM     86  C   UNL A   1      35.522  33.845  31.144  1.00  0.00     0.064 A 
ATOM     87  C   UNL A   1      35.153  34.895  31.998  1.00  0.00     0.173 A 
ATOM     88  C   UNL A   1      34.710  33.642  30.011  1.00  0.00     0.173 A 
ATOM     89  F   UNL A   1      35.902  35.184  33.072  1.00  0.00    -0.203 F 
ATOM     90  C   UNL A   1      34.043  35.701  31.726  1.00  0.00     0.198 A 
ATOM     91  C   UNL A   1      33.600  34.443  29.744  1.00  0.00     0.198 A 
ATOM     92  F   UNL A   1      35.031  32.718  29.092  1.00  0.00    -0.203 F 
ATOM     93  F   UNL A   1      33.750  36.730  32.536  1.00  0.00    -0.200 F 
ATOM     94  C   UNL A   1      33.272  35.480  30.596  1.00  0.00     0.200 A 
ATOM     95  F   UNL A   1      32.888  34.241  28.626  1.00  0.00    -0.200 F 
ATOM     96  F   UNL A   1      32.243  36.289  30.306  1.00  0.00    -0.200 F 
ENDBRANCH  62  86
BRANCH  74  97
ATOM     97  C   UNL A   1      39.639  29.117  31.598  1.00  0.00     0.064 A 
ATOM     98  C   UNL A   1      39.016  27.862  31.474  1.00  0.00     0.173 A 
ATOM     99  C   UNL A   1      40.176  29.681  30.435  1.00  0.00     0.173 A 
ATOM    100  F   UNL A   1      38.389  27.299  32.511  1.00  0.00    -0.203 F 
ATOM    101  C   UNL A   1      38.973  27.188  30.255  1.00  0.00     0.198 A 
ATOM    102  C   UNL A   1      40.102  29.022  29.210  1.00  0.00     0.198 A 
ATOM    103  F   UNL A   1      40.733  30.902  30.477  1.00  0.00    -0.203 F 
ATOM    104  F   UNL A   1      38.380  25.988  30.171  1.00  0.00    -0.200 F 
ATOM    105  C   UNL A   1      39.510  27.772  29.122  1.00  0.00     0.200 A 
ATOM    106  F   UNL A   1      40.580  29.613  28.106  1.00  0.00    -0.200 F 
ATOM    107  F   UNL A   1      39.434  27.145  27.941  1.00  0.00    -0.200 F 
ENDBRANCH  74  97
ENDBRANCH  48  49
ENDBRANCH  40  43
ENDBRANCH  38  39
ENDBRANCH  37  38
ENDBRANCH  36  37
ENDBRANCH  35  36
ENDBRANCH  34  35
ENDBRANCH   1  34
TORSDOF 19
ENDMDL
MODEL 3
REMARK VINA RESULT:     -11.8      4.967      8.638
REMARK SMILES O=C(CSc1nnnn1-c1ccc(C(=O)NCCCCCCNC(=O)c2ccc(-c3c4nc(c(-c5c(F)c(F)c(F)c(F)c5F)c5ccc([nH]5)c(-c5c(F)c(F)c(F)c(F)c5F)c5nc(c(-c6c(F)c(F)c(F)c(F)c6F)c6ccc3[nH]6)C=C5)C=C4)cc2)cc1)Nc1nc(-c2ccccc2)cs1
REMARK SMILES IDX 17 1 16 2 14 3 15 4 13 6 10 7 11 8 90 9 12 10 89 11 9 12
REMARK SMILES IDX 5 13 6 14 7 15 8 16 4 17 3 18 2 19 1 20 91 21 92 23 93 24
REMARK SMILES IDX 102 25 94 26 101 27 95 28 96 29 100 30 97 31 99 32 98 33
REMARK SMILES IDX 18 34 19 35 20 36 21 37 22 38 23 39 24 40 25 42 26 43 27 44
REMARK SMILES IDX 88 45 28 46 87 47 29 48 30 49 31 50 81 51 32 52 86 53 80 54
REMARK SMILES IDX 82 55 33 56 85 57 79 58 78 59 34 61 66 62 46 63 65 64 47 65
REMARK SMILES IDX 50 66 64 67 83 68 48 69 49 70 63 72 84 73 51 74 35 75 36 76
REMARK SMILES IDX 44 77 37 78 38 79 42 80 45 81 39 82 40 83 43 84 41 85 67 86
REMARK SMILES IDX 68 87 76 88 69 89 70 90 74 91 77 92 71 93 72 94 75 95 73 96
REMARK SMILES IDX 52 97 53 98 61 99 54 100 55 101 59 102 62 103 56 104 57 105
REMARK SMILES IDX 60 106 58 107
REMARK H PARENT 16 5 91 22 23 41 82 60 50 71
REMARK Flexibility Score: inf
ROOT
ATOM      1  C   UNL A   1      47.215  25.605  27.777  1.00  0.00     0.116 C 
ENDROOT
BRANCH   1   2
ATOM      2  N   UNL A   1      46.526  26.174  26.634  1.00  0.00    -0.352 N 
ATOM      3  C   UNL A   1      45.929  25.627  25.527  1.00  0.00     0.251 C 
ATOM      4  O   UNL A   1      45.421  26.400  24.715  1.00  0.00    -0.269 OA
ATOM      5  H   UNL A   1      46.475  27.158  26.659  1.00  0.00     0.163 HD
BRANCH   3   6
ATOM      6  C   UNL A   1      45.798  24.159  25.306  1.00  0.00     0.039 A 
ATOM      7  C   UNL A   1      45.681  21.367  25.209  1.00  0.00     0.069 A 
ATOM      8  C   UNL A   1      44.910  22.044  26.153  1.00  0.00     0.029 A 
ATOM      9  C   UNL A   1      46.415  22.068  24.248  1.00  0.00     0.029 A 
ATOM     10  C   UNL A   1      45.002  23.439  26.219  1.00  0.00     0.016 A 
ATOM     11  C   UNL A   1      46.414  23.463  24.264  1.00  0.00     0.016 A 
BRANCH   7  12
ATOM     12  N   UNL A   1      45.738  19.966  25.220  1.00  0.00    -0.187 N 
ATOM     13  C   UNL A   1      44.728  19.055  25.455  1.00  0.00     0.214 A 
ATOM     14  N   UNL A   1      45.257  17.864  25.614  1.00  0.00    -0.101 NA
ATOM     15  N   UNL A   1      46.610  18.034  25.421  1.00  0.00    -0.022 NA
ATOM     16  N   UNL A   1      46.900  19.292  25.107  1.00  0.00    -0.039 NA
BRANCH  13  17
ATOM     17  S   UNL A   1      43.054  19.374  25.129  1.00  0.00    -0.074 SA
BRANCH  17  18
ATOM     18  C   UNL A   1      42.330  19.408  26.779  1.00  0.00     0.178 C 
BRANCH  18  19
ATOM     19  C   UNL A   1      41.508  20.641  27.104  1.00  0.00     0.236 C 
ATOM     20  O   UNL A   1      41.051  20.758  28.239  1.00  0.00    -0.274 OA
ATOM     21  N   UNL A   1      41.429  21.566  26.089  1.00  0.00    -0.301 N 
ATOM     22  H   UNL A   1      41.815  21.345  25.212  1.00  0.00     0.172 HD
BRANCH  21  23
ATOM     23  C   UNL A   1      40.828  22.779  26.262  1.00  0.00     0.189 A 
ATOM     24  N   UNL A   1      41.367  23.969  26.287  1.00  0.00    -0.220 NA
ATOM     25  S   UNL A   1      39.134  22.703  26.461  1.00  0.00    -0.105 S 
ATOM     26  C   UNL A   1      40.393  24.904  26.574  1.00  0.00     0.084 A 
ATOM     27  C   UNL A   1      39.114  24.402  26.725  1.00  0.00     0.097 A 
BRANCH  26  28
ATOM     28  C   UNL A   1      40.716  26.310  26.695  1.00  0.00     0.001 A 
ATOM     29  C   UNL A   1      41.864  26.815  26.072  1.00  0.00     0.010 A 
ATOM     30  C   UNL A   1      39.908  27.164  27.454  1.00  0.00     0.010 A 
ATOM     31  C   UNL A   1      42.190  28.167  26.192  1.00  0.00     0.001 A 
ATOM     32  C   UNL A   1      40.243  28.514  27.581  1.00  0.00     0.001 A 
ATOM     33  C   UNL A   1      41.380  29.014  26.947  1.00  0.00     0.000 A 
ENDBRANCH  26  28
ENDBRANCH  21  23
ENDBRANCH  18  19
ENDBRANCH  17  18
ENDBRANCH  13  17
ENDBRANCH   7  12
ENDBRANCH   3   6
ENDBRANCH   1   2
BRANCH   1  34
ATOM     34  C   UNL A   1      48.650  26.134  27.846  1.00  0.00     0.021 C 
BRANCH  34  35
ATOM     35  C   UNL A   1      49.355  25.813  29.171  1.00  0.00     0.002 C 
BRANCH  35  36
ATOM     36  C   UNL A   1      49.148  26.839  30.297  1.00  0.00     0.002 C 
BRANCH  36  37
ATOM     37  C   UNL A   1      47.698  27.270  30.564  1.00  0.00     0.021 C 
BRANCH  37  38
ATOM     38  C   UNL A   1      47.041  26.519  31.712  1.00  0.00     0.116 C 
BRANCH  38  39
ATOM     39  N   UNL A   1      46.369  25.299  31.258  1.00  0.00    -0.352 N 
ATOM     40  C   UNL A   1      45.021  25.015  31.242  1.00  0.00     0.251 C 
ATOM     41  H   UNL A   1      46.960  24.588  30.918  1.00  0.00     0.163 HD
ATOM     42  O   UNL A   1      44.614  23.857  31.183  1.00  0.00    -0.269 OA
BRANCH  40  43
ATOM     43  C   UNL A   1      44.071  26.132  31.294  1.00  0.00     0.039 A 
ATOM     44  C   UNL A   1      43.794  26.806  32.487  1.00  0.00     0.014 A 
ATOM     45  C   UNL A   1      43.492  26.529  30.094  1.00  0.00     0.014 A 
ATOM     46  C   UNL A   1      42.991  27.942  32.442  1.00  0.00     0.010 A 
ATOM     47  C   UNL A   1      42.856  27.738  30.026  1.00  0.00     0.010 A 
ATOM     48  C   UNL A   1      42.541  28.413  31.201  1.00  0.00    -0.014 A 
BRANCH  48  49
ATOM     49  C   UNL A   1      41.800  29.665  31.089  1.00  0.00     0.031 A 
ATOM     50  C   UNL A   1      42.606  30.853  30.698  1.00  0.00     0.074 A 
ATOM     51  C   UNL A   1      40.449  29.694  31.093  1.00  0.00     0.049 A 
ATOM     52  N   UNL A   1      42.785  31.948  31.361  1.00  0.00    -0.248 NA
ATOM     53  C   UNL A   1      43.389  30.778  29.454  1.00  0.00     0.031 C 
ATOM     54  C   UNL A   1      39.513  28.562  31.155  1.00  0.00     0.029 A 
ATOM     55  N   UNL A   1      39.617  30.755  30.921  1.00  0.00    -0.354 N 
ATOM     56  C   UNL A   1      43.548  32.778  30.541  1.00  0.00     0.074 A 
ATOM     57  C   UNL A   1      44.027  31.950  29.467  1.00  0.00     0.031 C 
ATOM     58  C   UNL A   1      38.282  28.970  30.784  1.00  0.00     0.029 A 
ATOM     59  C   UNL A   1      38.301  30.411  30.648  1.00  0.00     0.049 A 
ATOM     60  H   UNL A   1      39.923  31.690  30.986  1.00  0.00     0.167 HD
ATOM     61  C   UNL A   1      43.511  34.133  30.688  1.00  0.00     0.037 A 
ATOM     62  C   UNL A   1      37.293  31.250  30.313  1.00  0.00     0.037 A 
ATOM     63  C   UNL A   1      43.003  34.498  31.988  1.00  0.00     0.049 A 
ATOM     64  C   UNL A   1      37.688  32.608  30.754  1.00  0.00     0.074 A 
ATOM     65  C   UNL A   1      43.394  34.250  33.290  1.00  0.00     0.029 A 
ATOM     66  N   UNL A   1      41.706  34.936  32.077  1.00  0.00    -0.354 N 
ATOM     67  N   UNL A   1      37.827  32.950  32.006  1.00  0.00    -0.248 NA
ATOM     68  C   UNL A   1      38.375  33.457  29.795  1.00  0.00     0.031 C 
ATOM     69  C   UNL A   1      42.176  34.067  34.012  1.00  0.00     0.029 A 
ATOM     70  C   UNL A   1      41.120  34.276  33.125  1.00  0.00     0.049 A 
ATOM     71  H   UNL A   1      41.275  35.603  31.494  1.00  0.00     0.167 HD
ATOM     72  C   UNL A   1      38.943  33.773  32.025  1.00  0.00     0.074 A 
ATOM     73  C   UNL A   1      39.175  34.130  30.627  1.00  0.00     0.031 C 
ATOM     74  C   UNL A   1      39.738  33.853  33.133  1.00  0.00     0.037 A 
BRANCH  61  75
ATOM     75  C   UNL A   1      43.547  35.118  29.536  1.00  0.00     0.064 A 
ATOM     76  C   UNL A   1      44.599  36.056  29.477  1.00  0.00     0.173 A 
ATOM     77  C   UNL A   1      42.448  35.394  28.691  1.00  0.00     0.173 A 
ATOM     78  F   UNL A   1      45.697  35.902  30.232  1.00  0.00    -0.203 F 
ATOM     79  C   UNL A   1      44.504  37.231  28.724  1.00  0.00     0.198 A 
ATOM     80  C   UNL A   1      42.381  36.541  27.902  1.00  0.00     0.198 A 
ATOM     81  F   UNL A   1      41.348  34.634  28.672  1.00  0.00    -0.203 F 
ATOM     82  F   UNL A   1      45.465  38.159  28.818  1.00  0.00    -0.200 F 
ATOM     83  C   UNL A   1      43.389  37.478  27.948  1.00  0.00     0.200 A 
ATOM     84  F   UNL A   1      41.284  36.767  27.165  1.00  0.00    -0.200 F 
ATOM     85  F   UNL A   1      43.259  38.636  27.288  1.00  0.00    -0.200 F 
ENDBRANCH  61  75
BRANCH  62  86
ATOM     86  C   UNL A   1      36.160  30.983  29.400  1.00  0.00     0.064 A 
ATOM     87  C   UNL A   1      35.100  31.891  29.265  1.00  0.00     0.173 A 
ATOM     88  C   UNL A   1      36.226  29.947  28.448  1.00  0.00     0.173 A 
ATOM     89  F   UNL A   1      34.994  32.933  30.102  1.00  0.00    -0.203 F 
ATOM     90  C   UNL A   1      34.167  31.775  28.229  1.00  0.00     0.198 A 
ATOM     91  C   UNL A   1      35.291  29.828  27.419  1.00  0.00     0.198 A 
ATOM     92  F   UNL A   1      37.251  29.081  28.444  1.00  0.00    -0.203 F 
ATOM     93  F   UNL A   1      33.197  32.691  28.098  1.00  0.00    -0.200 F 
ATOM     94  C   UNL A   1      34.268  30.749  27.303  1.00  0.00     0.200 A 
ATOM     95  F   UNL A   1      35.426  28.854  26.508  1.00  0.00    -0.200 F 
ATOM     96  F   UNL A   1      33.408  30.672  26.277  1.00  0.00    -0.200 F 
ENDBRANCH  62  86
BRANCH  74  97
ATOM     97  C   UNL A   1      39.230  33.230  34.404  1.00  0.00     0.064 A 
ATOM     98  C   UNL A   1      38.265  33.822  35.238  1.00  0.00     0.173 A 
ATOM     99  C   UNL A   1      39.622  31.921  34.711  1.00  0.00     0.173 A 
ATOM    100  F   UNL A   1      37.761  35.028  34.959  1.00  0.00    -0.203 F 
ATOM    101  C   UNL A   1      37.753  33.154  36.349  1.00  0.00     0.198 A 
ATOM    102  C   UNL A   1      39.084  31.242  35.801  1.00  0.00     0.198 A 
ATOM    103  F   UNL A   1      40.496  31.280  33.920  1.00  0.00    -0.203 F 
ATOM    104  F   UNL A   1      36.841  33.750  37.131  1.00  0.00    -0.200 F 
ATOM    105  C   UNL A   1      38.158  31.860  36.625  1.00  0.00     0.200 A 
ATOM    106  F   UNL A   1      39.442  29.971  36.036  1.00  0.00    -0.200 F 
ATOM    107  F   UNL A   1      37.636  31.200  37.668  1.00  0.00    -0.200 F 
ENDBRANCH  74  97
ENDBRANCH  48  49
ENDBRANCH  40  43
ENDBRANCH  38  39
ENDBRANCH  37  38
ENDBRANCH  36  37
ENDBRANCH  35  36
ENDBRANCH  34  35
ENDBRANCH   1  34
TORSDOF 19
ENDMDL
