MODEL 1
REMARK VINA RESULT:     -10.8      0.000      0.000
REMARK SMILES CC(=O)N[C@H](CC(=O)NCC(=O)NCCCCCCNC(=O)c1ccc(-c2c3nc(c(-c4c(F)c(F)c(F)c(F)c4F)c4ccc([nH]4)c(-c4c(F)c(F)c(F)c(F)c4F)c4nc(c(-c5c(F)c(F)c(F)c(F)c5F)c5ccc2[nH]5)C=C4)C=C3)cc1)c1cccs1
REMARK SMILES IDX 15 1 14 2 13 3 11 4 12 5 10 7 9 8 7 9 8 10 6 12 5 13 4 14
REMARK SMILES IDX 1 15 2 16 3 17 86 19 87 20 90 21 88 22 89 23 16 24 17 25
REMARK SMILES IDX 18 26 19 27 20 28 21 29 22 31 23 32 24 33 85 34 25 35 84 36
REMARK SMILES IDX 26 37 27 38 28 39 78 40 29 41 83 42 77 43 79 44 30 45 82 46
REMARK SMILES IDX 76 47 75 48 31 50 63 51 43 52 62 53 44 54 47 55 61 56 80 57
REMARK SMILES IDX 45 58 46 59 60 61 81 62 48 63 32 64 33 65 41 66 34 67 35 68
REMARK SMILES IDX 39 69 42 70 36 71 37 72 40 73 38 74 64 75 65 76 73 77 66 78
REMARK SMILES IDX 67 79 71 80 74 81 68 82 69 83 72 84 70 85 49 86 50 87 58 88
REMARK SMILES IDX 51 89 52 90 56 91 59 92 53 93 54 94 57 95 55 96
REMARK H PARENT 13 6 9 11 4 18 20 30 79 49 47 60
REMARK Flexibility Score: inf
ROOT
ATOM      1  C   UNL A   1      31.393  26.479  25.121  1.00  0.00     0.021 C 
ENDROOT
BRANCH   1   2
ATOM      2  C   UNL A   1      30.649  25.213  24.710  1.00  0.00     0.116 C 
BRANCH   2   3
ATOM      3  N   UNL A   1      30.031  24.526  25.827  1.00  0.00    -0.355 N 
ATOM      4  C   UNL A   1      30.386  23.365  26.453  1.00  0.00     0.239 C 
ATOM      5  O   UNL A   1      29.881  23.136  27.555  1.00  0.00    -0.273 OA
ATOM      6  H   UNL A   1      29.229  24.966  26.192  1.00  0.00     0.163 HD
BRANCH   4   7
ATOM      7  C   UNL A   1      31.498  22.450  25.905  1.00  0.00     0.216 C 
BRANCH   7   8
ATOM      8  N   UNL A   1      32.657  22.336  26.781  1.00  0.00    -0.347 N 
ATOM      9  C   UNL A   1      33.823  21.642  26.635  1.00  0.00     0.222 C 
ATOM     10  O   UNL A   1      34.576  21.566  27.605  1.00  0.00    -0.275 OA
ATOM     11  H   UNL A   1      32.587  22.845  27.620  1.00  0.00     0.164 HD
BRANCH   9  12
ATOM     12  C   UNL A   1      34.196  21.037  25.296  1.00  0.00     0.130 C 
BRANCH  12  13
ATOM     13  C   UNL A   1      35.029  21.967  24.405  1.00  0.00     0.131 C 
BRANCH  13  14
ATOM     14  N   UNL A   1      34.451  23.253  24.003  1.00  0.00    -0.348 N 
ATOM     15  C   UNL A   1      32.752  22.695  22.279  1.00  0.00     0.114 C 
ATOM     16  C   UNL A   1      33.693  23.648  22.949  1.00  0.00     0.217 C 
ATOM     17  O   UNL A   1      33.763  24.824  22.590  1.00  0.00    -0.275 OA
ATOM     18  H   UNL A   1      34.658  23.984  24.629  1.00  0.00     0.164 HD
ENDBRANCH  13  14
BRANCH  13  19
ATOM     19  C   UNL A   1      36.359  22.325  25.050  1.00  0.00     0.027 A 
ATOM     20  C   UNL A   1      36.778  23.524  25.597  1.00  0.00     0.017 A 
ATOM     21  S   UNL A   1      37.638  21.187  25.055  1.00  0.00    -0.147 S 
ATOM     22  C   UNL A   1      38.088  23.444  26.159  1.00  0.00     0.012 A 
ATOM     23  C   UNL A   1      38.646  22.199  25.986  1.00  0.00     0.065 A 
ENDBRANCH  13  19
ENDBRANCH  12  13
ENDBRANCH   9  12
ENDBRANCH   7   8
ENDBRANCH   4   7
ENDBRANCH   2   3
ENDBRANCH   1   2
BRANCH   1  24
ATOM     24  C   UNL A   1      31.013  27.017  26.506  1.00  0.00     0.002 C 
BRANCH  24  25
ATOM     25  C   UNL A   1      32.077  27.868  27.216  1.00  0.00     0.002 C 
BRANCH  25  26
ATOM     26  C   UNL A   1      33.501  27.734  26.677  1.00  0.00     0.021 C 
BRANCH  26  27
ATOM     27  C   UNL A   1      34.040  28.931  25.908  1.00  0.00     0.116 C 
BRANCH  27  28
ATOM     28  N   UNL A   1      33.765  30.187  26.580  1.00  0.00    -0.352 N 
ATOM     29  C   UNL A   1      34.423  30.799  27.616  1.00  0.00     0.251 C 
ATOM     30  H   UNL A   1      32.983  30.678  26.238  1.00  0.00     0.163 HD
ATOM     31  O   UNL A   1      33.913  31.783  28.159  1.00  0.00    -0.269 OA
BRANCH  29  32
ATOM     32  C   UNL A   1      35.722  30.290  28.116  1.00  0.00     0.039 A 
ATOM     33  C   UNL A   1      36.846  30.395  27.288  1.00  0.00     0.014 A 
ATOM     34  C   UNL A   1      35.844  29.665  29.360  1.00  0.00     0.014 A 
ATOM     35  C   UNL A   1      38.089  29.923  27.723  1.00  0.00     0.010 A 
ATOM     36  C   UNL A   1      37.099  29.266  29.826  1.00  0.00     0.010 A 
ATOM     37  C   UNL A   1      38.233  29.378  29.008  1.00  0.00    -0.014 A 
BRANCH  37  38
ATOM     38  C   UNL A   1      39.552  28.893  29.501  1.00  0.00     0.031 A 
ATOM     39  C   UNL A   1      40.333  29.709  30.499  1.00  0.00     0.074 A 
ATOM     40  C   UNL A   1      40.076  27.749  29.015  1.00  0.00     0.049 A 
ATOM     41  N   UNL A   1      41.531  29.500  30.984  1.00  0.00    -0.248 NA
ATOM     42  C   UNL A   1      39.690  30.933  31.003  1.00  0.00     0.031 C 
ATOM     43  C   UNL A   1      39.439  26.877  28.028  1.00  0.00     0.029 A 
ATOM     44  N   UNL A   1      41.274  27.128  29.280  1.00  0.00    -0.354 N 
ATOM     45  C   UNL A   1      41.793  30.577  31.824  1.00  0.00     0.074 A 
ATOM     46  C   UNL A   1      40.647  31.456  31.757  1.00  0.00     0.031 C 
ATOM     47  C   UNL A   1      40.241  25.828  27.782  1.00  0.00     0.029 A 
ATOM     48  C   UNL A   1      41.470  25.974  28.558  1.00  0.00     0.049 A 
ATOM     49  H   UNL A   1      41.930  27.476  29.925  1.00  0.00     0.167 HD
ATOM     50  C   UNL A   1      42.885  30.803  32.593  1.00  0.00     0.037 A 
ATOM     51  C   UNL A   1      42.526  25.139  28.514  1.00  0.00     0.037 A 
ATOM     52  C   UNL A   1      44.005  29.905  32.699  1.00  0.00     0.049 A 
ATOM     53  C   UNL A   1      43.731  25.427  29.372  1.00  0.00     0.074 A 
ATOM     54  C   UNL A   1      45.116  30.009  33.517  1.00  0.00     0.029 A 
ATOM     55  N   UNL A   1      44.159  28.741  31.961  1.00  0.00    -0.354 N 
ATOM     56  N   UNL A   1      43.931  26.406  30.221  1.00  0.00    -0.248 NA
ATOM     57  C   UNL A   1      44.860  24.490  29.269  1.00  0.00     0.031 C 
ATOM     58  C   UNL A   1      45.971  28.941  33.233  1.00  0.00     0.029 A 
ATOM     59  C   UNL A   1      45.363  28.137  32.282  1.00  0.00     0.049 A 
ATOM     60  H   UNL A   1      43.509  28.397  31.307  1.00  0.00     0.167 HD
ATOM     61  C   UNL A   1      45.182  26.179  30.779  1.00  0.00     0.074 A 
ATOM     62  C   UNL A   1      45.694  24.964  30.183  1.00  0.00     0.031 C 
ATOM     63  C   UNL A   1      45.848  26.912  31.704  1.00  0.00     0.037 A 
BRANCH  50  64
ATOM     64  C   UNL A   1      42.938  32.072  33.393  1.00  0.00     0.064 A 
ATOM     65  C   UNL A   1      43.487  33.253  32.871  1.00  0.00     0.173 A 
ATOM     66  C   UNL A   1      42.351  32.128  34.666  1.00  0.00     0.173 A 
ATOM     67  F   UNL A   1      44.066  33.252  31.661  1.00  0.00    -0.203 F 
ATOM     68  C   UNL A   1      43.456  34.440  33.600  1.00  0.00     0.198 A 
ATOM     69  C   UNL A   1      42.296  33.322  35.380  1.00  0.00     0.198 A 
ATOM     70  F   UNL A   1      41.805  31.029  35.209  1.00  0.00    -0.203 F 
ATOM     71  F   UNL A   1      44.012  35.549  33.094  1.00  0.00    -0.200 F 
ATOM     72  C   UNL A   1      42.851  34.475  34.848  1.00  0.00     0.200 A 
ATOM     73  F   UNL A   1      41.696  33.358  36.578  1.00  0.00    -0.200 F 
ATOM     74  F   UNL A   1      42.804  35.624  35.539  1.00  0.00    -0.200 F 
ENDBRANCH  50  64
BRANCH  51  75
ATOM     75  C   UNL A   1      42.509  23.944  27.626  1.00  0.00     0.064 A 
ATOM     76  C   UNL A   1      42.131  22.685  28.118  1.00  0.00     0.173 A 
ATOM     77  C   UNL A   1      42.921  24.021  26.288  1.00  0.00     0.173 A 
ATOM     78  F   UNL A   1      41.750  22.553  29.397  1.00  0.00    -0.203 F 
ATOM     79  C   UNL A   1      42.206  21.546  27.318  1.00  0.00     0.198 A 
ATOM     80  C   UNL A   1      42.963  22.886  25.479  1.00  0.00     0.198 A 
ATOM     81  F   UNL A   1      43.290  25.199  25.765  1.00  0.00    -0.203 F 
ATOM     82  F   UNL A   1      41.908  20.346  27.836  1.00  0.00    -0.200 F 
ATOM     83  C   UNL A   1      42.619  21.647  25.999  1.00  0.00     0.200 A 
ATOM     84  F   UNL A   1      43.349  22.991  24.201  1.00  0.00    -0.200 F 
ATOM     85  F   UNL A   1      42.701  20.551  25.235  1.00  0.00    -0.200 F 
ENDBRANCH  51  75
BRANCH  63  86
ATOM     86  C   UNL A   1      47.175  26.395  32.179  1.00  0.00     0.064 A 
ATOM     87  C   UNL A   1      48.383  26.827  31.613  1.00  0.00     0.173 A 
ATOM     88  C   UNL A   1      47.239  25.496  33.256  1.00  0.00     0.173 A 
ATOM     89  F   UNL A   1      48.378  27.675  30.574  1.00  0.00    -0.203 F 
ATOM     90  C   UNL A   1      49.605  26.360  32.093  1.00  0.00     0.198 A 
ATOM     91  C   UNL A   1      48.462  25.058  33.753  1.00  0.00     0.198 A 
ATOM     92  F   UNL A   1      46.112  25.058  33.838  1.00  0.00    -0.203 F 
ATOM     93  F   UNL A   1      50.746  26.751  31.508  1.00  0.00    -0.200 F 
ATOM     94  C   UNL A   1      49.643  25.484  33.169  1.00  0.00     0.200 A 
ATOM     95  F   UNL A   1      48.496  24.225  34.803  1.00  0.00    -0.200 F 
ATOM     96  F   UNL A   1      50.821  25.047  33.637  1.00  0.00    -0.200 F 
ENDBRANCH  63  86
ENDBRANCH  37  38
ENDBRANCH  29  32
ENDBRANCH  27  28
ENDBRANCH  26  27
ENDBRANCH  25  26
ENDBRANCH  24  25
ENDBRANCH   1  24
TORSDOF 18
ENDMDL
MODEL 2
REMARK VINA RESULT:     -10.7      1.146      2.198
REMARK SMILES CC(=O)N[C@H](CC(=O)NCC(=O)NCCCCCCNC(=O)c1ccc(-c2c3nc(c(-c4c(F)c(F)c(F)c(F)c4F)c4ccc([nH]4)c(-c4c(F)c(F)c(F)c(F)c4F)c4nc(c(-c5c(F)c(F)c(F)c(F)c5F)c5ccc2[nH]5)C=C4)C=C3)cc1)c1cccs1
REMARK SMILES IDX 15 1 14 2 13 3 11 4 12 5 10 7 9 8 7 9 8 10 6 12 5 13 4 14
REMARK SMILES IDX 1 15 2 16 3 17 86 19 87 20 90 21 88 22 89 23 16 24 17 25
REMARK SMILES IDX 18 26 19 27 20 28 21 29 22 31 23 32 24 33 85 34 25 35 84 36
REMARK SMILES IDX 26 37 27 38 28 39 78 40 29 41 83 42 77 43 79 44 30 45 82 46
REMARK SMILES IDX 76 47 75 48 31 50 63 51 43 52 62 53 44 54 47 55 61 56 80 57
REMARK SMILES IDX 45 58 46 59 60 61 81 62 48 63 32 64 33 65 41 66 34 67 35 68
REMARK SMILES IDX 39 69 42 70 36 71 37 72 40 73 38 74 64 75 65 76 73 77 66 78
REMARK SMILES IDX 67 79 71 80 74 81 68 82 69 83 72 84 70 85 49 86 50 87 58 88
REMARK SMILES IDX 51 89 52 90 56 91 59 92 53 93 54 94 57 95 55 96
REMARK H PARENT 13 6 9 11 4 18 20 30 79 49 47 60
REMARK Flexibility Score: inf
ROOT
ATOM      1  C   UNL A   1      31.064  26.903  25.308  1.00  0.00     0.021 C 
ENDROOT
BRANCH   1   2
ATOM      2  C   UNL A   1      30.022  25.850  24.945  1.00  0.00     0.116 C 
BRANCH   2   3
ATOM      3  N   UNL A   1      29.611  25.040  26.075  1.00  0.00    -0.355 N 
ATOM      4  C   UNL A   1      30.043  23.809  26.479  1.00  0.00     0.239 C 
ATOM      5  O   UNL A   1      29.754  23.454  27.625  1.00  0.00    -0.273 OA
ATOM      6  H   UNL A   1      28.912  25.441  26.641  1.00  0.00     0.163 HD
BRANCH   4   7
ATOM      7  C   UNL A   1      30.993  22.955  25.619  1.00  0.00     0.216 C 
BRANCH   7   8
ATOM      8  N   UNL A   1      31.943  22.165  26.392  1.00  0.00    -0.347 N 
ATOM      9  C   UNL A   1      33.245  22.405  26.722  1.00  0.00     0.222 C 
ATOM     10  O   UNL A   1      33.889  21.492  27.238  1.00  0.00    -0.275 OA
ATOM     11  H   UNL A   1      31.586  21.314  26.733  1.00  0.00     0.164 HD
BRANCH   9  12
ATOM     12  C   UNL A   1      33.853  23.778  26.508  1.00  0.00     0.130 C 
BRANCH  12  13
ATOM     13  C   UNL A   1      34.871  23.834  25.363  1.00  0.00     0.131 C 
BRANCH  13  14
ATOM     14  N   UNL A   1      35.850  22.750  25.243  1.00  0.00    -0.348 N 
ATOM     15  C   UNL A   1      37.974  23.689  26.124  1.00  0.00     0.114 C 
ATOM     16  C   UNL A   1      37.206  22.705  25.298  1.00  0.00     0.217 C 
ATOM     17  O   UNL A   1      37.783  21.803  24.689  1.00  0.00    -0.275 OA
ATOM     18  H   UNL A   1      35.438  21.870  25.089  1.00  0.00     0.164 HD
ENDBRANCH  13  14
BRANCH  13  19
ATOM     19  C   UNL A   1      34.190  23.892  24.004  1.00  0.00     0.027 A 
ATOM     20  C   UNL A   1      33.987  22.886  23.077  1.00  0.00     0.017 A 
ATOM     21  S   UNL A   1      33.655  25.395  23.382  1.00  0.00    -0.147 S 
ATOM     22  C   UNL A   1      33.250  23.329  21.937  1.00  0.00     0.012 A 
ATOM     23  C   UNL A   1      32.951  24.670  22.008  1.00  0.00     0.065 A 
ENDBRANCH  13  19
ENDBRANCH  12  13
ENDBRANCH   9  12
ENDBRANCH   7   8
ENDBRANCH   4   7
ENDBRANCH   2   3
ENDBRANCH   1   2
BRANCH   1  24
ATOM     24  C   UNL A   1      31.032  27.348  26.775  1.00  0.00     0.002 C 
BRANCH  24  25
ATOM     25  C   UNL A   1      32.337  27.940  27.330  1.00  0.00     0.002 C 
BRANCH  25  26
ATOM     26  C   UNL A   1      33.597  27.647  26.517  1.00  0.00     0.021 C 
BRANCH  26  27
ATOM     27  C   UNL A   1      34.250  28.842  25.841  1.00  0.00     0.116 C 
BRANCH  27  28
ATOM     28  N   UNL A   1      33.923  30.095  26.497  1.00  0.00    -0.352 N 
ATOM     29  C   UNL A   1      34.531  30.725  27.552  1.00  0.00     0.251 C 
ATOM     30  H   UNL A   1      33.141  30.565  26.128  1.00  0.00     0.163 HD
ATOM     31  O   UNL A   1      33.979  31.699  28.073  1.00  0.00    -0.269 OA
BRANCH  29  32
ATOM     32  C   UNL A   1      35.825  30.250  28.097  1.00  0.00     0.039 A 
ATOM     33  C   UNL A   1      35.819  29.498  29.277  1.00  0.00     0.014 A 
ATOM     34  C   UNL A   1      37.045  30.576  27.498  1.00  0.00     0.014 A 
ATOM     35  C   UNL A   1      37.020  29.035  29.824  1.00  0.00     0.010 A 
ATOM     36  C   UNL A   1      38.236  30.049  28.000  1.00  0.00     0.010 A 
ATOM     37  C   UNL A   1      38.240  29.283  29.176  1.00  0.00    -0.014 A 
BRANCH  37  38
ATOM     38  C   UNL A   1      39.528  28.778  29.727  1.00  0.00     0.031 A 
ATOM     39  C   UNL A   1      40.207  29.513  30.854  1.00  0.00     0.074 A 
ATOM     40  C   UNL A   1      40.115  27.692  29.185  1.00  0.00     0.049 A 
ATOM     41  N   UNL A   1      41.369  29.282  31.413  1.00  0.00    -0.248 NA
ATOM     42  C   UNL A   1      39.497  30.675  31.413  1.00  0.00     0.031 C 
ATOM     43  C   UNL A   1      39.579  26.904  28.076  1.00  0.00     0.029 A 
ATOM     44  N   UNL A   1      41.304  27.071  29.488  1.00  0.00    -0.354 N 
ATOM     45  C   UNL A   1      41.538  30.281  32.364  1.00  0.00     0.074 A 
ATOM     46  C   UNL A   1      40.379  31.143  32.284  1.00  0.00     0.031 C 
ATOM     47  C   UNL A   1      40.424  25.896  27.802  1.00  0.00     0.029 A 
ATOM     48  C   UNL A   1      41.584  25.991  28.683  1.00  0.00     0.049 A 
ATOM     49  H   UNL A   1      41.899  27.369  30.212  1.00  0.00     0.167 HD
ATOM     50  C   UNL A   1      42.560  30.455  33.236  1.00  0.00     0.037 A 
ATOM     51  C   UNL A   1      42.661  25.182  28.649  1.00  0.00     0.037 A 
ATOM     52  C   UNL A   1      43.690  29.571  33.350  1.00  0.00     0.049 A 
ATOM     53  C   UNL A   1      43.787  25.411  29.624  1.00  0.00     0.074 A 
ATOM     54  C   UNL A   1      44.731  29.618  34.261  1.00  0.00     0.029 A 
ATOM     55  N   UNL A   1      43.930  28.482  32.526  1.00  0.00    -0.354 N 
ATOM     56  N   UNL A   1      43.896  26.312  30.570  1.00  0.00    -0.248 NA
ATOM     57  C   UNL A   1      44.944  24.507  29.527  1.00  0.00     0.031 C 
ATOM     58  C   UNL A   1      45.631  28.596  33.951  1.00  0.00     0.029 A 
ATOM     59  C   UNL A   1      45.119  27.872  32.886  1.00  0.00     0.049 A 
ATOM     60  H   UNL A   1      43.341  28.188  31.793  1.00  0.00     0.167 HD
ATOM     61  C   UNL A   1      45.105  26.056  31.204  1.00  0.00     0.074 A 
ATOM     62  C   UNL A   1      45.691  24.910  30.544  1.00  0.00     0.031 C 
ATOM     63  C   UNL A   1      45.678  26.713  32.242  1.00  0.00     0.037 A 
BRANCH  50  64
ATOM     64  C   UNL A   1      42.520  31.647  34.148  1.00  0.00     0.064 A 
ATOM     65  C   UNL A   1      41.901  31.594  35.406  1.00  0.00     0.173 A 
ATOM     66  C   UNL A   1      43.187  32.829  33.793  1.00  0.00     0.173 A 
ATOM     67  F   UNL A   1      41.244  30.490  35.790  1.00  0.00    -0.203 F 
ATOM     68  C   UNL A   1      41.942  32.687  36.269  1.00  0.00     0.198 A 
ATOM     69  C   UNL A   1      43.251  33.909  34.670  1.00  0.00     0.198 A 
ATOM     70  F   UNL A   1      43.802  32.928  32.604  1.00  0.00    -0.203 F 
ATOM     71  F   UNL A   1      41.319  32.625  37.454  1.00  0.00    -0.200 F 
ATOM     72  C   UNL A   1      42.626  33.838  35.905  1.00  0.00     0.200 A 
ATOM     73  F   UNL A   1      43.927  35.012  34.323  1.00  0.00    -0.200 F 
ATOM     74  F   UNL A   1      42.682  34.880  36.746  1.00  0.00    -0.200 F 
ENDBRANCH  50  64
BRANCH  51  75
ATOM     75  C   UNL A   1      42.742  24.073  27.659  1.00  0.00     0.064 A 
ATOM     76  C   UNL A   1      42.345  22.771  28.000  1.00  0.00     0.173 A 
ATOM     77  C   UNL A   1      43.268  24.276  26.375  1.00  0.00     0.173 A 
ATOM     78  F   UNL A   1      41.857  22.519  29.224  1.00  0.00    -0.203 F 
ATOM     79  C   UNL A   1      42.510  21.710  27.111  1.00  0.00     0.198 A 
ATOM     80  C   UNL A   1      43.400  23.220  25.474  1.00  0.00     0.198 A 
ATOM     81  F   UNL A   1      43.660  25.501  25.995  1.00  0.00    -0.203 F 
ATOM     82  F   UNL A   1      42.189  20.466  27.490  1.00  0.00    -0.200 F 
ATOM     83  C   UNL A   1      43.034  21.935  25.848  1.00  0.00     0.200 A 
ATOM     84  F   UNL A   1      43.895  23.446  24.250  1.00  0.00    -0.200 F 
ATOM     85  F   UNL A   1      43.202  20.915  24.998  1.00  0.00    -0.200 F 
ENDBRANCH  51  75
BRANCH  63  86
ATOM     86  C   UNL A   1      46.976  26.178  32.773  1.00  0.00     0.064 A 
ATOM     87  C   UNL A   1      48.215  26.666  32.331  1.00  0.00     0.173 A 
ATOM     88  C   UNL A   1      46.978  25.202  33.782  1.00  0.00     0.173 A 
ATOM     89  F   UNL A   1      48.269  27.589  31.359  1.00  0.00    -0.203 F 
ATOM     90  C   UNL A   1      49.407  26.178  32.863  1.00  0.00     0.198 A 
ATOM     91  C   UNL A   1      48.169  24.742  34.334  1.00  0.00     0.198 A 
ATOM     92  F   UNL A   1      45.819  24.708  34.247  1.00  0.00    -0.203 F 
ATOM     93  F   UNL A   1      50.579  26.625  32.393  1.00  0.00    -0.200 F 
ATOM     94  C   UNL A   1      49.382  25.225  33.871  1.00  0.00     0.200 A 
ATOM     95  F   UNL A   1      48.142  23.833  35.320  1.00  0.00    -0.200 F 
ATOM     96  F   UNL A   1      50.530  24.768  34.391  1.00  0.00    -0.200 F 
ENDBRANCH  63  86
ENDBRANCH  37  38
ENDBRANCH  29  32
ENDBRANCH  27  28
ENDBRANCH  26  27
ENDBRANCH  25  26
ENDBRANCH  24  25
ENDBRANCH   1  24
TORSDOF 18
ENDMDL
MODEL 3
REMARK VINA RESULT:     -10.6      3.704      5.808
REMARK SMILES CC(=O)N[C@H](CC(=O)NCC(=O)NCCCCCCNC(=O)c1ccc(-c2c3nc(c(-c4c(F)c(F)c(F)c(F)c4F)c4ccc([nH]4)c(-c4c(F)c(F)c(F)c(F)c4F)c4nc(c(-c5c(F)c(F)c(F)c(F)c5F)c5ccc2[nH]5)C=C4)C=C3)cc1)c1cccs1
REMARK SMILES IDX 15 1 14 2 13 3 11 4 12 5 10 7 9 8 7 9 8 10 6 12 5 13 4 14
REMARK SMILES IDX 1 15 2 16 3 17 86 19 87 20 90 21 88 22 89 23 16 24 17 25
REMARK SMILES IDX 18 26 19 27 20 28 21 29 22 31 23 32 24 33 85 34 25 35 84 36
REMARK SMILES IDX 26 37 27 38 28 39 78 40 29 41 83 42 77 43 79 44 30 45 82 46
REMARK SMILES IDX 76 47 75 48 31 50 63 51 43 52 62 53 44 54 47 55 61 56 80 57
REMARK SMILES IDX 45 58 46 59 60 61 81 62 48 63 32 64 33 65 41 66 34 67 35 68
REMARK SMILES IDX 39 69 42 70 36 71 37 72 40 73 38 74 64 75 65 76 73 77 66 78
REMARK SMILES IDX 67 79 71 80 74 81 68 82 69 83 72 84 70 85 49 86 50 87 58 88
REMARK SMILES IDX 51 89 52 90 56 91 59 92 53 93 54 94 57 95 55 96
REMARK H PARENT 13 6 9 11 4 18 20 30 79 49 47 60
REMARK Flexibility Score: inf
ROOT
ATOM      1  C   UNL A   1      35.892  32.169  27.894  1.00  0.00     0.021 C 
ENDROOT
BRANCH   1   2
ATOM      2  C   UNL A   1      34.960  30.965  27.985  1.00  0.00     0.116 C 
BRANCH   2   3
ATOM      3  N   UNL A   1      34.056  30.857  26.856  1.00  0.00    -0.355 N 
ATOM      4  C   UNL A   1      33.433  29.763  26.328  1.00  0.00     0.239 C 
ATOM      5  O   UNL A   1      32.492  29.963  25.555  1.00  0.00    -0.273 OA
ATOM      6  H   UNL A   1      33.859  31.707  26.400  1.00  0.00     0.163 HD
BRANCH   4   7
ATOM      7  C   UNL A   1      33.764  28.332  26.793  1.00  0.00     0.216 C 
BRANCH   7   8
ATOM      8  N   UNL A   1      32.650  27.398  26.674  1.00  0.00    -0.347 N 
ATOM      9  C   UNL A   1      32.584  26.152  26.123  1.00  0.00     0.222 C 
ATOM     10  O   UNL A   1      31.475  25.637  25.989  1.00  0.00    -0.275 OA
ATOM     11  H   UNL A   1      31.803  27.722  27.054  1.00  0.00     0.164 HD
BRANCH   9  12
ATOM     12  C   UNL A   1      33.851  25.409  25.745  1.00  0.00     0.130 C 
BRANCH  12  13
ATOM     13  C   UNL A   1      33.722  24.575  24.465  1.00  0.00     0.131 C 
BRANCH  13  14
ATOM     14  N   UNL A   1      33.830  25.256  23.172  1.00  0.00    -0.348 N 
ATOM     15  C   UNL A   1      31.488  25.629  22.433  1.00  0.00     0.114 C 
ATOM     16  C   UNL A   1      32.954  25.488  22.161  1.00  0.00     0.217 C 
ATOM     17  O   UNL A   1      33.402  25.627  21.023  1.00  0.00    -0.275 OA
ATOM     18  H   UNL A   1      34.728  25.622  22.999  1.00  0.00     0.164 HD
ENDBRANCH  13  14
BRANCH  13  19
ATOM     19  C   UNL A   1      34.761  23.466  24.406  1.00  0.00     0.027 A 
ATOM     20  C   UNL A   1      35.998  23.450  23.787  1.00  0.00     0.017 A 
ATOM     21  S   UNL A   1      34.409  21.931  25.076  1.00  0.00    -0.147 S 
ATOM     22  C   UNL A   1      36.709  22.232  24.010  1.00  0.00     0.012 A 
ATOM     23  C   UNL A   1      35.976  21.339  24.755  1.00  0.00     0.065 A 
ENDBRANCH  13  19
ENDBRANCH  12  13
ENDBRANCH   9  12
ENDBRANCH   7   8
ENDBRANCH   4   7
ENDBRANCH   2   3
ENDBRANCH   1   2
BRANCH   1  24
ATOM     24  C   UNL A   1      35.178  33.526  27.881  1.00  0.00     0.002 C 
BRANCH  24  25
ATOM     25  C   UNL A   1      34.591  33.994  29.221  1.00  0.00     0.002 C 
BRANCH  25  26
ATOM     26  C   UNL A   1      33.236  34.696  29.143  1.00  0.00     0.021 C 
BRANCH  26  27
ATOM     27  C   UNL A   1      33.206  36.145  29.606  1.00  0.00     0.116 C 
BRANCH  27  28
ATOM     28  N   UNL A   1      32.424  36.321  30.815  1.00  0.00    -0.352 N 
ATOM     29  C   UNL A   1      32.604  35.796  32.069  1.00  0.00     0.251 C 
ATOM     30  H   UNL A   1      31.641  36.911  30.721  1.00  0.00     0.163 HD
ATOM     31  O   UNL A   1      31.714  35.932  32.914  1.00  0.00    -0.269 OA
BRANCH  29  32
ATOM     32  C   UNL A   1      33.832  35.048  32.427  1.00  0.00     0.039 A 
ATOM     33  C   UNL A   1      33.709  33.719  32.845  1.00  0.00     0.014 A 
ATOM     34  C   UNL A   1      35.096  35.647  32.409  1.00  0.00     0.014 A 
ATOM     35  C   UNL A   1      34.846  32.981  33.195  1.00  0.00     0.010 A 
ATOM     36  C   UNL A   1      36.236  34.888  32.681  1.00  0.00     0.010 A 
ATOM     37  C   UNL A   1      36.124  33.551  33.090  1.00  0.00    -0.014 A 
BRANCH  37  38
ATOM     38  C   UNL A   1      37.348  32.776  33.433  1.00  0.00     0.031 A 
ATOM     39  C   UNL A   1      38.091  33.062  34.712  1.00  0.00     0.074 A 
ATOM     40  C   UNL A   1      37.826  31.852  32.573  1.00  0.00     0.049 A 
ATOM     41  N   UNL A   1      39.218  32.557  35.148  1.00  0.00    -0.248 NA
ATOM     42  C   UNL A   1      37.499  34.065  35.613  1.00  0.00     0.031 C 
ATOM     43  C   UNL A   1      37.220  31.495  31.291  1.00  0.00     0.029 A 
ATOM     44  N   UNL A   1      38.941  31.052  32.646  1.00  0.00    -0.354 N 
ATOM     45  C   UNL A   1      39.481  33.199  36.352  1.00  0.00     0.074 A 
ATOM     46  C   UNL A   1      38.418  34.156  36.564  1.00  0.00     0.031 C 
ATOM     47  C   UNL A   1      37.959  30.538  30.705  1.00  0.00     0.029 A 
ATOM     48  C   UNL A   1      39.116  30.245  31.546  1.00  0.00     0.049 A 
ATOM     49  H   UNL A   1      39.558  31.056  33.413  1.00  0.00     0.167 HD
ATOM     50  C   UNL A   1      40.509  32.996  37.212  1.00  0.00     0.037 A 
ATOM     51  C   UNL A   1      40.104  29.380  31.244  1.00  0.00     0.037 A 
ATOM     52  C   UNL A   1      41.541  32.011  37.026  1.00  0.00     0.049 A 
ATOM     53  C   UNL A   1      41.240  29.189  32.215  1.00  0.00     0.074 A 
ATOM     54  C   UNL A   1      42.573  31.675  37.884  1.00  0.00     0.029 A 
ATOM     55  N   UNL A   1      41.674  31.205  35.906  1.00  0.00    -0.354 N 
ATOM     56  N   UNL A   1      41.433  29.745  33.387  1.00  0.00    -0.248 NA
ATOM     57  C   UNL A   1      42.298  28.245  31.823  1.00  0.00     0.031 C 
ATOM     58  C   UNL A   1      43.366  30.710  37.259  1.00  0.00     0.029 A 
ATOM     59  C   UNL A   1      42.791  30.398  36.037  1.00  0.00     0.049 A 
ATOM     60  H   UNL A   1      41.064  31.207  35.133  1.00  0.00     0.167 HD
ATOM     61  C   UNL A   1      42.604  29.189  33.885  1.00  0.00     0.074 A 
ATOM     62  C   UNL A   1      43.074  28.244  32.896  1.00  0.00     0.031 C 
ATOM     63  C   UNL A   1      43.233  29.439  35.060  1.00  0.00     0.037 A 
BRANCH  50  64
ATOM     64  C   UNL A   1      40.583  33.853  38.442  1.00  0.00     0.064 A 
ATOM     65  C   UNL A   1      41.329  35.041  38.472  1.00  0.00     0.173 A 
ATOM     66  C   UNL A   1      39.825  33.525  39.577  1.00  0.00     0.173 A 
ATOM     67  F   UNL A   1      42.077  35.396  37.417  1.00  0.00    -0.203 F 
ATOM     68  C   UNL A   1      41.323  35.861  39.598  1.00  0.00     0.198 A 
ATOM     69  C   UNL A   1      39.798  34.362  40.689  1.00  0.00     0.198 A 
ATOM     70  F   UNL A   1      39.088  32.404  39.596  1.00  0.00    -0.203 F 
ATOM     71  F   UNL A   1      42.066  36.976  39.616  1.00  0.00    -0.200 F 
ATOM     72  C   UNL A   1      40.549  35.527  40.700  1.00  0.00     0.200 A 
ATOM     73  F   UNL A   1      39.037  34.045  41.745  1.00  0.00    -0.200 F 
ATOM     74  F   UNL A   1      40.528  36.329  41.774  1.00  0.00    -0.200 F 
ENDBRANCH  50  64
BRANCH  51  75
ATOM     75  C   UNL A   1      40.078  28.621  29.964  1.00  0.00     0.064 A 
ATOM     76  C   UNL A   1      39.420  27.385  29.870  1.00  0.00     0.173 A 
ATOM     77  C   UNL A   1      40.756  29.084  28.826  1.00  0.00     0.173 A 
ATOM     78  F   UNL A   1      38.777  26.887  30.936  1.00  0.00    -0.203 F 
ATOM     79  C   UNL A   1      39.476  26.625  28.703  1.00  0.00     0.198 A 
ATOM     80  C   UNL A   1      40.781  28.338  27.648  1.00  0.00     0.198 A 
ATOM     81  F   UNL A   1      41.399  30.260  28.858  1.00  0.00    -0.203 F 
ATOM     82  F   UNL A   1      38.899  25.416  28.667  1.00  0.00    -0.200 F 
ATOM     83  C   UNL A   1      40.153  27.102  27.593  1.00  0.00     0.200 A 
ATOM     84  F   UNL A   1      41.426  28.811  26.573  1.00  0.00    -0.200 F 
ATOM     85  F   UNL A   1      40.215  26.367  26.475  1.00  0.00    -0.200 F 
ENDBRANCH  51  75
BRANCH  63  86
ATOM     86  C   UNL A   1      44.465  28.641  35.374  1.00  0.00     0.064 A 
ATOM     87  C   UNL A   1      44.399  27.409  36.040  1.00  0.00     0.173 A 
ATOM     88  C   UNL A   1      45.726  29.091  34.950  1.00  0.00     0.173 A 
ATOM     89  F   UNL A   1      43.222  26.940  36.478  1.00  0.00    -0.203 F 
ATOM     90  C   UNL A   1      45.553  26.668  36.291  1.00  0.00     0.198 A 
ATOM     91  C   UNL A   1      46.871  28.333  35.172  1.00  0.00     0.198 A 
ATOM     92  F   UNL A   1      45.843  30.260  34.300  1.00  0.00    -0.203 F 
ATOM     93  F   UNL A   1      45.472  25.516  36.969  1.00  0.00    -0.200 F 
ATOM     94  C   UNL A   1      46.785  27.127  35.847  1.00  0.00     0.200 A 
ATOM     95  F   UNL A   1      48.059  28.770  34.729  1.00  0.00    -0.200 F 
ATOM     96  F   UNL A   1      47.892  26.405  36.078  1.00  0.00    -0.200 F 
ENDBRANCH  63  86
ENDBRANCH  37  38
ENDBRANCH  29  32
ENDBRANCH  27  28
ENDBRANCH  26  27
ENDBRANCH  25  26
ENDBRANCH  24  25
ENDBRANCH   1  24
TORSDOF 18
ENDMDL
