MODEL 1
REMARK VINA RESULT:     -12.2      0.000      0.000
REMARK SMILES C[C@@H](C(=O)NCCCCCCNC(=O)c1ccc(-c2c3nc(c(-c4c(F)c(F)c(F)c(F)c4F)c4ccc([nH]4)c(-c4c(F)c(F)c(F)c(F)c4F)c4nc(c(-c5c(F)c(F)c(F)c(F)c5F)c5ccc2[nH]5)C=C4)C=C3)cc1)c1ccc(C[C@H]2CCCC2=O)cc1
REMARK SMILES IDX 8 1 7 2 6 3 5 4 3 5 4 6 2 8 1 9 78 10 79 11 90 12 80 13
REMARK SMILES IDX 89 14 81 15 82 16 83 17 84 18 87 19 85 20 86 21 88 22 9 23
REMARK SMILES IDX 10 24 11 25 12 26 13 27 14 29 15 30 16 31 77 32 17 33 76 34
REMARK SMILES IDX 18 35 19 36 20 37 70 38 21 39 75 40 69 41 71 42 22 43 74 44
REMARK SMILES IDX 68 45 67 46 23 48 55 49 35 50 54 51 36 52 39 53 53 54 72 55
REMARK SMILES IDX 37 56 38 57 52 59 73 60 40 61 24 62 25 63 33 64 26 65 27 66
REMARK SMILES IDX 31 67 34 68 28 69 29 70 32 71 30 72 56 73 57 74 65 75 58 76
REMARK SMILES IDX 59 77 63 78 66 79 60 80 61 81 64 82 62 83 41 84 42 85 50 86
REMARK SMILES IDX 43 87 44 88 48 89 51 90 45 91 46 92 49 93 47 94
REMARK H PARENT 5 7 12 28 71 47 39 58
REMARK Flexibility Score: inf
ROOT
ATOM      1  C   UNL A   1      36.420  22.354  24.852  1.00  0.00     0.002 C 
ENDROOT
BRANCH   1   2
ATOM      2  C   UNL A   1      35.771  23.244  25.923  1.00  0.00     0.021 C 
BRANCH   2   3
ATOM      3  C   UNL A   1      35.028  24.461  25.367  1.00  0.00     0.116 C 
BRANCH   3   4
ATOM      4  N   UNL A   1      33.843  24.738  26.147  1.00  0.00    -0.356 N 
ATOM      5  C   UNL A   1      32.530  24.787  25.787  1.00  0.00     0.227 C 
ATOM      6  O   UNL A   1      31.747  25.125  26.679  1.00  0.00    -0.274 OA
ATOM      7  H   UNL A   1      34.014  24.922  27.099  1.00  0.00     0.163 HD
BRANCH   5   8
ATOM      8  C   UNL A   1      32.093  24.377  24.366  1.00  0.00     0.105 C 
ATOM      9  C   UNL A   1      30.679  24.838  24.001  1.00  0.00     0.023 C 
BRANCH   8  10
ATOM     10  C   UNL A   1      32.168  22.873  24.116  1.00  0.00    -0.036 A 
ATOM     11  C   UNL A   1      32.199  21.961  25.181  1.00  0.00     0.005 A 
ATOM     12  C   UNL A   1      32.135  22.370  22.807  1.00  0.00     0.005 A 
ATOM     13  C   UNL A   1      32.254  20.590  24.948  1.00  0.00     0.004 A 
ATOM     14  C   UNL A   1      32.189  20.994  22.573  1.00  0.00     0.004 A 
ATOM     15  C   UNL A   1      32.275  20.093  23.641  1.00  0.00    -0.047 A 
BRANCH  15  16
ATOM     16  C   UNL A   1      32.423  18.611  23.398  1.00  0.00     0.047 C 
BRANCH  16  17
ATOM     17  C   UNL A   1      33.390  17.875  24.334  1.00  0.00     0.060 C 
ATOM     18  C   UNL A   1      32.894  17.624  25.762  1.00  0.00     0.012 C 
ATOM     19  C   UNL A   1      33.713  16.476  23.862  1.00  0.00     0.136 C 
ATOM     20  C   UNL A   1      32.364  16.195  25.789  1.00  0.00     0.009 C 
ATOM     21  C   UNL A   1      33.240  15.413  24.820  1.00  0.00     0.076 C 
ATOM     22  O   UNL A   1      34.316  16.231  22.823  1.00  0.00    -0.299 OA
ENDBRANCH  16  17
ENDBRANCH  15  16
ENDBRANCH   8  10
ENDBRANCH   5   8
ENDBRANCH   3   4
ENDBRANCH   2   3
ENDBRANCH   1   2
BRANCH   1  23
ATOM     23  C   UNL A   1      36.406  20.853  25.153  1.00  0.00     0.002 C 
BRANCH  23  24
ATOM     24  C   UNL A   1      37.706  20.117  24.826  1.00  0.00     0.021 C 
BRANCH  24  25
ATOM     25  C   UNL A   1      38.887  20.484  25.720  1.00  0.00     0.116 C 
BRANCH  25  26
ATOM     26  N   UNL A   1      39.835  19.391  25.853  1.00  0.00    -0.352 N 
ATOM     27  C   UNL A   1      41.188  19.437  26.070  1.00  0.00     0.251 C 
ATOM     28  H   UNL A   1      39.451  18.488  25.777  1.00  0.00     0.163 HD
ATOM     29  O   UNL A   1      41.868  18.417  25.963  1.00  0.00    -0.269 OA
BRANCH  27  30
ATOM     30  C   UNL A   1      41.840  20.719  26.409  1.00  0.00     0.039 A 
ATOM     31  C   UNL A   1      42.231  21.571  25.373  1.00  0.00     0.014 A 
ATOM     32  C   UNL A   1      42.065  21.082  27.740  1.00  0.00     0.014 A 
ATOM     33  C   UNL A   1      42.781  22.818  25.674  1.00  0.00     0.010 A 
ATOM     34  C   UNL A   1      42.549  22.354  28.039  1.00  0.00     0.010 A 
ATOM     35  C   UNL A   1      42.906  23.237  27.009  1.00  0.00    -0.014 A 
BRANCH  35  36
ATOM     36  C   UNL A   1      43.375  24.607  27.340  1.00  0.00     0.031 A 
ATOM     37  C   UNL A   1      42.417  25.630  27.885  1.00  0.00     0.074 A 
ATOM     38  C   UNL A   1      44.655  24.946  27.088  1.00  0.00     0.049 A 
ATOM     39  N   UNL A   1      42.629  26.890  28.173  1.00  0.00    -0.248 NA
ATOM     40  C   UNL A   1      41.033  25.188  28.117  1.00  0.00     0.031 C 
ATOM     41  C   UNL A   1      45.667  24.058  26.514  1.00  0.00     0.029 A 
ATOM     42  N   UNL A   1      45.322  26.132  27.269  1.00  0.00    -0.354 N 
ATOM     43  C   UNL A   1      41.409  27.391  28.606  1.00  0.00     0.074 A 
ATOM     44  C   UNL A   1      40.448  26.314  28.502  1.00  0.00     0.031 C 
ATOM     45  C   UNL A   1      46.828  24.723  26.406  1.00  0.00     0.029 A 
ATOM     46  C   UNL A   1      46.634  26.095  26.861  1.00  0.00     0.049 A 
ATOM     47  H   UNL A   1      44.899  26.935  27.652  1.00  0.00     0.167 HD
ATOM     48  C   UNL A   1      41.123  28.633  29.065  1.00  0.00     0.037 A 
ATOM     49  C   UNL A   1      47.571  27.062  26.845  1.00  0.00     0.037 A 
ATOM     50  C   UNL A   1      42.088  29.693  29.194  1.00  0.00     0.049 A 
ATOM     51  C   UNL A   1      47.218  28.434  27.354  1.00  0.00     0.074 A 
ATOM     52  C   UNL A   1      41.909  30.961  29.722  1.00  0.00     0.029 A 
ATOM     53  N   UNL A   1      43.411  29.613  28.788  1.00  0.00    -0.354 N 
ATOM     54  N   UNL A   1      46.081  28.870  27.841  1.00  0.00    -0.248 NA
ATOM     55  C   UNL A   1      48.281  29.448  27.318  1.00  0.00     0.031 C 
ATOM     56  C   UNL A   1      43.108  31.665  29.584  1.00  0.00     0.029 A 
ATOM     57  C   UNL A   1      44.051  30.820  29.023  1.00  0.00     0.049 A 
ATOM     58  H   UNL A   1      43.834  28.817  28.391  1.00  0.00     0.167 HD
ATOM     59  C   UNL A   1      46.300  30.195  28.192  1.00  0.00     0.074 A 
ATOM     60  C   UNL A   1      47.684  30.487  27.884  1.00  0.00     0.031 C 
ATOM     61  C   UNL A   1      45.432  31.092  28.719  1.00  0.00     0.037 A 
BRANCH  48  62
ATOM     62  C   UNL A   1      39.708  28.925  29.474  1.00  0.00     0.064 A 
ATOM     63  C   UNL A   1      38.756  29.387  28.553  1.00  0.00     0.173 A 
ATOM     64  C   UNL A   1      39.279  28.658  30.783  1.00  0.00     0.173 A 
ATOM     65  F   UNL A   1      39.118  29.666  27.292  1.00  0.00    -0.203 F 
ATOM     66  C   UNL A   1      37.431  29.582  28.930  1.00  0.00     0.198 A 
ATOM     67  C   UNL A   1      37.947  28.827  31.150  1.00  0.00     0.198 A 
ATOM     68  F   UNL A   1      40.149  28.209  31.701  1.00  0.00    -0.203 F 
ATOM     69  F   UNL A   1      36.545  30.051  28.041  1.00  0.00    -0.200 F 
ATOM     70  C   UNL A   1      37.025  29.291  30.224  1.00  0.00     0.200 A 
ATOM     71  F   UNL A   1      37.553  28.531  32.396  1.00  0.00    -0.200 F 
ATOM     72  F   UNL A   1      35.743  29.460  30.580  1.00  0.00    -0.200 F 
ENDBRANCH  48  62
BRANCH  49  73
ATOM     73  C   UNL A   1      48.937  26.777  26.328  1.00  0.00     0.064 A 
ATOM     74  C   UNL A   1      49.262  27.001  24.982  1.00  0.00     0.173 A 
ATOM     75  C   UNL A   1      49.932  26.239  27.157  1.00  0.00     0.173 A 
ATOM     76  F   UNL A   1      48.338  27.495  24.144  1.00  0.00    -0.203 F 
ATOM     77  C   UNL A   1      50.516  26.664  24.478  1.00  0.00     0.198 A 
ATOM     78  C   UNL A   1      51.197  25.935  26.659  1.00  0.00     0.198 A 
ATOM     79  F   UNL A   1      49.677  26.010  28.453  1.00  0.00    -0.203 F 
ATOM     80  F   UNL A   1      50.778  26.829  23.174  1.00  0.00    -0.200 F 
ATOM     81  C   UNL A   1      51.485  26.135  25.318  1.00  0.00     0.200 A 
ATOM     82  F   UNL A   1      52.135  25.438  27.478  1.00  0.00    -0.200 F 
ATOM     83  F   UNL A   1      52.690  25.806  24.832  1.00  0.00    -0.200 F 
ENDBRANCH  49  73
BRANCH  61  84
ATOM     84  C   UNL A   1      45.961  32.463  29.027  1.00  0.00     0.064 A 
ATOM     85  C   UNL A   1      45.855  33.516  28.107  1.00  0.00     0.173 A 
ATOM     86  C   UNL A   1      46.550  32.735  30.271  1.00  0.00     0.173 A 
ATOM     87  F   UNL A   1      45.315  33.305  26.897  1.00  0.00    -0.203 F 
ATOM     88  C   UNL A   1      46.346  34.784  28.410  1.00  0.00     0.198 A 
ATOM     89  C   UNL A   1      47.009  34.011  30.584  1.00  0.00     0.198 A 
ATOM     90  F   UNL A   1      46.669  31.764  31.190  1.00  0.00    -0.203 F 
ATOM     91  F   UNL A   1      46.281  35.761  27.496  1.00  0.00    -0.200 F 
ATOM     92  C   UNL A   1      46.914  35.032  29.651  1.00  0.00     0.200 A 
ATOM     93  F   UNL A   1      47.544  34.252  31.789  1.00  0.00    -0.200 F 
ATOM     94  F   UNL A   1      47.380  36.254  29.944  1.00  0.00    -0.200 F 
ENDBRANCH  61  84
ENDBRANCH  35  36
ENDBRANCH  27  30
ENDBRANCH  25  26
ENDBRANCH  24  25
ENDBRANCH  23  24
ENDBRANCH   1  23
TORSDOF 16
ENDMDL
MODEL 2
REMARK VINA RESULT:     -12.2      0.950      2.289
REMARK SMILES C[C@@H](C(=O)NCCCCCCNC(=O)c1ccc(-c2c3nc(c(-c4c(F)c(F)c(F)c(F)c4F)c4ccc([nH]4)c(-c4c(F)c(F)c(F)c(F)c4F)c4nc(c(-c5c(F)c(F)c(F)c(F)c5F)c5ccc2[nH]5)C=C4)C=C3)cc1)c1ccc(C[C@H]2CCCC2=O)cc1
REMARK SMILES IDX 8 1 7 2 6 3 5 4 3 5 4 6 2 8 1 9 78 10 79 11 90 12 80 13
REMARK SMILES IDX 89 14 81 15 82 16 83 17 84 18 87 19 85 20 86 21 88 22 9 23
REMARK SMILES IDX 10 24 11 25 12 26 13 27 14 29 15 30 16 31 77 32 17 33 76 34
REMARK SMILES IDX 18 35 19 36 20 37 70 38 21 39 75 40 69 41 71 42 22 43 74 44
REMARK SMILES IDX 68 45 67 46 23 48 55 49 35 50 54 51 36 52 39 53 53 54 72 55
REMARK SMILES IDX 37 56 38 57 52 59 73 60 40 61 24 62 25 63 33 64 26 65 27 66
REMARK SMILES IDX 31 67 34 68 28 69 29 70 32 71 30 72 56 73 57 74 65 75 58 76
REMARK SMILES IDX 59 77 63 78 66 79 60 80 61 81 64 82 62 83 41 84 42 85 50 86
REMARK SMILES IDX 43 87 44 88 48 89 51 90 45 91 46 92 49 93 47 94
REMARK H PARENT 5 7 12 28 71 47 39 58
REMARK Flexibility Score: inf
ROOT
ATOM      1  C   UNL A   1      37.204  22.025  24.558  1.00  0.00     0.002 C 
ENDROOT
BRANCH   1   2
ATOM      2  C   UNL A   1      37.127  23.084  25.668  1.00  0.00     0.021 C 
BRANCH   2   3
ATOM      3  C   UNL A   1      35.874  23.962  25.616  1.00  0.00     0.116 C 
BRANCH   3   4
ATOM      4  N   UNL A   1      35.486  24.220  24.248  1.00  0.00    -0.356 N 
ATOM      5  C   UNL A   1      34.296  24.041  23.610  1.00  0.00     0.227 C 
ATOM      6  O   UNL A   1      34.297  24.291  22.402  1.00  0.00    -0.274 OA
ATOM      7  H   UNL A   1      36.202  24.586  23.681  1.00  0.00     0.163 HD
BRANCH   5   8
ATOM      8  C   UNL A   1      33.041  23.614  24.400  1.00  0.00     0.105 C 
ATOM      9  C   UNL A   1      33.005  24.153  25.832  1.00  0.00     0.023 C 
BRANCH   8  10
ATOM     10  C   UNL A   1      32.851  22.101  24.470  1.00  0.00    -0.036 A 
ATOM     11  C   UNL A   1      32.412  21.373  23.355  1.00  0.00     0.005 A 
ATOM     12  C   UNL A   1      33.181  21.399  25.638  1.00  0.00     0.005 A 
ATOM     13  C   UNL A   1      32.253  19.991  23.419  1.00  0.00     0.004 A 
ATOM     14  C   UNL A   1      33.022  20.012  25.702  1.00  0.00     0.004 A 
ATOM     15  C   UNL A   1      32.532  19.299  24.601  1.00  0.00    -0.047 A 
BRANCH  15  16
ATOM     16  C   UNL A   1      32.273  17.815  24.689  1.00  0.00     0.047 C 
BRANCH  16  17
ATOM     17  C   UNL A   1      33.334  16.914  24.045  1.00  0.00     0.060 C 
ATOM     18  C   UNL A   1      34.717  17.539  23.833  1.00  0.00     0.012 C 
ATOM     19  C   UNL A   1      33.661  15.701  24.885  1.00  0.00     0.136 C 
ATOM     20  C   UNL A   1      35.577  17.088  25.008  1.00  0.00     0.009 C 
ATOM     21  C   UNL A   1      35.090  15.690  25.362  1.00  0.00     0.076 C 
ATOM     22  O   UNL A   1      32.857  14.809  25.134  1.00  0.00    -0.299 OA
ENDBRANCH  16  17
ENDBRANCH  15  16
ENDBRANCH   8  10
ENDBRANCH   5   8
ENDBRANCH   3   4
ENDBRANCH   2   3
ENDBRANCH   1   2
BRANCH   1  23
ATOM     23  C   UNL A   1      36.832  20.602  24.984  1.00  0.00     0.002 C 
BRANCH  23  24
ATOM     24  C   UNL A   1      37.991  19.605  24.983  1.00  0.00     0.021 C 
BRANCH  24  25
ATOM     25  C   UNL A   1      39.221  20.058  25.764  1.00  0.00     0.116 C 
BRANCH  25  26
ATOM     26  N   UNL A   1      40.209  19.000  25.894  1.00  0.00    -0.352 N 
ATOM     27  C   UNL A   1      41.561  19.095  26.104  1.00  0.00     0.251 C 
ATOM     28  H   UNL A   1      39.858  18.084  25.822  1.00  0.00     0.163 HD
ATOM     29  O   UNL A   1      42.276  18.100  25.995  1.00  0.00    -0.269 OA
BRANCH  27  30
ATOM     30  C   UNL A   1      42.167  20.401  26.438  1.00  0.00     0.039 A 
ATOM     31  C   UNL A   1      42.638  21.209  25.401  1.00  0.00     0.014 A 
ATOM     32  C   UNL A   1      42.271  20.828  27.764  1.00  0.00     0.014 A 
ATOM     33  C   UNL A   1      43.148  22.477  25.689  1.00  0.00     0.010 A 
ATOM     34  C   UNL A   1      42.714  22.119  28.045  1.00  0.00     0.010 A 
ATOM     35  C   UNL A   1      43.151  22.959  27.009  1.00  0.00    -0.014 A 
BRANCH  35  36
ATOM     36  C   UNL A   1      43.575  24.349  27.315  1.00  0.00     0.031 A 
ATOM     37  C   UNL A   1      42.570  25.369  27.776  1.00  0.00     0.074 A 
ATOM     38  C   UNL A   1      44.859  24.707  27.114  1.00  0.00     0.049 A 
ATOM     39  N   UNL A   1      42.743  26.642  28.030  1.00  0.00    -0.248 NA
ATOM     40  C   UNL A   1      41.186  24.904  27.955  1.00  0.00     0.031 C 
ATOM     41  C   UNL A   1      45.916  23.822  26.622  1.00  0.00     0.029 A 
ATOM     42  N   UNL A   1      45.492  25.913  27.286  1.00  0.00    -0.354 N 
ATOM     43  C   UNL A   1      41.493  27.130  28.385  1.00  0.00     0.074 A 
ATOM     44  C   UNL A   1      40.560  26.030  28.272  1.00  0.00     0.031 C 
ATOM     45  C   UNL A   1      47.067  24.509  26.547  1.00  0.00     0.029 A 
ATOM     46  C   UNL A   1      46.823  25.891  26.945  1.00  0.00     0.049 A 
ATOM     47  H   UNL A   1      45.035  26.719  27.620  1.00  0.00     0.167 HD
ATOM     48  C   UNL A   1      41.159  28.381  28.786  1.00  0.00     0.037 A 
ATOM     49  C   UNL A   1      47.740  26.877  26.940  1.00  0.00     0.037 A 
ATOM     50  C   UNL A   1      42.095  29.465  28.925  1.00  0.00     0.049 A 
ATOM     51  C   UNL A   1      47.335  28.257  27.384  1.00  0.00     0.074 A 
ATOM     52  C   UNL A   1      41.864  30.746  29.400  1.00  0.00     0.029 A 
ATOM     53  N   UNL A   1      43.438  29.400  28.587  1.00  0.00    -0.354 N 
ATOM     54  N   UNL A   1      46.167  28.684  27.799  1.00  0.00    -0.248 NA
ATOM     55  C   UNL A   1      48.377  29.293  27.364  1.00  0.00     0.031 C 
ATOM     56  C   UNL A   1      43.054  31.471  29.296  1.00  0.00     0.029 A 
ATOM     57  C   UNL A   1      44.041  30.628  28.812  1.00  0.00     0.049 A 
ATOM     58  H   UNL A   1      43.896  28.601  28.239  1.00  0.00     0.167 HD
ATOM     59  C   UNL A   1      46.341  30.025  28.114  1.00  0.00     0.074 A 
ATOM     60  C   UNL A   1      47.732  30.336  27.865  1.00  0.00     0.031 C 
ATOM     61  C   UNL A   1      45.430  30.920  28.567  1.00  0.00     0.037 A 
BRANCH  48  62
ATOM     62  C   UNL A   1      39.720  28.655  29.115  1.00  0.00     0.064 A 
ATOM     63  C   UNL A   1      39.214  28.475  30.411  1.00  0.00     0.173 A 
ATOM     64  C   UNL A   1      38.859  29.186  28.142  1.00  0.00     0.173 A 
ATOM     65  F   UNL A   1      39.994  27.963  31.375  1.00  0.00    -0.203 F 
ATOM     66  C   UNL A   1      37.897  28.805  30.718  1.00  0.00     0.198 A 
ATOM     67  C   UNL A   1      37.551  29.541  28.459  1.00  0.00     0.198 A 
ATOM     68  F   UNL A   1      39.296  29.383  26.889  1.00  0.00    -0.203 F 
ATOM     69  F   UNL A   1      37.428  28.598  31.955  1.00  0.00    -0.200 F 
ATOM     70  C   UNL A   1      37.071  29.348  29.745  1.00  0.00     0.200 A 
ATOM     71  F   UNL A   1      36.758  30.080  27.522  1.00  0.00    -0.200 F 
ATOM     72  F   UNL A   1      35.809  29.685  30.048  1.00  0.00    -0.200 F 
ENDBRANCH  48  62
BRANCH  49  73
ATOM     73  C   UNL A   1      49.135  26.604  26.501  1.00  0.00     0.064 A 
ATOM     74  C   UNL A   1      50.112  26.183  27.416  1.00  0.00     0.173 A 
ATOM     75  C   UNL A   1      49.530  26.796  25.169  1.00  0.00     0.173 A 
ATOM     76  F   UNL A   1      49.788  26.006  28.705  1.00  0.00    -0.203 F 
ATOM     77  C   UNL A   1      51.436  26.000  27.022  1.00  0.00     0.198 A 
ATOM     78  C   UNL A   1      50.848  26.578  24.770  1.00  0.00     0.198 A 
ATOM     79  F   UNL A   1      48.636  27.192  24.252  1.00  0.00    -0.203 F 
ATOM     80  F   UNL A   1      52.361  25.660  27.931  1.00  0.00    -0.200 F 
ATOM     81  C   UNL A   1      51.802  26.194  25.699  1.00  0.00     0.200 A 
ATOM     82  F   UNL A   1      51.194  26.752  23.487  1.00  0.00    -0.200 F 
ATOM     83  F   UNL A   1      53.077  26.023  25.322  1.00  0.00    -0.200 F 
ENDBRANCH  49  73
BRANCH  61  84
ATOM     84  C   UNL A   1      45.915  32.312  28.852  1.00  0.00     0.064 A 
ATOM     85  C   UNL A   1      46.453  32.663  30.099  1.00  0.00     0.173 A 
ATOM     86  C   UNL A   1      45.872  33.298  27.854  1.00  0.00     0.173 A 
ATOM     87  F   UNL A   1      46.502  31.761  31.091  1.00  0.00    -0.203 F 
ATOM     88  C   UNL A   1      46.903  33.958  30.346  1.00  0.00     0.198 A 
ATOM     89  C   UNL A   1      46.353  34.581  28.093  1.00  0.00     0.198 A 
ATOM     90  F   UNL A   1      45.373  33.012  26.642  1.00  0.00    -0.203 F 
ATOM     91  F   UNL A   1      47.364  34.283  31.561  1.00  0.00    -0.200 F 
ATOM     92  C   UNL A   1      46.861  34.913  29.341  1.00  0.00     0.200 A 
ATOM     93  F   UNL A   1      46.326  35.498  27.116  1.00  0.00    -0.200 F 
ATOM     94  F   UNL A   1      47.301  36.156  29.578  1.00  0.00    -0.200 F 
ENDBRANCH  61  84
ENDBRANCH  35  36
ENDBRANCH  27  30
ENDBRANCH  25  26
ENDBRANCH  24  25
ENDBRANCH  23  24
ENDBRANCH   1  23
TORSDOF 16
ENDMDL
MODEL 3
REMARK VINA RESULT:     -12.1      1.645      2.723
REMARK SMILES C[C@@H](C(=O)NCCCCCCNC(=O)c1ccc(-c2c3nc(c(-c4c(F)c(F)c(F)c(F)c4F)c4ccc([nH]4)c(-c4c(F)c(F)c(F)c(F)c4F)c4nc(c(-c5c(F)c(F)c(F)c(F)c5F)c5ccc2[nH]5)C=C4)C=C3)cc1)c1ccc(C[C@H]2CCCC2=O)cc1
REMARK SMILES IDX 8 1 7 2 6 3 5 4 3 5 4 6 2 8 1 9 78 10 79 11 90 12 80 13
REMARK SMILES IDX 89 14 81 15 82 16 83 17 84 18 87 19 85 20 86 21 88 22 9 23
REMARK SMILES IDX 10 24 11 25 12 26 13 27 14 29 15 30 16 31 77 32 17 33 76 34
REMARK SMILES IDX 18 35 19 36 20 37 70 38 21 39 75 40 69 41 71 42 22 43 74 44
REMARK SMILES IDX 68 45 67 46 23 48 55 49 35 50 54 51 36 52 39 53 53 54 72 55
REMARK SMILES IDX 37 56 38 57 52 59 73 60 40 61 24 62 25 63 33 64 26 65 27 66
REMARK SMILES IDX 31 67 34 68 28 69 29 70 32 71 30 72 56 73 57 74 65 75 58 76
REMARK SMILES IDX 59 77 63 78 66 79 60 80 61 81 64 82 62 83 41 84 42 85 50 86
REMARK SMILES IDX 43 87 44 88 48 89 51 90 45 91 46 92 49 93 47 94
REMARK H PARENT 5 7 12 28 71 47 39 58
REMARK Flexibility Score: inf
ROOT
ATOM      1  C   UNL A   1      34.673  24.145  24.970  1.00  0.00     0.002 C 
ENDROOT
BRANCH   1   2
ATOM      2  C   UNL A   1      34.410  25.653  24.848  1.00  0.00     0.021 C 
BRANCH   2   3
ATOM      3  C   UNL A   1      33.048  26.101  25.385  1.00  0.00     0.116 C 
BRANCH   3   4
ATOM      4  N   UNL A   1      32.215  26.600  24.314  1.00  0.00    -0.356 N 
ATOM      5  C   UNL A   1      31.042  26.131  23.804  1.00  0.00     0.227 C 
ATOM      6  O   UNL A   1      30.602  26.746  22.829  1.00  0.00    -0.274 OA
ATOM      7  H   UNL A   1      32.552  27.416  23.879  1.00  0.00     0.163 HD
BRANCH   5   8
ATOM      8  C   UNL A   1      30.314  24.948  24.476  1.00  0.00     0.105 C 
ATOM      9  C   UNL A   1      29.976  25.192  25.949  1.00  0.00     0.023 C 
BRANCH   8  10
ATOM     10  C   UNL A   1      31.084  23.632  24.390  1.00  0.00    -0.036 A 
ATOM     11  C   UNL A   1      31.241  22.808  25.513  1.00  0.00     0.005 A 
ATOM     12  C   UNL A   1      31.589  23.187  23.160  1.00  0.00     0.005 A 
ATOM     13  C   UNL A   1      31.931  21.603  25.426  1.00  0.00     0.004 A 
ATOM     14  C   UNL A   1      32.281  21.977  23.072  1.00  0.00     0.004 A 
ATOM     15  C   UNL A   1      32.481  21.186  24.210  1.00  0.00    -0.047 A 
BRANCH  15  16
ATOM     16  C   UNL A   1      33.302  19.922  24.145  1.00  0.00     0.047 C 
BRANCH  16  17
ATOM     17  C   UNL A   1      32.520  18.632  23.871  1.00  0.00     0.060 C 
ATOM     18  C   UNL A   1      32.927  17.844  22.621  1.00  0.00     0.012 C 
ATOM     19  C   UNL A   1      32.689  17.600  24.962  1.00  0.00     0.136 C 
ATOM     20  C   UNL A   1      33.863  16.739  23.095  1.00  0.00     0.009 C 
ATOM     21  C   UNL A   1      33.368  16.345  24.480  1.00  0.00     0.076 C 
ATOM     22  O   UNL A   1      32.294  17.758  26.113  1.00  0.00    -0.299 OA
ENDBRANCH  16  17
ENDBRANCH  15  16
ENDBRANCH   8  10
ENDBRANCH   5   8
ENDBRANCH   3   4
ENDBRANCH   2   3
ENDBRANCH   1   2
BRANCH   1  23
ATOM     23  C   UNL A   1      35.752  23.592  24.035  1.00  0.00     0.002 C 
BRANCH  23  24
ATOM     24  C   UNL A   1      36.149  22.138  24.297  1.00  0.00     0.021 C 
BRANCH  24  25
ATOM     25  C   UNL A   1      36.624  21.856  25.718  1.00  0.00     0.116 C 
BRANCH  25  26
ATOM     26  N   UNL A   1      37.650  20.826  25.760  1.00  0.00    -0.352 N 
ATOM     27  C   UNL A   1      38.993  20.947  26.009  1.00  0.00     0.251 C 
ATOM     28  H   UNL A   1      37.335  19.910  25.585  1.00  0.00     0.163 HD
ATOM     29  O   UNL A   1      39.747  19.996  25.812  1.00  0.00    -0.269 OA
BRANCH  27  30
ATOM     30  C   UNL A   1      39.542  22.231  26.490  1.00  0.00     0.039 A 
ATOM     31  C   UNL A   1      40.540  22.214  27.467  1.00  0.00     0.014 A 
ATOM     32  C   UNL A   1      39.079  23.448  25.980  1.00  0.00     0.014 A 
ATOM     33  C   UNL A   1      41.124  23.413  27.881  1.00  0.00     0.010 A 
ATOM     34  C   UNL A   1      39.709  24.637  26.343  1.00  0.00     0.010 A 
ATOM     35  C   UNL A   1      40.743  24.630  27.292  1.00  0.00    -0.014 A 
BRANCH  35  36
ATOM     36  C   UNL A   1      41.439  25.897  27.634  1.00  0.00     0.031 A 
ATOM     37  C   UNL A   1      40.717  26.989  28.372  1.00  0.00     0.074 A 
ATOM     38  C   UNL A   1      42.708  26.085  27.218  1.00  0.00     0.049 A 
ATOM     39  N   UNL A   1      41.141  28.184  28.701  1.00  0.00    -0.248 NA
ATOM     40  C   UNL A   1      39.329  26.714  28.776  1.00  0.00     0.031 C 
ATOM     41  C   UNL A   1      43.498  25.121  26.451  1.00  0.00     0.029 A 
ATOM     42  N   UNL A   1      43.553  27.157  27.370  1.00  0.00    -0.354 N 
ATOM     43  C   UNL A   1      40.073  28.804  29.336  1.00  0.00     0.074 A 
ATOM     44  C   UNL A   1      38.966  27.873  29.309  1.00  0.00     0.031 C 
ATOM     45  C   UNL A   1      44.715  25.636  26.215  1.00  0.00     0.029 A 
ATOM     46  C   UNL A   1      44.779  26.981  26.775  1.00  0.00     0.049 A 
ATOM     47  H   UNL A   1      43.303  27.975  27.859  1.00  0.00     0.167 HD
ATOM     48  C   UNL A   1      40.029  30.032  29.906  1.00  0.00     0.037 A 
ATOM     49  C   UNL A   1      45.831  27.817  26.680  1.00  0.00     0.037 A 
ATOM     50  C   UNL A   1      41.141  30.944  29.956  1.00  0.00     0.049 A 
ATOM     51  C   UNL A   1      45.746  29.178  27.317  1.00  0.00     0.074 A 
ATOM     52  C   UNL A   1      41.215  32.178  30.579  1.00  0.00     0.029 A 
ATOM     53  N   UNL A   1      42.372  30.725  29.357  1.00  0.00    -0.354 N 
ATOM     54  N   UNL A   1      44.758  29.718  27.989  1.00  0.00    -0.248 NA
ATOM     55  C   UNL A   1      46.925  30.046  27.186  1.00  0.00     0.031 C 
ATOM     56  C   UNL A   1      42.471  32.730  30.311  1.00  0.00     0.029 A 
ATOM     57  C   UNL A   1      43.201  31.816  29.569  1.00  0.00     0.049 A 
ATOM     58  H   UNL A   1      42.621  29.915  28.856  1.00  0.00     0.167 HD
ATOM     59  C   UNL A   1      45.206  30.972  28.383  1.00  0.00     0.074 A 
ATOM     60  C   UNL A   1      46.562  31.104  27.895  1.00  0.00     0.031 C 
ATOM     61  C   UNL A   1      44.552  31.929  29.084  1.00  0.00     0.037 A 
BRANCH  48  62
ATOM     62  C   UNL A   1      38.738  30.472  30.533  1.00  0.00     0.064 A 
ATOM     63  C   UNL A   1      38.527  30.391  31.917  1.00  0.00     0.173 A 
ATOM     64  C   UNL A   1      37.733  31.061  29.750  1.00  0.00     0.173 A 
ATOM     65  F   UNL A   1      39.453  29.829  32.709  1.00  0.00    -0.203 F 
ATOM     66  C   UNL A   1      37.355  30.872  32.493  1.00  0.00     0.198 A 
ATOM     67  C   UNL A   1      36.574  31.567  30.332  1.00  0.00     0.198 A 
ATOM     68  F   UNL A   1      37.888  31.169  28.421  1.00  0.00    -0.203 F 
ATOM     69  F   UNL A   1      37.163  30.758  33.814  1.00  0.00    -0.200 F 
ATOM     70  C   UNL A   1      36.385  31.470  31.702  1.00  0.00     0.200 A 
ATOM     71  F   UNL A   1      35.645  32.158  29.568  1.00  0.00    -0.200 F 
ATOM     72  F   UNL A   1      35.265  31.951  32.261  1.00  0.00    -0.200 F 
ENDBRANCH  48  62
BRANCH  49  73
ATOM     73  C   UNL A   1      47.060  27.398  25.953  1.00  0.00     0.064 A 
ATOM     74  C   UNL A   1      48.134  26.803  26.632  1.00  0.00     0.173 A 
ATOM     75  C   UNL A   1      47.202  27.618  24.576  1.00  0.00     0.173 A 
ATOM     76  F   UNL A   1      48.054  26.592  27.954  1.00  0.00    -0.203 F 
ATOM     77  C   UNL A   1      49.315  26.480  25.968  1.00  0.00     0.198 A 
ATOM     78  C   UNL A   1      48.371  27.261  23.906  1.00  0.00     0.198 A 
ATOM     79  F   UNL A   1      46.204  28.177  23.876  1.00  0.00    -0.203 F 
ATOM     80  F   UNL A   1      50.349  25.973  26.654  1.00  0.00    -0.200 F 
ATOM     81  C   UNL A   1      49.432  26.705  24.604  1.00  0.00     0.200 A 
ATOM     82  F   UNL A   1      48.473  27.467  22.585  1.00  0.00    -0.200 F 
ATOM     83  F   UNL A   1      50.570  26.399  23.967  1.00  0.00    -0.200 F 
ENDBRANCH  49  73
BRANCH  61  84
ATOM     84  C   UNL A   1      45.304  33.192  29.393  1.00  0.00     0.064 A 
ATOM     85  C   UNL A   1      45.266  34.300  28.534  1.00  0.00     0.173 A 
ATOM     86  C   UNL A   1      46.045  33.305  30.579  1.00  0.00     0.173 A 
ATOM     87  F   UNL A   1      44.586  34.237  27.380  1.00  0.00    -0.203 F 
ATOM     88  C   UNL A   1      45.966  35.465  28.838  1.00  0.00     0.198 A 
ATOM     89  C   UNL A   1      46.715  34.483  30.897  1.00  0.00     0.198 A 
ATOM     90  F   UNL A   1      46.108  32.277  31.438  1.00  0.00    -0.203 F 
ATOM     91  F   UNL A   1      45.957  36.492  27.978  1.00  0.00    -0.200 F 
ATOM     92  C   UNL A   1      46.682  35.559  30.022  1.00  0.00     0.200 A 
ATOM     93  F   UNL A   1      47.394  34.576  32.048  1.00  0.00    -0.200 F 
ATOM     94  F   UNL A   1      47.349  36.683  30.317  1.00  0.00    -0.200 F 
ENDBRANCH  61  84
ENDBRANCH  35  36
ENDBRANCH  27  30
ENDBRANCH  25  26
ENDBRANCH  24  25
ENDBRANCH  23  24
ENDBRANCH   1  23
TORSDOF 16
ENDMDL
