MODEL 1
REMARK VINA RESULT:     -11.9      0.000      0.000
REMARK SMILES O=C(NCCCCCCNC(=O)[C@H]1C[C@H]2CCCC[C@@H]2[N@@H+]1CC[C@@H]1CCCO1)c1ccc(-c2c3nc(c(-c4c(F)c(F)c(F)c(F)c4F)c4ccc([nH]4)c(-c4c(F)c(F)c(F)c(F)c4F)c4nc(c(-c5c(F)c(F)c(F)c(F)c5F)c5ccc2[nH]5)C=C4)C=C3)cc1
REMARK SMILES IDX 7 1 6 2 5 3 4 4 3 5 1 6 2 7 29 9 30 10 91 11 31 12 90 13
REMARK SMILES IDX 32 14 33 15 34 16 84 17 35 18 89 19 83 20 85 21 36 22 88 23
REMARK SMILES IDX 82 24 81 25 37 27 69 28 49 29 68 30 50 31 53 32 67 33 86 34
REMARK SMILES IDX 51 35 52 36 66 38 87 39 54 40 38 41 39 42 47 43 40 44 41 45
REMARK SMILES IDX 45 46 48 47 42 48 43 49 46 50 44 51 70 52 71 53 79 54 72 55
REMARK SMILES IDX 73 56 77 57 80 58 74 59 75 60 78 61 76 62 55 63 56 64 64 65
REMARK SMILES IDX 57 66 58 67 62 68 65 69 59 70 60 71 63 72 61 73 8 74 9 75
REMARK SMILES IDX 10 76 11 77 12 79 13 80 14 81 21 82 15 83 20 84 16 86 19 87
REMARK SMILES IDX 17 88 18 89 22 90 23 91 24 92 25 93 28 94 26 95 27 96
REMARK H PARENT 3 8 85 26 53 37 10 78 21 85
REMARK Flexibility Score: inf
ROOT
ATOM      1  C   UNL A   1      32.392  29.974  26.632  1.00  0.00     0.002 C 
ENDROOT
BRANCH   1   2
ATOM      2  C   UNL A   1      31.403  30.895  25.912  1.00  0.00     0.002 C 
BRANCH   2   3
ATOM      3  C   UNL A   1      31.247  32.296  26.504  1.00  0.00     0.021 C 
BRANCH   3   4
ATOM      4  C   UNL A   1      32.478  32.844  27.213  1.00  0.00     0.116 C 
BRANCH   4   5
ATOM      5  N   UNL A   1      32.318  34.223  27.639  1.00  0.00    -0.352 N 
ATOM      6  O   UNL A   1      32.653  36.047  28.926  1.00  0.00    -0.269 OA
ATOM      7  C   UNL A   1      33.009  34.919  28.601  1.00  0.00     0.251 C 
ATOM      8  H   UNL A   1      31.616  34.730  27.172  1.00  0.00     0.163 HD
BRANCH   7   9
ATOM      9  C   UNL A   1      34.171  34.294  29.267  1.00  0.00     0.039 A 
ATOM     10  C   UNL A   1      35.474  34.553  28.831  1.00  0.00     0.014 A 
ATOM     11  C   UNL A   1      33.950  33.443  30.354  1.00  0.00     0.014 A 
ATOM     12  C   UNL A   1      36.542  33.866  29.397  1.00  0.00     0.010 A 
ATOM     13  C   UNL A   1      35.032  32.813  30.973  1.00  0.00     0.010 A 
ATOM     14  C   UNL A   1      36.334  33.000  30.483  1.00  0.00    -0.014 A 
BRANCH  14  15
ATOM     15  C   UNL A   1      37.499  32.350  31.133  1.00  0.00     0.031 A 
ATOM     16  C   UNL A   1      38.271  31.265  30.439  1.00  0.00     0.074 A 
ATOM     17  C   UNL A   1      37.861  32.759  32.364  1.00  0.00     0.049 A 
ATOM     18  N   UNL A   1      39.308  30.587  30.866  1.00  0.00    -0.248 NA
ATOM     19  C   UNL A   1      37.819  30.883  29.093  1.00  0.00     0.031 C 
ATOM     20  C   UNL A   1      37.177  33.795  33.139  1.00  0.00     0.029 A 
ATOM     21  N   UNL A   1      38.894  32.364  33.175  1.00  0.00    -0.354 N 
ATOM     22  C   UNL A   1      39.620  29.691  29.854  1.00  0.00     0.074 A 
ATOM     23  C   UNL A   1      38.649  29.892  28.798  1.00  0.00     0.031 C 
ATOM     24  C   UNL A   1      37.827  33.980  34.297  1.00  0.00     0.029 A 
ATOM     25  C   UNL A   1      38.937  33.036  34.372  1.00  0.00     0.049 A 
ATOM     26  H   UNL A   1      39.541  31.666  32.924  1.00  0.00     0.167 HD
ATOM     27  C   UNL A   1      40.630  28.789  29.809  1.00  0.00     0.037 A 
ATOM     28  C   UNL A   1      39.766  32.895  35.422  1.00  0.00     0.037 A 
ATOM     29  C   UNL A   1      41.600  28.603  30.859  1.00  0.00     0.049 A 
ATOM     30  C   UNL A   1      40.861  31.871  35.354  1.00  0.00     0.074 A 
ATOM     31  C   UNL A   1      42.684  27.743  30.892  1.00  0.00     0.029 A 
ATOM     32  N   UNL A   1      41.599  29.288  32.066  1.00  0.00    -0.354 N 
ATOM     33  N   UNL A   1      41.169  31.055  34.375  1.00  0.00    -0.248 NA
ATOM     34  C   UNL A   1      41.722  31.746  36.537  1.00  0.00     0.031 C 
ATOM     35  C   UNL A   1      43.311  27.873  32.136  1.00  0.00     0.029 A 
ATOM     36  C   UNL A   1      42.649  28.851  32.860  1.00  0.00     0.049 A 
ATOM     37  H   UNL A   1      40.949  29.981  32.323  1.00  0.00     0.167 HD
ATOM     38  C   UNL A   1      42.267  30.331  34.816  1.00  0.00     0.074 A 
ATOM     39  C   UNL A   1      42.584  30.819  36.143  1.00  0.00     0.031 C 
ATOM     40  C   UNL A   1      42.949  29.348  34.179  1.00  0.00     0.037 A 
BRANCH  27  41
ATOM     41  C   UNL A   1      40.734  27.916  28.592  1.00  0.00     0.064 A 
ATOM     42  C   UNL A   1      40.054  26.692  28.501  1.00  0.00     0.173 A 
ATOM     43  C   UNL A   1      41.488  28.330  27.483  1.00  0.00     0.173 A 
ATOM     44  F   UNL A   1      39.328  26.245  29.537  1.00  0.00    -0.203 F 
ATOM     45  C   UNL A   1      40.142  25.906  27.354  1.00  0.00     0.198 A 
ATOM     46  C   UNL A   1      41.552  27.555  26.328  1.00  0.00     0.198 A 
ATOM     47  F   UNL A   1      42.153  29.495  27.514  1.00  0.00    -0.203 F 
ATOM     48  F   UNL A   1      39.515  24.722  27.305  1.00  0.00    -0.200 F 
ATOM     49  C   UNL A   1      40.884  26.341  26.266  1.00  0.00     0.200 A 
ATOM     50  F   UNL A   1      42.260  27.983  25.273  1.00  0.00    -0.200 F 
ATOM     51  F   UNL A   1      40.961  25.587  25.161  1.00  0.00    -0.200 F 
ENDBRANCH  27  41
BRANCH  28  52
ATOM     52  C   UNL A   1      39.582  33.749  36.621  1.00  0.00     0.064 A 
ATOM     53  C   UNL A   1      40.170  35.019  36.699  1.00  0.00     0.173 A 
ATOM     54  C   UNL A   1      38.794  33.326  37.702  1.00  0.00     0.173 A 
ATOM     55  F   UNL A   1      40.946  35.460  35.697  1.00  0.00    -0.203 F 
ATOM     56  C   UNL A   1      39.988  35.827  37.819  1.00  0.00     0.198 A 
ATOM     57  C   UNL A   1      38.589  34.147  38.808  1.00  0.00     0.198 A 
ATOM     58  F   UNL A   1      38.205  32.122  37.672  1.00  0.00    -0.203 F 
ATOM     59  F   UNL A   1      40.591  37.021  37.884  1.00  0.00    -0.200 F 
ATOM     60  C   UNL A   1      39.192  35.394  38.868  1.00  0.00     0.200 A 
ATOM     61  F   UNL A   1      37.804  33.731  39.811  1.00  0.00    -0.200 F 
ATOM     62  F   UNL A   1      39.007  36.177  39.940  1.00  0.00    -0.200 F 
ENDBRANCH  28  52
BRANCH  40  63
ATOM     63  C   UNL A   1      44.123  28.756  34.901  1.00  0.00     0.064 A 
ATOM     64  C   UNL A   1      43.987  27.626  35.721  1.00  0.00     0.173 A 
ATOM     65  C   UNL A   1      45.403  29.311  34.751  1.00  0.00     0.173 A 
ATOM     66  F   UNL A   1      42.781  27.071  35.910  1.00  0.00    -0.203 F 
ATOM     67  C   UNL A   1      45.086  27.088  36.384  1.00  0.00     0.198 A 
ATOM     68  C   UNL A   1      46.505  28.753  35.394  1.00  0.00     0.198 A 
ATOM     69  F   UNL A   1      45.586  30.390  33.976  1.00  0.00    -0.203 F 
ATOM     70  F   UNL A   1      44.926  26.037  37.200  1.00  0.00    -0.200 F 
ATOM     71  C   UNL A   1      46.344  27.647  36.215  1.00  0.00     0.200 A 
ATOM     72  F   UNL A   1      47.721  29.288  35.221  1.00  0.00    -0.200 F 
ATOM     73  F   UNL A   1      47.402  27.125  36.852  1.00  0.00    -0.200 F 
ENDBRANCH  40  63
ENDBRANCH  14  15
ENDBRANCH   7   9
ENDBRANCH   4   5
ENDBRANCH   3   4
ENDBRANCH   2   3
ENDBRANCH   1   2
BRANCH   1  74
ATOM     74  C   UNL A   1      31.785  28.743  27.312  1.00  0.00     0.021 C 
BRANCH  74  75
ATOM     75  C   UNL A   1      32.163  27.404  26.690  1.00  0.00     0.116 C 
BRANCH  75  76
ATOM     76  N   UNL A   1      31.092  26.434  26.772  1.00  0.00    -0.351 N 
ATOM     77  C   UNL A   1      31.113  25.108  26.417  1.00  0.00     0.278 C 
ATOM     78  H   UNL A   1      30.236  26.768  27.128  1.00  0.00     0.163 HD
ATOM     79  O   UNL A   1      30.096  24.447  26.624  1.00  0.00    -0.268 OA
BRANCH  77  80
ATOM     80  C   UNL A   1      32.411  24.549  25.794  1.00  0.00     0.274 C 
ATOM     81  C   UNL A   1      32.943  23.379  26.655  1.00  0.00     0.085 C 
ATOM     82  N   UNL A   1      32.164  23.979  24.441  1.00  0.00    -0.322 N 
ATOM     83  C   UNL A   1      33.314  22.336  25.625  1.00  0.00     0.054 C 
ATOM     84  C   UNL A   1      32.219  22.526  24.582  1.00  0.00     0.188 C 
ATOM     85  H   UNL A   1      31.229  24.203  24.102  1.00  0.00     0.349 HD
ATOM     86  C   UNL A   1      33.443  20.891  26.061  1.00  0.00     0.010 C 
ATOM     87  C   UNL A   1      32.324  21.611  23.362  1.00  0.00     0.065 C 
ATOM     88  C   UNL A   1      33.721  20.035  24.821  1.00  0.00     0.001 C 
ATOM     89  C   UNL A   1      32.604  20.162  23.779  1.00  0.00     0.006 C 
BRANCH  82  90
ATOM     90  C   UNL A   1      32.822  24.647  23.313  1.00  0.00     0.265 C 
BRANCH  90  91
ATOM     91  C   UNL A   1      33.045  26.179  23.307  1.00  0.00     0.093 C 
BRANCH  91  92
ATOM     92  C   UNL A   1      31.853  27.011  22.855  1.00  0.00     0.123 C 
ATOM     93  C   UNL A   1      32.020  28.504  23.063  1.00  0.00     0.034 C 
ATOM     94  O   UNL A   1      30.645  26.715  23.568  1.00  0.00    -0.378 OA
ATOM     95  C   UNL A   1      30.601  28.990  22.856  1.00  0.00     0.031 C 
ATOM     96  C   UNL A   1      29.744  27.793  23.250  1.00  0.00     0.160 C 
ENDBRANCH  91  92
ENDBRANCH  90  91
ENDBRANCH  82  90
ENDBRANCH  77  80
ENDBRANCH  75  76
ENDBRANCH  74  75
ENDBRANCH   1  74
TORSDOF 16
ENDMDL
MODEL 2
REMARK VINA RESULT:     -11.9      0.587      7.342
REMARK SMILES O=C(NCCCCCCNC(=O)[C@H]1C[C@H]2CCCC[C@@H]2[N@@H+]1CC[C@@H]1CCCO1)c1ccc(-c2c3nc(c(-c4c(F)c(F)c(F)c(F)c4F)c4ccc([nH]4)c(-c4c(F)c(F)c(F)c(F)c4F)c4nc(c(-c5c(F)c(F)c(F)c(F)c5F)c5ccc2[nH]5)C=C4)C=C3)cc1
REMARK SMILES IDX 7 1 6 2 5 3 4 4 3 5 1 6 2 7 29 9 30 10 91 11 31 12 90 13
REMARK SMILES IDX 32 14 33 15 34 16 84 17 35 18 89 19 83 20 85 21 36 22 88 23
REMARK SMILES IDX 82 24 81 25 37 27 69 28 49 29 68 30 50 31 53 32 67 33 86 34
REMARK SMILES IDX 51 35 52 36 66 38 87 39 54 40 38 41 39 42 47 43 40 44 41 45
REMARK SMILES IDX 45 46 48 47 42 48 43 49 46 50 44 51 70 52 71 53 79 54 72 55
REMARK SMILES IDX 73 56 77 57 80 58 74 59 75 60 78 61 76 62 55 63 56 64 64 65
REMARK SMILES IDX 57 66 58 67 62 68 65 69 59 70 60 71 63 72 61 73 8 74 9 75
REMARK SMILES IDX 10 76 11 77 12 79 13 80 14 81 21 82 15 83 20 84 16 86 19 87
REMARK SMILES IDX 17 88 18 89 22 90 23 91 24 92 25 93 28 94 26 95 27 96
REMARK H PARENT 3 8 85 26 53 37 10 78 21 85
REMARK Flexibility Score: inf
ROOT
ATOM      1  C   UNL A   1      32.307  29.956  26.826  1.00  0.00     0.002 C 
ENDROOT
BRANCH   1   2
ATOM      2  C   UNL A   1      31.379  30.853  26.004  1.00  0.00     0.002 C 
BRANCH   2   3
ATOM      3  C   UNL A   1      31.283  32.309  26.462  1.00  0.00     0.021 C 
BRANCH   3   4
ATOM      4  C   UNL A   1      32.515  32.849  27.175  1.00  0.00     0.116 C 
BRANCH   4   5
ATOM      5  N   UNL A   1      32.343  34.212  27.646  1.00  0.00    -0.352 N 
ATOM      6  O   UNL A   1      32.663  35.997  28.992  1.00  0.00    -0.269 OA
ATOM      7  C   UNL A   1      33.030  34.883  28.628  1.00  0.00     0.251 C 
ATOM      8  H   UNL A   1      31.634  34.728  27.198  1.00  0.00     0.163 HD
BRANCH   7   9
ATOM      9  C   UNL A   1      34.200  34.248  29.270  1.00  0.00     0.039 A 
ATOM     10  C   UNL A   1      35.501  34.572  28.872  1.00  0.00     0.014 A 
ATOM     11  C   UNL A   1      33.990  33.322  30.295  1.00  0.00     0.014 A 
ATOM     12  C   UNL A   1      36.581  33.879  29.408  1.00  0.00     0.010 A 
ATOM     13  C   UNL A   1      35.081  32.684  30.889  1.00  0.00     0.010 A 
ATOM     14  C   UNL A   1      36.383  32.938  30.432  1.00  0.00    -0.014 A 
BRANCH  14  15
ATOM     15  C   UNL A   1      37.558  32.279  31.056  1.00  0.00     0.031 A 
ATOM     16  C   UNL A   1      38.017  32.656  32.435  1.00  0.00     0.074 A 
ATOM     17  C   UNL A   1      38.205  31.324  30.362  1.00  0.00     0.049 A 
ATOM     18  N   UNL A   1      39.027  32.186  33.125  1.00  0.00    -0.248 NA
ATOM     19  C   UNL A   1      37.251  33.700  33.130  1.00  0.00     0.031 C 
ATOM     20  C   UNL A   1      37.855  30.885  29.010  1.00  0.00     0.029 A 
ATOM     21  N   UNL A   1      39.281  30.543  30.697  1.00  0.00    -0.354 N 
ATOM     22  C   UNL A   1      39.029  32.887  34.323  1.00  0.00     0.074 A 
ATOM     23  C   UNL A   1      37.934  33.832  34.260  1.00  0.00     0.031 C 
ATOM     24  C   UNL A   1      38.677  29.892  28.643  1.00  0.00     0.029 A 
ATOM     25  C   UNL A   1      39.647  29.663  29.709  1.00  0.00     0.049 A 
ATOM     26  H   UNL A   1      39.747  30.608  31.562  1.00  0.00     0.167 HD
ATOM     27  C   UNL A   1      39.864  32.746  35.381  1.00  0.00     0.037 A 
ATOM     28  C   UNL A   1      40.662  28.782  29.657  1.00  0.00     0.037 A 
ATOM     29  C   UNL A   1      40.945  31.794  35.441  1.00  0.00     0.049 A 
ATOM     30  C   UNL A   1      41.587  28.665  30.833  1.00  0.00     0.074 A 
ATOM     31  C   UNL A   1      41.823  31.547  36.482  1.00  0.00     0.029 A 
ATOM     32  N   UNL A   1      41.298  30.933  34.411  1.00  0.00    -0.354 N 
ATOM     33  N   UNL A   1      41.554  29.307  31.976  1.00  0.00    -0.248 NA
ATOM     34  C   UNL A   1      42.690  27.704  30.713  1.00  0.00     0.031 C 
ATOM     35  C   UNL A   1      42.734  30.571  36.067  1.00  0.00     0.029 A 
ATOM     36  C   UNL A   1      42.396  30.172  34.784  1.00  0.00     0.049 A 
ATOM     37  H   UNL A   1      40.838  30.871  33.543  1.00  0.00     0.167 HD
ATOM     38  C   UNL A   1      42.620  28.818  32.716  1.00  0.00     0.074 A 
ATOM     39  C   UNL A   1      43.268  27.810  31.901  1.00  0.00     0.031 C 
ATOM     40  C   UNL A   1      43.027  29.174  33.960  1.00  0.00     0.037 A 
BRANCH  27  41
ATOM     41  C   UNL A   1      39.659  33.653  36.559  1.00  0.00     0.064 A 
ATOM     42  C   UNL A   1      40.236  34.931  36.617  1.00  0.00     0.173 A 
ATOM     43  C   UNL A   1      38.837  33.257  37.626  1.00  0.00     0.173 A 
ATOM     44  F   UNL A   1      41.039  35.354  35.629  1.00  0.00    -0.203 F 
ATOM     45  C   UNL A   1      40.014  35.770  37.707  1.00  0.00     0.198 A 
ATOM     46  C   UNL A   1      38.596  34.109  38.701  1.00  0.00     0.198 A 
ATOM     47  F   UNL A   1      38.255  32.049  37.618  1.00  0.00    -0.203 F 
ATOM     48  F   UNL A   1      40.608  36.970  37.758  1.00  0.00    -0.200 F 
ATOM     49  C   UNL A   1      39.189  35.361  38.744  1.00  0.00     0.200 A 
ATOM     50  F   UNL A   1      37.788  33.717  39.697  1.00  0.00    -0.200 F 
ATOM     51  F   UNL A   1      38.972  36.172  39.788  1.00  0.00    -0.200 F 
ENDBRANCH  27  41
BRANCH  28  52
ATOM     52  C   UNL A   1      40.849  27.949  28.443  1.00  0.00     0.064 A 
ATOM     53  C   UNL A   1      40.249  26.687  28.336  1.00  0.00     0.173 A 
ATOM     54  C   UNL A   1      41.608  28.407  27.356  1.00  0.00     0.173 A 
ATOM     55  F   UNL A   1      39.528  26.199  29.357  1.00  0.00    -0.203 F 
ATOM     56  C   UNL A   1      40.413  25.909  27.192  1.00  0.00     0.198 A 
ATOM     57  C   UNL A   1      41.747  27.641  26.201  1.00  0.00     0.198 A 
ATOM     58  F   UNL A   1      42.197  29.611  27.408  1.00  0.00    -0.203 F 
ATOM     59  F   UNL A   1      39.859  24.691  27.129  1.00  0.00    -0.200 F 
ATOM     60  C   UNL A   1      41.155  26.389  26.123  1.00  0.00     0.200 A 
ATOM     61  F   UNL A   1      42.450  28.117  25.164  1.00  0.00    -0.200 F 
ATOM     62  F   UNL A   1      41.302  25.645  25.018  1.00  0.00    -0.200 F 
ENDBRANCH  28  52
BRANCH  40  63
ATOM     63  C   UNL A   1      44.213  28.447  34.522  1.00  0.00     0.064 A 
ATOM     64  C   UNL A   1      44.070  27.243  35.227  1.00  0.00     0.173 A 
ATOM     65  C   UNL A   1      45.509  28.949  34.330  1.00  0.00     0.173 A 
ATOM     66  F   UNL A   1      42.850  26.733  35.451  1.00  0.00    -0.203 F 
ATOM     67  C   UNL A   1      45.181  26.580  35.741  1.00  0.00     0.198 A 
ATOM     68  C   UNL A   1      46.620  28.268  34.822  1.00  0.00     0.198 A 
ATOM     69  F   UNL A   1      45.699  30.095  33.660  1.00  0.00    -0.203 F 
ATOM     70  F   UNL A   1      45.018  25.457  36.453  1.00  0.00    -0.200 F 
ATOM     71  C   UNL A   1      46.454  27.089  35.533  1.00  0.00     0.200 A 
ATOM     72  F   UNL A   1      47.850  28.756  34.611  1.00  0.00    -0.200 F 
ATOM     73  F   UNL A   1      47.523  26.448  36.027  1.00  0.00    -0.200 F 
ENDBRANCH  40  63
ENDBRANCH  14  15
ENDBRANCH   7   9
ENDBRANCH   4   5
ENDBRANCH   3   4
ENDBRANCH   2   3
ENDBRANCH   1   2
BRANCH   1  74
ATOM     74  C   UNL A   1      33.476  29.325  26.063  1.00  0.00     0.021 C 
BRANCH  74  75
ATOM     75  C   UNL A   1      33.750  27.862  26.388  1.00  0.00     0.116 C 
BRANCH  75  76
ATOM     76  N   UNL A   1      32.536  27.112  26.629  1.00  0.00    -0.351 N 
ATOM     77  C   UNL A   1      32.266  25.803  26.315  1.00  0.00     0.278 C 
ATOM     78  H   UNL A   1      31.809  27.604  27.075  1.00  0.00     0.163 HD
ATOM     79  O   UNL A   1      31.177  25.347  26.664  1.00  0.00    -0.268 OA
BRANCH  77  80
ATOM     80  C   UNL A   1      33.350  25.005  25.557  1.00  0.00     0.274 C 
ATOM     81  C   UNL A   1      33.787  23.784  26.402  1.00  0.00     0.085 C 
ATOM     82  N   UNL A   1      32.823  24.448  24.281  1.00  0.00    -0.322 N 
ATOM     83  C   UNL A   1      33.826  22.662  25.389  1.00  0.00     0.054 C 
ATOM     84  C   UNL A   1      32.647  23.013  24.490  1.00  0.00     0.188 C 
ATOM     85  H   UNL A   1      31.903  24.825  24.056  1.00  0.00     0.349 HD
ATOM     86  C   UNL A   1      33.764  21.230  25.881  1.00  0.00     0.010 C 
ATOM     87  C   UNL A   1      32.423  22.059  23.317  1.00  0.00     0.065 C 
ATOM     88  C   UNL A   1      33.716  20.303  24.662  1.00  0.00     0.001 C 
ATOM     89  C   UNL A   1      32.504  20.596  23.770  1.00  0.00     0.006 C 
BRANCH  82  90
ATOM     90  C   UNL A   1      33.424  24.956  23.042  1.00  0.00     0.265 C 
BRANCH  90  91
ATOM     91  C   UNL A   1      32.546  25.514  21.896  1.00  0.00     0.093 C 
BRANCH  91  92
ATOM     92  C   UNL A   1      31.396  26.412  22.331  1.00  0.00     0.123 C 
ATOM     93  C   UNL A   1      31.826  27.654  23.087  1.00  0.00     0.034 C 
ATOM     94  O   UNL A   1      30.486  25.776  23.238  1.00  0.00    -0.378 OA
ATOM     95  C   UNL A   1      30.505  28.123  23.658  1.00  0.00     0.031 C 
ATOM     96  C   UNL A   1      29.686  26.844  23.781  1.00  0.00     0.160 C 
ENDBRANCH  91  92
ENDBRANCH  90  91
ENDBRANCH  82  90
ENDBRANCH  77  80
ENDBRANCH  75  76
ENDBRANCH  74  75
ENDBRANCH   1  74
TORSDOF 16
ENDMDL
MODEL 3
REMARK VINA RESULT:     -11.9      3.355      8.759
REMARK SMILES O=C(NCCCCCCNC(=O)[C@H]1C[C@H]2CCCC[C@@H]2[N@@H+]1CC[C@@H]1CCCO1)c1ccc(-c2c3nc(c(-c4c(F)c(F)c(F)c(F)c4F)c4ccc([nH]4)c(-c4c(F)c(F)c(F)c(F)c4F)c4nc(c(-c5c(F)c(F)c(F)c(F)c5F)c5ccc2[nH]5)C=C4)C=C3)cc1
REMARK SMILES IDX 7 1 6 2 5 3 4 4 3 5 1 6 2 7 29 9 30 10 91 11 31 12 90 13
REMARK SMILES IDX 32 14 33 15 34 16 84 17 35 18 89 19 83 20 85 21 36 22 88 23
REMARK SMILES IDX 82 24 81 25 37 27 69 28 49 29 68 30 50 31 53 32 67 33 86 34
REMARK SMILES IDX 51 35 52 36 66 38 87 39 54 40 38 41 39 42 47 43 40 44 41 45
REMARK SMILES IDX 45 46 48 47 42 48 43 49 46 50 44 51 70 52 71 53 79 54 72 55
REMARK SMILES IDX 73 56 77 57 80 58 74 59 75 60 78 61 76 62 55 63 56 64 64 65
REMARK SMILES IDX 57 66 58 67 62 68 65 69 59 70 60 71 63 72 61 73 8 74 9 75
REMARK SMILES IDX 10 76 11 77 12 79 13 80 14 81 21 82 15 83 20 84 16 86 19 87
REMARK SMILES IDX 17 88 18 89 22 90 23 91 24 92 25 93 28 94 26 95 27 96
REMARK H PARENT 3 8 85 26 53 37 10 78 21 85
REMARK Flexibility Score: inf
ROOT
ATOM      1  C   UNL A   1      30.862  27.419  24.949  1.00  0.00     0.002 C 
ENDROOT
BRANCH   1   2
ATOM      2  C   UNL A   1      32.076  28.352  24.925  1.00  0.00     0.002 C 
BRANCH   2   3
ATOM      3  C   UNL A   1      33.414  27.713  25.297  1.00  0.00     0.021 C 
BRANCH   3   4
ATOM      4  C   UNL A   1      33.982  28.132  26.647  1.00  0.00     0.116 C 
BRANCH   4   5
ATOM      5  N   UNL A   1      33.697  29.517  26.975  1.00  0.00    -0.352 N 
ATOM      6  O   UNL A   1      34.001  31.514  27.984  1.00  0.00    -0.269 OA
ATOM      7  C   UNL A   1      34.457  30.414  27.686  1.00  0.00     0.251 C 
ATOM      8  H   UNL A   1      32.838  29.862  26.641  1.00  0.00     0.163 HD
BRANCH   7   9
ATOM      9  C   UNL A   1      35.821  30.041  28.117  1.00  0.00     0.039 A 
ATOM     10  C   UNL A   1      36.910  30.179  27.252  1.00  0.00     0.014 A 
ATOM     11  C   UNL A   1      36.010  29.556  29.414  1.00  0.00     0.014 A 
ATOM     12  C   UNL A   1      38.163  29.715  27.638  1.00  0.00     0.010 A 
ATOM     13  C   UNL A   1      37.285  29.163  29.828  1.00  0.00     0.010 A 
ATOM     14  C   UNL A   1      38.366  29.215  28.935  1.00  0.00    -0.014 A 
BRANCH  14  15
ATOM     15  C   UNL A   1      39.731  28.814  29.358  1.00  0.00     0.031 A 
ATOM     16  C   UNL A   1      40.542  29.675  30.283  1.00  0.00     0.074 A 
ATOM     17  C   UNL A   1      40.232  27.650  28.901  1.00  0.00     0.049 A 
ATOM     18  N   UNL A   1      41.752  29.476  30.746  1.00  0.00    -0.248 NA
ATOM     19  C   UNL A   1      39.921  30.924  30.746  1.00  0.00     0.031 C 
ATOM     20  C   UNL A   1      39.538  26.740  27.987  1.00  0.00     0.029 A 
ATOM     21  N   UNL A   1      41.428  27.028  29.146  1.00  0.00    -0.354 N 
ATOM     22  C   UNL A   1      42.043  30.579  31.536  1.00  0.00     0.074 A 
ATOM     23  C   UNL A   1      40.893  31.458  31.474  1.00  0.00     0.031 C 
ATOM     24  C   UNL A   1      40.305  25.661  27.776  1.00  0.00     0.029 A 
ATOM     25  C   UNL A   1      41.566  25.829  28.490  1.00  0.00     0.049 A 
ATOM     26  H   UNL A   1      42.122  27.405  29.734  1.00  0.00     0.167 HD
ATOM     27  C   UNL A   1      43.165  30.830  32.253  1.00  0.00     0.037 A 
ATOM     28  C   UNL A   1      42.600  24.969  28.453  1.00  0.00     0.037 A 
ATOM     29  C   UNL A   1      44.300  29.945  32.320  1.00  0.00     0.049 A 
ATOM     30  C   UNL A   1      43.840  25.285  29.238  1.00  0.00     0.074 A 
ATOM     31  C   UNL A   1      45.468  30.091  33.049  1.00  0.00     0.029 A 
ATOM     32  N   UNL A   1      44.412  28.749  31.625  1.00  0.00    -0.354 N 
ATOM     33  N   UNL A   1      44.087  26.314  30.012  1.00  0.00    -0.248 NA
ATOM     34  C   UNL A   1      44.944  24.322  29.142  1.00  0.00     0.031 C 
ATOM     35  C   UNL A   1      46.304  29.008  32.760  1.00  0.00     0.029 A 
ATOM     36  C   UNL A   1      45.639  28.159  31.890  1.00  0.00     0.049 A 
ATOM     37  H   UNL A   1      43.723  28.374  31.031  1.00  0.00     0.167 HD
ATOM     38  C   UNL A   1      45.367  26.115  30.508  1.00  0.00     0.074 A 
ATOM     39  C   UNL A   1      45.836  24.857  29.964  1.00  0.00     0.031 C 
ATOM     40  C   UNL A   1      46.090  26.907  31.339  1.00  0.00     0.037 A 
BRANCH  27  41
ATOM     41  C   UNL A   1      43.234  32.122  33.015  1.00  0.00     0.064 A 
ATOM     42  C   UNL A   1      43.695  33.306  32.420  1.00  0.00     0.173 A 
ATOM     43  C   UNL A   1      42.789  32.188  34.345  1.00  0.00     0.173 A 
ATOM     44  F   UNL A   1      44.142  33.296  31.155  1.00  0.00    -0.203 F 
ATOM     45  C   UNL A   1      43.728  34.502  33.134  1.00  0.00     0.198 A 
ATOM     46  C   UNL A   1      42.798  33.390  35.047  1.00  0.00     0.198 A 
ATOM     47  F   UNL A   1      42.331  31.087  34.959  1.00  0.00    -0.203 F 
ATOM     48  F   UNL A   1      44.210  35.612  32.558  1.00  0.00    -0.200 F 
ATOM     49  C   UNL A   1      43.273  34.545  34.444  1.00  0.00     0.200 A 
ATOM     50  F   UNL A   1      42.346  33.432  36.308  1.00  0.00    -0.200 F 
ATOM     51  F   UNL A   1      43.300  35.697  35.126  1.00  0.00    -0.200 F 
ENDBRANCH  27  41
BRANCH  28  52
ATOM     52  C   UNL A   1      42.496  23.733  27.639  1.00  0.00     0.064 A 
ATOM     53  C   UNL A   1      42.848  23.732  26.283  1.00  0.00     0.173 A 
ATOM     54  C   UNL A   1      42.067  22.523  28.205  1.00  0.00     0.173 A 
ATOM     55  F   UNL A   1      43.248  24.868  25.693  1.00  0.00    -0.203 F 
ATOM     56  C   UNL A   1      42.763  22.569  25.520  1.00  0.00     0.198 A 
ATOM     57  C   UNL A   1      42.010  21.355  27.448  1.00  0.00     0.198 A 
ATOM     58  F   UNL A   1      41.725  22.472  29.500  1.00  0.00    -0.203 F 
ATOM     59  F   UNL A   1      43.071  22.602  24.217  1.00  0.00    -0.200 F 
ATOM     60  C   UNL A   1      42.352  21.381  26.105  1.00  0.00     0.200 A 
ATOM     61  F   UNL A   1      41.629  20.206  28.023  1.00  0.00    -0.200 F 
ATOM     62  F   UNL A   1      42.282  20.260  25.374  1.00  0.00    -0.200 F 
ENDBRANCH  28  52
BRANCH  40  63
ATOM     63  C   UNL A   1      47.454  26.419  31.729  1.00  0.00     0.064 A 
ATOM     64  C   UNL A   1      48.597  26.773  30.997  1.00  0.00     0.173 A 
ATOM     65  C   UNL A   1      47.620  25.608  32.861  1.00  0.00     0.173 A 
ATOM     66  F   UNL A   1      48.486  27.532  29.897  1.00  0.00    -0.203 F 
ATOM     67  C   UNL A   1      49.856  26.313  31.373  1.00  0.00     0.198 A 
ATOM     68  C   UNL A   1      48.884  25.172  33.249  1.00  0.00     0.198 A 
ATOM     69  F   UNL A   1      46.558  25.244  33.595  1.00  0.00    -0.203 F 
ATOM     70  F   UNL A   1      50.929  26.624  30.633  1.00  0.00    -0.200 F 
ATOM     71  C   UNL A   1      50.000  25.518  32.501  1.00  0.00     0.200 A 
ATOM     72  F   UNL A   1      49.023  24.414  34.346  1.00  0.00    -0.200 F 
ATOM     73  F   UNL A   1      51.213  25.079  32.863  1.00  0.00    -0.200 F 
ENDBRANCH  40  63
ENDBRANCH  14  15
ENDBRANCH   7   9
ENDBRANCH   4   5
ENDBRANCH   3   4
ENDBRANCH   2   3
ENDBRANCH   1   2
BRANCH   1  74
ATOM     74  C   UNL A   1      30.772  26.471  26.149  1.00  0.00     0.021 C 
BRANCH  74  75
ATOM     75  C   UNL A   1      30.523  25.009  25.805  1.00  0.00     0.116 C 
BRANCH  75  76
ATOM     76  N   UNL A   1      31.003  24.108  26.832  1.00  0.00    -0.351 N 
ATOM     77  C   UNL A   1      32.146  23.350  26.834  1.00  0.00     0.278 C 
ATOM     78  H   UNL A   1      30.435  24.029  27.633  1.00  0.00     0.163 HD
ATOM     79  O   UNL A   1      32.390  22.689  27.845  1.00  0.00    -0.268 OA
BRANCH  77  80
ATOM     80  C   UNL A   1      33.039  23.387  25.575  1.00  0.00     0.274 C 
ATOM     81  C   UNL A   1      34.327  24.193  25.871  1.00  0.00     0.085 C 
ATOM     82  N   UNL A   1      33.493  22.023  25.187  1.00  0.00    -0.322 N 
ATOM     83  C   UNL A   1      35.414  23.336  25.261  1.00  0.00     0.054 C 
ATOM     84  C   UNL A   1      34.904  21.931  25.553  1.00  0.00     0.188 C 
ATOM     85  H   UNL A   1      33.007  21.300  25.716  1.00  0.00     0.349 HD
ATOM     86  C   UNL A   1      36.845  23.533  25.723  1.00  0.00     0.010 C 
ATOM     87  C   UNL A   1      35.791  20.801  25.029  1.00  0.00     0.065 C 
ATOM     88  C   UNL A   1      37.723  22.483  25.034  1.00  0.00     0.001 C 
ATOM     89  C   UNL A   1      37.266  21.057  25.359  1.00  0.00     0.006 C 
BRANCH  82  90
ATOM     90  C   UNL A   1      33.020  21.512  23.896  1.00  0.00     0.265 C 
BRANCH  90  91
ATOM     91  C   UNL A   1      32.160  20.227  23.809  1.00  0.00     0.093 C 
BRANCH  91  92
ATOM     92  C   UNL A   1      32.859  18.943  24.233  1.00  0.00     0.123 C 
ATOM     93  C   UNL A   1      32.898  17.871  23.162  1.00  0.00     0.034 C 
ATOM     94  O   UNL A   1      32.220  18.282  25.334  1.00  0.00    -0.378 OA
ATOM     95  C   UNL A   1      33.317  16.663  23.971  1.00  0.00     0.031 C 
ATOM     96  C   UNL A   1      32.803  16.965  25.374  1.00  0.00     0.160 C 
ENDBRANCH  91  92
ENDBRANCH  90  91
ENDBRANCH  82  90
ENDBRANCH  77  80
ENDBRANCH  75  76
ENDBRANCH  74  75
ENDBRANCH   1  74
TORSDOF 16
ENDMDL
