MODEL 1
REMARK VINA RESULT:     -12.4      0.000      0.000
REMARK SMILES Cc1ccsc1CNC(=O)N[C@@H]1CCCC[C@H]1C(=O)NCCCCCCNC(=O)c1ccc(-c2c3nc(c(-c4c(F)c(F)c(F)c(F)c4F)c4ccc([nH]4)c(-c4c(F)c(F)c(F)c(F)c4F)c4nc(c(-c5c(F)c(F)c(F)c(F)c5F)c5ccc2[nH]5)C=C4)C=C3)cc1
REMARK SMILES IDX 23 1 22 2 21 3 20 4 18 5 19 6 17 8 12 9 13 10 14 11 16 12
REMARK SMILES IDX 15 13 11 14 8 15 9 16 10 18 7 20 6 21 1 22 2 23 3 24 4 25
REMARK SMILES IDX 5 26 24 27 25 28 26 29 27 30 28 31 29 33 30 34 31 35 92 36
REMARK SMILES IDX 32 37 91 38 33 39 34 40 35 41 85 42 36 43 90 44 84 45 86 46
REMARK SMILES IDX 37 47 89 48 83 49 82 50 38 52 70 53 50 54 69 55 51 56 54 57
REMARK SMILES IDX 68 58 87 59 52 60 53 61 67 63 88 64 55 65 39 66 40 67 48 68
REMARK SMILES IDX 41 69 42 70 46 71 49 72 43 73 44 74 47 75 45 76 71 77 72 78
REMARK SMILES IDX 80 79 73 80 74 81 78 82 81 83 75 84 76 85 79 86 77 87 56 88
REMARK SMILES IDX 57 89 65 90 58 91 59 92 63 93 66 94 60 95 61 96 64 97 62 98
REMARK H PARENT 20 7 8 17 11 19 27 32 86 51 54 62
REMARK Flexibility Score: inf
ROOT
ATOM      1  C   UNL A   1      32.278  29.476  27.129  1.00  0.00     0.002 C 
ENDROOT
BRANCH   1   2
ATOM      2  C   UNL A   1      33.641  28.823  26.865  1.00  0.00     0.021 C 
BRANCH   2   3
ATOM      3  C   UNL A   1      33.541  27.392  26.351  1.00  0.00     0.116 C 
BRANCH   3   4
ATOM      4  N   UNL A   1      33.482  27.388  24.908  1.00  0.00    -0.356 N 
ATOM      5  C   UNL A   1      33.601  26.368  24.024  1.00  0.00     0.225 C 
ATOM      6  O   UNL A   1      33.692  26.671  22.833  1.00  0.00    -0.275 OA
ATOM      7  H   UNL A   1      33.330  28.271  24.501  1.00  0.00     0.163 HD
BRANCH   5   8
ATOM      8  C   UNL A   1      33.565  24.916  24.481  1.00  0.00     0.101 C 
ATOM      9  C   UNL A   1      32.158  24.293  24.442  1.00  0.00     0.096 C 
ATOM     10  C   UNL A   1      32.077  22.764  24.329  1.00  0.00     0.026 C 
ATOM     11  C   UNL A   1      33.186  22.157  23.481  1.00  0.00     0.002 C 
ATOM     12  C   UNL A   1      34.702  24.120  23.821  1.00  0.00     0.015 C 
ATOM     13  C   UNL A   1      34.553  22.615  23.958  1.00  0.00     0.001 C 
BRANCH   9  14
ATOM     14  N   UNL A   1      31.250  24.785  25.490  1.00  0.00    -0.335 N 
ATOM     15  N   UNL A   1      29.582  26.234  24.606  1.00  0.00    -0.333 N 
ATOM     16  C   UNL A   1      30.142  25.525  25.583  1.00  0.00     0.315 C 
ATOM     17  H   UNL A   1      28.646  26.467  24.806  1.00  0.00     0.165 HD
ATOM     18  O   UNL A   1      29.585  25.542  26.686  1.00  0.00    -0.249 OA
ATOM     19  H   UNL A   1      31.544  24.481  26.379  1.00  0.00     0.165 HD
BRANCH  15  20
ATOM     20  C   UNL A   1      30.007  26.747  23.326  1.00  0.00     0.164 C 
BRANCH  20  21
ATOM     21  C   UNL A   1      29.456  28.114  22.989  1.00  0.00     0.027 A 
ATOM     22  C   UNL A   1      31.666  29.297  22.426  1.00  0.00     0.045 C 
ATOM     23  C   UNL A   1      30.177  29.208  22.518  1.00  0.00    -0.035 A 
ATOM     24  C   UNL A   1      29.304  30.260  22.084  1.00  0.00     0.015 A 
ATOM     25  C   UNL A   1      27.978  29.968  22.292  1.00  0.00     0.065 A 
ATOM     26  S   UNL A   1      27.780  28.487  23.109  1.00  0.00    -0.147 S 
ENDBRANCH  20  21
ENDBRANCH  15  20
ENDBRANCH   9  14
ENDBRANCH   5   8
ENDBRANCH   3   4
ENDBRANCH   2   3
ENDBRANCH   1   2
BRANCH   1  27
ATOM     27  C   UNL A   1      31.885  30.565  26.126  1.00  0.00     0.002 C 
BRANCH  27  28
ATOM     28  C   UNL A   1      31.523  31.909  26.757  1.00  0.00     0.021 C 
BRANCH  28  29
ATOM     29  C   UNL A   1      32.700  32.628  27.397  1.00  0.00     0.116 C 
BRANCH  29  30
ATOM     30  N   UNL A   1      32.425  34.041  27.595  1.00  0.00    -0.352 N 
ATOM     31  C   UNL A   1      32.971  34.899  28.516  1.00  0.00     0.251 C 
ATOM     32  H   UNL A   1      31.758  34.435  26.987  1.00  0.00     0.163 HD
ATOM     33  O   UNL A   1      32.484  36.001  28.716  1.00  0.00    -0.269 OA
BRANCH  31  34
ATOM     34  C   UNL A   1      34.149  34.452  29.286  1.00  0.00     0.039 A 
ATOM     35  C   UNL A   1      33.954  33.850  30.529  1.00  0.00     0.014 A 
ATOM     36  C   UNL A   1      35.434  34.590  28.752  1.00  0.00     0.014 A 
ATOM     37  C   UNL A   1      35.050  33.322  31.212  1.00  0.00     0.010 A 
ATOM     38  C   UNL A   1      36.512  33.993  29.395  1.00  0.00     0.010 A 
ATOM     39  C   UNL A   1      36.329  33.351  30.629  1.00  0.00    -0.014 A 
BRANCH  39  40
ATOM     40  C   UNL A   1      37.487  32.698  31.286  1.00  0.00     0.031 A 
ATOM     41  C   UNL A   1      38.181  31.546  30.620  1.00  0.00     0.074 A 
ATOM     42  C   UNL A   1      37.863  33.098  32.517  1.00  0.00     0.049 A 
ATOM     43  N   UNL A   1      39.155  30.796  31.066  1.00  0.00    -0.248 NA
ATOM     44  C   UNL A   1      37.698  31.168  29.282  1.00  0.00     0.031 C 
ATOM     45  C   UNL A   1      37.235  34.176  33.282  1.00  0.00     0.029 A 
ATOM     46  N   UNL A   1      38.854  32.637  33.345  1.00  0.00    -0.354 N 
ATOM     47  C   UNL A   1      39.395  29.857  30.073  1.00  0.00     0.074 A 
ATOM     48  C   UNL A   1      38.427  30.093  29.024  1.00  0.00     0.031 C 
ATOM     49  C   UNL A   1      37.868  34.307  34.459  1.00  0.00     0.029 A 
ATOM     50  C   UNL A   1      38.913  33.293  34.551  1.00  0.00     0.049 A 
ATOM     51  H   UNL A   1      39.464  31.904  33.099  1.00  0.00     0.167 HD
ATOM     52  C   UNL A   1      40.352  28.899  30.032  1.00  0.00     0.037 A 
ATOM     53  C   UNL A   1      39.711  33.087  35.617  1.00  0.00     0.037 A 
ATOM     54  C   UNL A   1      41.319  28.679  31.075  1.00  0.00     0.049 A 
ATOM     55  C   UNL A   1      40.744  31.994  35.557  1.00  0.00     0.074 A 
ATOM     56  C   UNL A   1      42.368  27.777  31.102  1.00  0.00     0.029 A 
ATOM     57  N   UNL A   1      41.350  29.365  32.280  1.00  0.00    -0.354 N 
ATOM     58  N   UNL A   1      41.011  31.161  34.582  1.00  0.00    -0.248 NA
ATOM     59  C   UNL A   1      41.586  31.814  36.748  1.00  0.00     0.031 C 
ATOM     60  C   UNL A   1      42.994  27.872  32.348  1.00  0.00     0.029 A 
ATOM     61  C   UNL A   1      42.378  28.879  33.074  1.00  0.00     0.049 A 
ATOM     62  H   UNL A   1      40.735  30.090  32.535  1.00  0.00     0.167 HD
ATOM     63  C   UNL A   1      42.066  30.376  35.028  1.00  0.00     0.074 A 
ATOM     64  C   UNL A   1      42.402  30.846  36.356  1.00  0.00     0.031 C 
ATOM     65  C   UNL A   1      42.699  29.359  34.394  1.00  0.00     0.037 A 
BRANCH  52  66
ATOM     66  C   UNL A   1      40.395  28.010  28.822  1.00  0.00     0.064 A 
ATOM     67  C   UNL A   1      41.156  28.340  27.690  1.00  0.00     0.173 A 
ATOM     68  C   UNL A   1      39.700  26.791  28.810  1.00  0.00     0.173 A 
ATOM     69  F   UNL A   1      41.832  29.499  27.645  1.00  0.00    -0.203 F 
ATOM     70  C   UNL A   1      41.195  27.499  26.581  1.00  0.00     0.198 A 
ATOM     71  C   UNL A   1      39.769  25.936  27.713  1.00  0.00     0.198 A 
ATOM     72  F   UNL A   1      38.962  26.422  29.868  1.00  0.00    -0.203 F 
ATOM     73  F   UNL A   1      41.887  27.861  25.491  1.00  0.00    -0.200 F 
ATOM     74  C   UNL A   1      40.508  26.294  26.596  1.00  0.00     0.200 A 
ATOM     75  F   UNL A   1      39.117  24.766  27.736  1.00  0.00    -0.200 F 
ATOM     76  F   UNL A   1      40.555  25.481  25.532  1.00  0.00    -0.200 F 
ENDBRANCH  52  66
BRANCH  53  77
ATOM     77  C   UNL A   1      39.566  33.938  36.828  1.00  0.00     0.064 A 
ATOM     78  C   UNL A   1      40.227  35.170  36.928  1.00  0.00     0.173 A 
ATOM     79  C   UNL A   1      38.771  33.536  37.911  1.00  0.00     0.173 A 
ATOM     80  F   UNL A   1      41.014  35.590  35.926  1.00  0.00    -0.203 F 
ATOM     81  C   UNL A   1      40.116  35.957  38.073  1.00  0.00     0.198 A 
ATOM     82  C   UNL A   1      38.635  34.338  39.043  1.00  0.00     0.198 A 
ATOM     83  F   UNL A   1      38.112  32.368  37.866  1.00  0.00    -0.203 F 
ATOM     84  F   UNL A   1      40.799  37.106  38.161  1.00  0.00    -0.200 F 
ATOM     85  C   UNL A   1      39.316  35.543  39.127  1.00  0.00     0.200 A 
ATOM     86  F   UNL A   1      37.846  33.942  40.051  1.00  0.00    -0.200 F 
ATOM     87  F   UNL A   1      39.205  36.302  40.226  1.00  0.00    -0.200 F 
ENDBRANCH  53  77
BRANCH  65  88
ATOM     88  C   UNL A   1      43.838  28.697  35.118  1.00  0.00     0.064 A 
ATOM     89  C   UNL A   1      45.159  29.145  34.978  1.00  0.00     0.173 A 
ATOM     90  C   UNL A   1      43.594  27.633  36.001  1.00  0.00     0.173 A 
ATOM     91  F   UNL A   1      45.447  30.148  34.135  1.00  0.00    -0.203 F 
ATOM     92  C   UNL A   1      46.199  28.538  35.680  1.00  0.00     0.198 A 
ATOM     93  C   UNL A   1      44.630  27.051  36.726  1.00  0.00     0.198 A 
ATOM     94  F   UNL A   1      42.347  27.169  36.175  1.00  0.00    -0.203 F 
ATOM     95  F   UNL A   1      47.459  28.952  35.496  1.00  0.00    -0.200 F 
ATOM     96  C   UNL A   1      45.932  27.499  36.560  1.00  0.00     0.200 A 
ATOM     97  F   UNL A   1      44.368  26.060  37.588  1.00  0.00    -0.200 F 
ATOM     98  F   UNL A   1      46.931  26.926  37.244  1.00  0.00    -0.200 F 
ENDBRANCH  65  88
ENDBRANCH  39  40
ENDBRANCH  31  34
ENDBRANCH  29  30
ENDBRANCH  28  29
ENDBRANCH  27  28
ENDBRANCH   1  27
TORSDOF 16
ENDMDL
MODEL 2
REMARK VINA RESULT:     -12.3      1.610      3.315
REMARK SMILES Cc1ccsc1CNC(=O)N[C@@H]1CCCC[C@H]1C(=O)NCCCCCCNC(=O)c1ccc(-c2c3nc(c(-c4c(F)c(F)c(F)c(F)c4F)c4ccc([nH]4)c(-c4c(F)c(F)c(F)c(F)c4F)c4nc(c(-c5c(F)c(F)c(F)c(F)c5F)c5ccc2[nH]5)C=C4)C=C3)cc1
REMARK SMILES IDX 23 1 22 2 21 3 20 4 18 5 19 6 17 8 12 9 13 10 14 11 16 12
REMARK SMILES IDX 15 13 11 14 8 15 9 16 10 18 7 20 6 21 1 22 2 23 3 24 4 25
REMARK SMILES IDX 5 26 24 27 25 28 26 29 27 30 28 31 29 33 30 34 31 35 92 36
REMARK SMILES IDX 32 37 91 38 33 39 34 40 35 41 85 42 36 43 90 44 84 45 86 46
REMARK SMILES IDX 37 47 89 48 83 49 82 50 38 52 70 53 50 54 69 55 51 56 54 57
REMARK SMILES IDX 68 58 87 59 52 60 53 61 67 63 88 64 55 65 39 66 40 67 48 68
REMARK SMILES IDX 41 69 42 70 46 71 49 72 43 73 44 74 47 75 45 76 71 77 72 78
REMARK SMILES IDX 80 79 73 80 74 81 78 82 81 83 75 84 76 85 79 86 77 87 56 88
REMARK SMILES IDX 57 89 65 90 58 91 59 92 63 93 66 94 60 95 61 96 64 97 62 98
REMARK H PARENT 20 7 8 17 11 19 27 32 86 51 54 62
REMARK Flexibility Score: inf
ROOT
ATOM      1  C   UNL A   1      33.340  29.995  27.155  1.00  0.00     0.002 C 
ENDROOT
BRANCH   1   2
ATOM      2  C   UNL A   1      33.930  28.831  26.349  1.00  0.00     0.021 C 
BRANCH   2   3
ATOM      3  C   UNL A   1      32.976  28.271  25.300  1.00  0.00     0.116 C 
BRANCH   3   4
ATOM      4  N   UNL A   1      33.577  28.356  23.990  1.00  0.00    -0.356 N 
ATOM      5  C   UNL A   1      33.170  27.855  22.799  1.00  0.00     0.225 C 
ATOM      6  O   UNL A   1      33.970  27.921  21.864  1.00  0.00    -0.275 OA
ATOM      7  H   UNL A   1      34.421  28.862  23.957  1.00  0.00     0.163 HD
BRANCH   5   8
ATOM      8  C   UNL A   1      31.767  27.290  22.616  1.00  0.00     0.101 C 
ATOM      9  C   UNL A   1      31.642  25.809  23.017  1.00  0.00     0.096 C 
ATOM     10  C   UNL A   1      30.244  25.310  23.408  1.00  0.00     0.026 C 
ATOM     11  C   UNL A   1      29.406  26.354  24.134  1.00  0.00     0.002 C 
ATOM     12  C   UNL A   1      30.722  28.261  23.187  1.00  0.00     0.015 C 
ATOM     13  C   UNL A   1      29.341  27.650  23.344  1.00  0.00     0.001 C 
BRANCH   9  14
ATOM     14  N   UNL A   1      32.285  24.874  22.082  1.00  0.00    -0.335 N 
ATOM     15  N   UNL A   1      33.996  23.602  23.140  1.00  0.00    -0.333 N 
ATOM     16  C   UNL A   1      33.204  23.905  22.114  1.00  0.00     0.315 C 
ATOM     17  H   UNL A   1      34.387  22.702  23.054  1.00  0.00     0.165 HD
ATOM     18  O   UNL A   1      33.319  23.224  21.089  1.00  0.00    -0.249 OA
ATOM     19  H   UNL A   1      31.938  24.996  21.170  1.00  0.00     0.165 HD
BRANCH  15  20
ATOM     20  C   UNL A   1      34.425  24.267  24.347  1.00  0.00     0.164 C 
BRANCH  20  21
ATOM     21  C   UNL A   1      34.197  23.471  25.612  1.00  0.00     0.027 A 
ATOM     22  C   UNL A   1      32.163  24.753  26.517  1.00  0.00     0.045 C 
ATOM     23  C   UNL A   1      33.156  23.637  26.522  1.00  0.00    -0.035 A 
ATOM     24  C   UNL A   1      33.118  22.564  27.473  1.00  0.00     0.015 A 
ATOM     25  C   UNL A   1      34.147  21.668  27.302  1.00  0.00     0.065 A 
ATOM     26  S   UNL A   1      35.221  22.169  26.080  1.00  0.00    -0.147 S 
ENDBRANCH  20  21
ENDBRANCH  15  20
ENDBRANCH   9  14
ENDBRANCH   5   8
ENDBRANCH   3   4
ENDBRANCH   2   3
ENDBRANCH   1   2
BRANCH   1  27
ATOM     27  C   UNL A   1      31.930  30.417  26.730  1.00  0.00     0.002 C 
BRANCH  27  28
ATOM     28  C   UNL A   1      31.664  31.920  26.818  1.00  0.00     0.021 C 
BRANCH  28  29
ATOM     29  C   UNL A   1      32.871  32.736  27.252  1.00  0.00     0.116 C 
BRANCH  29  30
ATOM     30  N   UNL A   1      32.510  34.108  27.564  1.00  0.00    -0.352 N 
ATOM     31  C   UNL A   1      32.980  34.911  28.572  1.00  0.00     0.251 C 
ATOM     32  H   UNL A   1      31.837  34.517  26.972  1.00  0.00     0.163 HD
ATOM     33  O   UNL A   1      32.425  35.963  28.852  1.00  0.00    -0.269 OA
BRANCH  31  34
ATOM     34  C   UNL A   1      34.161  34.463  29.337  1.00  0.00     0.039 A 
ATOM     35  C   UNL A   1      33.971  33.854  30.578  1.00  0.00     0.014 A 
ATOM     36  C   UNL A   1      35.445  34.607  28.802  1.00  0.00     0.014 A 
ATOM     37  C   UNL A   1      35.070  33.326  31.256  1.00  0.00     0.010 A 
ATOM     38  C   UNL A   1      36.525  34.010  29.440  1.00  0.00     0.010 A 
ATOM     39  C   UNL A   1      36.347  33.362  30.671  1.00  0.00    -0.014 A 
BRANCH  39  40
ATOM     40  C   UNL A   1      37.508  32.708  31.322  1.00  0.00     0.031 A 
ATOM     41  C   UNL A   1      38.196  31.553  30.654  1.00  0.00     0.074 A 
ATOM     42  C   UNL A   1      37.892  33.111  32.550  1.00  0.00     0.049 A 
ATOM     43  N   UNL A   1      39.172  30.803  31.096  1.00  0.00    -0.248 NA
ATOM     44  C   UNL A   1      37.704  31.174  29.320  1.00  0.00     0.031 C 
ATOM     45  C   UNL A   1      37.271  34.192  33.316  1.00  0.00     0.029 A 
ATOM     46  N   UNL A   1      38.888  32.650  33.373  1.00  0.00    -0.354 N 
ATOM     47  C   UNL A   1      39.405  29.861  30.104  1.00  0.00     0.074 A 
ATOM     48  C   UNL A   1      38.431  30.097  29.060  1.00  0.00     0.031 C 
ATOM     49  C   UNL A   1      37.912  34.324  34.489  1.00  0.00     0.029 A 
ATOM     50  C   UNL A   1      38.956  33.309  34.576  1.00  0.00     0.049 A 
ATOM     51  H   UNL A   1      39.496  31.916  33.125  1.00  0.00     0.167 HD
ATOM     52  C   UNL A   1      40.359  28.902  30.059  1.00  0.00     0.037 A 
ATOM     53  C   UNL A   1      39.759  33.105  35.638  1.00  0.00     0.037 A 
ATOM     54  C   UNL A   1      41.333  28.683  31.096  1.00  0.00     0.049 A 
ATOM     55  C   UNL A   1      40.791  32.010  35.574  1.00  0.00     0.074 A 
ATOM     56  C   UNL A   1      42.381  27.780  31.119  1.00  0.00     0.029 A 
ATOM     57  N   UNL A   1      41.373  29.373  32.300  1.00  0.00    -0.354 N 
ATOM     58  N   UNL A   1      41.051  31.174  34.599  1.00  0.00    -0.248 NA
ATOM     59  C   UNL A   1      41.640  31.831  36.760  1.00  0.00     0.031 C 
ATOM     60  C   UNL A   1      43.015  27.877  32.361  1.00  0.00     0.029 A 
ATOM     61  C   UNL A   1      42.405  28.887  33.089  1.00  0.00     0.049 A 
ATOM     62  H   UNL A   1      40.760  30.099  32.557  1.00  0.00     0.167 HD
ATOM     63  C   UNL A   1      42.108  30.389  35.040  1.00  0.00     0.074 A 
ATOM     64  C   UNL A   1      42.452  30.861  36.365  1.00  0.00     0.031 C 
ATOM     65  C   UNL A   1      42.735  29.369  34.405  1.00  0.00     0.037 A 
BRANCH  52  66
ATOM     66  C   UNL A   1      40.394  28.010  28.851  1.00  0.00     0.064 A 
ATOM     67  C   UNL A   1      41.145  28.339  27.712  1.00  0.00     0.173 A 
ATOM     68  C   UNL A   1      39.702  26.790  28.848  1.00  0.00     0.173 A 
ATOM     69  F   UNL A   1      41.817  29.499  27.658  1.00  0.00    -0.203 F 
ATOM     70  C   UNL A   1      41.176  27.495  26.604  1.00  0.00     0.198 A 
ATOM     71  C   UNL A   1      39.762  25.932  27.753  1.00  0.00     0.198 A 
ATOM     72  F   UNL A   1      38.973  26.423  29.913  1.00  0.00    -0.203 F 
ATOM     73  F   UNL A   1      41.857  27.857  25.508  1.00  0.00    -0.200 F 
ATOM     74  C   UNL A   1      40.491  26.289  26.629  1.00  0.00     0.200 A 
ATOM     75  F   UNL A   1      39.113  24.761  27.784  1.00  0.00    -0.200 F 
ATOM     76  F   UNL A   1      40.530  25.474  25.566  1.00  0.00    -0.200 F 
ENDBRANCH  52  66
BRANCH  53  77
ATOM     77  C   UNL A   1      39.623  33.958  36.848  1.00  0.00     0.064 A 
ATOM     78  C   UNL A   1      38.827  33.556  37.929  1.00  0.00     0.173 A 
ATOM     79  C   UNL A   1      40.280  35.194  36.947  1.00  0.00     0.173 A 
ATOM     80  F   UNL A   1      38.163  32.391  37.874  1.00  0.00    -0.203 F 
ATOM     81  C   UNL A   1      38.674  34.366  39.053  1.00  0.00     0.198 A 
ATOM     82  C   UNL A   1      40.153  35.989  38.084  1.00  0.00     0.198 A 
ATOM     83  F   UNL A   1      41.059  35.625  35.943  1.00  0.00    -0.203 F 
ATOM     84  F   UNL A   1      37.867  33.979  40.049  1.00  0.00    -0.200 F 
ATOM     85  C   UNL A   1      39.342  35.579  39.132  1.00  0.00     0.200 A 
ATOM     86  F   UNL A   1      40.814  37.151  38.164  1.00  0.00    -0.200 F 
ATOM     87  F   UNL A   1      39.199  36.356  40.214  1.00  0.00    -0.200 F 
ENDBRANCH  53  77
BRANCH  65  88
ATOM     88  C   UNL A   1      43.877  28.707  35.124  1.00  0.00     0.064 A 
ATOM     89  C   UNL A   1      43.679  27.595  35.954  1.00  0.00     0.173 A 
ATOM     90  C   UNL A   1      45.192  29.161  34.936  1.00  0.00     0.173 A 
ATOM     91  F   UNL A   1      42.440  27.131  36.179  1.00  0.00    -0.203 F 
ATOM     92  C   UNL A   1      44.753  26.975  36.589  1.00  0.00     0.198 A 
ATOM     93  C   UNL A   1      46.267  28.520  35.544  1.00  0.00     0.198 A 
ATOM     94  F   UNL A   1      45.437  30.219  34.147  1.00  0.00    -0.203 F 
ATOM     95  F   UNL A   1      44.536  25.943  37.415  1.00  0.00    -0.200 F 
ATOM     96  C   UNL A   1      46.046  27.432  36.376  1.00  0.00     0.200 A 
ATOM     97  F   UNL A   1      47.515  28.951  35.324  1.00  0.00    -0.200 F 
ATOM     98  F   UNL A   1      47.079  26.826  36.976  1.00  0.00    -0.200 F 
ENDBRANCH  65  88
ENDBRANCH  39  40
ENDBRANCH  31  34
ENDBRANCH  29  30
ENDBRANCH  28  29
ENDBRANCH  27  28
ENDBRANCH   1  27
TORSDOF 16
ENDMDL
MODEL 3
REMARK VINA RESULT:     -12.2      5.488     10.720
REMARK SMILES Cc1ccsc1CNC(=O)N[C@@H]1CCCC[C@H]1C(=O)NCCCCCCNC(=O)c1ccc(-c2c3nc(c(-c4c(F)c(F)c(F)c(F)c4F)c4ccc([nH]4)c(-c4c(F)c(F)c(F)c(F)c4F)c4nc(c(-c5c(F)c(F)c(F)c(F)c5F)c5ccc2[nH]5)C=C4)C=C3)cc1
REMARK SMILES IDX 23 1 22 2 21 3 20 4 18 5 19 6 17 8 12 9 13 10 14 11 16 12
REMARK SMILES IDX 15 13 11 14 8 15 9 16 10 18 7 20 6 21 1 22 2 23 3 24 4 25
REMARK SMILES IDX 5 26 24 27 25 28 26 29 27 30 28 31 29 33 30 34 31 35 92 36
REMARK SMILES IDX 32 37 91 38 33 39 34 40 35 41 85 42 36 43 90 44 84 45 86 46
REMARK SMILES IDX 37 47 89 48 83 49 82 50 38 52 70 53 50 54 69 55 51 56 54 57
REMARK SMILES IDX 68 58 87 59 52 60 53 61 67 63 88 64 55 65 39 66 40 67 48 68
REMARK SMILES IDX 41 69 42 70 46 71 49 72 43 73 44 74 47 75 45 76 71 77 72 78
REMARK SMILES IDX 80 79 73 80 74 81 78 82 81 83 75 84 76 85 79 86 77 87 56 88
REMARK SMILES IDX 57 89 65 90 58 91 59 92 63 93 66 94 60 95 61 96 64 97 62 98
REMARK H PARENT 20 7 8 17 11 19 27 32 86 51 54 62
REMARK Flexibility Score: inf
ROOT
ATOM      1  C   UNL A   1      37.046  22.402  24.709  1.00  0.00     0.002 C 
ENDROOT
BRANCH   1   2
ATOM      2  C   UNL A   1      36.562  23.438  25.732  1.00  0.00     0.021 C 
BRANCH   2   3
ATOM      3  C   UNL A   1      35.063  23.709  25.660  1.00  0.00     0.116 C 
BRANCH   3   4
ATOM      4  N   UNL A   1      34.413  23.203  26.846  1.00  0.00    -0.356 N 
ATOM      5  C   UNL A   1      33.191  22.640  27.009  1.00  0.00     0.225 C 
ATOM      6  O   UNL A   1      32.810  22.460  28.167  1.00  0.00    -0.275 OA
ATOM      7  H   UNL A   1      34.944  23.280  27.671  1.00  0.00     0.163 HD
BRANCH   5   8
ATOM      8  C   UNL A   1      32.358  22.198  25.812  1.00  0.00     0.101 C 
ATOM      9  C   UNL A   1      31.642  23.357  25.097  1.00  0.00     0.096 C 
ATOM     10  C   UNL A   1      31.264  23.139  23.625  1.00  0.00     0.026 C 
ATOM     11  C   UNL A   1      32.272  22.296  22.856  1.00  0.00     0.002 C 
ATOM     12  C   UNL A   1      33.159  21.222  24.936  1.00  0.00     0.015 C 
ATOM     13  C   UNL A   1      32.544  20.982  23.569  1.00  0.00     0.001 C 
BRANCH   9  14
ATOM     14  N   UNL A   1      30.510  23.922  25.846  1.00  0.00    -0.335 N 
ATOM     15  N   UNL A   1      30.849  26.221  26.361  1.00  0.00    -0.333 N 
ATOM     16  C   UNL A   1      30.119  25.108  26.319  1.00  0.00     0.315 C 
ATOM     17  H   UNL A   1      30.293  27.025  26.482  1.00  0.00     0.165 HD
ATOM     18  O   UNL A   1      28.963  25.173  26.751  1.00  0.00    -0.249 OA
ATOM     19  H   UNL A   1      29.849  23.225  26.061  1.00  0.00     0.165 HD
BRANCH  15  20
ATOM     20  C   UNL A   1      32.254  26.540  26.277  1.00  0.00     0.164 C 
BRANCH  20  21
ATOM     21  C   UNL A   1      32.646  27.296  25.028  1.00  0.00     0.027 A 
ATOM     22  C   UNL A   1      31.924  29.651  25.756  1.00  0.00     0.045 C 
ATOM     23  C   UNL A   1      32.573  28.673  24.832  1.00  0.00    -0.035 A 
ATOM     24  C   UNL A   1      33.243  29.065  23.626  1.00  0.00     0.015 A 
ATOM     25  C   UNL A   1      33.739  27.993  22.923  1.00  0.00     0.065 A 
ATOM     26  S   UNL A   1      33.306  26.513  23.644  1.00  0.00    -0.147 S 
ENDBRANCH  20  21
ENDBRANCH  15  20
ENDBRANCH   9  14
ENDBRANCH   5   8
ENDBRANCH   3   4
ENDBRANCH   2   3
ENDBRANCH   1   2
BRANCH   1  27
ATOM     27  C   UNL A   1      36.813  20.944  25.116  1.00  0.00     0.002 C 
BRANCH  27  28
ATOM     28  C   UNL A   1      38.017  20.026  24.908  1.00  0.00     0.021 C 
BRANCH  28  29
ATOM     29  C   UNL A   1      39.217  20.378  25.773  1.00  0.00     0.116 C 
BRANCH  29  30
ATOM     30  N   UNL A   1      40.125  19.253  25.918  1.00  0.00    -0.352 N 
ATOM     31  C   UNL A   1      41.486  19.267  26.096  1.00  0.00     0.251 C 
ATOM     32  H   UNL A   1      39.708  18.361  25.884  1.00  0.00     0.163 HD
ATOM     33  O   UNL A   1      42.147  18.247  25.977  1.00  0.00    -0.269 OA
BRANCH  31  34
ATOM     34  C   UNL A   1      42.143  20.552  26.409  1.00  0.00     0.039 A 
ATOM     35  C   UNL A   1      42.540  21.381  25.358  1.00  0.00     0.014 A 
ATOM     36  C   UNL A   1      42.321  20.948  27.737  1.00  0.00     0.014 A 
ATOM     37  C   UNL A   1      43.057  22.644  25.643  1.00  0.00     0.010 A 
ATOM     38  C   UNL A   1      42.761  22.237  28.016  1.00  0.00     0.010 A 
ATOM     39  C   UNL A   1      43.130  23.097  26.971  1.00  0.00    -0.014 A 
BRANCH  39  40
ATOM     40  C   UNL A   1      43.572  24.477  27.288  1.00  0.00     0.031 A 
ATOM     41  C   UNL A   1      42.584  25.487  27.795  1.00  0.00     0.074 A 
ATOM     42  C   UNL A   1      44.849  24.835  27.048  1.00  0.00     0.049 A 
ATOM     43  N   UNL A   1      42.758  26.758  28.052  1.00  0.00    -0.248 NA
ATOM     44  C   UNL A   1      41.209  25.012  28.019  1.00  0.00     0.031 C 
ATOM     45  C   UNL A   1      45.887  23.953  26.514  1.00  0.00     0.029 A 
ATOM     46  N   UNL A   1      45.486  26.039  27.209  1.00  0.00    -0.354 N 
ATOM     47  C   UNL A   1      41.519  27.234  28.457  1.00  0.00     0.074 A 
ATOM     48  C   UNL A   1      40.588  26.132  28.358  1.00  0.00     0.031 C 
ATOM     49  C   UNL A   1      47.037  24.639  26.410  1.00  0.00     0.029 A 
ATOM     50  C   UNL A   1      46.805  26.019  26.824  1.00  0.00     0.049 A 
ATOM     51  H   UNL A   1      45.041  26.842  27.566  1.00  0.00     0.167 HD
ATOM     52  C   UNL A   1      41.194  28.475  28.894  1.00  0.00     0.037 A 
ATOM     53  C   UNL A   1      47.720  27.007  26.794  1.00  0.00     0.037 A 
ATOM     54  C   UNL A   1      42.130  29.563  29.002  1.00  0.00     0.049 A 
ATOM     55  C   UNL A   1      47.323  28.384  27.254  1.00  0.00     0.074 A 
ATOM     56  C   UNL A   1      41.916  30.838  29.492  1.00  0.00     0.029 A 
ATOM     57  N   UNL A   1      43.459  29.504  28.606  1.00  0.00    -0.354 N 
ATOM     58  N   UNL A   1      46.168  28.805  27.707  1.00  0.00    -0.248 NA
ATOM     59  C   UNL A   1      48.360  29.424  27.199  1.00  0.00     0.031 C 
ATOM     60  C   UNL A   1      43.096  31.572  29.334  1.00  0.00     0.029 A 
ATOM     61  C   UNL A   1      44.066  30.734  28.805  1.00  0.00     0.049 A 
ATOM     62  H   UNL A   1      43.905  28.707  28.238  1.00  0.00     0.167 HD
ATOM     63  C   UNL A   1      46.343  30.147  28.014  1.00  0.00     0.074 A 
ATOM     64  C   UNL A   1      47.723  30.466  27.713  1.00  0.00     0.031 C 
ATOM     65  C   UNL A   1      45.442  31.035  28.502  1.00  0.00     0.037 A 
BRANCH  52  66
ATOM     66  C   UNL A   1      39.765  28.724  29.282  1.00  0.00     0.064 A 
ATOM     67  C   UNL A   1      39.297  28.473  30.581  1.00  0.00     0.173 A 
ATOM     68  C   UNL A   1      38.860  29.262  28.354  1.00  0.00     0.173 A 
ATOM     69  F   UNL A   1      40.118  27.948  31.504  1.00  0.00    -0.203 F 
ATOM     70  C   UNL A   1      37.972  28.721  30.928  1.00  0.00     0.198 A 
ATOM     71  C   UNL A   1      37.544  29.541  28.713  1.00  0.00     0.198 A 
ATOM     72  F   UNL A   1      39.255  29.528  27.100  1.00  0.00    -0.203 F 
ATOM     73  F   UNL A   1      37.536  28.422  32.160  1.00  0.00    -0.200 F 
ATOM     74  C   UNL A   1      37.098  29.262  29.996  1.00  0.00     0.200 A 
ATOM     75  F   UNL A   1      36.706  30.079  27.817  1.00  0.00    -0.200 F 
ATOM     76  F   UNL A   1      35.825  29.510  30.334  1.00  0.00    -0.200 F 
ENDBRANCH  52  66
BRANCH  53  77
ATOM     77  C   UNL A   1      49.099  26.728  26.314  1.00  0.00     0.064 A 
ATOM     78  C   UNL A   1      49.456  26.946  24.976  1.00  0.00     0.173 A 
ATOM     79  C   UNL A   1      50.087  26.234  27.179  1.00  0.00     0.173 A 
ATOM     80  F   UNL A   1      48.542  27.400  24.106  1.00  0.00    -0.203 F 
ATOM     81  C   UNL A   1      50.740  26.659  24.517  1.00  0.00     0.198 A 
ATOM     82  C   UNL A   1      51.379  25.977  26.727  1.00  0.00     0.198 A 
ATOM     83  F   UNL A   1      49.800  26.012  28.471  1.00  0.00    -0.203 F 
ATOM     84  F   UNL A   1      51.039  26.830  23.222  1.00  0.00    -0.200 F 
ATOM     85  C   UNL A   1      51.702  26.181  25.394  1.00  0.00     0.200 A 
ATOM     86  F   UNL A   1      52.310  25.532  27.582  1.00  0.00    -0.200 F 
ATOM     87  F   UNL A   1      52.938  25.909  24.953  1.00  0.00    -0.200 F 
ENDBRANCH  53  77
BRANCH  65  88
ATOM     88  C   UNL A   1      45.924  32.434  28.765  1.00  0.00     0.064 A 
ATOM     89  C   UNL A   1      45.843  33.437  27.788  1.00  0.00     0.173 A 
ATOM     90  C   UNL A   1      46.426  32.785  30.028  1.00  0.00     0.173 A 
ATOM     91  F   UNL A   1      45.385  33.149  26.560  1.00  0.00    -0.203 F 
ATOM     92  C   UNL A   1      46.267  34.736  28.059  1.00  0.00     0.198 A 
ATOM     93  C   UNL A   1      46.817  34.092  30.306  1.00  0.00     0.198 A 
ATOM     94  F   UNL A   1      46.519  31.864  31.000  1.00  0.00    -0.203 F 
ATOM     95  F   UNL A   1      46.224  35.666  27.097  1.00  0.00    -0.200 F 
ATOM     96  C   UNL A   1      46.744  35.064  29.321  1.00  0.00     0.200 A 
ATOM     97  F   UNL A   1      47.262  34.410  31.529  1.00  0.00    -0.200 F 
ATOM     98  F   UNL A   1      47.139  36.317  29.583  1.00  0.00    -0.200 F 
ENDBRANCH  65  88
ENDBRANCH  39  40
ENDBRANCH  31  34
ENDBRANCH  29  30
ENDBRANCH  28  29
ENDBRANCH  27  28
ENDBRANCH   1  27
TORSDOF 16
ENDMDL
