MODEL 1
REMARK VINA RESULT:     -13.2      0.000      0.000
REMARK SMILES CCc1ccnc(C(=O)c2[nH]c3ccc(OC(F)(F)F)cc3c2CC(=O)NCCCCCCNC(=O)c2ccc(-c3c4nc(c(-c5c(F)c(F)c(F)c(F)c5F)c5ccc([nH]5)c(-c5c(F)c(F)c(F)c(F)c5F)c5nc(c(-c6c(F)c(F)c(F)c(F)c6F)c6ccc3[nH]6)C=C5)C=C4)cc2)c1
REMARK SMILES IDX 29 1 28 2 27 3 25 4 26 5 24 7 23 8 10 9 11 10 12 11 22 13
REMARK SMILES IDX 13 14 21 15 14 16 15 17 8 18 9 19 7 20 3 21 4 22 100 23 5 24
REMARK SMILES IDX 6 25 2 26 1 27 16 28 17 29 18 30 19 31 20 32 30 33 31 34
REMARK SMILES IDX 32 35 33 36 34 37 35 38 36 40 37 41 38 42 99 43 39 44 98 45
REMARK SMILES IDX 40 46 41 47 42 48 92 49 43 50 97 51 91 52 93 53 44 54 96 55
REMARK SMILES IDX 90 56 89 57 45 59 77 60 57 61 76 62 58 63 61 64 75 65 94 66
REMARK SMILES IDX 59 67 60 68 74 70 95 71 62 72 46 73 47 74 55 75 48 76 49 77
REMARK SMILES IDX 53 78 56 79 50 80 51 81 54 82 52 83 78 84 79 85 87 86 80 87
REMARK SMILES IDX 81 88 85 89 88 90 82 91 83 92 86 93 84 94 63 95 64 96 72 97
REMARK SMILES IDX 65 98 66 99 70 100 73 101 67 102 68 103 71 104 69 105
REMARK H PARENT 27 6 11 12 34 39 93 58 61 69
REMARK Flexibility Score: inf
ROOT
ATOM      1  C   UNL A   1      31.666  28.240  27.174  1.00  0.00     0.021 C 
ENDROOT
BRANCH   1   2
ATOM      2  C   UNL A   1      32.137  26.962  26.480  1.00  0.00     0.116 C 
BRANCH   2   3
ATOM      3  N   UNL A   1      31.386  25.793  26.887  1.00  0.00    -0.356 N 
ATOM      4  C   UNL A   1      31.669  24.471  26.694  1.00  0.00     0.224 C 
ATOM      5  O   UNL A   1      30.946  23.634  27.242  1.00  0.00    -0.275 OA
ATOM      6  H   UNL A   1      30.550  25.978  27.373  1.00  0.00     0.163 HD
BRANCH   4   7
ATOM      7  C   UNL A   1      32.911  24.043  25.930  1.00  0.00     0.138 C 
BRANCH   7   8
ATOM      8  C   UNL A   1      32.660  23.471  24.563  1.00  0.00    -0.002 A 
ATOM      9  C   UNL A   1      32.476  24.167  23.372  1.00  0.00     0.093 A 
ATOM     10  N   UNL A   1      32.330  23.237  22.367  1.00  0.00    -0.352 N 
ATOM     11  C   UNL A   1      32.306  21.966  22.882  1.00  0.00     0.046 A 
ATOM     12  H   UNL A   1      32.254  23.454  21.410  1.00  0.00     0.167 HD
ATOM     13  C   UNL A   1      32.500  22.077  24.256  1.00  0.00     0.008 A 
ATOM     14  C   UNL A   1      32.137  20.736  22.239  1.00  0.00     0.030 A 
ATOM     15  C   UNL A   1      32.517  20.891  25.022  1.00  0.00     0.057 A 
ATOM     16  C   UNL A   1      32.162  19.576  23.025  1.00  0.00     0.049 A 
ATOM     17  C   UNL A   1      32.350  19.643  24.403  1.00  0.00     0.130 A 
BRANCH   9  18
ATOM     18  C   UNL A   1      32.502  25.597  23.117  1.00  0.00     0.227 C 
ATOM     19  O   UNL A   1      33.541  26.156  22.782  1.00  0.00    -0.285 OA
BRANCH  18  20
ATOM     20  C   UNL A   1      31.203  26.365  23.209  1.00  0.00     0.113 A 
ATOM     21  C   UNL A   1      29.883  28.373  22.949  1.00  0.00    -0.044 A 
ATOM     22  C   UNL A   1      28.807  27.667  23.497  1.00  0.00     0.024 A 
ATOM     23  C   UNL A   1      31.094  27.691  22.777  1.00  0.00     0.036 A 
ATOM     24  C   UNL A   1      28.991  26.348  23.879  1.00  0.00     0.112 A 
ATOM     25  N   UNL A   1      30.163  25.693  23.765  1.00  0.00    -0.253 NA
BRANCH  21  26
ATOM     26  C   UNL A   1      29.669  29.814  22.544  1.00  0.00     0.032 C 
ATOM     27  C   UNL A   1      28.677  30.612  23.381  1.00  0.00     0.009 C 
ENDBRANCH  21  26
ENDBRANCH  18  20
ENDBRANCH   9  18
BRANCH  17  28
ATOM     28  O   UNL A   1      32.395  18.586  25.269  1.00  0.00    -0.406 OA
BRANCH  28  29
ATOM     29  C   UNL A   1      33.307  17.538  24.989  1.00  0.00     0.573 C 
ATOM     30  F   UNL A   1      32.808  16.691  24.064  1.00  0.00    -0.132 F 
ATOM     31  F   UNL A   1      34.492  18.027  24.563  1.00  0.00    -0.132 F 
ATOM     32  F   UNL A   1      33.525  16.840  26.125  1.00  0.00    -0.132 F 
ENDBRANCH  28  29
ENDBRANCH  17  28
ENDBRANCH   7   8
ENDBRANCH   4   7
ENDBRANCH   2   3
ENDBRANCH   1   2
BRANCH   1  33
ATOM     33  C   UNL A   1      32.316  29.532  26.666  1.00  0.00     0.002 C 
BRANCH  33  34
ATOM     34  C   UNL A   1      31.415  30.459  25.844  1.00  0.00     0.002 C 
BRANCH  34  35
ATOM     35  C   UNL A   1      31.281  31.898  26.354  1.00  0.00     0.021 C 
BRANCH  35  36
ATOM     36  C   UNL A   1      32.482  32.447  27.124  1.00  0.00     0.116 C 
BRANCH  36  37
ATOM     37  N   UNL A   1      32.309  33.833  27.521  1.00  0.00    -0.352 N 
ATOM     38  C   UNL A   1      33.012  34.574  28.439  1.00  0.00     0.251 C 
ATOM     39  H   UNL A   1      31.580  34.312  27.065  1.00  0.00     0.163 HD
ATOM     40  O   UNL A   1      32.637  35.704  28.732  1.00  0.00    -0.269 OA
BRANCH  38  41
ATOM     41  C   UNL A   1      34.212  34.014  29.104  1.00  0.00     0.039 A 
ATOM     42  C   UNL A   1      34.028  33.099  30.147  1.00  0.00     0.014 A 
ATOM     43  C   UNL A   1      35.502  34.425  28.755  1.00  0.00     0.014 A 
ATOM     44  C   UNL A   1      35.134  32.557  30.806  1.00  0.00     0.010 A 
ATOM     45  C   UNL A   1      36.609  33.868  29.400  1.00  0.00     0.010 A 
ATOM     46  C   UNL A   1      36.432  32.927  30.425  1.00  0.00    -0.014 A 
BRANCH  46  47
ATOM     47  C   UNL A   1      37.617  32.330  31.087  1.00  0.00     0.031 A 
ATOM     48  C   UNL A   1      38.407  31.254  30.404  1.00  0.00     0.074 A 
ATOM     49  C   UNL A   1      37.954  32.726  32.327  1.00  0.00     0.049 A 
ATOM     50  N   UNL A   1      39.404  30.541  30.868  1.00  0.00    -0.248 NA
ATOM     51  C   UNL A   1      38.023  30.930  29.022  1.00  0.00     0.031 C 
ATOM     52  C   UNL A   1      37.263  33.755  33.103  1.00  0.00     0.029 A 
ATOM     53  N   UNL A   1      38.961  32.299  33.157  1.00  0.00    -0.354 N 
ATOM     54  C   UNL A   1      39.747  29.665  29.849  1.00  0.00     0.074 A 
ATOM     55  C   UNL A   1      38.860  29.941  28.737  1.00  0.00     0.031 C 
ATOM     56  C   UNL A   1      37.866  33.880  34.297  1.00  0.00     0.029 A 
ATOM     57  C   UNL A   1      38.970  32.927  34.375  1.00  0.00     0.049 A 
ATOM     58  H   UNL A   1      39.612  31.606  32.901  1.00  0.00     0.167 HD
ATOM     59  C   UNL A   1      40.709  28.714  29.844  1.00  0.00     0.037 A 
ATOM     60  C   UNL A   1      39.771  32.745  35.440  1.00  0.00     0.037 A 
ATOM     61  C   UNL A   1      41.616  28.452  30.930  1.00  0.00     0.049 A 
ATOM     62  C   UNL A   1      40.857  31.711  35.394  1.00  0.00     0.074 A 
ATOM     63  C   UNL A   1      42.636  27.519  30.999  1.00  0.00     0.029 A 
ATOM     64  N   UNL A   1      41.617  29.137  32.134  1.00  0.00    -0.354 N 
ATOM     65  N   UNL A   1      41.163  30.881  34.429  1.00  0.00    -0.248 NA
ATOM     66  C   UNL A   1      41.703  31.586  36.590  1.00  0.00     0.031 C 
ATOM     67  C   UNL A   1      43.252  27.635  32.252  1.00  0.00     0.029 A 
ATOM     68  C   UNL A   1      42.619  28.646  32.954  1.00  0.00     0.049 A 
ATOM     69  H   UNL A   1      40.996  29.864  32.371  1.00  0.00     0.167 HD
ATOM     70  C   UNL A   1      42.233  30.134  34.897  1.00  0.00     0.074 A 
ATOM     71  C   UNL A   1      42.533  30.615  36.231  1.00  0.00     0.031 C 
ATOM     72  C   UNL A   1      42.903  29.135  34.277  1.00  0.00     0.037 A 
BRANCH  59  73
ATOM     73  C   UNL A   1      40.822  27.867  28.618  1.00  0.00     0.064 A 
ATOM     74  C   UNL A   1      41.667  28.228  27.561  1.00  0.00     0.173 A 
ATOM     75  C   UNL A   1      40.102  26.668  28.517  1.00  0.00     0.173 A 
ATOM     76  F   UNL A   1      42.364  29.373  27.614  1.00  0.00    -0.203 F 
ATOM     77  C   UNL A   1      41.783  27.416  26.436  1.00  0.00     0.198 A 
ATOM     78  C   UNL A   1      40.227  25.856  27.394  1.00  0.00     0.198 A 
ATOM     79  F   UNL A   1      39.280  26.289  29.506  1.00  0.00    -0.203 F 
ATOM     80  F   UNL A   1      42.584  27.783  25.426  1.00  0.00    -0.200 F 
ATOM     81  C   UNL A   1      41.066  26.231  26.355  1.00  0.00     0.200 A 
ATOM     82  F   UNL A   1      39.532  24.713  27.316  1.00  0.00    -0.200 F 
ATOM     83  F   UNL A   1      41.179  25.451  25.271  1.00  0.00    -0.200 F 
ENDBRANCH  59  73
BRANCH  60  84
ATOM     84  C   UNL A   1      39.567  33.570  36.652  1.00  0.00     0.064 A 
ATOM     85  C   UNL A   1      40.183  34.821  36.779  1.00  0.00     0.173 A 
ATOM     86  C   UNL A   1      38.741  33.129  37.693  1.00  0.00     0.173 A 
ATOM     87  F   UNL A   1      40.994  35.268  35.810  1.00  0.00    -0.203 F 
ATOM     88  C   UNL A   1      39.981  35.604  37.911  1.00  0.00     0.198 A 
ATOM     89  C   UNL A   1      38.533  33.917  38.822  1.00  0.00     0.198 A 
ATOM     90  F   UNL A   1      38.137  31.934  37.610  1.00  0.00    -0.203 F 
ATOM     91  F   UNL A   1      40.591  36.792  38.021  1.00  0.00    -0.200 F 
ATOM     92  C   UNL A   1      39.154  35.153  38.931  1.00  0.00     0.200 A 
ATOM     93  F   UNL A   1      37.735  33.480  39.806  1.00  0.00    -0.200 F 
ATOM     94  F   UNL A   1      38.958  35.909  40.020  1.00  0.00    -0.200 F 
ENDBRANCH  60  84
BRANCH  72  95
ATOM     95  C   UNL A   1      44.024  28.499  35.032  1.00  0.00     0.064 A 
ATOM     96  C   UNL A   1      45.326  29.013  34.956  1.00  0.00     0.173 A 
ATOM     97  C   UNL A   1      43.793  27.392  35.859  1.00  0.00     0.173 A 
ATOM     98  F   UNL A   1      45.591  30.063  34.165  1.00  0.00    -0.203 F 
ATOM     99  C   UNL A   1      46.362  28.433  35.681  1.00  0.00     0.198 A 
ATOM    100  C   UNL A   1      44.831  26.818  36.586  1.00  0.00     0.198 A 
ATOM    101  F   UNL A   1      42.563  26.866  35.955  1.00  0.00    -0.203 F 
ATOM    102  F   UNL A   1      47.604  28.927  35.583  1.00  0.00    -0.200 F 
ATOM    103  C   UNL A   1      46.115  27.338  36.497  1.00  0.00     0.200 A 
ATOM    104  F   UNL A   1      44.594  25.757  37.370  1.00  0.00    -0.200 F 
ATOM    105  F   UNL A   1      47.116  26.779  37.191  1.00  0.00    -0.200 F 
ENDBRANCH  72  95
ENDBRANCH  46  47
ENDBRANCH  38  41
ENDBRANCH  36  37
ENDBRANCH  35  36
ENDBRANCH  34  35
ENDBRANCH  33  34
ENDBRANCH   1  33
TORSDOF 19
ENDMDL
MODEL 2
REMARK VINA RESULT:     -12.9      0.534      6.896
REMARK SMILES CCc1ccnc(C(=O)c2[nH]c3ccc(OC(F)(F)F)cc3c2CC(=O)NCCCCCCNC(=O)c2ccc(-c3c4nc(c(-c5c(F)c(F)c(F)c(F)c5F)c5ccc([nH]5)c(-c5c(F)c(F)c(F)c(F)c5F)c5nc(c(-c6c(F)c(F)c(F)c(F)c6F)c6ccc3[nH]6)C=C5)C=C4)cc2)c1
REMARK SMILES IDX 29 1 28 2 27 3 25 4 26 5 24 7 23 8 10 9 11 10 12 11 22 13
REMARK SMILES IDX 13 14 21 15 14 16 15 17 8 18 9 19 7 20 3 21 4 22 100 23 5 24
REMARK SMILES IDX 6 25 2 26 1 27 16 28 17 29 18 30 19 31 20 32 30 33 31 34
REMARK SMILES IDX 32 35 33 36 34 37 35 38 36 40 37 41 38 42 99 43 39 44 98 45
REMARK SMILES IDX 40 46 41 47 42 48 92 49 43 50 97 51 91 52 93 53 44 54 96 55
REMARK SMILES IDX 90 56 89 57 45 59 77 60 57 61 76 62 58 63 61 64 75 65 94 66
REMARK SMILES IDX 59 67 60 68 74 70 95 71 62 72 46 73 47 74 55 75 48 76 49 77
REMARK SMILES IDX 53 78 56 79 50 80 51 81 54 82 52 83 78 84 79 85 87 86 80 87
REMARK SMILES IDX 81 88 85 89 88 90 82 91 83 92 86 93 84 94 63 95 64 96 72 97
REMARK SMILES IDX 65 98 66 99 70 100 73 101 67 102 68 103 71 104 69 105
REMARK H PARENT 27 6 11 12 34 39 93 58 61 69
REMARK Flexibility Score: inf
ROOT
ATOM      1  C   UNL A   1      31.749  28.268  27.195  1.00  0.00     0.021 C 
ENDROOT
BRANCH   1   2
ATOM      2  C   UNL A   1      32.215  26.982  26.513  1.00  0.00     0.116 C 
BRANCH   2   3
ATOM      3  N   UNL A   1      31.440  25.825  26.908  1.00  0.00    -0.356 N 
ATOM      4  C   UNL A   1      31.692  24.500  26.695  1.00  0.00     0.224 C 
ATOM      5  O   UNL A   1      30.954  23.672  27.235  1.00  0.00    -0.275 OA
ATOM      6  H   UNL A   1      30.612  26.022  27.402  1.00  0.00     0.163 HD
BRANCH   4   7
ATOM      7  C   UNL A   1      32.919  24.055  25.917  1.00  0.00     0.138 C 
BRANCH   7   8
ATOM      8  C   UNL A   1      32.648  23.508  24.544  1.00  0.00    -0.002 A 
ATOM      9  C   UNL A   1      32.454  24.224  23.366  1.00  0.00     0.093 A 
ATOM     10  N   UNL A   1      32.289  23.312  22.349  1.00  0.00    -0.352 N 
ATOM     11  C   UNL A   1      32.262  22.033  22.843  1.00  0.00     0.046 A 
ATOM     12  H   UNL A   1      32.203  23.546  21.397  1.00  0.00     0.167 HD
ATOM     13  C   UNL A   1      32.474  22.120  24.215  1.00  0.00     0.008 A 
ATOM     14  C   UNL A   1      32.076  20.816  22.182  1.00  0.00     0.030 A 
ATOM     15  C   UNL A   1      32.491  20.922  24.961  1.00  0.00     0.057 A 
ATOM     16  C   UNL A   1      32.102  19.642  22.948  1.00  0.00     0.049 A 
ATOM     17  C   UNL A   1      32.308  19.685  24.325  1.00  0.00     0.130 A 
BRANCH   9  18
ATOM     18  C   UNL A   1      32.488  25.658  23.135  1.00  0.00     0.227 C 
ATOM     19  O   UNL A   1      33.541  26.226  22.862  1.00  0.00    -0.285 OA
BRANCH  18  20
ATOM     20  C   UNL A   1      31.182  26.421  23.171  1.00  0.00     0.113 A 
ATOM     21  C   UNL A   1      29.849  28.397  22.773  1.00  0.00    -0.044 A 
ATOM     22  C   UNL A   1      28.776  27.720  23.364  1.00  0.00     0.024 A 
ATOM     23  C   UNL A   1      31.065  27.714  22.652  1.00  0.00     0.036 A 
ATOM     24  C   UNL A   1      28.969  26.432  23.834  1.00  0.00     0.112 A 
ATOM     25  N   UNL A   1      30.145  25.779  23.768  1.00  0.00    -0.253 NA
BRANCH  21  26
ATOM     26  C   UNL A   1      29.626  29.806  22.272  1.00  0.00     0.032 C 
ATOM     27  C   UNL A   1      28.894  30.752  23.216  1.00  0.00     0.009 C 
ENDBRANCH  21  26
ENDBRANCH  18  20
ENDBRANCH   9  18
BRANCH  17  28
ATOM     28  O   UNL A   1      32.355  18.613  25.172  1.00  0.00    -0.406 OA
BRANCH  28  29
ATOM     29  C   UNL A   1      33.320  17.608  24.915  1.00  0.00     0.573 C 
ATOM     30  F   UNL A   1      34.536  18.146  24.685  1.00  0.00    -0.132 F 
ATOM     31  F   UNL A   1      33.398  16.735  25.942  1.00  0.00    -0.132 F 
ATOM     32  F   UNL A   1      32.948  16.924  23.811  1.00  0.00    -0.132 F 
ENDBRANCH  28  29
ENDBRANCH  17  28
ENDBRANCH   7   8
ENDBRANCH   4   7
ENDBRANCH   2   3
ENDBRANCH   1   2
BRANCH   1  33
ATOM     33  C   UNL A   1      32.342  29.560  26.621  1.00  0.00     0.002 C 
BRANCH  33  34
ATOM     34  C   UNL A   1      31.357  30.492  25.908  1.00  0.00     0.002 C 
BRANCH  34  35
ATOM     35  C   UNL A   1      31.274  31.926  26.444  1.00  0.00     0.021 C 
BRANCH  35  36
ATOM     36  C   UNL A   1      32.585  32.521  26.960  1.00  0.00     0.116 C 
BRANCH  36  37
ATOM     37  N   UNL A   1      32.425  33.869  27.475  1.00  0.00    -0.352 N 
ATOM     38  C   UNL A   1      33.123  34.515  28.466  1.00  0.00     0.251 C 
ATOM     39  H   UNL A   1      31.711  34.398  27.052  1.00  0.00     0.163 HD
ATOM     40  O   UNL A   1      32.760  35.620  28.851  1.00  0.00    -0.269 OA
BRANCH  38  41
ATOM     41  C   UNL A   1      34.305  33.880  29.095  1.00  0.00     0.039 A 
ATOM     42  C   UNL A   1      34.092  32.852  30.022  1.00  0.00     0.014 A 
ATOM     43  C   UNL A   1      35.604  34.325  28.832  1.00  0.00     0.014 A 
ATOM     44  C   UNL A   1      35.179  32.235  30.646  1.00  0.00     0.010 A 
ATOM     45  C   UNL A   1      36.692  33.695  29.441  1.00  0.00     0.010 A 
ATOM     46  C   UNL A   1      36.487  32.643  30.347  1.00  0.00    -0.014 A 
BRANCH  46  47
ATOM     47  C   UNL A   1      37.653  31.971  30.969  1.00  0.00     0.031 A 
ATOM     48  C   UNL A   1      38.116  32.366  32.339  1.00  0.00     0.074 A 
ATOM     49  C   UNL A   1      38.325  31.034  30.278  1.00  0.00     0.049 A 
ATOM     50  N   UNL A   1      39.175  31.969  33.000  1.00  0.00    -0.248 NA
ATOM     51  C   UNL A   1      37.284  33.341  33.061  1.00  0.00     0.031 C 
ATOM     52  C   UNL A   1      37.985  30.567  28.935  1.00  0.00     0.029 A 
ATOM     53  N   UNL A   1      39.447  30.315  30.609  1.00  0.00    -0.354 N 
ATOM     54  C   UNL A   1      39.156  32.666  34.199  1.00  0.00     0.074 A 
ATOM     55  C   UNL A   1      37.974  33.504  34.182  1.00  0.00     0.031 C 
ATOM     56  C   UNL A   1      38.878  29.638  28.555  1.00  0.00     0.029 A 
ATOM     57  C   UNL A   1      39.863  29.462  29.619  1.00  0.00     0.049 A 
ATOM     58  H   UNL A   1      39.908  30.404  31.475  1.00  0.00     0.167 HD
ATOM     59  C   UNL A   1      40.045  32.615  35.216  1.00  0.00     0.037 A 
ATOM     60  C   UNL A   1      40.926  28.640  29.572  1.00  0.00     0.037 A 
ATOM     61  C   UNL A   1      41.205  31.764  35.258  1.00  0.00     0.049 A 
ATOM     62  C   UNL A   1      41.876  28.574  30.731  1.00  0.00     0.074 A 
ATOM     63  C   UNL A   1      42.149  31.636  36.263  1.00  0.00     0.029 A 
ATOM     64  N   UNL A   1      41.571  30.887  34.250  1.00  0.00    -0.354 N 
ATOM     65  N   UNL A   1      41.852  29.246  31.854  1.00  0.00    -0.248 NA
ATOM     66  C   UNL A   1      43.003  27.637  30.611  1.00  0.00     0.031 C 
ATOM     67  C   UNL A   1      43.092  30.682  35.859  1.00  0.00     0.029 A 
ATOM     68  C   UNL A   1      42.727  30.214  34.609  1.00  0.00     0.049 A 
ATOM     69  H   UNL A   1      41.081  30.761  33.405  1.00  0.00     0.167 HD
ATOM     70  C   UNL A   1      42.957  28.819  32.574  1.00  0.00     0.074 A 
ATOM     71  C   UNL A   1      43.628  27.820  31.767  1.00  0.00     0.031 C 
ATOM     72  C   UNL A   1      43.380  29.224  33.794  1.00  0.00     0.037 A 
BRANCH  59  73
ATOM     73  C   UNL A   1      39.804  33.526  36.377  1.00  0.00     0.064 A 
ATOM     74  C   UNL A   1      40.399  34.794  36.440  1.00  0.00     0.173 A 
ATOM     75  C   UNL A   1      38.947  33.139  37.415  1.00  0.00     0.173 A 
ATOM     76  F   UNL A   1      41.235  35.197  35.472  1.00  0.00    -0.203 F 
ATOM     77  C   UNL A   1      40.145  35.643  37.513  1.00  0.00     0.198 A 
ATOM     78  C   UNL A   1      38.690  33.995  38.482  1.00  0.00     0.198 A 
ATOM     79  F   UNL A   1      38.362  31.933  37.394  1.00  0.00    -0.203 F 
ATOM     80  F   UNL A   1      40.733  36.847  37.567  1.00  0.00    -0.200 F 
ATOM     81  C   UNL A   1      39.290  35.245  38.531  1.00  0.00     0.200 A 
ATOM     82  F   UNL A   1      37.867  33.608  39.466  1.00  0.00    -0.200 F 
ATOM     83  F   UNL A   1      39.048  36.064  39.563  1.00  0.00    -0.200 F 
ENDBRANCH  59  73
BRANCH  60  84
ATOM     84  C   UNL A   1      41.149  27.811  28.366  1.00  0.00     0.064 A 
ATOM     85  C   UNL A   1      41.988  28.255  27.337  1.00  0.00     0.173 A 
ATOM     86  C   UNL A   1      40.541  26.557  28.231  1.00  0.00     0.173 A 
ATOM     87  F   UNL A   1      42.574  29.458  27.424  1.00  0.00    -0.203 F 
ATOM     88  C   UNL A   1      42.211  27.470  26.209  1.00  0.00     0.198 A 
ATOM     89  C   UNL A   1      40.769  25.769  27.106  1.00  0.00     0.198 A 
ATOM     90  F   UNL A   1      39.727  26.099  29.194  1.00  0.00    -0.203 F 
ATOM     91  F   UNL A   1      43.005  27.919  25.228  1.00  0.00    -0.200 F 
ATOM     92  C   UNL A   1      41.603  26.227  26.096  1.00  0.00     0.200 A 
ATOM     93  F   UNL A   1      40.183  24.570  26.998  1.00  0.00    -0.200 F 
ATOM     94  F   UNL A   1      41.818  25.472  25.010  1.00  0.00    -0.200 F 
ENDBRANCH  60  84
BRANCH  72  95
ATOM     95  C   UNL A   1      44.621  28.587  34.329  1.00  0.00     0.064 A 
ATOM     96  C   UNL A   1      44.558  27.395  35.064  1.00  0.00     0.173 A 
ATOM     97  C   UNL A   1      45.879  29.150  34.081  1.00  0.00     0.173 A 
ATOM     98  F   UNL A   1      43.371  26.832  35.335  1.00  0.00    -0.203 F 
ATOM     99  C   UNL A   1      45.718  26.791  35.538  1.00  0.00     0.198 A 
ATOM    100  C   UNL A   1      47.037  28.540  34.552  1.00  0.00     0.198 A 
ATOM    101  F   UNL A   1      45.982  30.293  33.386  1.00  0.00    -0.203 F 
ATOM    102  F   UNL A   1      45.638  25.660  36.254  1.00  0.00    -0.200 F 
ATOM    103  C   UNL A   1      46.956  27.362  35.281  1.00  0.00     0.200 A 
ATOM    104  F   UNL A   1      48.234  29.093  34.308  1.00  0.00    -0.200 F 
ATOM    105  F   UNL A   1      48.072  26.779  35.742  1.00  0.00    -0.200 F 
ENDBRANCH  72  95
ENDBRANCH  46  47
ENDBRANCH  38  41
ENDBRANCH  36  37
ENDBRANCH  35  36
ENDBRANCH  34  35
ENDBRANCH  33  34
ENDBRANCH   1  33
TORSDOF 19
ENDMDL
MODEL 3
REMARK VINA RESULT:     -12.8      2.985      8.506
REMARK SMILES CCc1ccnc(C(=O)c2[nH]c3ccc(OC(F)(F)F)cc3c2CC(=O)NCCCCCCNC(=O)c2ccc(-c3c4nc(c(-c5c(F)c(F)c(F)c(F)c5F)c5ccc([nH]5)c(-c5c(F)c(F)c(F)c(F)c5F)c5nc(c(-c6c(F)c(F)c(F)c(F)c6F)c6ccc3[nH]6)C=C5)C=C4)cc2)c1
REMARK SMILES IDX 29 1 28 2 27 3 25 4 26 5 24 7 23 8 10 9 11 10 12 11 22 13
REMARK SMILES IDX 13 14 21 15 14 16 15 17 8 18 9 19 7 20 3 21 4 22 100 23 5 24
REMARK SMILES IDX 6 25 2 26 1 27 16 28 17 29 18 30 19 31 20 32 30 33 31 34
REMARK SMILES IDX 32 35 33 36 34 37 35 38 36 40 37 41 38 42 99 43 39 44 98 45
REMARK SMILES IDX 40 46 41 47 42 48 92 49 43 50 97 51 91 52 93 53 44 54 96 55
REMARK SMILES IDX 90 56 89 57 45 59 77 60 57 61 76 62 58 63 61 64 75 65 94 66
REMARK SMILES IDX 59 67 60 68 74 70 95 71 62 72 46 73 47 74 55 75 48 76 49 77
REMARK SMILES IDX 53 78 56 79 50 80 51 81 54 82 52 83 78 84 79 85 87 86 80 87
REMARK SMILES IDX 81 88 85 89 88 90 82 91 83 92 86 93 84 94 63 95 64 96 72 97
REMARK SMILES IDX 65 98 66 99 70 100 73 101 67 102 68 103 71 104 69 105
REMARK H PARENT 27 6 11 12 34 39 93 58 61 69
REMARK Flexibility Score: inf
ROOT
ATOM      1  C   UNL A   1      35.314  31.378  27.878  1.00  0.00     0.021 C 
ENDROOT
BRANCH   1   2
ATOM      2  C   UNL A   1      34.775  30.082  27.272  1.00  0.00     0.116 C 
BRANCH   2   3
ATOM      3  N   UNL A   1      33.450  29.748  27.749  1.00  0.00    -0.356 N 
ATOM      4  C   UNL A   1      32.565  28.823  27.271  1.00  0.00     0.224 C 
ATOM      5  O   UNL A   1      31.533  28.617  27.917  1.00  0.00    -0.275 OA
ATOM      6  H   UNL A   1      33.142  30.261  28.530  1.00  0.00     0.163 HD
BRANCH   4   7
ATOM      7  C   UNL A   1      32.897  27.985  26.050  1.00  0.00     0.138 C 
BRANCH   7   8
ATOM      8  C   UNL A   1      31.729  27.293  25.406  1.00  0.00    -0.002 A 
ATOM      9  C   UNL A   1      31.399  25.942  25.472  1.00  0.00     0.093 A 
ATOM     10  N   UNL A   1      30.225  25.768  24.776  1.00  0.00    -0.352 N 
ATOM     11  C   UNL A   1      29.840  26.938  24.172  1.00  0.00     0.046 A 
ATOM     12  H   UNL A   1      29.728  24.919  24.720  1.00  0.00     0.167 HD
ATOM     13  C   UNL A   1      30.765  27.910  24.538  1.00  0.00     0.008 A 
ATOM     14  C   UNL A   1      28.746  27.207  23.343  1.00  0.00     0.030 A 
ATOM     15  C   UNL A   1      30.586  29.218  24.038  1.00  0.00     0.057 A 
ATOM     16  C   UNL A   1      28.592  28.515  22.865  1.00  0.00     0.049 A 
ATOM     17  C   UNL A   1      29.497  29.518  23.205  1.00  0.00     0.130 A 
BRANCH   9  18
ATOM     18  C   UNL A   1      32.055  24.859  26.184  1.00  0.00     0.227 C 
ATOM     19  O   UNL A   1      31.612  24.450  27.253  1.00  0.00    -0.285 OA
BRANCH  18  20
ATOM     20  C   UNL A   1      33.258  24.204  25.542  1.00  0.00     0.113 A 
ATOM     21  C   UNL A   1      35.628  23.749  25.407  1.00  0.00    -0.044 A 
ATOM     22  C   UNL A   1      35.362  23.024  24.241  1.00  0.00     0.024 A 
ATOM     23  C   UNL A   1      34.542  24.321  26.082  1.00  0.00     0.036 A 
ATOM     24  C   UNL A   1      34.058  22.936  23.784  1.00  0.00     0.112 A 
ATOM     25  N   UNL A   1      33.010  23.522  24.394  1.00  0.00    -0.253 NA
BRANCH  21  26
ATOM     26  C   UNL A   1      37.057  23.843  25.890  1.00  0.00     0.032 C 
ATOM     27  C   UNL A   1      37.916  22.597  25.707  1.00  0.00     0.009 C 
ENDBRANCH  21  26
ENDBRANCH  18  20
ENDBRANCH   9  18
BRANCH  17  28
ATOM     28  O   UNL A   1      29.450  30.824  22.803  1.00  0.00    -0.406 OA
BRANCH  28  29
ATOM     29  C   UNL A   1      28.864  31.767  23.684  1.00  0.00     0.573 C 
ATOM     30  F   UNL A   1      27.623  31.385  24.051  1.00  0.00    -0.132 F 
ATOM     31  F   UNL A   1      29.627  31.944  24.784  1.00  0.00    -0.132 F 
ATOM     32  F   UNL A   1      28.767  32.953  23.045  1.00  0.00    -0.132 F 
ENDBRANCH  28  29
ENDBRANCH  17  28
ENDBRANCH   7   8
ENDBRANCH   4   7
ENDBRANCH   2   3
ENDBRANCH   1   2
BRANCH   1  33
ATOM     33  C   UNL A   1      34.312  32.160  28.735  1.00  0.00     0.002 C 
BRANCH  33  34
ATOM     34  C   UNL A   1      34.440  33.686  28.695  1.00  0.00     0.002 C 
BRANCH  34  35
ATOM     35  C   UNL A   1      33.135  34.478  28.828  1.00  0.00     0.021 C 
BRANCH  35  36
ATOM     36  C   UNL A   1      33.283  35.939  29.255  1.00  0.00     0.116 C 
BRANCH  36  37
ATOM     37  N   UNL A   1      32.496  36.262  30.433  1.00  0.00    -0.352 N 
ATOM     38  C   UNL A   1      32.656  35.846  31.732  1.00  0.00     0.251 C 
ATOM     39  H   UNL A   1      31.737  36.868  30.276  1.00  0.00     0.163 HD
ATOM     40  O   UNL A   1      31.811  36.129  32.574  1.00  0.00    -0.269 OA
BRANCH  38  41
ATOM     41  C   UNL A   1      33.831  35.036  32.129  1.00  0.00     0.039 A 
ATOM     42  C   UNL A   1      35.095  35.639  32.095  1.00  0.00     0.014 A 
ATOM     43  C   UNL A   1      33.710  33.686  32.469  1.00  0.00     0.014 A 
ATOM     44  C   UNL A   1      36.230  34.906  32.452  1.00  0.00     0.010 A 
ATOM     45  C   UNL A   1      34.842  32.958  32.845  1.00  0.00     0.010 A 
ATOM     46  C   UNL A   1      36.108  33.565  32.844  1.00  0.00    -0.014 A 
BRANCH  46  47
ATOM     47  C   UNL A   1      37.297  32.786  33.264  1.00  0.00     0.031 A 
ATOM     48  C   UNL A   1      37.950  33.050  34.587  1.00  0.00     0.074 A 
ATOM     49  C   UNL A   1      37.817  31.868  32.429  1.00  0.00     0.049 A 
ATOM     50  N   UNL A   1      39.056  32.546  35.077  1.00  0.00    -0.248 NA
ATOM     51  C   UNL A   1      37.278  34.011  35.474  1.00  0.00     0.031 C 
ATOM     52  C   UNL A   1      37.284  31.524  31.112  1.00  0.00     0.029 A 
ATOM     53  N   UNL A   1      38.923  31.066  32.565  1.00  0.00    -0.354 N 
ATOM     54  C   UNL A   1      39.229  33.150  36.314  1.00  0.00     0.074 A 
ATOM     55  C   UNL A   1      38.110  34.050  36.506  1.00  0.00     0.031 C 
ATOM     56  C   UNL A   1      38.062  30.579  30.559  1.00  0.00     0.029 A 
ATOM     57  C   UNL A   1      39.158  30.269  31.473  1.00  0.00     0.049 A 
ATOM     58  H   UNL A   1      39.492  31.064  33.368  1.00  0.00     0.167 HD
ATOM     59  C   UNL A   1      40.233  32.973  37.203  1.00  0.00     0.037 A 
ATOM     60  C   UNL A   1      40.153  29.396  31.234  1.00  0.00     0.037 A 
ATOM     61  C   UNL A   1      41.332  32.060  37.038  1.00  0.00     0.049 A 
ATOM     62  C   UNL A   1      41.232  29.190  32.254  1.00  0.00     0.074 A 
ATOM     63  C   UNL A   1      42.383  31.804  37.902  1.00  0.00     0.029 A 
ATOM     64  N   UNL A   1      41.514  31.243  35.934  1.00  0.00    -0.354 N 
ATOM     65  N   UNL A   1      41.391  29.776  33.414  1.00  0.00    -0.248 NA
ATOM     66  C   UNL A   1      42.273  28.205  31.928  1.00  0.00     0.031 C 
ATOM     67  C   UNL A   1      43.206  30.834  37.317  1.00  0.00     0.029 A 
ATOM     68  C   UNL A   1      42.660  30.482  36.094  1.00  0.00     0.049 A 
ATOM     69  H   UNL A   1      40.916  31.209  35.152  1.00  0.00     0.167 HD
ATOM     70  C   UNL A   1      42.547  29.236  33.956  1.00  0.00     0.074 A 
ATOM     71  C   UNL A   1      43.047  28.266  33.003  1.00  0.00     0.031 C 
ATOM     72  C   UNL A   1      43.143  29.523  35.137  1.00  0.00     0.037 A 
BRANCH  59  73
ATOM     73  C   UNL A   1      40.196  33.806  38.445  1.00  0.00     0.064 A 
ATOM     74  C   UNL A   1      40.904  35.012  38.532  1.00  0.00     0.173 A 
ATOM     75  C   UNL A   1      39.420  33.408  39.542  1.00  0.00     0.173 A 
ATOM     76  F   UNL A   1      41.668  35.422  37.508  1.00  0.00    -0.203 F 
ATOM     77  C   UNL A   1      40.841  35.791  39.683  1.00  0.00     0.198 A 
ATOM     78  C   UNL A   1      39.353  34.193  40.688  1.00  0.00     0.198 A 
ATOM     79  F   UNL A   1      38.731  32.258  39.500  1.00  0.00    -0.203 F 
ATOM     80  F   UNL A   1      41.536  36.934  39.757  1.00  0.00    -0.200 F 
ATOM     81  C   UNL A   1      40.064  35.383  40.759  1.00  0.00     0.200 A 
ATOM     82  F   UNL A   1      38.605  33.797  41.727  1.00  0.00    -0.200 F 
ATOM     83  F   UNL A   1      40.004  36.134  41.866  1.00  0.00    -0.200 F 
ENDBRANCH  59  73
BRANCH  60  84
ATOM     84  C   UNL A   1      40.171  28.650  29.956  1.00  0.00     0.064 A 
ATOM     85  C   UNL A   1      39.499  27.429  29.830  1.00  0.00     0.173 A 
ATOM     86  C   UNL A   1      40.847  29.153  28.837  1.00  0.00     0.173 A 
ATOM     87  F   UNL A   1      38.856  26.908  30.886  1.00  0.00    -0.203 F 
ATOM     88  C   UNL A   1      39.503  26.732  28.626  1.00  0.00     0.198 A 
ATOM     89  C   UNL A   1      40.844  28.459  27.630  1.00  0.00     0.198 A 
ATOM     90  F   UNL A   1      41.506  30.318  28.919  1.00  0.00    -0.203 F 
ATOM     91  F   UNL A   1      38.866  25.557  28.530  1.00  0.00    -0.200 F 
ATOM     92  C   UNL A   1      40.173  27.249  27.525  1.00  0.00     0.200 A 
ATOM     93  F   UNL A   1      41.491  28.960  26.569  1.00  0.00    -0.200 F 
ATOM     94  F   UNL A   1      40.176  26.578  26.365  1.00  0.00    -0.200 F 
ENDBRANCH  60  84
BRANCH  72  95
ATOM     95  C   UNL A   1      44.397  28.780  35.463  1.00  0.00     0.064 A 
ATOM     96  C   UNL A   1      45.650  29.282  35.083  1.00  0.00     0.173 A 
ATOM     97  C   UNL A   1      44.352  27.581  36.185  1.00  0.00     0.173 A 
ATOM     98  F   UNL A   1      45.734  30.421  34.379  1.00  0.00    -0.203 F 
ATOM     99  C   UNL A   1      46.817  28.601  35.411  1.00  0.00     0.198 A 
ATOM    100  C   UNL A   1      45.522  26.905  36.516  1.00  0.00     0.198 A 
ATOM    101  F   UNL A   1      43.173  27.064  36.562  1.00  0.00    -0.203 F 
ATOM    102  F   UNL A   1      48.005  29.086  35.025  1.00  0.00    -0.200 F 
ATOM    103  C   UNL A   1      46.754  27.414  36.128  1.00  0.00     0.200 A 
ATOM    104  F   UNL A   1      45.462  25.756  37.204  1.00  0.00    -0.200 F 
ATOM    105  F   UNL A   1      47.880  26.758  36.439  1.00  0.00    -0.200 F 
ENDBRANCH  72  95
ENDBRANCH  46  47
ENDBRANCH  38  41
ENDBRANCH  36  37
ENDBRANCH  35  36
ENDBRANCH  34  35
ENDBRANCH  33  34
ENDBRANCH   1  33
TORSDOF 19
ENDMDL
