MODEL 1
REMARK VINA RESULT:     -14.1      0.000      0.000
REMARK SMILES Cc1nc(NC(=O)[C@H]2[C@@H]3CC[C@@H](C3)[C@@H]2C(=O)NCCCCCCNC(=O)c2ccc(-c3c4nc(c(-c5c(F)c(F)c(F)c(F)c5F)c5ccc([nH]5)c(-c5c(F)c(F)c(F)c(F)c5F)c5nc(c(-c6c(F)c(F)c(F)c(F)c6F)c6ccc3[nH]6)C=C5)C=C4)cc2)sc1-c1ccccc1
REMARK SMILES IDX 20 1 19 2 18 3 17 4 15 5 16 6 14 8 8 9 9 10 10 11 13 12
REMARK SMILES IDX 12 13 11 14 6 15 5 16 7 18 4 19 1 20 2 21 3 22 91 23 90 24
REMARK SMILES IDX 92 25 93 26 97 27 94 28 96 29 95 30 21 31 22 32 23 33 24 34
REMARK SMILES IDX 25 35 26 37 27 38 28 39 89 40 29 41 88 42 30 43 31 44 32 45
REMARK SMILES IDX 82 46 33 47 87 48 81 49 83 50 34 51 86 52 80 53 79 54 35 56
REMARK SMILES IDX 67 57 47 58 66 59 48 60 51 61 65 62 84 63 49 64 50 65 64 67
REMARK SMILES IDX 85 68 52 69 36 70 37 71 45 72 38 73 39 74 43 75 46 76 40 77
REMARK SMILES IDX 41 78 44 79 42 80 68 81 69 82 77 83 70 84 71 85 75 86 78 87
REMARK SMILES IDX 72 88 73 89 76 90 74 91 53 92 54 93 62 94 55 95 56 96 60 97
REMARK SMILES IDX 63 98 57 99 58 100 61 101 59 102
REMARK H PARENT 17 7 5 17 24 36 83 55 51 66
REMARK Flexibility Score: inf
ROOT
ATOM      1  C   UNL A   1      32.083  29.448  27.200  1.00  0.00     0.002 C 
ENDROOT
BRANCH   1   2
ATOM      2  C   UNL A   1      31.386  28.156  26.750  1.00  0.00     0.021 C 
BRANCH   2   3
ATOM      3  C   UNL A   1      32.307  26.947  26.624  1.00  0.00     0.116 C 
BRANCH   3   4
ATOM      4  N   UNL A   1      31.682  25.702  27.016  1.00  0.00    -0.356 N 
ATOM      5  C   UNL A   1      31.886  24.404  26.659  1.00  0.00     0.224 C 
ATOM      6  O   UNL A   1      31.224  23.578  27.296  1.00  0.00    -0.275 OA
ATOM      7  H   UNL A   1      30.961  25.817  27.676  1.00  0.00     0.163 HD
BRANCH   5   8
ATOM      8  C   UNL A   1      32.856  23.994  25.535  1.00  0.00     0.094 C 
ATOM      9  C   UNL A   1      32.324  22.722  24.780  1.00  0.00     0.094 C 
ATOM     10  C   UNL A   1      33.471  21.699  25.095  1.00  0.00     0.002 C 
ATOM     11  C   UNL A   1      33.525  21.362  26.599  1.00  0.00     0.005 C 
ATOM     12  C   UNL A   1      34.702  22.583  24.925  1.00  0.00     0.009 C 
ATOM     13  C   UNL A   1      34.262  23.549  26.019  1.00  0.00     0.002 C 
ATOM     14  C   UNL A   1      34.147  22.612  27.224  1.00  0.00     0.005 C 
BRANCH   9  15
ATOM     15  C   UNL A   1      32.129  22.728  23.239  1.00  0.00     0.230 C 
ATOM     16  N   UNL A   1      31.959  23.810  22.447  1.00  0.00    -0.302 N 
ATOM     17  H   UNL A   1      32.000  23.642  21.478  1.00  0.00     0.172 HD
ATOM     18  O   UNL A   1      32.124  21.646  22.628  1.00  0.00    -0.274 OA
BRANCH  16  19
ATOM     19  C   UNL A   1      31.739  25.095  22.812  1.00  0.00     0.190 A 
ATOM     20  C   UNL A   1      32.569  28.546  22.754  1.00  0.00     0.068 C 
ATOM     21  C   UNL A   1      31.871  27.265  22.986  1.00  0.00     0.058 A 
ATOM     22  N   UNL A   1      32.553  26.102  22.709  1.00  0.00    -0.225 NA
ATOM     23  C   UNL A   1      30.534  27.101  23.308  1.00  0.00     0.059 A 
ATOM     24  S   UNL A   1      30.170  25.434  23.409  1.00  0.00    -0.096 S 
BRANCH  23  25
ATOM     25  C   UNL A   1      29.557  28.169  23.461  1.00  0.00    -0.006 A 
ATOM     26  C   UNL A   1      29.983  29.501  23.466  1.00  0.00     0.009 A 
ATOM     27  C   UNL A   1      28.197  27.878  23.277  1.00  0.00     0.009 A 
ATOM     28  C   UNL A   1      29.068  30.528  23.229  1.00  0.00     0.001 A 
ATOM     29  C   UNL A   1      27.284  28.907  23.041  1.00  0.00     0.001 A 
ATOM     30  C   UNL A   1      27.725  30.230  22.999  1.00  0.00     0.000 A 
ENDBRANCH  23  25
ENDBRANCH  16  19
ENDBRANCH   9  15
ENDBRANCH   5   8
ENDBRANCH   3   4
ENDBRANCH   2   3
ENDBRANCH   1   2
BRANCH   1  31
ATOM     31  C   UNL A   1      31.993  30.610  26.212  1.00  0.00     0.002 C 
BRANCH  31  32
ATOM     32  C   UNL A   1      31.607  31.948  26.841  1.00  0.00     0.021 C 
BRANCH  32  33
ATOM     33  C   UNL A   1      32.779  32.712  27.444  1.00  0.00     0.116 C 
BRANCH  33  34
ATOM     34  N   UNL A   1      32.465  34.117  27.633  1.00  0.00    -0.352 N 
ATOM     35  C   UNL A   1      32.969  34.982  28.575  1.00  0.00     0.251 C 
ATOM     36  H   UNL A   1      31.808  34.499  27.006  1.00  0.00     0.163 HD
ATOM     37  O   UNL A   1      32.450  36.068  28.781  1.00  0.00    -0.269 OA
BRANCH  35  38
ATOM     38  C   UNL A   1      34.149  34.558  29.355  1.00  0.00     0.039 A 
ATOM     39  C   UNL A   1      33.964  34.042  30.638  1.00  0.00     0.014 A 
ATOM     40  C   UNL A   1      35.425  34.620  28.786  1.00  0.00     0.014 A 
ATOM     41  C   UNL A   1      35.059  33.519  31.328  1.00  0.00     0.010 A 
ATOM     42  C   UNL A   1      36.500  34.036  29.446  1.00  0.00     0.010 A 
ATOM     43  C   UNL A   1      36.324  33.471  30.718  1.00  0.00    -0.014 A 
BRANCH  43  44
ATOM     44  C   UNL A   1      37.467  32.793  31.378  1.00  0.00     0.031 A 
ATOM     45  C   UNL A   1      38.130  31.615  30.728  1.00  0.00     0.074 A 
ATOM     46  C   UNL A   1      37.855  33.199  32.603  1.00  0.00     0.049 A 
ATOM     47  N   UNL A   1      39.090  30.850  31.183  1.00  0.00    -0.248 NA
ATOM     48  C   UNL A   1      37.633  31.227  29.398  1.00  0.00     0.031 C 
ATOM     49  C   UNL A   1      37.256  34.304  33.354  1.00  0.00     0.029 A 
ATOM     50  N   UNL A   1      38.834  32.722  33.439  1.00  0.00    -0.354 N 
ATOM     51  C   UNL A   1      39.306  29.891  30.203  1.00  0.00     0.074 A 
ATOM     52  C   UNL A   1      38.344  30.137  29.151  1.00  0.00     0.031 C 
ATOM     53  C   UNL A   1      37.891  34.431  34.530  1.00  0.00     0.029 A 
ATOM     54  C   UNL A   1      38.907  33.390  34.637  1.00  0.00     0.049 A 
ATOM     55  H   UNL A   1      39.427  31.973  33.201  1.00  0.00     0.167 HD
ATOM     56  C   UNL A   1      40.238  28.908  30.178  1.00  0.00     0.037 A 
ATOM     57  C   UNL A   1      39.692  33.173  35.710  1.00  0.00     0.037 A 
ATOM     58  C   UNL A   1      41.198  28.676  31.226  1.00  0.00     0.049 A 
ATOM     59  C   UNL A   1      40.693  32.051  35.670  1.00  0.00     0.074 A 
ATOM     60  C   UNL A   1      42.227  27.752  31.264  1.00  0.00     0.029 A 
ATOM     61  N   UNL A   1      41.239  29.368  32.429  1.00  0.00    -0.354 N 
ATOM     62  N   UNL A   1      40.945  31.201  34.704  1.00  0.00    -0.248 NA
ATOM     63  C   UNL A   1      41.518  31.856  36.870  1.00  0.00     0.031 C 
ATOM     64  C   UNL A   1      42.847  27.838  32.514  1.00  0.00     0.029 A 
ATOM     65  C   UNL A   1      42.248  28.860  33.233  1.00  0.00     0.049 A 
ATOM     66  H   UNL A   1      40.641  30.110  32.674  1.00  0.00     0.167 HD
ATOM     67  C   UNL A   1      41.966  30.385  35.169  1.00  0.00     0.074 A 
ATOM     68  C   UNL A   1      42.305  30.857  36.496  1.00  0.00     0.031 C 
ATOM     69  C   UNL A   1      42.565  29.334  34.556  1.00  0.00     0.037 A 
BRANCH  56  70
ATOM     70  C   UNL A   1      40.260  27.999  28.982  1.00  0.00     0.064 A 
ATOM     71  C   UNL A   1      40.999  28.309  27.830  1.00  0.00     0.173 A 
ATOM     72  C   UNL A   1      39.567  26.778  29.005  1.00  0.00     0.173 A 
ATOM     73  F   UNL A   1      41.673  29.467  27.752  1.00  0.00    -0.203 F 
ATOM     74  C   UNL A   1      41.021  27.447  26.738  1.00  0.00     0.198 A 
ATOM     75  C   UNL A   1      39.619  25.903  27.924  1.00  0.00     0.198 A 
ATOM     76  F   UNL A   1      38.849  26.428  30.083  1.00  0.00    -0.203 F 
ATOM     77  F   UNL A   1      41.695  27.789  25.629  1.00  0.00    -0.200 F 
ATOM     78  C   UNL A   1      40.338  26.241  26.787  1.00  0.00     0.200 A 
ATOM     79  F   UNL A   1      38.970  24.732  27.980  1.00  0.00    -0.200 F 
ATOM     80  F   UNL A   1      40.368  25.407  25.738  1.00  0.00    -0.200 F 
ENDBRANCH  56  70
BRANCH  57  81
ATOM     81  C   UNL A   1      39.558  34.036  36.914  1.00  0.00     0.064 A 
ATOM     82  C   UNL A   1      40.202  35.278  36.988  1.00  0.00     0.173 A 
ATOM     83  C   UNL A   1      38.783  33.638  38.014  1.00  0.00     0.173 A 
ATOM     84  F   UNL A   1      40.971  35.695  35.971  1.00  0.00    -0.203 F 
ATOM     85  C   UNL A   1      40.096  36.079  38.123  1.00  0.00     0.198 A 
ATOM     86  C   UNL A   1      38.650  34.453  39.135  1.00  0.00     0.198 A 
ATOM     87  F   UNL A   1      38.141  32.460  37.993  1.00  0.00    -0.203 F 
ATOM     88  F   UNL A   1      40.762  37.239  38.187  1.00  0.00    -0.200 F 
ATOM     89  C   UNL A   1      39.314  35.669  39.193  1.00  0.00     0.200 A 
ATOM     90  F   UNL A   1      37.879  34.061  40.158  1.00  0.00    -0.200 F 
ATOM     91  F   UNL A   1      39.205  36.442  40.281  1.00  0.00    -0.200 F 
ENDBRANCH  57  81
BRANCH  69  92
ATOM     92  C   UNL A   1      43.654  28.627  35.312  1.00  0.00     0.064 A 
ATOM     93  C   UNL A   1      45.003  28.977  35.155  1.00  0.00     0.173 A 
ATOM     94  C   UNL A   1      43.343  27.615  36.233  1.00  0.00     0.173 A 
ATOM     95  F   UNL A   1      45.356  29.927  34.275  1.00  0.00    -0.203 F 
ATOM     96  C   UNL A   1      46.002  28.323  35.871  1.00  0.00     0.198 A 
ATOM     97  C   UNL A   1      44.341  26.987  36.973  1.00  0.00     0.198 A 
ATOM     98  F   UNL A   1      42.068  27.244  36.427  1.00  0.00    -0.203 F 
ATOM     99  F   UNL A   1      47.288  28.640  35.666  1.00  0.00    -0.200 F 
ATOM    100  C   UNL A   1      45.670  27.335  36.786  1.00  0.00     0.200 A 
ATOM    101  F   UNL A   1      44.016  26.044  37.868  1.00  0.00    -0.200 F 
ATOM    102  F   UNL A   1      46.631  26.714  37.482  1.00  0.00    -0.200 F 
ENDBRANCH  69  92
ENDBRANCH  43  44
ENDBRANCH  35  38
ENDBRANCH  33  34
ENDBRANCH  32  33
ENDBRANCH  31  32
ENDBRANCH   1  31
TORSDOF 16
ENDMDL
MODEL 2
REMARK VINA RESULT:     -13.8      0.649      7.114
REMARK SMILES Cc1nc(NC(=O)[C@H]2[C@@H]3CC[C@@H](C3)[C@@H]2C(=O)NCCCCCCNC(=O)c2ccc(-c3c4nc(c(-c5c(F)c(F)c(F)c(F)c5F)c5ccc([nH]5)c(-c5c(F)c(F)c(F)c(F)c5F)c5nc(c(-c6c(F)c(F)c(F)c(F)c6F)c6ccc3[nH]6)C=C5)C=C4)cc2)sc1-c1ccccc1
REMARK SMILES IDX 20 1 19 2 18 3 17 4 15 5 16 6 14 8 8 9 9 10 10 11 13 12
REMARK SMILES IDX 12 13 11 14 6 15 5 16 7 18 4 19 1 20 2 21 3 22 91 23 90 24
REMARK SMILES IDX 92 25 93 26 97 27 94 28 96 29 95 30 21 31 22 32 23 33 24 34
REMARK SMILES IDX 25 35 26 37 27 38 28 39 89 40 29 41 88 42 30 43 31 44 32 45
REMARK SMILES IDX 82 46 33 47 87 48 81 49 83 50 34 51 86 52 80 53 79 54 35 56
REMARK SMILES IDX 67 57 47 58 66 59 48 60 51 61 65 62 84 63 49 64 50 65 64 67
REMARK SMILES IDX 85 68 52 69 36 70 37 71 45 72 38 73 39 74 43 75 46 76 40 77
REMARK SMILES IDX 41 78 44 79 42 80 68 81 69 82 77 83 70 84 71 85 75 86 78 87
REMARK SMILES IDX 72 88 73 89 76 90 74 91 53 92 54 93 62 94 55 95 56 96 60 97
REMARK SMILES IDX 63 98 57 99 58 100 61 101 59 102
REMARK H PARENT 17 7 5 17 24 36 83 55 51 66
REMARK Flexibility Score: inf
ROOT
ATOM      1  C   UNL A   1      32.412  29.590  27.060  1.00  0.00     0.002 C 
ENDROOT
BRANCH   1   2
ATOM      2  C   UNL A   1      31.606  28.298  27.257  1.00  0.00     0.021 C 
BRANCH   2   3
ATOM      3  C   UNL A   1      32.174  27.079  26.537  1.00  0.00     0.116 C 
BRANCH   3   4
ATOM      4  N   UNL A   1      31.528  25.838  26.905  1.00  0.00    -0.356 N 
ATOM      5  C   UNL A   1      31.781  24.533  26.612  1.00  0.00     0.224 C 
ATOM      6  O   UNL A   1      31.070  23.717  27.207  1.00  0.00    -0.275 OA
ATOM      7  H   UNL A   1      30.745  25.962  27.488  1.00  0.00     0.163 HD
BRANCH   5   8
ATOM      8  C   UNL A   1      32.862  24.103  25.601  1.00  0.00     0.094 C 
ATOM      9  C   UNL A   1      32.434  22.784  24.860  1.00  0.00     0.094 C 
ATOM     10  C   UNL A   1      33.572  21.810  25.325  1.00  0.00     0.002 C 
ATOM     11  C   UNL A   1      33.495  21.540  26.842  1.00  0.00     0.005 C 
ATOM     12  C   UNL A   1      34.791  22.721  25.228  1.00  0.00     0.009 C 
ATOM     13  C   UNL A   1      34.227  23.721  26.231  1.00  0.00     0.002 C 
ATOM     14  C   UNL A   1      34.024  22.834  27.463  1.00  0.00     0.005 C 
BRANCH   9  15
ATOM     15  C   UNL A   1      32.382  22.717  23.309  1.00  0.00     0.230 C 
ATOM     16  N   UNL A   1      32.317  23.762  22.454  1.00  0.00    -0.302 N 
ATOM     17  H   UNL A   1      32.443  23.545  21.502  1.00  0.00     0.172 HD
ATOM     18  O   UNL A   1      32.404  21.607  22.752  1.00  0.00    -0.274 OA
BRANCH  16  19
ATOM     19  C   UNL A   1      32.101  25.068  22.735  1.00  0.00     0.190 A 
ATOM     20  C   UNL A   1      33.087  28.478  22.695  1.00  0.00     0.068 C 
ATOM     21  C   UNL A   1      32.303  27.237  22.854  1.00  0.00     0.058 A 
ATOM     22  N   UNL A   1      32.966  26.038  22.730  1.00  0.00    -0.225 NA
ATOM     23  C   UNL A   1      30.925  27.139  22.961  1.00  0.00     0.059 A 
ATOM     24  S   UNL A   1      30.474  25.494  23.058  1.00  0.00    -0.096 S 
BRANCH  23  25
ATOM     25  C   UNL A   1      29.987  28.251  22.918  1.00  0.00    -0.006 A 
ATOM     26  C   UNL A   1      30.312  29.404  22.197  1.00  0.00     0.009 A 
ATOM     27  C   UNL A   1      28.658  28.035  23.316  1.00  0.00     0.009 A 
ATOM     28  C   UNL A   1      29.310  30.302  21.826  1.00  0.00     0.001 A 
ATOM     29  C   UNL A   1      27.659  28.935  22.943  1.00  0.00     0.001 A 
ATOM     30  C   UNL A   1      27.983  30.058  22.182  1.00  0.00     0.000 A 
ENDBRANCH  23  25
ENDBRANCH  16  19
ENDBRANCH   9  15
ENDBRANCH   5   8
ENDBRANCH   3   4
ENDBRANCH   2   3
ENDBRANCH   1   2
BRANCH   1  31
ATOM     31  C   UNL A   1      31.785  30.603  26.102  1.00  0.00     0.002 C 
BRANCH  31  32
ATOM     32  C   UNL A   1      31.488  31.965  26.727  1.00  0.00     0.021 C 
BRANCH  32  33
ATOM     33  C   UNL A   1      32.706  32.649  27.335  1.00  0.00     0.116 C 
BRANCH  33  34
ATOM     34  N   UNL A   1      32.464  34.061  27.580  1.00  0.00    -0.352 N 
ATOM     35  C   UNL A   1      33.003  34.858  28.561  1.00  0.00     0.251 C 
ATOM     36  H   UNL A   1      31.835  34.502  26.964  1.00  0.00     0.163 HD
ATOM     37  O   UNL A   1      32.540  35.960  28.808  1.00  0.00    -0.269 OA
BRANCH  35  38
ATOM     38  C   UNL A   1      34.151  34.340  29.332  1.00  0.00     0.039 A 
ATOM     39  C   UNL A   1      33.913  33.638  30.514  1.00  0.00     0.014 A 
ATOM     40  C   UNL A   1      35.453  34.505  28.848  1.00  0.00     0.014 A 
ATOM     41  C   UNL A   1      34.983  33.034  31.177  1.00  0.00     0.010 A 
ATOM     42  C   UNL A   1      36.506  33.845  29.471  1.00  0.00     0.010 A 
ATOM     43  C   UNL A   1      36.278  33.096  30.635  1.00  0.00    -0.014 A 
BRANCH  43  44
ATOM     44  C   UNL A   1      37.401  32.344  31.248  1.00  0.00     0.031 A 
ATOM     45  C   UNL A   1      37.923  32.727  32.602  1.00  0.00     0.074 A 
ATOM     46  C   UNL A   1      37.998  31.362  30.544  1.00  0.00     0.049 A 
ATOM     47  N   UNL A   1      38.940  32.238  33.265  1.00  0.00    -0.248 NA
ATOM     48  C   UNL A   1      37.224  33.822  33.294  1.00  0.00     0.031 C 
ATOM     49  C   UNL A   1      37.608  30.931  29.200  1.00  0.00     0.029 A 
ATOM     50  N   UNL A   1      39.066  30.559  30.853  1.00  0.00    -0.354 N 
ATOM     51  C   UNL A   1      39.007  32.968  34.444  1.00  0.00     0.074 A 
ATOM     52  C   UNL A   1      37.961  33.966  34.384  1.00  0.00     0.031 C 
ATOM     53  C   UNL A   1      38.413  29.932  28.808  1.00  0.00     0.029 A 
ATOM     54  C   UNL A   1      39.405  29.683  29.849  1.00  0.00     0.049 A 
ATOM     55  H   UNL A   1      39.545  30.605  31.712  1.00  0.00     0.167 HD
ATOM     56  C   UNL A   1      39.853  32.803  35.490  1.00  0.00     0.037 A 
ATOM     57  C   UNL A   1      40.414  28.795  29.770  1.00  0.00     0.037 A 
ATOM     58  C   UNL A   1      40.885  31.800  35.544  1.00  0.00     0.049 A 
ATOM     59  C   UNL A   1      41.362  28.658  30.930  1.00  0.00     0.074 A 
ATOM     60  C   UNL A   1      41.747  31.506  36.585  1.00  0.00     0.029 A 
ATOM     61  N   UNL A   1      41.203  30.935  34.507  1.00  0.00    -0.354 N 
ATOM     62  N   UNL A   1      41.365  29.296  32.075  1.00  0.00    -0.248 NA
ATOM     63  C   UNL A   1      42.447  27.678  30.786  1.00  0.00     0.031 C 
ATOM     64  C   UNL A   1      42.630  30.511  36.155  1.00  0.00     0.029 A 
ATOM     65  C   UNL A   1      42.278  30.137  34.868  1.00  0.00     0.049 A 
ATOM     66  H   UNL A   1      40.734  30.893  33.643  1.00  0.00     0.167 HD
ATOM     67  C   UNL A   1      42.437  28.785  32.795  1.00  0.00     0.074 A 
ATOM     68  C   UNL A   1      43.045  27.766  31.966  1.00  0.00     0.031 C 
ATOM     69  C   UNL A   1      42.881  29.133  34.027  1.00  0.00     0.037 A 
BRANCH  56  70
ATOM     70  C   UNL A   1      39.706  33.735  36.659  1.00  0.00     0.064 A 
ATOM     71  C   UNL A   1      40.342  34.986  36.692  1.00  0.00     0.173 A 
ATOM     72  C   UNL A   1      38.882  33.391  37.742  1.00  0.00     0.173 A 
ATOM     73  F   UNL A   1      41.148  35.360  35.687  1.00  0.00    -0.203 F 
ATOM     74  C   UNL A   1      40.181  35.843  37.777  1.00  0.00     0.198 A 
ATOM     75  C   UNL A   1      38.697  34.266  38.809  1.00  0.00     0.198 A 
ATOM     76  F   UNL A   1      38.245  32.211  37.759  1.00  0.00    -0.203 F 
ATOM     77  F   UNL A   1      40.838  37.012  37.808  1.00  0.00    -0.200 F 
ATOM     78  C   UNL A   1      39.353  35.488  38.830  1.00  0.00     0.200 A 
ATOM     79  F   UNL A   1      37.884  33.926  39.818  1.00  0.00    -0.200 F 
ATOM     80  F   UNL A   1      39.191  36.319  39.869  1.00  0.00    -0.200 F 
ENDBRANCH  56  70
BRANCH  57  81
ATOM     81  C   UNL A   1      40.580  27.969  28.544  1.00  0.00     0.064 A 
ATOM     82  C   UNL A   1      39.984  26.705  28.438  1.00  0.00     0.173 A 
ATOM     83  C   UNL A   1      41.338  28.425  27.455  1.00  0.00     0.173 A 
ATOM     84  F   UNL A   1      39.266  26.216  29.460  1.00  0.00    -0.203 F 
ATOM     85  C   UNL A   1      40.156  25.921  27.300  1.00  0.00     0.198 A 
ATOM     86  C   UNL A   1      41.482  27.654  26.304  1.00  0.00     0.198 A 
ATOM     87  F   UNL A   1      41.927  29.630  27.503  1.00  0.00    -0.203 F 
ATOM     88  F   UNL A   1      39.615  24.696  27.244  1.00  0.00    -0.200 F 
ATOM     89  C   UNL A   1      40.899  26.399  26.231  1.00  0.00     0.200 A 
ATOM     90  F   UNL A   1      42.186  28.129  25.267  1.00  0.00    -0.200 F 
ATOM     91  F   UNL A   1      41.058  25.647  25.133  1.00  0.00    -0.200 F 
ENDBRANCH  57  81
BRANCH  69  92
ATOM     92  C   UNL A   1      44.080  28.401  34.558  1.00  0.00     0.064 A 
ATOM     93  C   UNL A   1      43.951  27.190  35.254  1.00  0.00     0.173 A 
ATOM     94  C   UNL A   1      45.374  28.894  34.335  1.00  0.00     0.173 A 
ATOM     95  F   UNL A   1      42.735  26.683  35.508  1.00  0.00    -0.203 F 
ATOM     96  C   UNL A   1      45.072  26.513  35.730  1.00  0.00     0.198 A 
ATOM     97  C   UNL A   1      46.494  28.199  34.782  1.00  0.00     0.198 A 
ATOM     98  F   UNL A   1      45.555  30.046  33.671  1.00  0.00    -0.203 F 
ATOM     99  F   UNL A   1      44.921  25.385  36.436  1.00  0.00    -0.200 F 
ATOM    100  C   UNL A   1      46.342  27.014  35.486  1.00  0.00     0.200 A 
ATOM    101  F   UNL A   1      47.721  28.675  34.531  1.00  0.00    -0.200 F 
ATOM    102  F   UNL A   1      47.420  26.357  35.935  1.00  0.00    -0.200 F 
ENDBRANCH  69  92
ENDBRANCH  43  44
ENDBRANCH  35  38
ENDBRANCH  33  34
ENDBRANCH  32  33
ENDBRANCH  31  32
ENDBRANCH   1  31
TORSDOF 16
ENDMDL
MODEL 3
REMARK VINA RESULT:     -13.8      0.622      7.113
REMARK SMILES Cc1nc(NC(=O)[C@H]2[C@@H]3CC[C@@H](C3)[C@@H]2C(=O)NCCCCCCNC(=O)c2ccc(-c3c4nc(c(-c5c(F)c(F)c(F)c(F)c5F)c5ccc([nH]5)c(-c5c(F)c(F)c(F)c(F)c5F)c5nc(c(-c6c(F)c(F)c(F)c(F)c6F)c6ccc3[nH]6)C=C5)C=C4)cc2)sc1-c1ccccc1
REMARK SMILES IDX 20 1 19 2 18 3 17 4 15 5 16 6 14 8 8 9 9 10 10 11 13 12
REMARK SMILES IDX 12 13 11 14 6 15 5 16 7 18 4 19 1 20 2 21 3 22 91 23 90 24
REMARK SMILES IDX 92 25 93 26 97 27 94 28 96 29 95 30 21 31 22 32 23 33 24 34
REMARK SMILES IDX 25 35 26 37 27 38 28 39 89 40 29 41 88 42 30 43 31 44 32 45
REMARK SMILES IDX 82 46 33 47 87 48 81 49 83 50 34 51 86 52 80 53 79 54 35 56
REMARK SMILES IDX 67 57 47 58 66 59 48 60 51 61 65 62 84 63 49 64 50 65 64 67
REMARK SMILES IDX 85 68 52 69 36 70 37 71 45 72 38 73 39 74 43 75 46 76 40 77
REMARK SMILES IDX 41 78 44 79 42 80 68 81 69 82 77 83 70 84 71 85 75 86 78 87
REMARK SMILES IDX 72 88 73 89 76 90 74 91 53 92 54 93 62 94 55 95 56 96 60 97
REMARK SMILES IDX 63 98 57 99 58 100 61 101 59 102
REMARK H PARENT 17 7 5 17 24 36 83 55 51 66
REMARK Flexibility Score: inf
ROOT
ATOM      1  C   UNL A   1      32.500  29.612  27.033  1.00  0.00     0.002 C 
ENDROOT
BRANCH   1   2
ATOM      2  C   UNL A   1      31.732  28.316  27.332  1.00  0.00     0.021 C 
BRANCH   2   3
ATOM      3  C   UNL A   1      32.154  27.119  26.487  1.00  0.00     0.116 C 
BRANCH   3   4
ATOM      4  N   UNL A   1      31.510  25.882  26.875  1.00  0.00    -0.356 N 
ATOM      5  C   UNL A   1      31.762  24.573  26.600  1.00  0.00     0.224 C 
ATOM      6  O   UNL A   1      31.053  23.766  27.209  1.00  0.00    -0.275 OA
ATOM      7  H   UNL A   1      30.727  26.015  27.458  1.00  0.00     0.163 HD
BRANCH   5   8
ATOM      8  C   UNL A   1      32.841  24.129  25.594  1.00  0.00     0.094 C 
ATOM      9  C   UNL A   1      32.397  22.818  24.848  1.00  0.00     0.094 C 
ATOM     10  C   UNL A   1      33.519  21.826  25.317  1.00  0.00     0.002 C 
ATOM     11  C   UNL A   1      33.430  21.555  26.833  1.00  0.00     0.005 C 
ATOM     12  C   UNL A   1      34.752  22.719  25.227  1.00  0.00     0.009 C 
ATOM     13  C   UNL A   1      34.197  23.726  26.229  1.00  0.00     0.002 C 
ATOM     14  C   UNL A   1      33.976  22.840  27.458  1.00  0.00     0.005 C 
BRANCH   9  15
ATOM     15  C   UNL A   1      32.352  22.754  23.297  1.00  0.00     0.230 C 
ATOM     16  N   UNL A   1      32.288  23.802  22.444  1.00  0.00    -0.302 N 
ATOM     17  H   UNL A   1      32.419  23.586  21.492  1.00  0.00     0.172 HD
ATOM     18  O   UNL A   1      32.377  21.645  22.738  1.00  0.00    -0.274 OA
BRANCH  16  19
ATOM     19  C   UNL A   1      32.070  25.106  22.727  1.00  0.00     0.190 A 
ATOM     20  C   UNL A   1      33.060  28.516  22.716  1.00  0.00     0.068 C 
ATOM     21  C   UNL A   1      32.273  27.274  22.858  1.00  0.00     0.058 A 
ATOM     22  N   UNL A   1      32.936  26.075  22.739  1.00  0.00    -0.225 NA
ATOM     23  C   UNL A   1      30.894  27.178  22.945  1.00  0.00     0.059 A 
ATOM     24  S   UNL A   1      30.439  25.533  23.028  1.00  0.00    -0.096 S 
BRANCH  23  25
ATOM     25  C   UNL A   1      29.957  28.291  22.892  1.00  0.00    -0.006 A 
ATOM     26  C   UNL A   1      30.277  29.431  22.147  1.00  0.00     0.009 A 
ATOM     27  C   UNL A   1      28.632  28.086  23.308  1.00  0.00     0.009 A 
ATOM     28  C   UNL A   1      29.273  30.324  21.771  1.00  0.00     0.001 A 
ATOM     29  C   UNL A   1      27.631  28.982  22.931  1.00  0.00     0.001 A 
ATOM     30  C   UNL A   1      27.950  30.090  22.146  1.00  0.00     0.000 A 
ENDBRANCH  23  25
ENDBRANCH  16  19
ENDBRANCH   9  15
ENDBRANCH   5   8
ENDBRANCH   3   4
ENDBRANCH   2   3
ENDBRANCH   1   2
BRANCH   1  31
ATOM     31  C   UNL A   1      31.776  30.597  26.116  1.00  0.00     0.002 C 
BRANCH  31  32
ATOM     32  C   UNL A   1      31.479  31.953  26.752  1.00  0.00     0.021 C 
BRANCH  32  33
ATOM     33  C   UNL A   1      32.704  32.649  27.332  1.00  0.00     0.116 C 
BRANCH  33  34
ATOM     34  N   UNL A   1      32.457  34.060  27.576  1.00  0.00    -0.352 N 
ATOM     35  C   UNL A   1      32.987  34.857  28.562  1.00  0.00     0.251 C 
ATOM     36  H   UNL A   1      31.831  34.500  26.957  1.00  0.00     0.163 HD
ATOM     37  O   UNL A   1      32.519  35.958  28.807  1.00  0.00    -0.269 OA
BRANCH  35  38
ATOM     38  C   UNL A   1      34.131  34.341  29.341  1.00  0.00     0.039 A 
ATOM     39  C   UNL A   1      33.887  33.625  30.513  1.00  0.00     0.014 A 
ATOM     40  C   UNL A   1      35.437  34.522  28.872  1.00  0.00     0.014 A 
ATOM     41  C   UNL A   1      34.954  33.024  31.182  1.00  0.00     0.010 A 
ATOM     42  C   UNL A   1      36.489  33.865  29.501  1.00  0.00     0.010 A 
ATOM     43  C   UNL A   1      36.255  33.102  30.655  1.00  0.00    -0.014 A 
BRANCH  43  44
ATOM     44  C   UNL A   1      37.377  32.354  31.273  1.00  0.00     0.031 A 
ATOM     45  C   UNL A   1      37.904  32.751  32.621  1.00  0.00     0.074 A 
ATOM     46  C   UNL A   1      37.970  31.363  30.578  1.00  0.00     0.049 A 
ATOM     47  N   UNL A   1      38.921  32.266  33.287  1.00  0.00    -0.248 NA
ATOM     48  C   UNL A   1      37.210  33.854  33.303  1.00  0.00     0.031 C 
ATOM     49  C   UNL A   1      37.575  30.920  29.239  1.00  0.00     0.029 A 
ATOM     50  N   UNL A   1      39.037  30.561  30.892  1.00  0.00    -0.354 N 
ATOM     51  C   UNL A   1      38.993  33.007  34.458  1.00  0.00     0.074 A 
ATOM     52  C   UNL A   1      37.950  34.008  34.390  1.00  0.00     0.031 C 
ATOM     53  C   UNL A   1      38.377  29.914  28.856  1.00  0.00     0.029 A 
ATOM     54  C   UNL A   1      39.371  29.674  29.897  1.00  0.00     0.049 A 
ATOM     55  H   UNL A   1      39.518  30.615  31.749  1.00  0.00     0.167 HD
ATOM     56  C   UNL A   1      39.842  32.852  35.503  1.00  0.00     0.037 A 
ATOM     57  C   UNL A   1      40.377  28.782  29.824  1.00  0.00     0.037 A 
ATOM     58  C   UNL A   1      40.871  31.847  35.565  1.00  0.00     0.049 A 
ATOM     59  C   UNL A   1      41.328  28.655  30.983  1.00  0.00     0.074 A 
ATOM     60  C   UNL A   1      41.736  31.562  36.607  1.00  0.00     0.029 A 
ATOM     61  N   UNL A   1      41.184  30.970  34.536  1.00  0.00    -0.354 N 
ATOM     62  N   UNL A   1      41.336  29.305  32.121  1.00  0.00    -0.248 NA
ATOM     63  C   UNL A   1      42.410  27.671  30.846  1.00  0.00     0.031 C 
ATOM     64  C   UNL A   1      42.615  30.559  36.184  1.00  0.00     0.029 A 
ATOM     65  C   UNL A   1      42.258  30.173  34.903  1.00  0.00     0.049 A 
ATOM     66  H   UNL A   1      40.713  30.920  33.673  1.00  0.00     0.167 HD
ATOM     67  C   UNL A   1      42.408  28.799  32.843  1.00  0.00     0.074 A 
ATOM     68  C   UNL A   1      43.012  27.769  32.023  1.00  0.00     0.031 C 
ATOM     69  C   UNL A   1      42.856  29.159  34.071  1.00  0.00     0.037 A 
BRANCH  56  70
ATOM     70  C   UNL A   1      39.701  33.796  36.663  1.00  0.00     0.064 A 
ATOM     71  C   UNL A   1      38.907  33.485  37.777  1.00  0.00     0.173 A 
ATOM     72  C   UNL A   1      40.405  35.010  36.679  1.00  0.00     0.173 A 
ATOM     73  F   UNL A   1      38.206  32.341  37.809  1.00  0.00    -0.203 F 
ATOM     74  C   UNL A   1      38.801  34.365  38.851  1.00  0.00     0.198 A 
ATOM     75  C   UNL A   1      40.323  35.872  37.769  1.00  0.00     0.198 A 
ATOM     76  F   UNL A   1      41.184  35.355  35.643  1.00  0.00    -0.203 F 
ATOM     77  F   UNL A   1      37.997  34.068  39.882  1.00  0.00    -0.200 F 
ATOM     78  C   UNL A   1      39.515  35.554  38.851  1.00  0.00     0.200 A 
ATOM     79  F   UNL A   1      41.026  37.013  37.773  1.00  0.00    -0.200 F 
ATOM     80  F   UNL A   1      39.420  36.396  39.889  1.00  0.00    -0.200 F 
ENDBRANCH  56  70
BRANCH  57  81
ATOM     81  C   UNL A   1      40.538  27.943  28.606  1.00  0.00     0.064 A 
ATOM     82  C   UNL A   1      41.299  28.388  27.518  1.00  0.00     0.173 A 
ATOM     83  C   UNL A   1      39.935  26.680  28.506  1.00  0.00     0.173 A 
ATOM     84  F   UNL A   1      41.879  29.597  27.556  1.00  0.00    -0.203 F 
ATOM     85  C   UNL A   1      41.434  27.614  26.367  1.00  0.00     0.198 A 
ATOM     86  C   UNL A   1      40.098  25.892  27.370  1.00  0.00     0.198 A 
ATOM     87  F   UNL A   1      39.200  26.203  29.522  1.00  0.00    -0.203 F 
ATOM     88  F   UNL A   1      42.127  28.085  25.322  1.00  0.00    -0.200 F 
ATOM     89  C   UNL A   1      40.839  26.363  26.297  1.00  0.00     0.200 A 
ATOM     90  F   UNL A   1      39.536  24.676  27.314  1.00  0.00    -0.200 F 
ATOM     91  F   UNL A   1      40.975  25.615  25.194  1.00  0.00    -0.200 F 
ENDBRANCH  57  81
BRANCH  69  92
ATOM     92  C   UNL A   1      44.055  28.430  34.606  1.00  0.00     0.064 A 
ATOM     93  C   UNL A   1      43.926  27.222  35.309  1.00  0.00     0.173 A 
ATOM     94  C   UNL A   1      45.350  28.921  34.381  1.00  0.00     0.173 A 
ATOM     95  F   UNL A   1      42.709  26.717  35.565  1.00  0.00    -0.203 F 
ATOM     96  C   UNL A   1      45.046  26.548  35.788  1.00  0.00     0.198 A 
ATOM     97  C   UNL A   1      46.469  28.227  34.832  1.00  0.00     0.198 A 
ATOM     98  F   UNL A   1      45.531  30.069  33.710  1.00  0.00    -0.203 F 
ATOM     99  F   UNL A   1      44.895  25.424  36.501  1.00  0.00    -0.200 F 
ATOM    100  C   UNL A   1      46.317  27.046  35.542  1.00  0.00     0.200 A 
ATOM    101  F   UNL A   1      47.697  28.702  34.579  1.00  0.00    -0.200 F 
ATOM    102  F   UNL A   1      47.394  26.391  35.995  1.00  0.00    -0.200 F 
ENDBRANCH  69  92
ENDBRANCH  43  44
ENDBRANCH  35  38
ENDBRANCH  33  34
ENDBRANCH  32  33
ENDBRANCH  31  32
ENDBRANCH   1  31
TORSDOF 16
ENDMDL
