MODEL 1
REMARK VINA RESULT:     -11.6      0.000      0.000
REMARK SMILES O=C(NCCCCCCNC(=O)c1cn2ccccc2n1)c1ccc(-c2c3nc(c(-c4c(F)c(F)c(F)c(F)c4F)c4ccc([nH]4)c(-c4c(F)c(F)c(F)c(F)c4F)c4nc(c(-c5c(F)c(F)c(F)c(F)c5F)c5ccc2[nH]5)C=C4)C=C3)cc1
REMARK SMILES IDX 5 1 4 2 3 3 1 4 2 5 22 7 23 8 84 9 24 10 83 11 25 12 26 13
REMARK SMILES IDX 27 14 77 15 28 16 82 17 76 18 78 19 29 20 81 21 75 22 74 23
REMARK SMILES IDX 30 25 62 26 42 27 61 28 43 29 46 30 60 31 79 32 44 33 45 34
REMARK SMILES IDX 59 36 80 37 47 38 31 39 32 40 40 41 33 42 34 43 38 44 41 45
REMARK SMILES IDX 35 46 36 47 39 48 37 49 63 50 64 51 72 52 65 53 66 54 70 55
REMARK SMILES IDX 73 56 67 57 68 58 71 59 69 60 48 61 49 62 57 63 50 64 51 65
REMARK SMILES IDX 55 66 58 67 52 68 53 69 56 70 54 71 6 72 7 73 8 74 9 75
REMARK SMILES IDX 10 76 11 77 12 79 13 80 14 81 21 82 15 83 20 84 16 85 19 86
REMARK SMILES IDX 17 87 18 88
REMARK H PARENT 3 6 78 24 46 35 10 78
REMARK Flexibility Score: inf
ROOT
ATOM      1  C   UNL A   1      31.435  32.164  26.658  1.00  0.00     0.021 C 
ENDROOT
BRANCH   1   2
ATOM      2  C   UNL A   1      32.693  32.840  27.187  1.00  0.00     0.116 C 
BRANCH   2   3
ATOM      3  N   UNL A   1      32.452  34.202  27.628  1.00  0.00    -0.352 N 
ATOM      4  O   UNL A   1      32.597  35.985  29.003  1.00  0.00    -0.269 OA
ATOM      5  C   UNL A   1      33.027  34.885  28.669  1.00  0.00     0.251 C 
ATOM      6  H   UNL A   1      31.784  34.704  27.108  1.00  0.00     0.163 HD
BRANCH   5   7
ATOM      7  C   UNL A   1      34.164  34.288  29.407  1.00  0.00     0.039 A 
ATOM      8  C   UNL A   1      33.949  33.518  30.552  1.00  0.00     0.014 A 
ATOM      9  C   UNL A   1      35.460  34.474  28.919  1.00  0.00     0.014 A 
ATOM     10  C   UNL A   1      35.034  33.014  31.263  1.00  0.00     0.010 A 
ATOM     11  C   UNL A   1      36.546  33.908  29.594  1.00  0.00     0.010 A 
ATOM     12  C   UNL A   1      36.341  33.181  30.777  1.00  0.00    -0.014 A 
BRANCH  12  13
ATOM     13  C   UNL A   1      37.462  32.487  31.454  1.00  0.00     0.031 A 
ATOM     14  C   UNL A   1      38.181  31.340  30.807  1.00  0.00     0.074 A 
ATOM     15  C   UNL A   1      37.826  32.915  32.679  1.00  0.00     0.049 A 
ATOM     16  N   UNL A   1      39.180  30.630  31.268  1.00  0.00    -0.248 NA
ATOM     17  C   UNL A   1      37.719  30.926  29.474  1.00  0.00     0.031 C 
ATOM     18  C   UNL A   1      37.177  34.003  33.414  1.00  0.00     0.029 A 
ATOM     19  N   UNL A   1      38.824  32.496  33.520  1.00  0.00    -0.354 N 
ATOM     20  C   UNL A   1      39.456  29.679  30.295  1.00  0.00     0.074 A 
ATOM     21  C   UNL A   1      38.509  29.890  29.221  1.00  0.00     0.031 C 
ATOM     22  C   UNL A   1      37.810  34.185  34.582  1.00  0.00     0.029 A 
ATOM     23  C   UNL A   1      38.872  33.193  34.702  1.00  0.00     0.049 A 
ATOM     24  H   UNL A   1      39.446  31.766  33.299  1.00  0.00     0.167 HD
ATOM     25  C   UNL A   1      40.417  28.725  30.304  1.00  0.00     0.037 A 
ATOM     26  C   UNL A   1      39.665  33.036  35.777  1.00  0.00     0.037 A 
ATOM     27  C   UNL A   1      41.370  28.539  31.370  1.00  0.00     0.049 A 
ATOM     28  C   UNL A   1      40.710  31.958  35.757  1.00  0.00     0.074 A 
ATOM     29  C   UNL A   1      42.429  27.648  31.434  1.00  0.00     0.029 A 
ATOM     30  N   UNL A   1      41.374  29.249  32.561  1.00  0.00    -0.354 N 
ATOM     31  N   UNL A   1      41.002  31.109  34.803  1.00  0.00    -0.248 NA
ATOM     32  C   UNL A   1      41.532  31.813  36.966  1.00  0.00     0.031 C 
ATOM     33  C   UNL A   1      43.043  27.786  32.682  1.00  0.00     0.029 A 
ATOM     34  C   UNL A   1      42.395  28.793  33.380  1.00  0.00     0.049 A 
ATOM     35  H   UNL A   1      40.745  29.970  32.792  1.00  0.00     0.167 HD
ATOM     36  C   UNL A   1      42.042  30.333  35.291  1.00  0.00     0.074 A 
ATOM     37  C   UNL A   1      42.351  30.832  36.616  1.00  0.00     0.031 C 
ATOM     38  C   UNL A   1      42.678  29.294  34.700  1.00  0.00     0.037 A 
BRANCH  25  39
ATOM     39  C   UNL A   1      40.498  27.791  29.134  1.00  0.00     0.064 A 
ATOM     40  C   UNL A   1      39.695  26.645  29.052  1.00  0.00     0.173 A 
ATOM     41  C   UNL A   1      41.318  28.100  28.038  1.00  0.00     0.173 A 
ATOM     42  F   UNL A   1      38.899  26.303  30.076  1.00  0.00    -0.203 F 
ATOM     43  C   UNL A   1      39.713  25.839  27.916  1.00  0.00     0.198 A 
ATOM     44  C   UNL A   1      41.318  27.303  26.895  1.00  0.00     0.198 A 
ATOM     45  F   UNL A   1      42.100  29.189  28.064  1.00  0.00    -0.203 F 
ATOM     46  F   UNL A   1      38.948  24.739  27.864  1.00  0.00    -0.200 F 
ATOM     47  C   UNL A   1      40.516  26.174  26.835  1.00  0.00     0.200 A 
ATOM     48  F   UNL A   1      42.086  27.635  25.848  1.00  0.00    -0.200 F 
ATOM     49  F   UNL A   1      40.517  25.408  25.735  1.00  0.00    -0.200 F 
ENDBRANCH  25  39
BRANCH  26  50
ATOM     50  C   UNL A   1      39.482  33.907  36.965  1.00  0.00     0.064 A 
ATOM     51  C   UNL A   1      38.725  33.481  38.065  1.00  0.00     0.173 A 
ATOM     52  C   UNL A   1      40.059  35.184  37.022  1.00  0.00     0.173 A 
ATOM     53  F   UNL A   1      38.138  32.276  38.047  1.00  0.00    -0.203 F 
ATOM     54  C   UNL A   1      38.539  34.308  39.170  1.00  0.00     0.198 A 
ATOM     55  C   UNL A   1      39.896  35.998  38.141  1.00  0.00     0.198 A 
ATOM     56  F   UNL A   1      40.795  35.636  35.997  1.00  0.00    -0.203 F 
ATOM     57  F   UNL A   1      37.773  33.895  40.190  1.00  0.00    -0.200 F 
ATOM     58  C   UNL A   1      39.129  35.563  39.211  1.00  0.00     0.200 A 
ATOM     59  F   UNL A   1      40.480  37.203  38.182  1.00  0.00    -0.200 F 
ATOM     60  F   UNL A   1      38.950  36.355  40.276  1.00  0.00    -0.200 F 
ENDBRANCH  26  50
BRANCH  38  61
ATOM     61  C   UNL A   1      43.771  28.634  35.485  1.00  0.00     0.064 A 
ATOM     62  C   UNL A   1      43.499  27.574  36.363  1.00  0.00     0.173 A 
ATOM     63  C   UNL A   1      45.104  29.050  35.344  1.00  0.00     0.173 A 
ATOM     64  F   UNL A   1      42.237  27.155  36.544  1.00  0.00    -0.203 F 
ATOM     65  C   UNL A   1      44.519  26.971  37.092  1.00  0.00     0.198 A 
ATOM     66  C   UNL A   1      46.125  28.426  36.055  1.00  0.00     0.198 A 
ATOM     67  F   UNL A   1      45.414  30.056  34.515  1.00  0.00    -0.203 F 
ATOM     68  F   UNL A   1      44.231  25.993  37.962  1.00  0.00    -0.200 F 
ATOM     69  C   UNL A   1      45.832  27.393  36.934  1.00  0.00     0.200 A 
ATOM     70  F   UNL A   1      47.392  28.829  35.895  1.00  0.00    -0.200 F 
ATOM     71  F   UNL A   1      46.812  26.810  37.635  1.00  0.00    -0.200 F 
ENDBRANCH  38  61
ENDBRANCH  12  13
ENDBRANCH   5   7
ENDBRANCH   2   3
ENDBRANCH   1   2
BRANCH   1  72
ATOM     72  C   UNL A   1      31.589  30.682  26.313  1.00  0.00     0.002 C 
BRANCH  72  73
ATOM     73  C   UNL A   1      32.689  29.936  27.074  1.00  0.00     0.002 C 
BRANCH  73  74
ATOM     74  C   UNL A   1      33.694  29.166  26.210  1.00  0.00     0.021 C 
BRANCH  74  75
ATOM     75  C   UNL A   1      33.224  27.797  25.722  1.00  0.00     0.116 C 
BRANCH  75  76
ATOM     76  N   UNL A   1      33.682  27.513  24.373  1.00  0.00    -0.351 N 
ATOM     77  C   UNL A   1      32.962  27.480  23.206  1.00  0.00     0.271 C 
ATOM     78  H   UNL A   1      34.643  27.317  24.284  1.00  0.00     0.163 HD
ATOM     79  O   UNL A   1      33.506  27.031  22.194  1.00  0.00    -0.267 OA
BRANCH  77  80
ATOM     80  C   UNL A   1      31.591  27.986  23.204  1.00  0.00     0.147 A 
ATOM     81  C   UNL A   1      30.429  27.237  23.291  1.00  0.00     0.127 A 
ATOM     82  N   UNL A   1      31.281  29.332  23.137  1.00  0.00    -0.223 NA
ATOM     83  N   UNL A   1      29.398  28.134  23.223  1.00  0.00    -0.306 N 
ATOM     84  C   UNL A   1      29.967  29.399  23.142  1.00  0.00     0.137 A 
ATOM     85  C   UNL A   1      28.024  27.905  23.212  1.00  0.00     0.093 A 
ATOM     86  C   UNL A   1      29.078  30.508  23.069  1.00  0.00     0.048 A 
ATOM     87  C   UNL A   1      27.186  28.953  23.126  1.00  0.00     0.018 A 
ATOM     88  C   UNL A   1      27.747  30.294  23.058  1.00  0.00     0.005 A 
ENDBRANCH  77  80
ENDBRANCH  75  76
ENDBRANCH  74  75
ENDBRANCH  73  74
ENDBRANCH  72  73
ENDBRANCH   1  72
TORSDOF 13
ENDMDL
MODEL 2
REMARK VINA RESULT:     -11.6      4.104     10.482
REMARK SMILES O=C(NCCCCCCNC(=O)c1cn2ccccc2n1)c1ccc(-c2c3nc(c(-c4c(F)c(F)c(F)c(F)c4F)c4ccc([nH]4)c(-c4c(F)c(F)c(F)c(F)c4F)c4nc(c(-c5c(F)c(F)c(F)c(F)c5F)c5ccc2[nH]5)C=C4)C=C3)cc1
REMARK SMILES IDX 5 1 4 2 3 3 1 4 2 5 22 7 23 8 84 9 24 10 83 11 25 12 26 13
REMARK SMILES IDX 27 14 77 15 28 16 82 17 76 18 78 19 29 20 81 21 75 22 74 23
REMARK SMILES IDX 30 25 62 26 42 27 61 28 43 29 46 30 60 31 79 32 44 33 45 34
REMARK SMILES IDX 59 36 80 37 47 38 31 39 32 40 40 41 33 42 34 43 38 44 41 45
REMARK SMILES IDX 35 46 36 47 39 48 37 49 63 50 64 51 72 52 65 53 66 54 70 55
REMARK SMILES IDX 73 56 67 57 68 58 71 59 69 60 48 61 49 62 57 63 50 64 51 65
REMARK SMILES IDX 55 66 58 67 52 68 53 69 56 70 54 71 6 72 7 73 8 74 9 75
REMARK SMILES IDX 10 76 11 77 12 79 13 80 14 81 21 82 15 83 20 84 16 85 19 86
REMARK SMILES IDX 17 87 18 88
REMARK H PARENT 3 6 78 24 46 35 10 78
REMARK Flexibility Score: inf
ROOT
ATOM      1  C   UNL A   1      35.405  33.382  28.353  1.00  0.00     0.021 C 
ENDROOT
BRANCH   1   2
ATOM      2  C   UNL A   1      34.520  32.409  29.121  1.00  0.00     0.116 C 
BRANCH   2   3
ATOM      3  N   UNL A   1      33.891  31.425  28.256  1.00  0.00    -0.352 N 
ATOM      4  O   UNL A   1      33.812  29.680  26.830  1.00  0.00    -0.269 OA
ATOM      5  C   UNL A   1      34.449  30.325  27.657  1.00  0.00     0.251 C 
ATOM      6  H   UNL A   1      32.934  31.568  28.077  1.00  0.00     0.163 HD
BRANCH   5   7
ATOM      7  C   UNL A   1      35.832  29.918  27.996  1.00  0.00     0.039 A 
ATOM      8  C   UNL A   1      36.883  30.144  27.104  1.00  0.00     0.014 A 
ATOM      9  C   UNL A   1      36.081  29.338  29.243  1.00  0.00     0.014 A 
ATOM     10  C   UNL A   1      38.165  29.703  27.418  1.00  0.00     0.010 A 
ATOM     11  C   UNL A   1      37.381  28.958  29.586  1.00  0.00     0.010 A 
ATOM     12  C   UNL A   1      38.432  29.130  28.672  1.00  0.00    -0.014 A 
BRANCH  12  13
ATOM     13  C   UNL A   1      39.834  28.831  29.051  1.00  0.00     0.031 A 
ATOM     14  C   UNL A   1      40.652  29.794  29.860  1.00  0.00     0.074 A 
ATOM     15  C   UNL A   1      40.364  27.659  28.647  1.00  0.00     0.049 A 
ATOM     16  N   UNL A   1      41.889  29.678  30.271  1.00  0.00    -0.248 NA
ATOM     17  C   UNL A   1      40.005  31.055  30.254  1.00  0.00     0.031 C 
ATOM     18  C   UNL A   1      39.668  26.661  27.832  1.00  0.00     0.029 A 
ATOM     19  N   UNL A   1      41.599  27.107  28.864  1.00  0.00    -0.354 N 
ATOM     20  C   UNL A   1      42.177  30.851  30.957  1.00  0.00     0.074 A 
ATOM     21  C   UNL A   1      40.989  31.677  30.894  1.00  0.00     0.031 C 
ATOM     22  C   UNL A   1      40.474  25.607  27.642  1.00  0.00     0.029 A 
ATOM     23  C   UNL A   1      41.760  25.878  28.273  1.00  0.00     0.049 A 
ATOM     24  H   UNL A   1      42.303  27.548  29.393  1.00  0.00     0.167 HD
ATOM     25  C   UNL A   1      43.327  31.197  31.582  1.00  0.00     0.037 A 
ATOM     26  C   UNL A   1      42.833  25.067  28.222  1.00  0.00     0.037 A 
ATOM     27  C   UNL A   1      44.496  30.357  31.658  1.00  0.00     0.049 A 
ATOM     28  C   UNL A   1      44.096  25.490  28.914  1.00  0.00     0.074 A 
ATOM     29  C   UNL A   1      45.683  30.590  32.334  1.00  0.00     0.029 A 
ATOM     30  N   UNL A   1      44.631  29.129  31.028  1.00  0.00    -0.354 N 
ATOM     31  N   UNL A   1      44.331  26.573  29.614  1.00  0.00    -0.248 NA
ATOM     32  C   UNL A   1      45.245  24.581  28.805  1.00  0.00     0.031 C 
ATOM     33  C   UNL A   1      46.551  29.526  32.074  1.00  0.00     0.029 A 
ATOM     34  C   UNL A   1      45.893  28.608  31.272  1.00  0.00     0.049 A 
ATOM     35  H   UNL A   1      43.934  28.691  30.487  1.00  0.00     0.167 HD
ATOM     36  C   UNL A   1      45.649  26.474  30.032  1.00  0.00     0.074 A 
ATOM     37  C   UNL A   1      46.154  25.211  29.534  1.00  0.00     0.031 C 
ATOM     38  C   UNL A   1      46.380  27.355  30.757  1.00  0.00     0.037 A 
BRANCH  25  39
ATOM     39  C   UNL A   1      43.400  32.544  32.236  1.00  0.00     0.064 A 
ATOM     40  C   UNL A   1      43.698  33.701  31.503  1.00  0.00     0.173 A 
ATOM     41  C   UNL A   1      43.072  32.691  33.593  1.00  0.00     0.173 A 
ATOM     42  F   UNL A   1      44.024  33.614  30.205  1.00  0.00    -0.203 F 
ATOM     43  C   UNL A   1      43.669  34.957  32.106  1.00  0.00     0.198 A 
ATOM     44  C   UNL A   1      43.023  33.949  34.187  1.00  0.00     0.198 A 
ATOM     45  F   UNL A   1      42.772  31.614  34.335  1.00  0.00    -0.203 F 
ATOM     46  F   UNL A   1      43.972  36.049  31.391  1.00  0.00    -0.200 F 
ATOM     47  C   UNL A   1      43.322  35.081  33.444  1.00  0.00     0.200 A 
ATOM     48  F   UNL A   1      42.677  34.068  35.476  1.00  0.00    -0.200 F 
ATOM     49  F   UNL A   1      43.275  36.292  34.017  1.00  0.00    -0.200 F 
ENDBRANCH  25  39
BRANCH  26  50
ATOM     50  C   UNL A   1      42.760  23.790  27.468  1.00  0.00     0.064 A 
ATOM     51  C   UNL A   1      42.312  22.613  28.082  1.00  0.00     0.173 A 
ATOM     52  C   UNL A   1      43.140  23.723  26.120  1.00  0.00     0.173 A 
ATOM     53  F   UNL A   1      41.957  22.624  29.374  1.00  0.00    -0.203 F 
ATOM     54  C   UNL A   1      42.263  21.412  27.378  1.00  0.00     0.198 A 
ATOM     55  C   UNL A   1      43.062  22.528  25.409  1.00  0.00     0.198 A 
ATOM     56  F   UNL A   1      43.572  24.823  25.487  1.00  0.00    -0.203 F 
ATOM     57  F   UNL A   1      41.874  20.290  28.000  1.00  0.00    -0.200 F 
ATOM     58  C   UNL A   1      42.632  21.371  26.041  1.00  0.00     0.200 A 
ATOM     59  F   UNL A   1      43.405  22.496  24.115  1.00  0.00    -0.200 F 
ATOM     60  F   UNL A   1      42.582  20.215  25.365  1.00  0.00    -0.200 F 
ENDBRANCH  26  50
BRANCH  38  61
ATOM     61  C   UNL A   1      47.800  26.976  31.052  1.00  0.00     0.064 A 
ATOM     62  C   UNL A   1      48.123  26.154  32.141  1.00  0.00     0.173 A 
ATOM     63  C   UNL A   1      48.844  27.422  30.228  1.00  0.00     0.173 A 
ATOM     64  F   UNL A   1      47.160  25.719  32.967  1.00  0.00    -0.203 F 
ATOM     65  C   UNL A   1      49.445  25.812  32.410  1.00  0.00     0.198 A 
ATOM     66  C   UNL A   1      50.162  27.057  30.485  1.00  0.00     0.198 A 
ATOM     67  F   UNL A   1      48.585  28.208  29.173  1.00  0.00    -0.203 F 
ATOM     68  F   UNL A   1      49.736  25.065  33.485  1.00  0.00    -0.200 F 
ATOM     69  C   UNL A   1      50.462  26.258  31.579  1.00  0.00     0.200 A 
ATOM     70  F   UNL A   1      51.142  27.481  29.677  1.00  0.00    -0.200 F 
ATOM     71  F   UNL A   1      51.734  25.927  31.839  1.00  0.00    -0.200 F 
ENDBRANCH  38  61
ENDBRANCH  12  13
ENDBRANCH   5   7
ENDBRANCH   2   3
ENDBRANCH   1   2
BRANCH   1  72
ATOM     72  C   UNL A   1      36.880  33.373  28.755  1.00  0.00     0.002 C 
BRANCH  72  73
ATOM     73  C   UNL A   1      37.165  33.054  30.226  1.00  0.00     0.002 C 
BRANCH  73  74
ATOM     74  C   UNL A   1      37.040  34.230  31.200  1.00  0.00     0.021 C 
BRANCH  74  75
ATOM     75  C   UNL A   1      38.025  34.222  32.367  1.00  0.00     0.116 C 
BRANCH  75  76
ATOM     76  N   UNL A   1      37.351  34.107  33.649  1.00  0.00    -0.351 N 
ATOM     77  C   UNL A   1      37.141  32.991  34.418  1.00  0.00     0.271 C 
ATOM     78  H   UNL A   1      36.996  34.949  34.017  1.00  0.00     0.163 HD
ATOM     79  O   UNL A   1      36.379  33.079  35.383  1.00  0.00    -0.267 OA
BRANCH  77  80
ATOM     80  C   UNL A   1      37.833  31.751  34.072  1.00  0.00     0.147 A 
ATOM     81  C   UNL A   1      39.119  31.387  34.441  1.00  0.00     0.127 A 
ATOM     82  N   UNL A   1      37.253  30.742  33.325  1.00  0.00    -0.223 NA
ATOM     83  N   UNL A   1      39.342  30.166  33.866  1.00  0.00    -0.306 N 
ATOM     84  C   UNL A   1      38.172  29.809  33.207  1.00  0.00     0.137 A 
ATOM     85  C   UNL A   1      40.491  29.378  33.878  1.00  0.00     0.093 A 
ATOM     86  C   UNL A   1      38.163  28.555  32.532  1.00  0.00     0.048 A 
ATOM     87  C   UNL A   1      40.485  28.202  33.225  1.00  0.00     0.018 A 
ATOM     88  C   UNL A   1      39.271  27.788  32.539  1.00  0.00     0.005 A 
ENDBRANCH  77  80
ENDBRANCH  75  76
ENDBRANCH  74  75
ENDBRANCH  73  74
ENDBRANCH  72  73
ENDBRANCH   1  72
TORSDOF 13
ENDMDL
MODEL 3
REMARK VINA RESULT:     -11.6      1.793      3.158
REMARK SMILES O=C(NCCCCCCNC(=O)c1cn2ccccc2n1)c1ccc(-c2c3nc(c(-c4c(F)c(F)c(F)c(F)c4F)c4ccc([nH]4)c(-c4c(F)c(F)c(F)c(F)c4F)c4nc(c(-c5c(F)c(F)c(F)c(F)c5F)c5ccc2[nH]5)C=C4)C=C3)cc1
REMARK SMILES IDX 5 1 4 2 3 3 1 4 2 5 22 7 23 8 84 9 24 10 83 11 25 12 26 13
REMARK SMILES IDX 27 14 77 15 28 16 82 17 76 18 78 19 29 20 81 21 75 22 74 23
REMARK SMILES IDX 30 25 62 26 42 27 61 28 43 29 46 30 60 31 79 32 44 33 45 34
REMARK SMILES IDX 59 36 80 37 47 38 31 39 32 40 40 41 33 42 34 43 38 44 41 45
REMARK SMILES IDX 35 46 36 47 39 48 37 49 63 50 64 51 72 52 65 53 66 54 70 55
REMARK SMILES IDX 73 56 67 57 68 58 71 59 69 60 48 61 49 62 57 63 50 64 51 65
REMARK SMILES IDX 55 66 58 67 52 68 53 69 56 70 54 71 6 72 7 73 8 74 9 75
REMARK SMILES IDX 10 76 11 77 12 79 13 80 14 81 21 82 15 83 20 84 16 85 19 86
REMARK SMILES IDX 17 87 18 88
REMARK H PARENT 3 6 78 24 46 35 10 78
REMARK Flexibility Score: inf
ROOT
ATOM      1  C   UNL A   1      31.344  31.945  26.424  1.00  0.00     0.021 C 
ENDROOT
BRANCH   1   2
ATOM      2  C   UNL A   1      32.530  32.513  27.192  1.00  0.00     0.116 C 
BRANCH   2   3
ATOM      3  N   UNL A   1      32.352  33.912  27.539  1.00  0.00    -0.352 N 
ATOM      4  O   UNL A   1      32.632  35.790  28.758  1.00  0.00    -0.269 OA
ATOM      5  C   UNL A   1      33.011  34.655  28.486  1.00  0.00     0.251 C 
ATOM      6  H   UNL A   1      31.665  34.393  27.024  1.00  0.00     0.163 HD
BRANCH   5   7
ATOM      7  C   UNL A   1      34.177  34.081  29.196  1.00  0.00     0.039 A 
ATOM      8  C   UNL A   1      34.004  33.142  30.215  1.00  0.00     0.014 A 
ATOM      9  C   UNL A   1      35.463  34.465  28.806  1.00  0.00     0.014 A 
ATOM     10  C   UNL A   1      35.110  32.659  30.908  1.00  0.00     0.010 A 
ATOM     11  C   UNL A   1      36.577  33.926  29.456  1.00  0.00     0.010 A 
ATOM     12  C   UNL A   1      36.408  33.025  30.518  1.00  0.00    -0.014 A 
BRANCH  12  13
ATOM     13  C   UNL A   1      37.572  32.363  31.154  1.00  0.00     0.031 A 
ATOM     14  C   UNL A   1      38.303  31.241  30.479  1.00  0.00     0.074 A 
ATOM     15  C   UNL A   1      37.963  32.797  32.369  1.00  0.00     0.049 A 
ATOM     16  N   UNL A   1      39.338  30.561  30.903  1.00  0.00    -0.248 NA
ATOM     17  C   UNL A   1      37.810  30.819  29.159  1.00  0.00     0.031 C 
ATOM     18  C   UNL A   1      37.306  33.862  33.130  1.00  0.00     0.029 A 
ATOM     19  N   UNL A   1      39.000  32.406  33.174  1.00  0.00    -0.354 N 
ATOM     20  C   UNL A   1      39.611  29.623  29.917  1.00  0.00     0.074 A 
ATOM     21  C   UNL A   1      38.623  29.808  28.875  1.00  0.00     0.031 C 
ATOM     22  C   UNL A   1      37.971  34.059  34.278  1.00  0.00     0.029 A 
ATOM     23  C   UNL A   1      39.066  33.100  34.358  1.00  0.00     0.049 A 
ATOM     24  H   UNL A   1      39.637  31.696  32.929  1.00  0.00     0.167 HD
ATOM     25  C   UNL A   1      40.600  28.698  29.889  1.00  0.00     0.037 A 
ATOM     26  C   UNL A   1      39.899  32.962  35.406  1.00  0.00     0.037 A 
ATOM     27  C   UNL A   1      41.593  28.537  30.922  1.00  0.00     0.049 A 
ATOM     28  C   UNL A   1      40.974  31.917  35.346  1.00  0.00     0.074 A 
ATOM     29  C   UNL A   1      42.680  27.679  30.947  1.00  0.00     0.029 A 
ATOM     30  N   UNL A   1      41.615  29.242  32.116  1.00  0.00    -0.354 N 
ATOM     31  N   UNL A   1      41.261  31.081  34.378  1.00  0.00    -0.248 NA
ATOM     32  C   UNL A   1      41.840  31.792  36.526  1.00  0.00     0.031 C 
ATOM     33  C   UNL A   1      43.331  27.831  32.175  1.00  0.00     0.029 A 
ATOM     34  C   UNL A   1      42.676  28.814  32.899  1.00  0.00     0.049 A 
ATOM     35  H   UNL A   1      40.972  29.943  32.371  1.00  0.00     0.167 HD
ATOM     36  C   UNL A   1      42.339  30.335  34.828  1.00  0.00     0.074 A 
ATOM     37  C   UNL A   1      42.677  30.838  36.144  1.00  0.00     0.031 C 
ATOM     38  C   UNL A   1      42.987  29.319  34.211  1.00  0.00     0.037 A 
BRANCH  25  39
ATOM     39  C   UNL A   1      40.671  27.772  28.713  1.00  0.00     0.064 A 
ATOM     40  C   UNL A   1      39.888  26.611  28.643  1.00  0.00     0.173 A 
ATOM     41  C   UNL A   1      41.459  28.102  27.599  1.00  0.00     0.173 A 
ATOM     42  F   UNL A   1      39.123  26.249  29.684  1.00  0.00    -0.203 F 
ATOM     43  C   UNL A   1      39.894  25.811  27.502  1.00  0.00     0.198 A 
ATOM     44  C   UNL A   1      41.447  27.311  26.452  1.00  0.00     0.198 A 
ATOM     45  F   UNL A   1      42.221  29.205  27.613  1.00  0.00    -0.203 F 
ATOM     46  F   UNL A   1      39.149  24.697  27.463  1.00  0.00    -0.200 F 
ATOM     47  C   UNL A   1      40.665  26.167  26.405  1.00  0.00     0.200 A 
ATOM     48  F   UNL A   1      42.184  27.662  25.389  1.00  0.00    -0.200 F 
ATOM     49  F   UNL A   1      40.654  25.407  25.301  1.00  0.00    -0.200 F 
ENDBRANCH  25  39
BRANCH  26  50
ATOM     50  C   UNL A   1      39.729  33.822  36.603  1.00  0.00     0.064 A 
ATOM     51  C   UNL A   1      40.370  35.064  36.699  1.00  0.00     0.173 A 
ATOM     52  C   UNL A   1      38.923  33.416  37.677  1.00  0.00     0.173 A 
ATOM     53  F   UNL A   1      41.166  35.486  35.707  1.00  0.00    -0.203 F 
ATOM     54  C   UNL A   1      40.224  35.860  37.833  1.00  0.00     0.198 A 
ATOM     55  C   UNL A   1      38.754  34.227  38.797  1.00  0.00     0.198 A 
ATOM     56  F   UNL A   1      38.285  32.238  37.632  1.00  0.00    -0.203 F 
ATOM     57  F   UNL A   1      40.884  37.024  37.920  1.00  0.00    -0.200 F 
ATOM     58  C   UNL A   1      39.412  35.445  38.879  1.00  0.00     0.200 A 
ATOM     59  F   UNL A   1      37.957  33.828  39.797  1.00  0.00    -0.200 F 
ATOM     60  F   UNL A   1      39.271  36.213  39.967  1.00  0.00    -0.200 F 
ENDBRANCH  26  50
BRANCH  38  61
ATOM     61  C   UNL A   1      44.126  28.689  34.956  1.00  0.00     0.064 A 
ATOM     62  C   UNL A   1      43.926  27.572  35.781  1.00  0.00     0.173 A 
ATOM     63  C   UNL A   1      45.428  29.194  34.830  1.00  0.00     0.173 A 
ATOM     64  F   UNL A   1      42.695  27.066  35.946  1.00  0.00    -0.203 F 
ATOM     65  C   UNL A   1      44.988  26.998  36.473  1.00  0.00     0.198 A 
ATOM     66  C   UNL A   1      46.492  28.600  35.504  1.00  0.00     0.198 A 
ATOM     67  F   UNL A   1      45.669  30.258  34.051  1.00  0.00    -0.203 F 
ATOM     68  F   UNL A   1      44.767  25.961  37.294  1.00  0.00    -0.200 F 
ATOM     69  C   UNL A   1      46.270  27.508  36.330  1.00  0.00     0.200 A 
ATOM     70  F   UNL A   1      47.731  29.088  35.358  1.00  0.00    -0.200 F 
ATOM     71  F   UNL A   1      47.290  26.952  36.997  1.00  0.00    -0.200 F 
ENDBRANCH  38  61
ENDBRANCH  12  13
ENDBRANCH   5   7
ENDBRANCH   2   3
ENDBRANCH   1   2
BRANCH   1  72
ATOM     72  C   UNL A   1      31.489  30.487  25.988  1.00  0.00     0.002 C 
BRANCH  72  73
ATOM     73  C   UNL A   1      32.339  29.603  26.906  1.00  0.00     0.002 C 
BRANCH  73  74
ATOM     74  C   UNL A   1      31.689  28.291  27.360  1.00  0.00     0.021 C 
BRANCH  74  75
ATOM     75  C   UNL A   1      31.926  27.092  26.444  1.00  0.00     0.116 C 
BRANCH  75  76
ATOM     76  N   UNL A   1      31.258  25.896  26.929  1.00  0.00    -0.351 N 
ATOM     77  C   UNL A   1      31.534  24.581  26.654  1.00  0.00     0.271 C 
ATOM     78  H   UNL A   1      30.502  26.052  27.541  1.00  0.00     0.163 HD
ATOM     79  O   UNL A   1      30.726  23.724  27.018  1.00  0.00    -0.267 OA
BRANCH  77  80
ATOM     80  C   UNL A   1      32.773  24.248  25.954  1.00  0.00     0.147 A 
ATOM     81  C   UNL A   1      32.911  23.937  24.610  1.00  0.00     0.127 A 
ATOM     82  N   UNL A   1      34.011  24.229  26.571  1.00  0.00    -0.223 NA
ATOM     83  N   UNL A   1      34.240  23.672  24.421  1.00  0.00    -0.306 N 
ATOM     84  C   UNL A   1      34.871  23.876  25.642  1.00  0.00     0.137 A 
ATOM     85  C   UNL A   1      34.905  23.259  23.269  1.00  0.00     0.093 A 
ATOM     86  C   UNL A   1      36.279  23.667  25.688  1.00  0.00     0.048 A 
ATOM     87  C   UNL A   1      36.231  23.046  23.320  1.00  0.00     0.018 A 
ATOM     88  C   UNL A   1      36.929  23.266  24.577  1.00  0.00     0.005 A 
ENDBRANCH  77  80
ENDBRANCH  75  76
ENDBRANCH  74  75
ENDBRANCH  73  74
ENDBRANCH  72  73
ENDBRANCH   1  72
TORSDOF 13
ENDMDL
