MODEL 1
REMARK VINA RESULT:     -12.2      0.000      0.000
REMARK SMILES CN(CC(=O)NCCCCCCNC(=O)c1ccc(-c2c3nc(c(-c4c(F)c(F)c(F)c(F)c4F)c4ccc([nH]4)c(-c4c(F)c(F)c(F)c(F)c4F)c4nc(c(-c5c(F)c(F)c(F)c(F)c5F)c5ccc2[nH]5)C=C4)C=C3)cc1)c1nc2cc(N)ccc2[nH]1
REMARK SMILES IDX 9 1 8 2 7 3 6 4 4 5 5 6 3 8 2 9 1 10 79 11 80 12 88 13 81 14
REMARK SMILES IDX 87 15 82 17 86 18 83 19 85 20 84 21 10 24 11 25 12 26 13 27
REMARK SMILES IDX 14 28 15 30 16 31 17 32 78 33 18 34 77 35 19 36 20 37 21 38
REMARK SMILES IDX 71 39 22 40 76 41 70 42 72 43 23 44 75 45 69 46 68 47 24 49
REMARK SMILES IDX 56 50 36 51 55 52 37 53 40 54 54 55 73 56 38 57 39 58 53 60
REMARK SMILES IDX 74 61 41 62 25 63 26 64 34 65 27 66 28 67 32 68 35 69 29 70
REMARK SMILES IDX 30 71 33 72 31 73 57 74 58 75 66 76 59 77 60 78 64 79 67 80
REMARK SMILES IDX 61 81 62 82 65 83 63 84 42 85 43 86 51 87 44 88 45 89 49 90
REMARK SMILES IDX 52 91 46 92 47 93 50 94 48 95
REMARK H PARENT 6 7 88 16 84 22 84 23 13 29 72 48 40 59
REMARK Flexibility Score: inf
ROOT
ATOM      1  C   UNL A   1      32.512  29.837  27.101  1.00  0.00     0.002 C 
ENDROOT
BRANCH   1   2
ATOM      2  C   UNL A   1      31.848  28.533  27.562  1.00  0.00     0.021 C 
BRANCH   2   3
ATOM      3  C   UNL A   1      31.789  27.445  26.494  1.00  0.00     0.116 C 
BRANCH   3   4
ATOM      4  N   UNL A   1      31.208  26.219  26.983  1.00  0.00    -0.355 N 
ATOM      5  C   UNL A   1      31.314  24.960  26.454  1.00  0.00     0.239 C 
ATOM      6  O   UNL A   1      30.869  24.017  27.115  1.00  0.00    -0.273 OA
ATOM      7  H   UNL A   1      30.665  26.297  27.801  1.00  0.00     0.163 HD
BRANCH   5   8
ATOM      8  C   UNL A   1      32.092  24.744  25.146  1.00  0.00     0.219 C 
BRANCH   8   9
ATOM      9  N   UNL A   1      31.257  24.652  23.929  1.00  0.00    -0.336 N 
ATOM     10  C   UNL A   1      30.950  23.349  23.381  1.00  0.00     0.147 C 
BRANCH   9  11
ATOM     11  C   UNL A   1      30.666  25.795  23.503  1.00  0.00     0.204 A 
ATOM     12  N   UNL A   1      31.262  26.802  22.916  1.00  0.00    -0.213 NA
ATOM     13  N   UNL A   1      29.334  26.077  23.700  1.00  0.00    -0.324 N 
ATOM     14  C   UNL A   1      30.325  27.788  22.798  1.00  0.00     0.093 A 
ATOM     15  C   UNL A   1      29.105  27.374  23.311  1.00  0.00     0.067 A 
ATOM     16  H   UNL A   1      28.661  25.456  24.060  1.00  0.00     0.170 HD
ATOM     17  C   UNL A   1      30.464  29.081  22.278  1.00  0.00     0.056 A 
ATOM     18  C   UNL A   1      27.988  28.207  23.363  1.00  0.00     0.030 A 
ATOM     19  C   UNL A   1      29.382  29.964  22.353  1.00  0.00     0.034 A 
ATOM     20  C   UNL A   1      28.160  29.512  22.867  1.00  0.00     0.028 A 
BRANCH  19  21
ATOM     21  N   UNL A   1      29.494  31.237  21.812  1.00  0.00    -0.399 N 
ATOM     22  H   UNL A   1      29.574  32.019  22.404  1.00  0.00     0.156 HD
ATOM     23  H   UNL A   1      29.494  31.359  20.835  1.00  0.00     0.156 HD
ENDBRANCH  19  21
ENDBRANCH   9  11
ENDBRANCH   8   9
ENDBRANCH   5   8
ENDBRANCH   3   4
ENDBRANCH   2   3
ENDBRANCH   1   2
BRANCH   1  24
ATOM     24  C   UNL A   1      31.672  30.701  26.155  1.00  0.00     0.002 C 
BRANCH  24  25
ATOM     25  C   UNL A   1      31.428  32.135  26.629  1.00  0.00     0.021 C 
BRANCH  25  26
ATOM     26  C   UNL A   1      32.613  32.778  27.338  1.00  0.00     0.116 C 
BRANCH  26  27
ATOM     27  N   UNL A   1      32.382  34.184  27.631  1.00  0.00    -0.352 N 
ATOM     28  C   UNL A   1      32.976  34.986  28.576  1.00  0.00     0.251 C 
ATOM     29  H   UNL A   1      31.701  34.624  27.073  1.00  0.00     0.163 HD
ATOM     30  O   UNL A   1      32.529  36.098  28.820  1.00  0.00    -0.269 OA
BRANCH  28  31
ATOM     31  C   UNL A   1      34.155  34.487  29.316  1.00  0.00     0.039 A 
ATOM     32  C   UNL A   1      33.964  33.849  30.545  1.00  0.00     0.014 A 
ATOM     33  C   UNL A   1      35.442  34.643  28.797  1.00  0.00     0.014 A 
ATOM     34  C   UNL A   1      35.060  33.304  31.219  1.00  0.00     0.010 A 
ATOM     35  C   UNL A   1      36.521  34.034  29.428  1.00  0.00     0.010 A 
ATOM     36  C   UNL A   1      36.341  33.358  30.646  1.00  0.00    -0.014 A 
BRANCH  36  37
ATOM     37  C   UNL A   1      37.511  32.717  31.299  1.00  0.00     0.031 A 
ATOM     38  C   UNL A   1      38.213  31.570  30.625  1.00  0.00     0.074 A 
ATOM     39  C   UNL A   1      37.894  33.117  32.528  1.00  0.00     0.049 A 
ATOM     40  N   UNL A   1      39.178  30.809  31.075  1.00  0.00    -0.248 NA
ATOM     41  C   UNL A   1      37.749  31.217  29.274  1.00  0.00     0.031 C 
ATOM     42  C   UNL A   1      37.273  34.195  33.298  1.00  0.00     0.029 A 
ATOM     43  N   UNL A   1      38.887  32.649  33.353  1.00  0.00    -0.354 N 
ATOM     44  C   UNL A   1      39.428  29.884  30.071  1.00  0.00     0.074 A 
ATOM     45  C   UNL A   1      38.473  30.139  29.014  1.00  0.00     0.031 C 
ATOM     46  C   UNL A   1      37.910  34.318  34.473  1.00  0.00     0.029 A 
ATOM     47  C   UNL A   1      38.950  33.298  34.561  1.00  0.00     0.049 A 
ATOM     48  H   UNL A   1      39.496  31.917  33.101  1.00  0.00     0.167 HD
ATOM     49  C   UNL A   1      40.382  28.923  30.024  1.00  0.00     0.037 A 
ATOM     50  C   UNL A   1      39.745  33.083  35.627  1.00  0.00     0.037 A 
ATOM     51  C   UNL A   1      41.337  28.682  31.075  1.00  0.00     0.049 A 
ATOM     52  C   UNL A   1      40.770  31.980  35.567  1.00  0.00     0.074 A 
ATOM     53  C   UNL A   1      42.368  27.761  31.107  1.00  0.00     0.029 A 
ATOM     54  N   UNL A   1      41.373  29.366  32.282  1.00  0.00    -0.354 N 
ATOM     55  N   UNL A   1      41.034  31.147  34.589  1.00  0.00    -0.248 NA
ATOM     56  C   UNL A   1      41.608  31.787  36.759  1.00  0.00     0.031 C 
ATOM     57  C   UNL A   1      42.993  27.848  32.354  1.00  0.00     0.029 A 
ATOM     58  C   UNL A   1      42.394  28.868  33.075  1.00  0.00     0.049 A 
ATOM     59  H   UNL A   1      40.764  30.096  32.536  1.00  0.00     0.167 HD
ATOM     60  C   UNL A   1      42.090  30.362  35.032  1.00  0.00     0.074 A 
ATOM     61  C   UNL A   1      42.425  30.823  36.363  1.00  0.00     0.031 C 
ATOM     62  C   UNL A   1      42.728  29.350  34.392  1.00  0.00     0.037 A 
BRANCH  49  63
ATOM     63  C   UNL A   1      40.441  28.061  28.796  1.00  0.00     0.064 A 
ATOM     64  C   UNL A   1      41.196  28.433  27.672  1.00  0.00     0.173 A 
ATOM     65  C   UNL A   1      39.767  26.831  28.754  1.00  0.00     0.173 A 
ATOM     66  F   UNL A   1      41.852  29.602  27.655  1.00  0.00    -0.203 F 
ATOM     67  C   UNL A   1      41.247  27.621  26.542  1.00  0.00     0.198 A 
ATOM     68  C   UNL A   1      39.849  26.005  27.636  1.00  0.00     0.198 A 
ATOM     69  F   UNL A   1      39.037  26.423  29.802  1.00  0.00    -0.203 F 
ATOM     70  F   UNL A   1      41.930  28.022  25.460  1.00  0.00    -0.200 F 
ATOM     71  C   UNL A   1      40.580  26.405  26.527  1.00  0.00     0.200 A 
ATOM     72  F   UNL A   1      39.217  24.824  27.629  1.00  0.00    -0.200 F 
ATOM     73  F   UNL A   1      40.637  25.621  25.442  1.00  0.00    -0.200 F 
ENDBRANCH  49  63
BRANCH  50  74
ATOM     74  C   UNL A   1      39.615  33.931  36.843  1.00  0.00     0.064 A 
ATOM     75  C   UNL A   1      38.831  33.517  37.929  1.00  0.00     0.173 A 
ATOM     76  C   UNL A   1      40.251  35.177  36.938  1.00  0.00     0.173 A 
ATOM     77  F   UNL A   1      38.187  32.342  37.880  1.00  0.00    -0.203 F 
ATOM     78  C   UNL A   1      38.664  34.329  39.049  1.00  0.00     0.198 A 
ATOM     79  C   UNL A   1      40.110  35.974  38.072  1.00  0.00     0.198 A 
ATOM     80  F   UNL A   1      41.017  35.620  35.929  1.00  0.00    -0.203 F 
ATOM     81  F   UNL A   1      37.862  33.933  40.047  1.00  0.00    -0.200 F 
ATOM     82  C   UNL A   1      39.308  35.554  39.122  1.00  0.00     0.200 A 
ATOM     83  F   UNL A   1      40.747  37.151  38.144  1.00  0.00    -0.200 F 
ATOM     84  F   UNL A   1      39.146  36.336  40.198  1.00  0.00    -0.200 F 
ENDBRANCH  50  74
BRANCH  62  85
ATOM     85  C   UNL A   1      43.885  28.703  35.096  1.00  0.00     0.064 A 
ATOM     86  C   UNL A   1      45.195  29.187  34.967  1.00  0.00     0.173 A 
ATOM     87  C   UNL A   1      43.669  27.615  35.958  1.00  0.00     0.173 A 
ATOM     88  F   UNL A   1      45.458  30.214  34.144  1.00  0.00    -0.203 F 
ATOM     89  C   UNL A   1      46.249  28.592  35.657  1.00  0.00     0.198 A 
ATOM     90  C   UNL A   1      44.719  27.046  36.673  1.00  0.00     0.198 A 
ATOM     91  F   UNL A   1      42.434  27.118  36.123  1.00  0.00    -0.203 F 
ATOM     92  F   UNL A   1      47.499  29.042  35.483  1.00  0.00    -0.200 F 
ATOM     93  C   UNL A   1      46.009  27.530  36.516  1.00  0.00     0.200 A 
ATOM     94  F   UNL A   1      44.481  26.031  37.515  1.00  0.00    -0.200 F 
ATOM     95  F   UNL A   1      47.022  26.969  37.190  1.00  0.00    -0.200 F 
ENDBRANCH  62  85
ENDBRANCH  36  37
ENDBRANCH  28  31
ENDBRANCH  26  27
ENDBRANCH  25  26
ENDBRANCH  24  25
ENDBRANCH   1  24
TORSDOF 16
ENDMDL
MODEL 2
REMARK VINA RESULT:     -12.1      1.023      2.421
REMARK SMILES CN(CC(=O)NCCCCCCNC(=O)c1ccc(-c2c3nc(c(-c4c(F)c(F)c(F)c(F)c4F)c4ccc([nH]4)c(-c4c(F)c(F)c(F)c(F)c4F)c4nc(c(-c5c(F)c(F)c(F)c(F)c5F)c5ccc2[nH]5)C=C4)C=C3)cc1)c1nc2cc(N)ccc2[nH]1
REMARK SMILES IDX 9 1 8 2 7 3 6 4 4 5 5 6 3 8 2 9 1 10 79 11 80 12 88 13 81 14
REMARK SMILES IDX 87 15 82 17 86 18 83 19 85 20 84 21 10 24 11 25 12 26 13 27
REMARK SMILES IDX 14 28 15 30 16 31 17 32 78 33 18 34 77 35 19 36 20 37 21 38
REMARK SMILES IDX 71 39 22 40 76 41 70 42 72 43 23 44 75 45 69 46 68 47 24 49
REMARK SMILES IDX 56 50 36 51 55 52 37 53 40 54 54 55 73 56 38 57 39 58 53 60
REMARK SMILES IDX 74 61 41 62 25 63 26 64 34 65 27 66 28 67 32 68 35 69 29 70
REMARK SMILES IDX 30 71 33 72 31 73 57 74 58 75 66 76 59 77 60 78 64 79 67 80
REMARK SMILES IDX 61 81 62 82 65 83 63 84 42 85 43 86 51 87 44 88 45 89 49 90
REMARK SMILES IDX 52 91 46 92 47 93 50 94 48 95
REMARK H PARENT 6 7 88 16 84 22 84 23 13 29 72 48 40 59
REMARK Flexibility Score: inf
ROOT
ATOM      1  C   UNL A   1      32.848  29.958  27.258  1.00  0.00     0.002 C 
ENDROOT
BRANCH   1   2
ATOM      2  C   UNL A   1      34.024  29.412  26.438  1.00  0.00     0.021 C 
BRANCH   2   3
ATOM      3  C   UNL A   1      33.617  28.690  25.156  1.00  0.00     0.116 C 
BRANCH   3   4
ATOM      4  N   UNL A   1      33.370  27.284  25.366  1.00  0.00    -0.355 N 
ATOM      5  C   UNL A   1      32.200  26.594  25.195  1.00  0.00     0.239 C 
ATOM      6  O   UNL A   1      32.238  25.363  25.277  1.00  0.00    -0.273 OA
ATOM      7  H   UNL A   1      34.141  26.753  25.672  1.00  0.00     0.163 HD
BRANCH   5   8
ATOM      8  C   UNL A   1      30.925  27.344  24.775  1.00  0.00     0.219 C 
BRANCH   8   9
ATOM      9  N   UNL A   1      30.841  27.678  23.337  1.00  0.00    -0.336 N 
ATOM     10  C   UNL A   1      31.373  26.749  22.365  1.00  0.00     0.147 C 
BRANCH   9  11
ATOM     11  C   UNL A   1      30.095  28.759  23.001  1.00  0.00     0.204 A 
ATOM     12  N   UNL A   1      29.590  29.015  21.821  1.00  0.00    -0.213 NA
ATOM     13  N   UNL A   1      29.823  29.790  23.871  1.00  0.00    -0.324 N 
ATOM     14  C   UNL A   1      29.046  30.264  21.897  1.00  0.00     0.093 A 
ATOM     15  C   UNL A   1      29.203  30.795  23.168  1.00  0.00     0.067 A 
ATOM     16  H   UNL A   1      30.036  29.805  24.831  1.00  0.00     0.170 HD
ATOM     17  C   UNL A   1      28.420  31.018  20.897  1.00  0.00     0.056 A 
ATOM     18  C   UNL A   1      28.784  32.082  23.505  1.00  0.00     0.030 A 
ATOM     19  C   UNL A   1      28.027  32.330  21.179  1.00  0.00     0.034 A 
ATOM     20  C   UNL A   1      28.190  32.833  22.476  1.00  0.00     0.028 A 
BRANCH  19  21
ATOM     21  N   UNL A   1      27.375  33.077  20.207  1.00  0.00    -0.399 N 
ATOM     22  H   UNL A   1      27.287  34.051  20.312  1.00  0.00     0.156 HD
ATOM     23  H   UNL A   1      27.001  32.632  19.412  1.00  0.00     0.156 HD
ENDBRANCH  19  21
ENDBRANCH   9  11
ENDBRANCH   8   9
ENDBRANCH   5   8
ENDBRANCH   3   4
ENDBRANCH   2   3
ENDBRANCH   1   2
BRANCH   1  24
ATOM     24  C   UNL A   1      31.731  30.617  26.442  1.00  0.00     0.002 C 
BRANCH  24  25
ATOM     25  C   UNL A   1      31.541  32.114  26.691  1.00  0.00     0.021 C 
BRANCH  25  26
ATOM     26  C   UNL A   1      32.754  32.815  27.290  1.00  0.00     0.116 C 
BRANCH  26  27
ATOM     27  N   UNL A   1      32.476  34.202  27.628  1.00  0.00    -0.352 N 
ATOM     28  C   UNL A   1      33.013  34.979  28.626  1.00  0.00     0.251 C 
ATOM     29  H   UNL A   1      31.804  34.647  27.063  1.00  0.00     0.163 HD
ATOM     30  O   UNL A   1      32.528  36.070  28.896  1.00  0.00    -0.269 OA
BRANCH  28  31
ATOM     31  C   UNL A   1      34.175  34.480  29.392  1.00  0.00     0.039 A 
ATOM     32  C   UNL A   1      33.962  33.885  30.637  1.00  0.00     0.014 A 
ATOM     33  C   UNL A   1      35.469  34.593  28.878  1.00  0.00     0.014 A 
ATOM     34  C   UNL A   1      35.041  33.340  31.337  1.00  0.00     0.010 A 
ATOM     35  C   UNL A   1      36.531  33.982  29.537  1.00  0.00     0.010 A 
ATOM     36  C   UNL A   1      36.328  33.349  30.773  1.00  0.00    -0.014 A 
BRANCH  36  37
ATOM     37  C   UNL A   1      37.479  32.705  31.456  1.00  0.00     0.031 A 
ATOM     38  C   UNL A   1      38.176  31.537  30.814  1.00  0.00     0.074 A 
ATOM     39  C   UNL A   1      37.849  33.122  32.683  1.00  0.00     0.049 A 
ATOM     40  N   UNL A   1      39.123  30.771  31.292  1.00  0.00    -0.248 NA
ATOM     41  C   UNL A   1      37.727  31.164  29.463  1.00  0.00     0.031 C 
ATOM     42  C   UNL A   1      37.232  34.223  33.423  1.00  0.00     0.029 A 
ATOM     43  N   UNL A   1      38.824  32.657  33.531  1.00  0.00    -0.354 N 
ATOM     44  C   UNL A   1      39.376  29.824  30.309  1.00  0.00     0.074 A 
ATOM     45  C   UNL A   1      38.440  30.072  29.233  1.00  0.00     0.031 C 
ATOM     46  C   UNL A   1      37.853  34.360  34.605  1.00  0.00     0.029 A 
ATOM     47  C   UNL A   1      38.878  33.328  34.728  1.00  0.00     0.049 A 
ATOM     48  H   UNL A   1      39.427  31.913  33.302  1.00  0.00     0.167 HD
ATOM     49  C   UNL A   1      40.317  28.851  30.294  1.00  0.00     0.037 A 
ATOM     50  C   UNL A   1      39.654  33.122  35.809  1.00  0.00     0.037 A 
ATOM     51  C   UNL A   1      41.253  28.616  31.363  1.00  0.00     0.049 A 
ATOM     52  C   UNL A   1      40.664  32.005  35.785  1.00  0.00     0.074 A 
ATOM     53  C   UNL A   1      42.272  27.683  31.428  1.00  0.00     0.029 A 
ATOM     54  N   UNL A   1      41.281  29.323  32.558  1.00  0.00    -0.354 N 
ATOM     55  N   UNL A   1      40.932  31.151  34.827  1.00  0.00    -0.248 NA
ATOM     56  C   UNL A   1      41.482  31.823  36.993  1.00  0.00     0.031 C 
ATOM     57  C   UNL A   1      42.879  27.785  32.683  1.00  0.00     0.029 A 
ATOM     58  C   UNL A   1      42.283  28.826  33.375  1.00  0.00     0.049 A 
ATOM     59  H   UNL A   1      40.678  30.065  32.789  1.00  0.00     0.167 HD
ATOM     60  C   UNL A   1      41.971  30.360  35.299  1.00  0.00     0.074 A 
ATOM     61  C   UNL A   1      42.293  30.841  36.627  1.00  0.00     0.031 C 
ATOM     62  C   UNL A   1      42.604  29.328  34.688  1.00  0.00     0.037 A 
BRANCH  49  63
ATOM     63  C   UNL A   1      40.383  27.965  29.083  1.00  0.00     0.064 A 
ATOM     64  C   UNL A   1      39.652  26.769  29.006  1.00  0.00     0.173 A 
ATOM     65  C   UNL A   1      41.155  28.333  27.971  1.00  0.00     0.173 A 
ATOM     66  F   UNL A   1      38.905  26.365  30.044  1.00  0.00    -0.203 F 
ATOM     67  C   UNL A   1      39.719  25.960  27.875  1.00  0.00     0.198 A 
ATOM     68  C   UNL A   1      41.191  27.539  26.828  1.00  0.00     0.198 A 
ATOM     69  F   UNL A   1      41.868  29.469  27.988  1.00  0.00    -0.203 F 
ATOM     70  F   UNL A   1      39.054  24.796  27.845  1.00  0.00    -0.200 F 
ATOM     71  C   UNL A   1      40.481  26.349  26.784  1.00  0.00     0.200 A 
ATOM     72  F   UNL A   1      41.917  27.925  25.769  1.00  0.00    -0.200 F 
ATOM     73  F   UNL A   1      40.537  25.574  25.692  1.00  0.00    -0.200 F 
ENDBRANCH  49  63
BRANCH  50  74
ATOM     74  C   UNL A   1      39.517  33.994  37.007  1.00  0.00     0.064 A 
ATOM     75  C   UNL A   1      40.201  35.215  37.091  1.00  0.00     0.173 A 
ATOM     76  C   UNL A   1      38.721  33.619  38.099  1.00  0.00     0.173 A 
ATOM     77  F   UNL A   1      40.991  35.610  36.082  1.00  0.00    -0.203 F 
ATOM     78  C   UNL A   1      40.118  36.012  38.231  1.00  0.00     0.198 A 
ATOM     79  C   UNL A   1      38.612  34.432  39.225  1.00  0.00     0.198 A 
ATOM     80  F   UNL A   1      38.041  32.463  38.070  1.00  0.00    -0.203 F 
ATOM     81  F   UNL A   1      40.829  37.146  38.306  1.00  0.00    -0.200 F 
ATOM     82  C   UNL A   1      39.320  35.623  39.295  1.00  0.00     0.200 A 
ATOM     83  F   UNL A   1      37.826  34.059  40.245  1.00  0.00    -0.200 F 
ATOM     84  F   UNL A   1      39.240  36.388  40.391  1.00  0.00    -0.200 F 
ENDBRANCH  50  74
BRANCH  62  85
ATOM     85  C   UNL A   1      43.742  28.680  35.421  1.00  0.00     0.064 A 
ATOM     86  C   UNL A   1      43.540  27.610  36.307  1.00  0.00     0.173 A 
ATOM     87  C   UNL A   1      45.062  29.101  35.191  1.00  0.00     0.173 A 
ATOM     88  F   UNL A   1      42.298  27.179  36.573  1.00  0.00    -0.203 F 
ATOM     89  C   UNL A   1      44.616  27.002  36.949  1.00  0.00     0.198 A 
ATOM     90  C   UNL A   1      46.136  28.467  35.809  1.00  0.00     0.198 A 
ATOM     91  F   UNL A   1      45.311  30.115  34.348  1.00  0.00    -0.203 F 
ATOM     92  F   UNL A   1      44.396  26.012  37.826  1.00  0.00    -0.200 F 
ATOM     93  C   UNL A   1      45.912  27.423  36.693  1.00  0.00     0.200 A 
ATOM     94  F   UNL A   1      47.388  28.866  35.546  1.00  0.00    -0.200 F 
ATOM     95  F   UNL A   1      46.945  26.826  37.302  1.00  0.00    -0.200 F 
ENDBRANCH  62  85
ENDBRANCH  36  37
ENDBRANCH  28  31
ENDBRANCH  26  27
ENDBRANCH  25  26
ENDBRANCH  24  25
ENDBRANCH   1  24
TORSDOF 16
ENDMDL
MODEL 3
REMARK VINA RESULT:     -12.1      6.326     11.677
REMARK SMILES CN(CC(=O)NCCCCCCNC(=O)c1ccc(-c2c3nc(c(-c4c(F)c(F)c(F)c(F)c4F)c4ccc([nH]4)c(-c4c(F)c(F)c(F)c(F)c4F)c4nc(c(-c5c(F)c(F)c(F)c(F)c5F)c5ccc2[nH]5)C=C4)C=C3)cc1)c1nc2cc(N)ccc2[nH]1
REMARK SMILES IDX 9 1 8 2 7 3 6 4 4 5 5 6 3 8 2 9 1 10 79 11 80 12 88 13 81 14
REMARK SMILES IDX 87 15 82 17 86 18 83 19 85 20 84 21 10 24 11 25 12 26 13 27
REMARK SMILES IDX 14 28 15 30 16 31 17 32 78 33 18 34 77 35 19 36 20 37 21 38
REMARK SMILES IDX 71 39 22 40 76 41 70 42 72 43 23 44 75 45 69 46 68 47 24 49
REMARK SMILES IDX 56 50 36 51 55 52 37 53 40 54 54 55 73 56 38 57 39 58 53 60
REMARK SMILES IDX 74 61 41 62 25 63 26 64 34 65 27 66 28 67 32 68 35 69 29 70
REMARK SMILES IDX 30 71 33 72 31 73 57 74 58 75 66 76 59 77 60 78 64 79 67 80
REMARK SMILES IDX 61 81 62 82 65 83 63 84 42 85 43 86 51 87 44 88 45 89 49 90
REMARK SMILES IDX 52 91 46 92 47 93 50 94 48 95
REMARK H PARENT 6 7 88 16 84 22 84 23 13 29 72 48 40 59
REMARK Flexibility Score: inf
ROOT
ATOM      1  C   UNL A   1      37.364  22.245  25.630  1.00  0.00     0.002 C 
ENDROOT
BRANCH   1   2
ATOM      2  C   UNL A   1      36.668  23.545  25.208  1.00  0.00     0.021 C 
BRANCH   2   3
ATOM      3  C   UNL A   1      35.416  23.880  26.015  1.00  0.00     0.116 C 
BRANCH   3   4
ATOM      4  N   UNL A   1      35.042  22.822  26.921  1.00  0.00    -0.355 N 
ATOM      5  C   UNL A   1      33.875  22.108  26.955  1.00  0.00     0.239 C 
ATOM      6  O   UNL A   1      33.815  21.133  27.711  1.00  0.00    -0.273 OA
ATOM      7  H   UNL A   1      35.711  22.583  27.603  1.00  0.00     0.163 HD
BRANCH   5   8
ATOM      8  C   UNL A   1      32.744  22.444  25.967  1.00  0.00     0.219 C 
BRANCH   8   9
ATOM      9  N   UNL A   1      32.851  21.787  24.647  1.00  0.00    -0.336 N 
ATOM     10  C   UNL A   1      32.988  22.604  23.461  1.00  0.00     0.147 C 
BRANCH   9  11
ATOM     11  C   UNL A   1      33.005  20.440  24.643  1.00  0.00     0.204 A 
ATOM     12  N   UNL A   1      32.110  19.558  25.012  1.00  0.00    -0.213 NA
ATOM     13  N   UNL A   1      34.181  19.814  24.304  1.00  0.00    -0.324 N 
ATOM     14  C   UNL A   1      32.733  18.344  24.987  1.00  0.00     0.093 A 
ATOM     15  C   UNL A   1      34.051  18.473  24.575  1.00  0.00     0.067 A 
ATOM     16  H   UNL A   1      34.980  20.252  23.931  1.00  0.00     0.170 HD
ATOM     17  C   UNL A   1      32.230  17.084  25.335  1.00  0.00     0.056 A 
ATOM     18  C   UNL A   1      34.930  17.393  24.511  1.00  0.00     0.030 A 
ATOM     19  C   UNL A   1      33.090  15.982  25.329  1.00  0.00     0.034 A 
ATOM     20  C   UNL A   1      34.413  16.144  24.897  1.00  0.00     0.028 A 
BRANCH  19  21
ATOM     21  N   UNL A   1      32.597  14.722  25.639  1.00  0.00    -0.399 N 
ATOM     22  H   UNL A   1      33.213  14.004  25.908  1.00  0.00     0.156 HD
ATOM     23  H   UNL A   1      31.629  14.546  25.590  1.00  0.00     0.156 HD
ENDBRANCH  19  21
ENDBRANCH   9  11
ENDBRANCH   8   9
ENDBRANCH   5   8
ENDBRANCH   3   4
ENDBRANCH   2   3
ENDBRANCH   1   2
BRANCH   1  24
ATOM     24  C   UNL A   1      37.336  21.120  24.590  1.00  0.00     0.002 C 
BRANCH  24  25
ATOM     25  C   UNL A   1      38.208  19.907  24.921  1.00  0.00     0.021 C 
BRANCH  25  26
ATOM     26  C   UNL A   1      39.289  20.170  25.963  1.00  0.00     0.116 C 
BRANCH  26  27
ATOM     27  N   UNL A   1      40.300  19.125  25.982  1.00  0.00    -0.352 N 
ATOM     28  C   UNL A   1      41.666  19.236  26.078  1.00  0.00     0.251 C 
ATOM     29  H   UNL A   1      39.956  18.205  25.915  1.00  0.00     0.163 HD
ATOM     30  O   UNL A   1      42.386  18.266  25.886  1.00  0.00    -0.269 OA
BRANCH  28  31
ATOM     31  C   UNL A   1      42.269  20.549  26.397  1.00  0.00     0.039 A 
ATOM     32  C   UNL A   1      42.656  21.390  25.351  1.00  0.00     0.014 A 
ATOM     33  C   UNL A   1      42.443  20.949  27.724  1.00  0.00     0.014 A 
ATOM     34  C   UNL A   1      43.155  22.663  25.636  1.00  0.00     0.010 A 
ATOM     35  C   UNL A   1      42.866  22.244  28.005  1.00  0.00     0.010 A 
ATOM     36  C   UNL A   1      43.226  23.115  26.964  1.00  0.00    -0.014 A 
BRANCH  36  37
ATOM     37  C   UNL A   1      43.675  24.492  27.293  1.00  0.00     0.031 A 
ATOM     38  C   UNL A   1      42.682  25.507  27.791  1.00  0.00     0.074 A 
ATOM     39  C   UNL A   1      44.955  24.849  27.075  1.00  0.00     0.049 A 
ATOM     40  N   UNL A   1      42.849  26.783  28.027  1.00  0.00    -0.248 NA
ATOM     41  C   UNL A   1      41.312  25.026  28.028  1.00  0.00     0.031 C 
ATOM     42  C   UNL A   1      46.005  23.965  26.565  1.00  0.00     0.029 A 
ATOM     43  N   UNL A   1      45.589  26.057  27.237  1.00  0.00    -0.354 N 
ATOM     44  C   UNL A   1      41.608  27.258  28.429  1.00  0.00     0.074 A 
ATOM     45  C   UNL A   1      40.684  26.148  28.346  1.00  0.00     0.031 C 
ATOM     46  C   UNL A   1      47.153  24.654  26.474  1.00  0.00     0.029 A 
ATOM     47  C   UNL A   1      46.912  26.037  26.870  1.00  0.00     0.049 A 
ATOM     48  H   UNL A   1      45.137  26.860  27.584  1.00  0.00     0.167 HD
ATOM     49  C   UNL A   1      41.275  28.500  28.853  1.00  0.00     0.037 A 
ATOM     50  C   UNL A   1      47.824  27.029  26.840  1.00  0.00     0.037 A 
ATOM     51  C   UNL A   1      42.202  29.598  28.945  1.00  0.00     0.049 A 
ATOM     52  C   UNL A   1      47.417  28.413  27.274  1.00  0.00     0.074 A 
ATOM     53  C   UNL A   1      41.973  30.885  29.400  1.00  0.00     0.029 A 
ATOM     54  N   UNL A   1      43.537  29.538  28.571  1.00  0.00    -0.354 N 
ATOM     55  N   UNL A   1      46.253  28.837  27.707  1.00  0.00    -0.248 NA
ATOM     56  C   UNL A   1      48.449  29.457  27.219  1.00  0.00     0.031 C 
ATOM     57  C   UNL A   1      43.154  31.618  29.248  1.00  0.00     0.029 A 
ATOM     58  C   UNL A   1      44.136  30.772  28.760  1.00  0.00     0.049 A 
ATOM     59  H   UNL A   1      43.991  28.736  28.222  1.00  0.00     0.167 HD
ATOM     60  C   UNL A   1      46.425  30.181  28.009  1.00  0.00     0.074 A 
ATOM     61  C   UNL A   1      47.807  30.502  27.721  1.00  0.00     0.031 C 
ATOM     62  C   UNL A   1      45.520  31.072  28.486  1.00  0.00     0.037 A 
BRANCH  49  63
ATOM     63  C   UNL A   1      39.846  28.740  29.250  1.00  0.00     0.064 A 
ATOM     64  C   UNL A   1      39.397  28.503  30.558  1.00  0.00     0.173 A 
ATOM     65  C   UNL A   1      38.924  29.249  28.323  1.00  0.00     0.173 A 
ATOM     66  F   UNL A   1      40.234  28.008  31.481  1.00  0.00    -0.203 F 
ATOM     67  C   UNL A   1      38.070  28.734  30.914  1.00  0.00     0.198 A 
ATOM     68  C   UNL A   1      37.607  29.513  28.691  1.00  0.00     0.198 A 
ATOM     69  F   UNL A   1      39.301  29.500  27.060  1.00  0.00    -0.203 F 
ATOM     70  F   UNL A   1      37.651  28.449  32.155  1.00  0.00    -0.200 F 
ATOM     71  C   UNL A   1      37.179  29.247  29.983  1.00  0.00     0.200 A 
ATOM     72  F   UNL A   1      36.751  30.022  27.795  1.00  0.00    -0.200 F 
ATOM     73  F   UNL A   1      35.906  29.478  30.329  1.00  0.00    -0.200 F 
ENDBRANCH  49  63
BRANCH  50  74
ATOM     74  C   UNL A   1      49.215  26.755  26.391  1.00  0.00     0.064 A 
ATOM     75  C   UNL A   1      49.588  26.935  25.051  1.00  0.00     0.173 A 
ATOM     76  C   UNL A   1      50.194  26.289  27.281  1.00  0.00     0.173 A 
ATOM     77  F   UNL A   1      48.684  27.360  24.156  1.00  0.00    -0.203 F 
ATOM     78  C   UNL A   1      50.876  26.631  24.614  1.00  0.00     0.198 A 
ATOM     79  C   UNL A   1      51.490  26.016  26.849  1.00  0.00     0.198 A 
ATOM     80  F   UNL A   1      49.892  26.103  28.575  1.00  0.00    -0.203 F 
ATOM     81  F   UNL A   1      51.187  26.757  23.316  1.00  0.00    -0.200 F 
ATOM     82  C   UNL A   1      51.827  26.177  25.513  1.00  0.00     0.200 A 
ATOM     83  F   UNL A   1      52.411  25.593  27.726  1.00  0.00    -0.200 F 
ATOM     84  F   UNL A   1      53.065  25.884  25.093  1.00  0.00    -0.200 F 
ENDBRANCH  50  74
BRANCH  62  85
ATOM     85  C   UNL A   1      46.001  32.463  28.776  1.00  0.00     0.064 A 
ATOM     86  C   UNL A   1      46.561  32.811  30.014  1.00  0.00     0.173 A 
ATOM     87  C   UNL A   1      45.950  33.451  27.778  1.00  0.00     0.173 A 
ATOM     88  F   UNL A   1      46.619  31.910  31.006  1.00  0.00    -0.203 F 
ATOM     89  C   UNL A   1      47.032  34.100  30.249  1.00  0.00     0.198 A 
ATOM     90  C   UNL A   1      46.455  34.728  28.006  1.00  0.00     0.198 A 
ATOM     91  F   UNL A   1      45.431  33.169  26.574  1.00  0.00    -0.203 F 
ATOM     92  F   UNL A   1      47.522  34.422  31.455  1.00  0.00    -0.200 F 
ATOM     93  C   UNL A   1      46.988  35.054  29.243  1.00  0.00     0.200 A 
ATOM     94  F   UNL A   1      46.426  35.642  27.026  1.00  0.00    -0.200 F 
ATOM     95  F   UNL A   1      47.456  36.289  29.468  1.00  0.00    -0.200 F 
ENDBRANCH  62  85
ENDBRANCH  36  37
ENDBRANCH  28  31
ENDBRANCH  26  27
ENDBRANCH  25  26
ENDBRANCH  24  25
ENDBRANCH   1  24
TORSDOF 16
ENDMDL
