MODEL 1
REMARK VINA RESULT:     -11.4      0.000      0.000
REMARK SMILES CCC(C)(C)n1c(SCC(=O)NCCCCCCNC(=O)c2ccc(-c3c4nc(c(-c5c(F)c(F)c(F)c(F)c5F)c5ccc([nH]5)c(-c5c(F)c(F)c(F)c(F)c5F)c5nc(c(-c6c(F)c(F)c(F)c(F)c6F)c6ccc3[nH]6)C=C5)C=C4)cc2)nc2cccnc21
REMARK SMILES IDX 14 1 13 2 12 3 10 4 11 5 9 7 8 8 7 9 6 10 91 11 85 12 86 13
REMARK SMILES IDX 90 14 87 15 89 16 88 17 3 18 4 19 5 20 2 21 1 22 15 23 16 24
REMARK SMILES IDX 17 25 18 26 19 27 20 28 21 30 22 31 23 32 84 33 24 34 83 35
REMARK SMILES IDX 25 36 26 37 27 38 77 39 28 40 82 41 76 42 78 43 29 44 81 45
REMARK SMILES IDX 75 46 74 47 30 49 62 50 42 51 61 52 43 53 46 54 60 55 79 56
REMARK SMILES IDX 44 57 45 58 59 60 80 61 47 62 31 63 32 64 40 65 33 66 34 67
REMARK SMILES IDX 38 68 41 69 35 70 36 71 39 72 37 73 63 74 64 75 72 76 65 77
REMARK SMILES IDX 66 78 70 79 73 80 67 81 68 82 71 83 69 84 48 85 49 86 57 87
REMARK SMILES IDX 50 88 51 89 55 90 58 91 52 92 53 93 56 94 54 95
REMARK H PARENT 12 6 19 29 78 48 46 59
REMARK Flexibility Score: inf
ROOT
ATOM      1  C   UNL A   1      39.958  22.081  26.104  1.00  0.00     0.021 C 
ENDROOT
BRANCH   1   2
ATOM      2  C   UNL A   1      38.589  22.753  26.081  1.00  0.00     0.116 C 
BRANCH   2   3
ATOM      3  N   UNL A   1      37.890  22.554  24.837  1.00  0.00    -0.355 N 
ATOM      4  C   UNL A   1      36.788  23.201  24.385  1.00  0.00     0.230 C 
ATOM      5  O   UNL A   1      36.632  23.229  23.159  1.00  0.00    -0.274 OA
ATOM      6  H   UNL A   1      38.259  21.862  24.242  1.00  0.00     0.163 HD
BRANCH   4   7
ATOM      7  C   UNL A   1      35.834  23.939  25.305  1.00  0.00     0.178 C 
BRANCH   7   8
ATOM      8  S   UNL A   1      34.270  24.476  24.665  1.00  0.00    -0.078 SA
BRANCH   8   9
ATOM      9  C   UNL A   1      33.518  25.995  24.997  1.00  0.00     0.171 A 
ATOM     10  N   UNL A   1      32.404  26.717  24.570  1.00  0.00    -0.298 N 
ATOM     11  C   UNL A   1      32.407  27.896  25.328  1.00  0.00     0.161 A 
ATOM     12  N   UNL A   1      34.201  26.688  25.901  1.00  0.00    -0.221 NA
ATOM     13  C   UNL A   1      33.537  27.848  26.116  1.00  0.00     0.109 A 
ATOM     14  N   UNL A   1      31.489  28.886  25.317  1.00  0.00    -0.237 NA
ATOM     15  C   UNL A   1      33.805  28.922  26.972  1.00  0.00     0.034 A 
ATOM     16  C   UNL A   1      31.780  29.906  26.153  1.00  0.00     0.113 A 
ATOM     17  C   UNL A   1      32.894  29.979  26.978  1.00  0.00     0.022 A 
BRANCH  10  18
ATOM     18  C   UNL A   1      31.278  26.468  23.649  1.00  0.00     0.043 C 
ATOM     19  C   UNL A   1      31.514  25.358  22.640  1.00  0.00     0.035 C 
ATOM     20  C   UNL A   1      31.016  27.702  22.734  1.00  0.00     0.035 C 
BRANCH  18  21
ATOM     21  C   UNL A   1      29.977  26.134  24.455  1.00  0.00     0.025 C 
ATOM     22  C   UNL A   1      28.670  26.623  23.828  1.00  0.00     0.006 C 
ENDBRANCH  18  21
ENDBRANCH  10  18
ENDBRANCH   8   9
ENDBRANCH   7   8
ENDBRANCH   4   7
ENDBRANCH   2   3
ENDBRANCH   1   2
BRANCH   1  23
ATOM     23  C   UNL A   1      40.377  21.479  27.450  1.00  0.00     0.002 C 
BRANCH  23  24
ATOM     24  C   UNL A   1      41.866  21.154  27.628  1.00  0.00     0.002 C 
BRANCH  24  25
ATOM     25  C   UNL A   1      42.333  19.764  27.172  1.00  0.00     0.021 C 
BRANCH  25  26
ATOM     26  C   UNL A   1      42.350  19.580  25.665  1.00  0.00     0.116 C 
BRANCH  26  27
ATOM     27  N   UNL A   1      43.704  19.465  25.155  1.00  0.00    -0.352 N 
ATOM     28  C   UNL A   1      44.565  20.474  24.794  1.00  0.00     0.251 C 
ATOM     29  H   UNL A   1      44.049  18.549  25.055  1.00  0.00     0.163 HD
ATOM     30  O   UNL A   1      45.483  20.247  24.020  1.00  0.00    -0.269 OA
BRANCH  28  31
ATOM     31  C   UNL A   1      44.380  21.831  25.345  1.00  0.00     0.039 A 
ATOM     32  C   UNL A   1      43.503  22.710  24.704  1.00  0.00     0.014 A 
ATOM     33  C   UNL A   1      45.126  22.254  26.449  1.00  0.00     0.014 A 
ATOM     34  C   UNL A   1      43.351  23.997  25.204  1.00  0.00     0.010 A 
ATOM     35  C   UNL A   1      44.917  23.504  26.996  1.00  0.00     0.010 A 
ATOM     36  C   UNL A   1      44.053  24.384  26.359  1.00  0.00    -0.014 A 
BRANCH  36  37
ATOM     37  C   UNL A   1      43.736  25.659  26.989  1.00  0.00     0.031 A 
ATOM     38  C   UNL A   1      44.692  26.731  26.619  1.00  0.00     0.074 A 
ATOM     39  C   UNL A   1      42.620  25.913  27.703  1.00  0.00     0.049 A 
ATOM     40  N   UNL A   1      45.630  27.218  27.359  1.00  0.00    -0.248 NA
ATOM     41  C   UNL A   1      44.730  27.205  25.226  1.00  0.00     0.031 C 
ATOM     42  C   UNL A   1      41.448  25.047  27.862  1.00  0.00     0.029 A 
ATOM     43  N   UNL A   1      42.257  27.043  28.382  1.00  0.00    -0.354 N 
ATOM     44  C   UNL A   1      46.210  28.237  26.611  1.00  0.00     0.074 A 
ATOM     45  C   UNL A   1      45.773  28.039  25.256  1.00  0.00     0.031 C 
ATOM     46  C   UNL A   1      40.430  25.757  28.401  1.00  0.00     0.029 A 
ATOM     47  C   UNL A   1      40.925  27.070  28.781  1.00  0.00     0.049 A 
ATOM     48  H   UNL A   1      42.887  27.776  28.572  1.00  0.00     0.167 HD
ATOM     49  C   UNL A   1      46.713  29.331  27.249  1.00  0.00     0.037 A 
ATOM     50  C   UNL A   1      40.277  28.097  29.386  1.00  0.00     0.037 A 
ATOM     51  C   UNL A   1      46.811  29.076  28.666  1.00  0.00     0.049 A 
ATOM     52  C   UNL A   1      41.303  28.937  30.042  1.00  0.00     0.074 A 
ATOM     53  C   UNL A   1      47.644  28.388  29.518  1.00  0.00     0.029 A 
ATOM     54  N   UNL A   1      45.638  29.303  29.331  1.00  0.00    -0.354 N 
ATOM     55  N   UNL A   1      41.997  28.546  31.074  1.00  0.00    -0.248 NA
ATOM     56  C   UNL A   1      41.799  30.127  29.359  1.00  0.00     0.031 C 
ATOM     57  C   UNL A   1      46.880  28.119  30.693  1.00  0.00     0.029 A 
ATOM     58  C   UNL A   1      45.615  28.683  30.545  1.00  0.00     0.049 A 
ATOM     59  H   UNL A   1      44.899  29.848  28.976  1.00  0.00     0.167 HD
ATOM     60  C   UNL A   1      43.217  29.160  30.903  1.00  0.00     0.074 A 
ATOM     61  C   UNL A   1      42.983  30.249  29.964  1.00  0.00     0.031 C 
ATOM     62  C   UNL A   1      44.366  28.517  31.248  1.00  0.00     0.037 A 
BRANCH  49  63
ATOM     63  C   UNL A   1      46.603  30.766  26.764  1.00  0.00     0.064 A 
ATOM     64  C   UNL A   1      47.758  31.581  26.820  1.00  0.00     0.173 A 
ATOM     65  C   UNL A   1      45.388  31.459  26.586  1.00  0.00     0.173 A 
ATOM     66  F   UNL A   1      48.972  31.038  26.995  1.00  0.00    -0.203 F 
ATOM     67  C   UNL A   1      47.684  32.977  26.796  1.00  0.00     0.198 A 
ATOM     68  C   UNL A   1      45.325  32.851  26.515  1.00  0.00     0.198 A 
ATOM     69  F   UNL A   1      44.203  30.843  26.590  1.00  0.00    -0.203 F 
ATOM     70  F   UNL A   1      48.793  33.706  26.986  1.00  0.00    -0.200 F 
ATOM     71  C   UNL A   1      46.466  33.611  26.652  1.00  0.00     0.200 A 
ATOM     72  F   UNL A   1      44.130  33.449  26.398  1.00  0.00    -0.200 F 
ATOM     73  F   UNL A   1      46.383  34.947  26.693  1.00  0.00    -0.200 F 
ENDBRANCH  49  63
BRANCH  50  74
ATOM     74  C   UNL A   1      38.860  28.531  29.332  1.00  0.00     0.064 A 
ATOM     75  C   UNL A   1      38.091  28.623  30.507  1.00  0.00     0.173 A 
ATOM     76  C   UNL A   1      38.342  29.174  28.194  1.00  0.00     0.173 A 
ATOM     77  F   UNL A   1      38.521  28.054  31.643  1.00  0.00    -0.203 F 
ATOM     78  C   UNL A   1      36.914  29.375  30.560  1.00  0.00     0.198 A 
ATOM     79  C   UNL A   1      37.161  29.921  28.247  1.00  0.00     0.198 A 
ATOM     80  F   UNL A   1      39.025  29.178  27.040  1.00  0.00    -0.203 F 
ATOM     81  F   UNL A   1      36.261  29.511  31.722  1.00  0.00    -0.200 F 
ATOM     82  C   UNL A   1      36.461  30.040  29.435  1.00  0.00     0.200 A 
ATOM     83  F   UNL A   1      36.746  30.586  27.160  1.00  0.00    -0.200 F 
ATOM     84  F   UNL A   1      35.381  30.830  29.505  1.00  0.00    -0.200 F 
ENDBRANCH  50  74
BRANCH  62  85
ATOM     85  C   UNL A   1      44.294  27.459  32.295  1.00  0.00     0.064 A 
ATOM     86  C   UNL A   1      44.199  26.084  32.036  1.00  0.00     0.173 A 
ATOM     87  C   UNL A   1      44.468  27.867  33.625  1.00  0.00     0.173 A 
ATOM     88  F   UNL A   1      44.082  25.625  30.782  1.00  0.00    -0.203 F 
ATOM     89  C   UNL A   1      44.282  25.157  33.074  1.00  0.00     0.198 A 
ATOM     90  C   UNL A   1      44.585  26.940  34.652  1.00  0.00     0.198 A 
ATOM     91  F   UNL A   1      44.589  29.172  33.915  1.00  0.00    -0.203 F 
ATOM     92  F   UNL A   1      44.197  23.844  32.812  1.00  0.00    -0.200 F 
ATOM     93  C   UNL A   1      44.491  25.585  34.377  1.00  0.00     0.200 A 
ATOM     94  F   UNL A   1      44.825  27.360  35.901  1.00  0.00    -0.200 F 
ATOM     95  F   UNL A   1      44.628  24.693  35.366  1.00  0.00    -0.200 F 
ENDBRANCH  62  85
ENDBRANCH  36  37
ENDBRANCH  28  31
ENDBRANCH  26  27
ENDBRANCH  25  26
ENDBRANCH  24  25
ENDBRANCH  23  24
ENDBRANCH   1  23
TORSDOF 17
ENDMDL
MODEL 2
REMARK VINA RESULT:     -10.8      3.207      8.875
REMARK SMILES CCC(C)(C)n1c(SCC(=O)NCCCCCCNC(=O)c2ccc(-c3c4nc(c(-c5c(F)c(F)c(F)c(F)c5F)c5ccc([nH]5)c(-c5c(F)c(F)c(F)c(F)c5F)c5nc(c(-c6c(F)c(F)c(F)c(F)c6F)c6ccc3[nH]6)C=C5)C=C4)cc2)nc2cccnc21
REMARK SMILES IDX 14 1 13 2 12 3 10 4 11 5 9 7 8 8 7 9 6 10 91 11 85 12 86 13
REMARK SMILES IDX 90 14 87 15 89 16 88 17 3 18 4 19 5 20 2 21 1 22 15 23 16 24
REMARK SMILES IDX 17 25 18 26 19 27 20 28 21 30 22 31 23 32 84 33 24 34 83 35
REMARK SMILES IDX 25 36 26 37 27 38 77 39 28 40 82 41 76 42 78 43 29 44 81 45
REMARK SMILES IDX 75 46 74 47 30 49 62 50 42 51 61 52 43 53 46 54 60 55 79 56
REMARK SMILES IDX 44 57 45 58 59 60 80 61 47 62 31 63 32 64 40 65 33 66 34 67
REMARK SMILES IDX 38 68 41 69 35 70 36 71 39 72 37 73 63 74 64 75 72 76 65 77
REMARK SMILES IDX 66 78 70 79 73 80 67 81 68 82 71 83 69 84 48 85 49 86 57 87
REMARK SMILES IDX 50 88 51 89 55 90 58 91 52 92 53 93 56 94 54 95
REMARK H PARENT 12 6 19 29 78 48 46 59
REMARK Flexibility Score: inf
ROOT
ATOM      1  C   UNL A   1      31.883  29.357  25.412  1.00  0.00     0.021 C 
ENDROOT
BRANCH   1   2
ATOM      2  C   UNL A   1      32.732  29.099  24.172  1.00  0.00     0.116 C 
BRANCH   2   3
ATOM      3  N   UNL A   1      31.949  29.027  22.965  1.00  0.00    -0.355 N 
ATOM      4  C   UNL A   1      31.171  28.004  22.532  1.00  0.00     0.230 C 
ATOM      5  O   UNL A   1      30.250  28.301  21.763  1.00  0.00    -0.274 OA
ATOM      6  H   UNL A   1      31.983  29.819  22.381  1.00  0.00     0.163 HD
BRANCH   4   7
ATOM      7  C   UNL A   1      31.339  26.579  23.025  1.00  0.00     0.178 C 
BRANCH   7   8
ATOM      8  S   UNL A   1      32.647  25.590  22.352  1.00  0.00    -0.078 SA
BRANCH   8   9
ATOM      9  C   UNL A   1      33.519  24.364  23.203  1.00  0.00     0.171 A 
ATOM     10  N   UNL A   1      33.291  23.457  24.236  1.00  0.00    -0.298 N 
ATOM     11  C   UNL A   1      34.485  22.736  24.374  1.00  0.00     0.161 A 
ATOM     12  N   UNL A   1      34.770  24.269  22.769  1.00  0.00    -0.221 NA
ATOM     13  C   UNL A   1      35.373  23.280  23.470  1.00  0.00     0.109 A 
ATOM     14  N   UNL A   1      34.734  21.702  25.206  1.00  0.00    -0.237 NA
ATOM     15  C   UNL A   1      36.669  22.758  23.405  1.00  0.00     0.034 A 
ATOM     16  C   UNL A   1      35.994  21.224  25.117  1.00  0.00     0.113 A 
ATOM     17  C   UNL A   1      36.978  21.702  24.263  1.00  0.00     0.022 A 
BRANCH  10  18
ATOM     18  C   UNL A   1      32.129  23.070  25.060  1.00  0.00     0.043 C 
ATOM     19  C   UNL A   1      32.025  21.584  25.355  1.00  0.00     0.035 C 
ATOM     20  C   UNL A   1      30.790  23.358  24.317  1.00  0.00     0.035 C 
BRANCH  18  21
ATOM     21  C   UNL A   1      32.144  23.843  26.422  1.00  0.00     0.025 C 
ATOM     22  C   UNL A   1      31.245  25.079  26.488  1.00  0.00     0.006 C 
ENDBRANCH  18  21
ENDBRANCH  10  18
ENDBRANCH   8   9
ENDBRANCH   7   8
ENDBRANCH   4   7
ENDBRANCH   2   3
ENDBRANCH   1   2
BRANCH   1  23
ATOM     23  C   UNL A   1      32.364  28.672  26.697  1.00  0.00     0.002 C 
BRANCH  23  24
ATOM     24  C   UNL A   1      33.569  29.303  27.407  1.00  0.00     0.002 C 
BRANCH  24  25
ATOM     25  C   UNL A   1      33.742  30.822  27.264  1.00  0.00     0.021 C 
BRANCH  25  26
ATOM     26  C   UNL A   1      35.084  31.340  27.749  1.00  0.00     0.116 C 
BRANCH  26  27
ATOM     27  N   UNL A   1      34.947  32.129  28.960  1.00  0.00    -0.352 N 
ATOM     28  C   UNL A   1      35.525  31.911  30.187  1.00  0.00     0.251 C 
ATOM     29  H   UNL A   1      34.367  32.922  28.892  1.00  0.00     0.163 HD
ATOM     30  O   UNL A   1      35.023  32.389  31.194  1.00  0.00    -0.269 OA
BRANCH  28  31
ATOM     31  C   UNL A   1      36.755  31.101  30.287  1.00  0.00     0.039 A 
ATOM     32  C   UNL A   1      36.652  29.747  30.620  1.00  0.00     0.014 A 
ATOM     33  C   UNL A   1      38.010  31.696  30.123  1.00  0.00     0.014 A 
ATOM     34  C   UNL A   1      37.810  28.991  30.743  1.00  0.00     0.010 A 
ATOM     35  C   UNL A   1      39.158  30.930  30.166  1.00  0.00     0.010 A 
ATOM     36  C   UNL A   1      39.060  29.587  30.502  1.00  0.00    -0.014 A 
BRANCH  36  37
ATOM     37  C   UNL A   1      40.247  28.744  30.437  1.00  0.00     0.031 A 
ATOM     38  C   UNL A   1      40.900  28.573  31.757  1.00  0.00     0.074 A 
ATOM     39  C   UNL A   1      40.645  28.052  29.349  1.00  0.00     0.049 A 
ATOM     40  N   UNL A   1      41.988  29.138  32.159  1.00  0.00    -0.248 NA
ATOM     41  C   UNL A   1      40.192  27.832  32.813  1.00  0.00     0.031 C 
ATOM     42  C   UNL A   1      39.914  27.870  28.092  1.00  0.00     0.029 A 
ATOM     43  N   UNL A   1      41.764  27.289  29.162  1.00  0.00    -0.354 N 
ATOM     44  C   UNL A   1      42.236  28.621  33.427  1.00  0.00     0.074 A 
ATOM     45  C   UNL A   1      41.008  28.008  33.856  1.00  0.00     0.031 C 
ATOM     46  C   UNL A   1      40.498  26.889  27.365  1.00  0.00     0.029 A 
ATOM     47  C   UNL A   1      41.733  26.494  28.020  1.00  0.00     0.049 A 
ATOM     48  H   UNL A   1      42.528  27.301  29.783  1.00  0.00     0.167 HD
ATOM     49  C   UNL A   1      43.523  28.460  33.843  1.00  0.00     0.037 A 
ATOM     50  C   UNL A   1      42.660  25.579  27.640  1.00  0.00     0.037 A 
ATOM     51  C   UNL A   1      44.421  29.158  32.956  1.00  0.00     0.049 A 
ATOM     52  C   UNL A   1      43.933  25.945  28.299  1.00  0.00     0.074 A 
ATOM     53  C   UNL A   1      44.820  30.455  32.732  1.00  0.00     0.029 A 
ATOM     54  N   UNL A   1      44.752  28.428  31.848  1.00  0.00    -0.354 N 
ATOM     55  N   UNL A   1      44.616  27.013  27.995  1.00  0.00    -0.248 NA
ATOM     56  C   UNL A   1      44.315  25.282  29.541  1.00  0.00     0.031 C 
ATOM     57  C   UNL A   1      45.314  30.496  31.394  1.00  0.00     0.029 A 
ATOM     58  C   UNL A   1      45.240  29.217  30.849  1.00  0.00     0.049 A 
ATOM     59  H   UNL A   1      44.649  27.452  31.780  1.00  0.00     0.167 HD
ATOM     60  C   UNL A   1      45.192  27.387  29.188  1.00  0.00     0.074 A 
ATOM     61  C   UNL A   1      45.136  26.208  30.041  1.00  0.00     0.031 C 
ATOM     62  C   UNL A   1      45.330  28.704  29.503  1.00  0.00     0.037 A 
BRANCH  49  63
ATOM     63  C   UNL A   1      44.049  27.287  34.653  1.00  0.00     0.064 A 
ATOM     64  C   UNL A   1      43.864  25.982  34.139  1.00  0.00     0.173 A 
ATOM     65  C   UNL A   1      44.394  27.350  36.019  1.00  0.00     0.173 A 
ATOM     66  F   UNL A   1      43.523  25.794  32.855  1.00  0.00    -0.203 F 
ATOM     67  C   UNL A   1      43.926  24.847  34.952  1.00  0.00     0.198 A 
ATOM     68  C   UNL A   1      44.503  26.209  36.815  1.00  0.00     0.198 A 
ATOM     69  F   UNL A   1      44.529  28.507  36.672  1.00  0.00    -0.203 F 
ATOM     70  F   UNL A   1      43.612  23.646  34.446  1.00  0.00    -0.200 F 
ATOM     71  C   UNL A   1      44.237  24.963  36.293  1.00  0.00     0.200 A 
ATOM     72  F   UNL A   1      44.784  26.345  38.120  1.00  0.00    -0.200 F 
ATOM     73  F   UNL A   1      44.236  23.886  37.089  1.00  0.00    -0.200 F 
ENDBRANCH  49  63
BRANCH  50  74
ATOM     74  C   UNL A   1      42.534  24.312  26.881  1.00  0.00     0.064 A 
ATOM     75  C   UNL A   1      43.127  24.171  25.613  1.00  0.00     0.173 A 
ATOM     76  C   UNL A   1      42.126  23.125  27.516  1.00  0.00     0.173 A 
ATOM     77  F   UNL A   1      43.562  25.252  24.946  1.00  0.00    -0.203 F 
ATOM     78  C   UNL A   1      43.365  22.917  25.046  1.00  0.00     0.198 A 
ATOM     79  C   UNL A   1      42.360  21.870  26.944  1.00  0.00     0.198 A 
ATOM     80  F   UNL A   1      41.591  23.155  28.744  1.00  0.00    -0.203 F 
ATOM     81  F   UNL A   1      44.015  22.825  23.877  1.00  0.00    -0.200 F 
ATOM     82  C   UNL A   1      43.000  21.766  25.721  1.00  0.00     0.200 A 
ATOM     83  F   UNL A   1      42.030  20.761  27.619  1.00  0.00    -0.200 F 
ATOM     84  F   UNL A   1      43.304  20.562  25.219  1.00  0.00    -0.200 F 
ENDBRANCH  50  74
BRANCH  62  85
ATOM     85  C   UNL A   1      45.407  29.691  28.388  1.00  0.00     0.064 A 
ATOM     86  C   UNL A   1      44.301  30.336  27.816  1.00  0.00     0.173 A 
ATOM     87  C   UNL A   1      46.686  30.094  27.982  1.00  0.00     0.173 A 
ATOM     88  F   UNL A   1      43.052  30.034  28.197  1.00  0.00    -0.203 F 
ATOM     89  C   UNL A   1      44.478  31.350  26.876  1.00  0.00     0.198 A 
ATOM     90  C   UNL A   1      46.859  31.127  27.072  1.00  0.00     0.198 A 
ATOM     91  F   UNL A   1      47.773  29.519  28.522  1.00  0.00    -0.203 F 
ATOM     92  F   UNL A   1      43.412  31.965  26.342  1.00  0.00    -0.200 F 
ATOM     93  C   UNL A   1      45.756  31.755  26.518  1.00  0.00     0.200 A 
ATOM     94  F   UNL A   1      48.096  31.537  26.760  1.00  0.00    -0.200 F 
ATOM     95  F   UNL A   1      45.926  32.768  25.658  1.00  0.00    -0.200 F 
ENDBRANCH  62  85
ENDBRANCH  36  37
ENDBRANCH  28  31
ENDBRANCH  26  27
ENDBRANCH  25  26
ENDBRANCH  24  25
ENDBRANCH  23  24
ENDBRANCH   1  23
TORSDOF 17
ENDMDL
MODEL 3
REMARK VINA RESULT:     -10.7      3.122      9.155
REMARK SMILES CCC(C)(C)n1c(SCC(=O)NCCCCCCNC(=O)c2ccc(-c3c4nc(c(-c5c(F)c(F)c(F)c(F)c5F)c5ccc([nH]5)c(-c5c(F)c(F)c(F)c(F)c5F)c5nc(c(-c6c(F)c(F)c(F)c(F)c6F)c6ccc3[nH]6)C=C5)C=C4)cc2)nc2cccnc21
REMARK SMILES IDX 14 1 13 2 12 3 10 4 11 5 9 7 8 8 7 9 6 10 91 11 85 12 86 13
REMARK SMILES IDX 90 14 87 15 89 16 88 17 3 18 4 19 5 20 2 21 1 22 15 23 16 24
REMARK SMILES IDX 17 25 18 26 19 27 20 28 21 30 22 31 23 32 84 33 24 34 83 35
REMARK SMILES IDX 25 36 26 37 27 38 77 39 28 40 82 41 76 42 78 43 29 44 81 45
REMARK SMILES IDX 75 46 74 47 30 49 62 50 42 51 61 52 43 53 46 54 60 55 79 56
REMARK SMILES IDX 44 57 45 58 59 60 80 61 47 62 31 63 32 64 40 65 33 66 34 67
REMARK SMILES IDX 38 68 41 69 35 70 36 71 39 72 37 73 63 74 64 75 72 76 65 77
REMARK SMILES IDX 66 78 70 79 73 80 67 81 68 82 71 83 69 84 48 85 49 86 57 87
REMARK SMILES IDX 50 88 51 89 55 90 58 91 52 92 53 93 56 94 54 95
REMARK H PARENT 12 6 19 29 78 48 46 59
REMARK Flexibility Score: inf
ROOT
ATOM      1  C   UNL A   1      31.402  28.665  25.522  1.00  0.00     0.021 C 
ENDROOT
BRANCH   1   2
ATOM      2  C   UNL A   1      32.027  27.428  26.158  1.00  0.00     0.116 C 
BRANCH   2   3
ATOM      3  N   UNL A   1      31.046  26.470  26.597  1.00  0.00    -0.355 N 
ATOM      4  C   UNL A   1      30.625  25.351  25.958  1.00  0.00     0.230 C 
ATOM      5  O   UNL A   1      30.162  24.451  26.669  1.00  0.00    -0.274 OA
ATOM      6  H   UNL A   1      30.629  26.649  27.470  1.00  0.00     0.163 HD
BRANCH   4   7
ATOM      7  C   UNL A   1      30.791  25.148  24.463  1.00  0.00     0.178 C 
BRANCH   7   8
ATOM      8  S   UNL A   1      32.307  24.461  23.855  1.00  0.00    -0.078 SA
BRANCH   8   9
ATOM      9  C   UNL A   1      32.828  22.828  24.072  1.00  0.00     0.171 A 
ATOM     10  N   UNL A   1      33.811  22.138  24.780  1.00  0.00    -0.298 N 
ATOM     11  C   UNL A   1      33.604  20.783  24.487  1.00  0.00     0.161 A 
ATOM     12  N   UNL A   1      32.103  21.986  23.344  1.00  0.00    -0.221 NA
ATOM     13  C   UNL A   1      32.560  20.736  23.586  1.00  0.00     0.109 A 
ATOM     14  N   UNL A   1      34.269  19.719  24.987  1.00  0.00    -0.237 NA
ATOM     15  C   UNL A   1      32.149  19.489  23.101  1.00  0.00     0.034 A 
ATOM     16  C   UNL A   1      33.846  18.534  24.495  1.00  0.00     0.113 A 
ATOM     17  C   UNL A   1      32.823  18.363  23.573  1.00  0.00     0.022 A 
BRANCH  10  18
ATOM     18  C   UNL A   1      34.854  22.501  25.759  1.00  0.00     0.043 C 
ATOM     19  C   UNL A   1      35.934  21.452  25.955  1.00  0.00     0.035 C 
ATOM     20  C   UNL A   1      34.258  22.640  27.192  1.00  0.00     0.035 C 
BRANCH  18  21
ATOM     21  C   UNL A   1      35.542  23.847  25.350  1.00  0.00     0.025 C 
ATOM     22  C   UNL A   1      36.949  24.065  25.909  1.00  0.00     0.006 C 
ENDBRANCH  18  21
ENDBRANCH  10  18
ENDBRANCH   8   9
ENDBRANCH   7   8
ENDBRANCH   4   7
ENDBRANCH   2   3
ENDBRANCH   1   2
BRANCH   1  23
ATOM     23  C   UNL A   1      32.243  29.945  25.597  1.00  0.00     0.002 C 
BRANCH  23  24
ATOM     24  C   UNL A   1      32.451  30.555  26.989  1.00  0.00     0.002 C 
BRANCH  24  25
ATOM     25  C   UNL A   1      33.855  30.434  27.597  1.00  0.00     0.021 C 
BRANCH  25  26
ATOM     26  C   UNL A   1      34.636  31.736  27.616  1.00  0.00     0.116 C 
BRANCH  26  27
ATOM     27  N   UNL A   1      34.602  32.361  28.926  1.00  0.00    -0.352 N 
ATOM     28  C   UNL A   1      35.278  31.989  30.064  1.00  0.00     0.251 C 
ATOM     29  H   UNL A   1      34.022  33.152  29.009  1.00  0.00     0.163 HD
ATOM     30  O   UNL A   1      34.862  32.330  31.162  1.00  0.00    -0.269 OA
BRANCH  28  31
ATOM     31  C   UNL A   1      36.507  31.179  29.958  1.00  0.00     0.039 A 
ATOM     32  C   UNL A   1      37.723  31.820  29.705  1.00  0.00     0.014 A 
ATOM     33  C   UNL A   1      36.445  29.785  30.037  1.00  0.00     0.014 A 
ATOM     34  C   UNL A   1      38.876  31.057  29.576  1.00  0.00     0.010 A 
ATOM     35  C   UNL A   1      37.600  29.030  29.988  1.00  0.00     0.010 A 
ATOM     36  C   UNL A   1      38.809  29.662  29.730  1.00  0.00    -0.014 A 
BRANCH  36  37
ATOM     37  C   UNL A   1      40.045  28.894  29.793  1.00  0.00     0.031 A 
ATOM     38  C   UNL A   1      40.563  28.756  31.176  1.00  0.00     0.074 A 
ATOM     39  C   UNL A   1      40.599  28.232  28.755  1.00  0.00     0.049 A 
ATOM     40  N   UNL A   1      41.565  29.385  31.691  1.00  0.00    -0.248 NA
ATOM     41  C   UNL A   1      39.793  27.968  32.151  1.00  0.00     0.031 C 
ATOM     42  C   UNL A   1      40.019  28.013  27.427  1.00  0.00     0.029 A 
ATOM     43  N   UNL A   1      41.777  27.540  28.691  1.00  0.00    -0.354 N 
ATOM     44  C   UNL A   1      41.707  28.878  32.979  1.00  0.00     0.074 A 
ATOM     45  C   UNL A   1      40.481  28.188  33.275  1.00  0.00     0.031 C 
ATOM     46  C   UNL A   1      40.736  27.073  26.769  1.00  0.00     0.029 A 
ATOM     47  C   UNL A   1      41.916  26.750  27.553  1.00  0.00     0.049 A 
ATOM     48  H   UNL A   1      42.467  27.596  29.389  1.00  0.00     0.167 HD
ATOM     49  C   UNL A   1      42.950  28.793  33.530  1.00  0.00     0.037 A 
ATOM     50  C   UNL A   1      42.933  25.896  27.276  1.00  0.00     0.037 A 
ATOM     51  C   UNL A   1      43.893  29.549  32.744  1.00  0.00     0.049 A 
ATOM     52  C   UNL A   1      44.103  26.336  28.066  1.00  0.00     0.074 A 
ATOM     53  C   UNL A   1      44.234  30.870  32.562  1.00  0.00     0.029 A 
ATOM     54  N   UNL A   1      44.384  28.847  31.678  1.00  0.00    -0.354 N 
ATOM     55  N   UNL A   1      44.748  27.445  27.835  1.00  0.00    -0.248 NA
ATOM     56  C   UNL A   1      44.390  25.691  29.342  1.00  0.00     0.031 C 
ATOM     57  C   UNL A   1      44.864  30.947  31.283  1.00  0.00     0.029 A 
ATOM     58  C   UNL A   1      44.927  29.669  30.736  1.00  0.00     0.049 A 
ATOM     59  H   UNL A   1      44.349  27.866  31.601  1.00  0.00     0.167 HD
ATOM     60  C   UNL A   1      45.169  27.848  29.082  1.00  0.00     0.074 A 
ATOM     61  C   UNL A   1      45.095  26.663  29.926  1.00  0.00     0.031 C 
ATOM     62  C   UNL A   1      45.192  29.169  29.408  1.00  0.00     0.037 A 
BRANCH  49  63
ATOM     63  C   UNL A   1      43.457  27.651  34.393  1.00  0.00     0.064 A 
ATOM     64  C   UNL A   1      43.480  26.350  33.837  1.00  0.00     0.173 A 
ATOM     65  C   UNL A   1      43.583  27.705  35.797  1.00  0.00     0.173 A 
ATOM     66  F   UNL A   1      43.359  26.169  32.513  1.00  0.00    -0.203 F 
ATOM     67  C   UNL A   1      43.527  25.201  34.633  1.00  0.00     0.198 A 
ATOM     68  C   UNL A   1      43.679  26.555  36.583  1.00  0.00     0.198 A 
ATOM     69  F   UNL A   1      43.504  28.849  36.482  1.00  0.00    -0.203 F 
ATOM     70  F   UNL A   1      43.412  23.993  34.066  1.00  0.00    -0.200 F 
ATOM     71  C   UNL A   1      43.618  25.306  36.007  1.00  0.00     0.200 A 
ATOM     72  F   UNL A   1      43.743  26.677  37.918  1.00  0.00    -0.200 F 
ATOM     73  F   UNL A   1      43.600  24.210  36.776  1.00  0.00    -0.200 F 
ENDBRANCH  49  63
BRANCH  50  74
ATOM     74  C   UNL A   1      42.966  24.627  26.509  1.00  0.00     0.064 A 
ATOM     75  C   UNL A   1      43.752  24.509  25.348  1.00  0.00     0.173 A 
ATOM     76  C   UNL A   1      42.504  23.426  27.076  1.00  0.00     0.173 A 
ATOM     77  F   UNL A   1      44.250  25.605  24.754  1.00  0.00    -0.203 F 
ATOM     78  C   UNL A   1      44.116  23.264  24.828  1.00  0.00     0.198 A 
ATOM     79  C   UNL A   1      42.864  22.181  26.550  1.00  0.00     0.198 A 
ATOM     80  F   UNL A   1      41.785  23.436  28.207  1.00  0.00    -0.203 F 
ATOM     81  F   UNL A   1      44.940  23.196  23.773  1.00  0.00    -0.200 F 
ATOM     82  C   UNL A   1      43.688  22.101  25.442  1.00  0.00     0.200 A 
ATOM     83  F   UNL A   1      42.469  21.060  27.169  1.00  0.00    -0.200 F 
ATOM     84  F   UNL A   1      44.105  20.908  24.996  1.00  0.00    -0.200 F 
ENDBRANCH  50  74
BRANCH  62  85
ATOM     85  C   UNL A   1      45.326  30.164  28.306  1.00  0.00     0.064 A 
ATOM     86  C   UNL A   1      44.250  30.773  27.645  1.00  0.00     0.173 A 
ATOM     87  C   UNL A   1      46.620  30.615  28.010  1.00  0.00     0.173 A 
ATOM     88  F   UNL A   1      42.985  30.425  27.919  1.00  0.00    -0.203 F 
ATOM     89  C   UNL A   1      44.469  31.798  26.726  1.00  0.00     0.198 A 
ATOM     90  C   UNL A   1      46.832  31.659  27.120  1.00  0.00     0.198 A 
ATOM     91  F   UNL A   1      47.677  30.076  28.638  1.00  0.00    -0.203 F 
ATOM     92  F   UNL A   1      43.430  32.378  26.105  1.00  0.00    -0.200 F 
ATOM     93  C   UNL A   1      45.757  32.250  26.477  1.00  0.00     0.200 A 
ATOM     94  F   UNL A   1      48.075  32.114  26.915  1.00  0.00    -0.200 F 
ATOM     95  F   UNL A   1      45.962  33.274  25.637  1.00  0.00    -0.200 F 
ENDBRANCH  62  85
ENDBRANCH  36  37
ENDBRANCH  28  31
ENDBRANCH  26  27
ENDBRANCH  25  26
ENDBRANCH  24  25
ENDBRANCH  23  24
ENDBRANCH   1  23
TORSDOF 17
ENDMDL
