MODEL 1
REMARK VINA RESULT:     -12.7      0.000      0.000
REMARK SMILES O=C(NCCCCCCNC(=O)c1cc(NC(=O)c2ccccc2Cl)ccc1N1CCC[C@H](C[NH+]2CCCC2)C1)c1ccc(-c2c3nc(c(-c4c(F)c(F)c(F)c(F)c4F)c4ccc([nH]4)c(-c4c(F)c(F)c(F)c(F)c4F)c4nc(c(-c5c(F)c(F)c(F)c(F)c5F)c5ccc2[nH]5)C=C4)C=C3)cc1
REMARK SMILES IDX 7 1 6 2 5 3 4 4 3 5 1 6 2 7 41 9 42 10 103 11 43 12 102 13
REMARK SMILES IDX 44 14 45 15 46 16 96 17 47 18 101 19 95 20 97 21 48 22
REMARK SMILES IDX 100 23 94 24 93 25 49 27 81 28 61 29 80 30 62 31 65 32 79 33
REMARK SMILES IDX 98 34 63 35 64 36 78 38 99 39 66 40 50 41 51 42 59 43 52 44
REMARK SMILES IDX 53 45 57 46 60 47 54 48 55 49 58 50 56 51 82 52 83 53 91 54
REMARK SMILES IDX 84 55 85 56 89 57 92 58 86 59 87 60 90 61 88 62 67 63 68 64
REMARK SMILES IDX 76 65 69 66 70 67 74 68 77 69 71 70 72 71 75 72 73 73 8 74
REMARK SMILES IDX 9 75 10 76 11 77 12 79 13 80 14 81 28 82 15 83 27 84 26 85
REMARK SMILES IDX 29 86 30 87 40 88 31 89 33 90 32 91 34 92 35 93 36 94 39 95
REMARK SMILES IDX 37 97 38 98 16 99 17 100 18 102 19 103 20 104 24 105 21 106
REMARK SMILES IDX 23 107 25 108 22 109
REMARK H PARENT 3 8 97 26 65 37 10 78 35 96 16 101
REMARK Flexibility Score: inf
ROOT
ATOM      1  C   UNL A   1      37.045  21.941  24.065  1.00  0.00     0.002 C 
ENDROOT
BRANCH   1   2
ATOM      2  C   UNL A   1      36.973  20.716  24.983  1.00  0.00     0.002 C 
BRANCH   2   3
ATOM      3  C   UNL A   1      38.173  19.769  24.959  1.00  0.00     0.021 C 
BRANCH   3   4
ATOM      4  C   UNL A   1      39.205  19.975  26.060  1.00  0.00     0.116 C 
BRANCH   4   5
ATOM      5  N   UNL A   1      40.352  19.093  25.948  1.00  0.00    -0.352 N 
ATOM      6  O   UNL A   1      42.527  18.516  25.810  1.00  0.00    -0.269 OA
ATOM      7  C   UNL A   1      41.695  19.382  26.036  1.00  0.00     0.251 C 
ATOM      8  H   UNL A   1      40.138  18.146  25.784  1.00  0.00     0.163 HD
BRANCH   7   9
ATOM      9  C   UNL A   1      42.136  20.755  26.376  1.00  0.00     0.039 A 
ATOM     10  C   UNL A   1      42.387  21.128  27.697  1.00  0.00     0.014 A 
ATOM     11  C   UNL A   1      42.320  21.680  25.342  1.00  0.00     0.014 A 
ATOM     12  C   UNL A   1      42.689  22.453  27.999  1.00  0.00     0.010 A 
ATOM     13  C   UNL A   1      42.704  22.991  25.639  1.00  0.00     0.010 A 
ATOM     14  C   UNL A   1      42.865  23.395  26.973  1.00  0.00    -0.014 A 
BRANCH  14  15
ATOM     15  C   UNL A   1      43.290  24.776  27.317  1.00  0.00     0.031 A 
ATOM     16  C   UNL A   1      44.694  25.247  27.062  1.00  0.00     0.074 A 
ATOM     17  C   UNL A   1      42.382  25.614  27.851  1.00  0.00     0.049 A 
ATOM     18  N   UNL A   1      45.223  26.423  27.291  1.00  0.00    -0.248 NA
ATOM     19  C   UNL A   1      45.629  24.273  26.479  1.00  0.00     0.031 C 
ATOM     20  C   UNL A   1      40.994  25.261  28.160  1.00  0.00     0.029 A 
ATOM     21  N   UNL A   1      42.479  26.931  28.219  1.00  0.00    -0.354 N 
ATOM     22  C   UNL A   1      46.552  26.328  26.898  1.00  0.00     0.074 A 
ATOM     23  C   UNL A   1      46.757  24.970  26.438  1.00  0.00     0.031 C 
ATOM     24  C   UNL A   1      40.359  26.344  28.630  1.00  0.00     0.029 A 
ATOM     25  C   UNL A   1      41.308  27.448  28.716  1.00  0.00     0.049 A 
ATOM     26  H   UNL A   1      43.309  27.456  28.136  1.00  0.00     0.167 HD
ATOM     27  C   UNL A   1      47.506  27.290  26.912  1.00  0.00     0.037 A 
ATOM     28  C   UNL A   1      41.031  28.671  29.206  1.00  0.00     0.037 A 
ATOM     29  C   UNL A   1      47.291  28.642  27.363  1.00  0.00     0.049 A 
ATOM     30  C   UNL A   1      42.117  29.707  29.234  1.00  0.00     0.074 A 
ATOM     31  C   UNL A   1      48.185  29.700  27.380  1.00  0.00     0.029 A 
ATOM     32  N   UNL A   1      46.098  29.121  27.885  1.00  0.00    -0.354 N 
ATOM     33  N   UNL A   1      43.356  29.617  28.819  1.00  0.00    -0.248 NA
ATOM     34  C   UNL A   1      41.766  31.016  29.801  1.00  0.00     0.031 C 
ATOM     35  C   UNL A   1      47.548  30.803  27.957  1.00  0.00     0.029 A 
ATOM     36  C   UNL A   1      46.241  30.452  28.251  1.00  0.00     0.049 A 
ATOM     37  H   UNL A   1      45.271  28.595  27.981  1.00  0.00     0.167 HD
ATOM     38  C   UNL A   1      43.929  30.857  29.058  1.00  0.00     0.074 A 
ATOM     39  C   UNL A   1      42.894  31.691  29.634  1.00  0.00     0.031 C 
ATOM     40  C   UNL A   1      45.200  31.267  28.824  1.00  0.00     0.037 A 
BRANCH  27  41
ATOM     41  C   UNL A   1      48.884  26.916  26.442  1.00  0.00     0.064 A 
ATOM     42  C   UNL A   1      49.836  26.363  27.313  1.00  0.00     0.173 A 
ATOM     43  C   UNL A   1      49.239  27.063  25.092  1.00  0.00     0.173 A 
ATOM     44  F   UNL A   1      49.553  26.210  28.615  1.00  0.00    -0.203 F 
ATOM     45  C   UNL A   1      51.098  25.992  26.852  1.00  0.00     0.198 A 
ATOM     46  C   UNL A   1      50.491  26.666  24.631  1.00  0.00     0.198 A 
ATOM     47  F   UNL A   1      48.364  27.580  24.216  1.00  0.00    -0.203 F 
ATOM     48  F   UNL A   1      52.005  25.504  27.709  1.00  0.00    -0.200 F 
ATOM     49  C   UNL A   1      51.421  26.135  25.511  1.00  0.00     0.200 A 
ATOM     50  F   UNL A   1      50.797  26.793  23.332  1.00  0.00    -0.200 F 
ATOM     51  F   UNL A   1      52.632  25.770  25.069  1.00  0.00    -0.200 F 
ENDBRANCH  27  41
BRANCH  28  52
ATOM     52  C   UNL A   1      39.666  28.970  29.709  1.00  0.00     0.064 A 
ATOM     53  C   UNL A   1      38.676  29.473  28.855  1.00  0.00     0.173 A 
ATOM     54  C   UNL A   1      39.319  28.741  31.048  1.00  0.00     0.173 A 
ATOM     55  F   UNL A   1      38.965  29.725  27.570  1.00  0.00    -0.203 F 
ATOM     56  C   UNL A   1      37.394  29.751  29.326  1.00  0.00     0.198 A 
ATOM     57  C   UNL A   1      38.030  28.989  31.511  1.00  0.00     0.198 A 
ATOM     58  F   UNL A   1      40.231  28.254  31.904  1.00  0.00    -0.203 F 
ATOM     59  F   UNL A   1      36.477  30.269  28.499  1.00  0.00    -0.200 F 
ATOM     60  C   UNL A   1      37.070  29.502  30.651  1.00  0.00     0.200 A 
ATOM     61  F   UNL A   1      37.717  28.729  32.788  1.00  0.00    -0.200 F 
ATOM     62  F   UNL A   1      35.834  29.758  31.101  1.00  0.00    -0.200 F 
ENDBRANCH  28  52
BRANCH  40  63
ATOM     63  C   UNL A   1      45.531  32.690  29.168  1.00  0.00     0.064 A 
ATOM     64  C   UNL A   1      46.053  33.042  30.423  1.00  0.00     0.173 A 
ATOM     65  C   UNL A   1      45.345  33.710  28.223  1.00  0.00     0.173 A 
ATOM     66  F   UNL A   1      46.231  32.105  31.366  1.00  0.00    -0.203 F 
ATOM     67  C   UNL A   1      46.350  34.367  30.727  1.00  0.00     0.198 A 
ATOM     68  C   UNL A   1      45.673  35.030  28.521  1.00  0.00     0.198 A 
ATOM     69  F   UNL A   1      44.854  33.426  27.009  1.00  0.00    -0.203 F 
ATOM     70  F   UNL A   1      46.800  34.687  31.948  1.00  0.00    -0.200 F 
ATOM     71  C   UNL A   1      46.167  35.358  29.774  1.00  0.00     0.200 A 
ATOM     72  F   UNL A   1      45.506  35.985  27.596  1.00  0.00    -0.200 F 
ATOM     73  F   UNL A   1      46.458  36.633  30.068  1.00  0.00    -0.200 F 
ENDBRANCH  40  63
ENDBRANCH  14  15
ENDBRANCH   7   9
ENDBRANCH   4   5
ENDBRANCH   3   4
ENDBRANCH   2   3
ENDBRANCH   1   2
BRANCH   1  74
ATOM     74  C   UNL A   1      36.530  23.269  24.632  1.00  0.00     0.021 C 
BRANCH  74  75
ATOM     75  C   UNL A   1      35.394  23.924  23.856  1.00  0.00     0.116 C 
BRANCH  75  76
ATOM     76  N   UNL A   1      34.632  23.020  23.024  1.00  0.00    -0.352 N 
ATOM     77  C   UNL A   1      33.293  23.084  22.717  1.00  0.00     0.253 C 
ATOM     78  H   UNL A   1      35.132  22.270  22.631  1.00  0.00     0.163 HD
ATOM     79  O   UNL A   1      32.828  22.296  21.897  1.00  0.00    -0.269 OA
BRANCH  77  80
ATOM     80  C   UNL A   1      32.380  24.012  23.440  1.00  0.00     0.065 A 
ATOM     81  C   UNL A   1      32.021  25.138  22.679  1.00  0.00     0.042 A 
ATOM     82  C   UNL A   1      31.874  23.828  24.742  1.00  0.00     0.050 A 
ATOM     83  C   UNL A   1      31.046  26.030  23.108  1.00  0.00     0.042 A 
ATOM     84  C   UNL A   1      30.935  24.781  25.184  1.00  0.00     0.029 A 
ATOM     85  C   UNL A   1      30.523  25.858  24.386  1.00  0.00     0.028 A 
BRANCH  82  86
ATOM     86  N   UNL A   1      32.297  22.854  25.636  1.00  0.00    -0.370 N 
ATOM     87  C   UNL A   1      33.285  23.162  26.673  1.00  0.00     0.116 C 
ATOM     88  C   UNL A   1      31.567  21.587  25.704  1.00  0.00     0.126 C 
ATOM     89  C   UNL A   1      34.204  21.975  26.942  1.00  0.00     0.022 C 
ATOM     90  C   UNL A   1      32.549  20.414  25.820  1.00  0.00     0.064 C 
ATOM     91  C   UNL A   1      33.427  20.665  27.055  1.00  0.00     0.013 C 
BRANCH  90  92
ATOM     92  C   UNL A   1      33.304  20.240  24.474  1.00  0.00     0.267 C 
BRANCH  92  93
ATOM     93  N   UNL A   1      33.434  18.907  23.878  1.00  0.00    -0.335 N 
ATOM     94  C   UNL A   1      32.244  18.067  23.984  1.00  0.00     0.262 C 
ATOM     95  C   UNL A   1      34.583  18.114  24.301  1.00  0.00     0.262 C 
ATOM     96  H   UNL A   1      33.580  19.175  22.906  1.00  0.00     0.348 HD
ATOM     97  C   UNL A   1      32.536  17.108  25.121  1.00  0.00     0.067 C 
ATOM     98  C   UNL A   1      34.038  16.904  25.052  1.00  0.00     0.067 C 
ENDBRANCH  92  93
ENDBRANCH  90  92
ENDBRANCH  82  86
BRANCH  83  99
ATOM     99  N   UNL A   1      30.542  27.093  22.332  1.00  0.00    -0.322 N 
ATOM    100  C   UNL A   1      30.632  28.463  22.480  1.00  0.00     0.257 C 
ATOM    101  H   UNL A   1      30.031  26.807  21.541  1.00  0.00     0.170 HD
ATOM    102  O   UNL A   1      29.998  29.211  21.739  1.00  0.00    -0.269 OA
BRANCH 100 103
ATOM    103  C   UNL A   1      31.489  29.067  23.515  1.00  0.00     0.058 A 
ATOM    104  C   UNL A   1      30.841  29.699  24.586  1.00  0.00     0.015 A 
ATOM    105  C   UNL A   1      32.885  28.953  23.501  1.00  0.00     0.053 A 
ATOM    106  C   UNL A   1      31.582  30.135  25.683  1.00  0.00     0.001 A 
ATOM    107  C   UNL A   1      33.618  29.382  24.610  1.00  0.00     0.021 A 
ATOM    108  Cl  UNL A   1      33.755  28.256  22.181  1.00  0.00    -0.083 Cl
ATOM    109  C   UNL A   1      32.966  29.957  25.705  1.00  0.00     0.002 A 
ENDBRANCH 100 103
ENDBRANCH  83  99
ENDBRANCH  77  80
ENDBRANCH  75  76
ENDBRANCH  74  75
ENDBRANCH   1  74
TORSDOF 18
ENDMDL
MODEL 2
REMARK VINA RESULT:     -12.7      4.760     10.810
REMARK SMILES O=C(NCCCCCCNC(=O)c1cc(NC(=O)c2ccccc2Cl)ccc1N1CCC[C@H](C[NH+]2CCCC2)C1)c1ccc(-c2c3nc(c(-c4c(F)c(F)c(F)c(F)c4F)c4ccc([nH]4)c(-c4c(F)c(F)c(F)c(F)c4F)c4nc(c(-c5c(F)c(F)c(F)c(F)c5F)c5ccc2[nH]5)C=C4)C=C3)cc1
REMARK SMILES IDX 7 1 6 2 5 3 4 4 3 5 1 6 2 7 41 9 42 10 103 11 43 12 102 13
REMARK SMILES IDX 44 14 45 15 46 16 96 17 47 18 101 19 95 20 97 21 48 22
REMARK SMILES IDX 100 23 94 24 93 25 49 27 81 28 61 29 80 30 62 31 65 32 79 33
REMARK SMILES IDX 98 34 63 35 64 36 78 38 99 39 66 40 50 41 51 42 59 43 52 44
REMARK SMILES IDX 53 45 57 46 60 47 54 48 55 49 58 50 56 51 82 52 83 53 91 54
REMARK SMILES IDX 84 55 85 56 89 57 92 58 86 59 87 60 90 61 88 62 67 63 68 64
REMARK SMILES IDX 76 65 69 66 70 67 74 68 77 69 71 70 72 71 75 72 73 73 8 74
REMARK SMILES IDX 9 75 10 76 11 77 12 79 13 80 14 81 28 82 15 83 27 84 26 85
REMARK SMILES IDX 29 86 30 87 40 88 31 89 33 90 32 91 34 92 35 93 36 94 39 95
REMARK SMILES IDX 37 97 38 98 16 99 17 100 18 102 19 103 20 104 24 105 21 106
REMARK SMILES IDX 23 107 25 108 22 109
REMARK H PARENT 3 8 97 26 65 37 10 78 35 96 16 101
REMARK Flexibility Score: inf
ROOT
ATOM      1  C   UNL A   1      32.683  29.601  26.872  1.00  0.00     0.002 C 
ENDROOT
BRANCH   1   2
ATOM      2  C   UNL A   1      31.491  30.356  26.273  1.00  0.00     0.002 C 
BRANCH   2   3
ATOM      3  C   UNL A   1      31.358  31.833  26.644  1.00  0.00     0.021 C 
BRANCH   3   4
ATOM      4  C   UNL A   1      32.661  32.562  26.948  1.00  0.00     0.116 C 
BRANCH   4   5
ATOM      5  N   UNL A   1      32.464  33.882  27.519  1.00  0.00    -0.352 N 
ATOM      6  O   UNL A   1      32.761  35.591  28.958  1.00  0.00    -0.269 OA
ATOM      7  C   UNL A   1      33.140  34.507  28.541  1.00  0.00     0.251 C 
ATOM      8  H   UNL A   1      31.736  34.409  27.115  1.00  0.00     0.163 HD
BRANCH   7   9
ATOM      9  C   UNL A   1      34.316  33.850  29.161  1.00  0.00     0.039 A 
ATOM     10  C   UNL A   1      34.164  32.784  30.048  1.00  0.00     0.014 A 
ATOM     11  C   UNL A   1      35.596  34.305  28.827  1.00  0.00     0.014 A 
ATOM     12  C   UNL A   1      35.277  32.263  30.704  1.00  0.00     0.010 A 
ATOM     13  C   UNL A   1      36.720  33.724  29.423  1.00  0.00     0.010 A 
ATOM     14  C   UNL A   1      36.567  32.717  30.387  1.00  0.00    -0.014 A 
BRANCH  14  15
ATOM     15  C   UNL A   1      37.743  32.070  31.023  1.00  0.00     0.031 A 
ATOM     16  C   UNL A   1      38.175  32.434  32.415  1.00  0.00     0.074 A 
ATOM     17  C   UNL A   1      38.413  31.129  30.331  1.00  0.00     0.049 A 
ATOM     18  N   UNL A   1      39.170  31.956  33.121  1.00  0.00    -0.248 NA
ATOM     19  C   UNL A   1      37.396  33.472  33.106  1.00  0.00     0.031 C 
ATOM     20  C   UNL A   1      38.095  30.707  28.965  1.00  0.00     0.029 A 
ATOM     21  N   UNL A   1      39.487  30.351  30.677  1.00  0.00    -0.354 N 
ATOM     22  C   UNL A   1      39.147  32.642  34.328  1.00  0.00     0.074 A 
ATOM     23  C   UNL A   1      38.055  33.590  34.252  1.00  0.00     0.031 C 
ATOM     24  C   UNL A   1      38.927  29.720  28.604  1.00  0.00     0.029 A 
ATOM     25  C   UNL A   1      39.875  29.482  29.687  1.00  0.00     0.049 A 
ATOM     26  H   UNL A   1      39.938  30.410  31.551  1.00  0.00     0.167 HD
ATOM     27  C   UNL A   1      39.960  32.486  35.402  1.00  0.00     0.037 A 
ATOM     28  C   UNL A   1      40.894  28.604  29.644  1.00  0.00     0.037 A 
ATOM     29  C   UNL A   1      41.039  31.534  35.474  1.00  0.00     0.049 A 
ATOM     30  C   UNL A   1      41.793  28.474  30.840  1.00  0.00     0.074 A 
ATOM     31  C   UNL A   1      41.893  31.274  36.532  1.00  0.00     0.029 A 
ATOM     32  N   UNL A   1      41.419  30.690  34.440  1.00  0.00    -0.354 N 
ATOM     33  N   UNL A   1      41.733  29.098  31.990  1.00  0.00    -0.248 NA
ATOM     34  C   UNL A   1      42.903  27.518  30.729  1.00  0.00     0.031 C 
ATOM     35  C   UNL A   1      42.819  30.310  36.122  1.00  0.00     0.029 A 
ATOM     36  C   UNL A   1      42.510  29.927  34.827  1.00  0.00     0.049 A 
ATOM     37  H   UNL A   1      40.977  30.638  33.561  1.00  0.00     0.167 HD
ATOM     38  C   UNL A   1      42.784  28.601  32.747  1.00  0.00     0.074 A 
ATOM     39  C   UNL A   1      43.452  27.606  31.933  1.00  0.00     0.031 C 
ATOM     40  C   UNL A   1      43.164  28.941  34.004  1.00  0.00     0.037 A 
BRANCH  27  41
ATOM     41  C   UNL A   1      39.728  33.378  36.590  1.00  0.00     0.064 A 
ATOM     42  C   UNL A   1      40.381  34.612  36.724  1.00  0.00     0.173 A 
ATOM     43  C   UNL A   1      38.800  33.017  37.579  1.00  0.00     0.173 A 
ATOM     44  F   UNL A   1      41.285  35.002  35.813  1.00  0.00    -0.203 F 
ATOM     45  C   UNL A   1      40.130  35.441  37.816  1.00  0.00     0.198 A 
ATOM     46  C   UNL A   1      38.532  33.860  38.654  1.00  0.00     0.198 A 
ATOM     47  F   UNL A   1      38.143  31.851  37.496  1.00  0.00    -0.203 F 
ATOM     48  F   UNL A   1      40.796  36.597  37.945  1.00  0.00    -0.200 F 
ATOM     49  C   UNL A   1      39.200  35.068  38.775  1.00  0.00     0.200 A 
ATOM     50  F   UNL A   1      37.623  33.504  39.573  1.00  0.00    -0.200 F 
ATOM     51  F   UNL A   1      38.954  35.871  39.820  1.00  0.00    -0.200 F 
ENDBRANCH  27  41
BRANCH  28  52
ATOM     52  C   UNL A   1      41.110  27.787  28.424  1.00  0.00     0.064 A 
ATOM     53  C   UNL A   1      40.445  26.568  28.243  1.00  0.00     0.173 A 
ATOM     54  C   UNL A   1      41.974  28.217  27.405  1.00  0.00     0.173 A 
ATOM     55  F   UNL A   1      39.623  26.106  29.197  1.00  0.00    -0.203 F 
ATOM     56  C   UNL A   1      40.645  25.803  27.096  1.00  0.00     0.198 A 
ATOM     57  C   UNL A   1      42.150  27.467  26.246  1.00  0.00     0.198 A 
ATOM     58  F   UNL A   1      42.630  29.381  27.529  1.00  0.00    -0.203 F 
ATOM     59  F   UNL A   1      40.027  24.622  26.965  1.00  0.00    -0.200 F 
ATOM     60  C   UNL A   1      41.491  26.256  26.095  1.00  0.00     0.200 A 
ATOM     61  F   UNL A   1      42.954  27.920  25.273  1.00  0.00    -0.200 F 
ATOM     62  F   UNL A   1      41.675  25.526  24.987  1.00  0.00    -0.200 F 
ENDBRANCH  28  52
BRANCH  40  63
ATOM     63  C   UNL A   1      44.340  28.211  34.581  1.00  0.00     0.064 A 
ATOM     64  C   UNL A   1      45.647  28.706  34.459  1.00  0.00     0.173 A 
ATOM     65  C   UNL A   1      44.155  27.011  35.286  1.00  0.00     0.173 A 
ATOM     66  F   UNL A   1      45.878  29.839  33.779  1.00  0.00    -0.203 F 
ATOM     67  C   UNL A   1      46.728  28.013  34.997  1.00  0.00     0.198 A 
ATOM     68  C   UNL A   1      45.235  26.338  35.849  1.00  0.00     0.198 A 
ATOM     69  F   UNL A   1      42.925  26.498  35.435  1.00  0.00    -0.203 F 
ATOM     70  F   UNL A   1      47.973  28.479  34.824  1.00  0.00    -0.200 F 
ATOM     71  C   UNL A   1      46.520  26.834  35.697  1.00  0.00     0.200 A 
ATOM     72  F   UNL A   1      45.031  25.204  36.535  1.00  0.00    -0.200 F 
ATOM     73  F   UNL A   1      47.562  26.171  36.218  1.00  0.00    -0.200 F 
ENDBRANCH  40  63
ENDBRANCH  14  15
ENDBRANCH   7   9
ENDBRANCH   4   5
ENDBRANCH   3   4
ENDBRANCH   2   3
ENDBRANCH   1   2
BRANCH   1  74
ATOM     74  C   UNL A   1      32.379  28.293  27.612  1.00  0.00     0.021 C 
BRANCH  74  75
ATOM     75  C   UNL A   1      32.144  27.072  26.730  1.00  0.00     0.116 C 
BRANCH  75  76
ATOM     76  N   UNL A   1      30.773  26.884  26.314  1.00  0.00    -0.352 N 
ATOM     77  C   UNL A   1      30.258  25.864  25.547  1.00  0.00     0.253 C 
ATOM     78  H   UNL A   1      30.132  27.566  26.616  1.00  0.00     0.163 HD
ATOM     79  O   UNL A   1      29.042  25.794  25.383  1.00  0.00    -0.269 OA
BRANCH  77  80
ATOM     80  C   UNL A   1      31.151  24.918  24.824  1.00  0.00     0.065 A 
ATOM     81  C   UNL A   1      31.176  23.635  25.399  1.00  0.00     0.042 A 
ATOM     82  C   UNL A   1      31.902  25.206  23.668  1.00  0.00     0.050 A 
ATOM     83  C   UNL A   1      31.810  22.566  24.776  1.00  0.00     0.042 A 
ATOM     84  C   UNL A   1      32.591  24.123  23.088  1.00  0.00     0.029 A 
ATOM     85  C   UNL A   1      32.545  22.828  23.624  1.00  0.00     0.028 A 
BRANCH  82  86
ATOM     86  N   UNL A   1      32.085  26.472  23.127  1.00  0.00    -0.370 N 
ATOM     87  C   UNL A   1      33.281  27.258  23.441  1.00  0.00     0.116 C 
ATOM     88  C   UNL A   1      31.207  26.915  22.042  1.00  0.00     0.126 C 
ATOM     89  C   UNL A   1      32.966  28.749  23.519  1.00  0.00     0.022 C 
ATOM     90  C   UNL A   1      30.799  28.378  22.254  1.00  0.00     0.064 C 
ATOM     91  C   UNL A   1      32.086  29.209  22.358  1.00  0.00     0.013 C 
BRANCH  90  92
ATOM     92  C   UNL A   1      29.830  28.471  23.464  1.00  0.00     0.267 C 
BRANCH  92  93
ATOM     93  N   UNL A   1      28.759  29.471  23.465  1.00  0.00    -0.335 N 
ATOM     94  C   UNL A   1      27.798  29.345  22.372  1.00  0.00     0.262 C 
ATOM     95  C   UNL A   1      29.171  30.868  23.540  1.00  0.00     0.262 C 
ATOM     96  H   UNL A   1      28.309  29.230  24.347  1.00  0.00     0.348 HD
ATOM     97  C   UNL A   1      28.196  30.409  21.370  1.00  0.00     0.067 C 
ATOM     98  C   UNL A   1      28.763  31.526  22.226  1.00  0.00     0.067 C 
ENDBRANCH  92  93
ENDBRANCH  90  92
ENDBRANCH  82  86
BRANCH  83  99
ATOM     99  N   UNL A   1      31.750  21.232  25.226  1.00  0.00    -0.322 N 
ATOM    100  C   UNL A   1      32.737  20.346  25.609  1.00  0.00     0.257 C 
ATOM    101  H   UNL A   1      30.838  20.864  25.274  1.00  0.00     0.170 HD
ATOM    102  O   UNL A   1      32.460  19.172  25.849  1.00  0.00    -0.269 OA
BRANCH 100 103
ATOM    103  C   UNL A   1      34.139  20.775  25.749  1.00  0.00     0.058 A 
ATOM    104  C   UNL A   1      35.058  20.252  24.828  1.00  0.00     0.015 A 
ATOM    105  C   UNL A   1      34.548  21.728  26.691  1.00  0.00     0.053 A 
ATOM    106  C   UNL A   1      36.360  20.748  24.792  1.00  0.00     0.001 A 
ATOM    107  C   UNL A   1      35.852  22.227  26.640  1.00  0.00     0.021 A 
ATOM    108  Cl  UNL A   1      33.491  22.358  27.904  1.00  0.00    -0.083 Cl
ATOM    109  C   UNL A   1      36.751  21.749  25.682  1.00  0.00     0.002 A 
ENDBRANCH 100 103
ENDBRANCH  83  99
ENDBRANCH  77  80
ENDBRANCH  75  76
ENDBRANCH  74  75
ENDBRANCH   1  74
TORSDOF 18
ENDMDL
MODEL 3
REMARK VINA RESULT:     -12.7      0.328      6.885
REMARK SMILES O=C(NCCCCCCNC(=O)c1cc(NC(=O)c2ccccc2Cl)ccc1N1CCC[C@H](C[NH+]2CCCC2)C1)c1ccc(-c2c3nc(c(-c4c(F)c(F)c(F)c(F)c4F)c4ccc([nH]4)c(-c4c(F)c(F)c(F)c(F)c4F)c4nc(c(-c5c(F)c(F)c(F)c(F)c5F)c5ccc2[nH]5)C=C4)C=C3)cc1
REMARK SMILES IDX 7 1 6 2 5 3 4 4 3 5 1 6 2 7 41 9 42 10 103 11 43 12 102 13
REMARK SMILES IDX 44 14 45 15 46 16 96 17 47 18 101 19 95 20 97 21 48 22
REMARK SMILES IDX 100 23 94 24 93 25 49 27 81 28 61 29 80 30 62 31 65 32 79 33
REMARK SMILES IDX 98 34 63 35 64 36 78 38 99 39 66 40 50 41 51 42 59 43 52 44
REMARK SMILES IDX 53 45 57 46 60 47 54 48 55 49 58 50 56 51 82 52 83 53 91 54
REMARK SMILES IDX 84 55 85 56 89 57 92 58 86 59 87 60 90 61 88 62 67 63 68 64
REMARK SMILES IDX 76 65 69 66 70 67 74 68 77 69 71 70 72 71 75 72 73 73 8 74
REMARK SMILES IDX 9 75 10 76 11 77 12 79 13 80 14 81 28 82 15 83 27 84 26 85
REMARK SMILES IDX 29 86 30 87 40 88 31 89 33 90 32 91 34 92 35 93 36 94 39 95
REMARK SMILES IDX 37 97 38 98 16 99 17 100 18 102 19 103 20 104 24 105 21 106
REMARK SMILES IDX 23 107 25 108 22 109
REMARK H PARENT 3 8 97 26 65 37 10 78 35 96 16 101
REMARK Flexibility Score: inf
ROOT
ATOM      1  C   UNL A   1      37.052  21.914  23.955  1.00  0.00     0.002 C 
ENDROOT
BRANCH   1   2
ATOM      2  C   UNL A   1      36.935  20.740  24.933  1.00  0.00     0.002 C 
BRANCH   2   3
ATOM      3  C   UNL A   1      38.112  19.766  24.979  1.00  0.00     0.021 C 
BRANCH   3   4
ATOM      4  C   UNL A   1      39.189  20.073  26.012  1.00  0.00     0.116 C 
BRANCH   4   5
ATOM      5  N   UNL A   1      40.315  19.158  25.961  1.00  0.00    -0.352 N 
ATOM      6  O   UNL A   1      42.476  18.520  25.902  1.00  0.00    -0.269 OA
ATOM      7  C   UNL A   1      41.662  19.415  26.075  1.00  0.00     0.251 C 
ATOM      8  H   UNL A   1      40.079  18.212  25.824  1.00  0.00     0.163 HD
BRANCH   7   9
ATOM      9  C   UNL A   1      42.131  20.787  26.380  1.00  0.00     0.039 A 
ATOM     10  C   UNL A   1      42.425  21.178  27.687  1.00  0.00     0.014 A 
ATOM     11  C   UNL A   1      42.296  21.692  25.326  1.00  0.00     0.014 A 
ATOM     12  C   UNL A   1      42.753  22.504  27.958  1.00  0.00     0.010 A 
ATOM     13  C   UNL A   1      42.706  23.003  25.590  1.00  0.00     0.010 A 
ATOM     14  C   UNL A   1      42.912  23.426  26.912  1.00  0.00    -0.014 A 
BRANCH  14  15
ATOM     15  C   UNL A   1      43.365  24.807  27.220  1.00  0.00     0.031 A 
ATOM     16  C   UNL A   1      42.433  25.815  27.830  1.00  0.00     0.074 A 
ATOM     17  C   UNL A   1      44.643  25.138  26.959  1.00  0.00     0.049 A 
ATOM     18  N   UNL A   1      42.672  27.057  28.172  1.00  0.00    -0.248 NA
ATOM     19  C   UNL A   1      41.051  25.380  28.083  1.00  0.00     0.031 C 
ATOM     20  C   UNL A   1      45.634  24.246  26.352  1.00  0.00     0.029 A 
ATOM     21  N   UNL A   1      45.334  26.302  27.177  1.00  0.00    -0.354 N 
ATOM     22  C   UNL A   1      41.473  27.556  28.666  1.00  0.00     0.074 A 
ATOM     23  C   UNL A   1      40.498  26.490  28.554  1.00  0.00     0.031 C 
ATOM     24  C   UNL A   1      46.813  24.880  26.284  1.00  0.00     0.029 A 
ATOM     25  C   UNL A   1      46.648  26.240  26.784  1.00  0.00     0.049 A 
ATOM     26  H   UNL A   1      44.927  27.105  27.576  1.00  0.00     0.167 HD
ATOM     27  C   UNL A   1      41.216  28.787  29.171  1.00  0.00     0.037 A 
ATOM     28  C   UNL A   1      47.612  27.180  26.803  1.00  0.00     0.037 A 
ATOM     29  C   UNL A   1      42.194  29.838  29.287  1.00  0.00     0.049 A 
ATOM     30  C   UNL A   1      47.288  28.542  27.344  1.00  0.00     0.074 A 
ATOM     31  C   UNL A   1      42.041  31.107  29.822  1.00  0.00     0.029 A 
ATOM     32  N   UNL A   1      43.509  29.747  28.853  1.00  0.00    -0.354 N 
ATOM     33  N   UNL A   1      46.163  28.986  27.847  1.00  0.00    -0.248 NA
ATOM     34  C   UNL A   1      48.371  29.535  27.318  1.00  0.00     0.031 C 
ATOM     35  C   UNL A   1      43.246  31.798  29.666  1.00  0.00     0.029 A 
ATOM     36  C   UNL A   1      44.170  30.944  29.084  1.00  0.00     0.049 A 
ATOM     37  H   UNL A   1      43.914  28.949  28.442  1.00  0.00     0.167 HD
ATOM     38  C   UNL A   1      46.403  30.302  28.213  1.00  0.00     0.074 A 
ATOM     39  C   UNL A   1      47.789  30.578  27.895  1.00  0.00     0.031 C 
ATOM     40  C   UNL A   1      45.550  31.203  28.760  1.00  0.00     0.037 A 
BRANCH  27  41
ATOM     41  C   UNL A   1      39.813  29.077  29.627  1.00  0.00     0.064 A 
ATOM     42  C   UNL A   1      38.821  29.504  28.731  1.00  0.00     0.173 A 
ATOM     43  C   UNL A   1      39.444  28.875  30.966  1.00  0.00     0.173 A 
ATOM     44  F   UNL A   1      39.121  29.722  27.443  1.00  0.00    -0.203 F 
ATOM     45  C   UNL A   1      37.517  29.737  29.165  1.00  0.00     0.198 A 
ATOM     46  C   UNL A   1      38.135  29.084  31.390  1.00  0.00     0.198 A 
ATOM     47  F   UNL A   1      40.353  28.462  31.862  1.00  0.00    -0.203 F 
ATOM     48  F   UNL A   1      36.595  30.183  28.301  1.00  0.00    -0.200 F 
ATOM     49  C   UNL A   1      37.173  29.519  30.491  1.00  0.00     0.200 A 
ATOM     50  F   UNL A   1      37.802  28.860  32.668  1.00  0.00    -0.200 F 
ATOM     51  F   UNL A   1      35.917  29.736  30.904  1.00  0.00    -0.200 F 
ENDBRANCH  27  41
BRANCH  28  52
ATOM     52  C   UNL A   1      48.966  26.854  26.289  1.00  0.00     0.064 A 
ATOM     53  C   UNL A   1      49.942  26.298  27.126  1.00  0.00     0.173 A 
ATOM     54  C   UNL A   1      49.307  27.077  24.947  1.00  0.00     0.173 A 
ATOM     55  F   UNL A   1      49.669  26.082  28.421  1.00  0.00    -0.203 F 
ATOM     56  C   UNL A   1      51.212  25.989  26.643  1.00  0.00     0.198 A 
ATOM     57  C   UNL A   1      50.566  26.740  24.458  1.00  0.00     0.198 A 
ATOM     58  F   UNL A   1      48.406  27.603  24.103  1.00  0.00    -0.203 F 
ATOM     59  F   UNL A   1      52.140  25.495  27.473  1.00  0.00    -0.200 F 
ATOM     60  C   UNL A   1      51.521  26.204  25.308  1.00  0.00     0.200 A 
ATOM     61  F   UNL A   1      50.853  26.932  23.162  1.00  0.00    -0.200 F 
ATOM     62  F   UNL A   1      52.739  25.897  24.842  1.00  0.00    -0.200 F 
ENDBRANCH  28  52
BRANCH  40  63
ATOM     63  C   UNL A   1      46.103  32.562  29.073  1.00  0.00     0.064 A 
ATOM     64  C   UNL A   1      46.711  32.844  30.306  1.00  0.00     0.173 A 
ATOM     65  C   UNL A   1      46.045  33.589  28.118  1.00  0.00     0.173 A 
ATOM     66  F   UNL A   1      46.775  31.900  31.257  1.00  0.00    -0.203 F 
ATOM     67  C   UNL A   1      47.216  34.111  30.581  1.00  0.00     0.198 A 
ATOM     68  C   UNL A   1      46.578  34.846  28.387  1.00  0.00     0.198 A 
ATOM     69  F   UNL A   1      45.478  33.370  26.924  1.00  0.00    -0.203 F 
ATOM     70  F   UNL A   1      47.747  34.372  31.783  1.00  0.00    -0.200 F 
ATOM     71  C   UNL A   1      47.156  35.109  29.619  1.00  0.00     0.200 A 
ATOM     72  F   UNL A   1      46.529  35.806  27.452  1.00  0.00    -0.200 F 
ATOM     73  F   UNL A   1      47.646  36.327  29.885  1.00  0.00    -0.200 F 
ENDBRANCH  40  63
ENDBRANCH  14  15
ENDBRANCH   7   9
ENDBRANCH   4   5
ENDBRANCH   3   4
ENDBRANCH   2   3
ENDBRANCH   1   2
BRANCH   1  74
ATOM     74  C   UNL A   1      36.680  23.304  24.485  1.00  0.00     0.021 C 
BRANCH  74  75
ATOM     75  C   UNL A   1      35.427  23.929  23.884  1.00  0.00     0.116 C 
BRANCH  75  76
ATOM     76  N   UNL A   1      34.663  23.046  23.033  1.00  0.00    -0.352 N 
ATOM     77  C   UNL A   1      33.327  23.132  22.714  1.00  0.00     0.253 C 
ATOM     78  H   UNL A   1      35.157  22.295  22.633  1.00  0.00     0.163 HD
ATOM     79  O   UNL A   1      32.859  22.360  21.879  1.00  0.00    -0.269 OA
BRANCH  77  80
ATOM     80  C   UNL A   1      32.419  24.060  23.441  1.00  0.00     0.065 A 
ATOM     81  C   UNL A   1      32.062  25.189  22.684  1.00  0.00     0.042 A 
ATOM     82  C   UNL A   1      31.915  23.875  24.744  1.00  0.00     0.050 A 
ATOM     83  C   UNL A   1      31.091  26.084  23.117  1.00  0.00     0.042 A 
ATOM     84  C   UNL A   1      30.980  24.830  25.191  1.00  0.00     0.029 A 
ATOM     85  C   UNL A   1      30.570  25.911  24.396  1.00  0.00     0.028 A 
BRANCH  82  86
ATOM     86  N   UNL A   1      32.337  22.897  25.634  1.00  0.00    -0.370 N 
ATOM     87  C   UNL A   1      33.334  23.197  26.666  1.00  0.00     0.116 C 
ATOM     88  C   UNL A   1      31.598  21.635  25.706  1.00  0.00     0.126 C 
ATOM     89  C   UNL A   1      34.245  22.003  26.928  1.00  0.00     0.022 C 
ATOM     90  C   UNL A   1      32.572  20.455  25.815  1.00  0.00     0.064 C 
ATOM     91  C   UNL A   1      33.460  20.698  27.045  1.00  0.00     0.013 C 
BRANCH  90  92
ATOM     92  C   UNL A   1      33.317  20.277  24.464  1.00  0.00     0.267 C 
BRANCH  92  93
ATOM     93  N   UNL A   1      33.436  18.943  23.869  1.00  0.00    -0.335 N 
ATOM     94  C   UNL A   1      32.224  18.131  23.928  1.00  0.00     0.262 C 
ATOM     95  C   UNL A   1      34.550  18.121  24.329  1.00  0.00     0.262 C 
ATOM     96  H   UNL A   1      33.623  19.210  22.903  1.00  0.00     0.348 HD
ATOM     97  C   UNL A   1      32.451  17.162  25.072  1.00  0.00     0.067 C 
ATOM     98  C   UNL A   1      33.949  16.922  25.055  1.00  0.00     0.067 C 
ENDBRANCH  92  93
ENDBRANCH  90  92
ENDBRANCH  82  86
BRANCH  83  99
ATOM     99  N   UNL A   1      30.589  27.151  22.345  1.00  0.00    -0.322 N 
ATOM    100  C   UNL A   1      30.667  28.520  22.508  1.00  0.00     0.257 C 
ATOM    101  H   UNL A   1      30.090  26.868  21.545  1.00  0.00     0.170 HD
ATOM    102  O   UNL A   1      30.036  29.271  21.766  1.00  0.00    -0.269 OA
BRANCH 100 103
ATOM    103  C   UNL A   1      31.505  29.120  23.559  1.00  0.00     0.058 A 
ATOM    104  C   UNL A   1      30.839  29.728  24.633  1.00  0.00     0.015 A 
ATOM    105  C   UNL A   1      32.903  29.024  23.559  1.00  0.00     0.053 A 
ATOM    106  C   UNL A   1      31.563  30.159  25.743  1.00  0.00     0.001 A 
ATOM    107  C   UNL A   1      33.619  29.447  24.681  1.00  0.00     0.021 A 
ATOM    108  Cl  UNL A   1      33.795  28.357  22.238  1.00  0.00    -0.083 Cl
ATOM    109  C   UNL A   1      32.949  29.998  25.777  1.00  0.00     0.002 A 
ENDBRANCH 100 103
ENDBRANCH  83  99
ENDBRANCH  77  80
ENDBRANCH  75  76
ENDBRANCH  74  75
ENDBRANCH   1  74
TORSDOF 18
ENDMDL
