MODEL 1
REMARK VINA RESULT:     -12.3      0.000      0.000
REMARK SMILES O=C(NCCCCCCNC(=O)c1ccc(-c2c3nc(c(-c4c(F)c(F)c(F)c(F)c4F)c4ccc([nH]4)c(-c4c(F)c(F)c(F)c(F)c4F)c4nc(c(-c5c(F)c(F)c(F)c(F)c5F)c5ccc2[nH]5)C=C4)C=C3)cc1)C1=NN(c2ccc(S(=O)(=O)[O-])cc2)C(=O)/C1=C\Nc1ccccc1
REMARK SMILES IDX 6 1 5 2 4 3 3 4 1 5 2 6 76 8 77 9 91 10 78 11 89 12 92 13
REMARK SMILES IDX 90 14 79 15 80 16 88 17 81 18 87 19 82 20 83 21 84 22 85 23
REMARK SMILES IDX 86 24 93 25 94 27 95 28 99 29 96 30 98 31 97 32 7 33 8 34
REMARK SMILES IDX 9 35 10 36 11 37 12 39 13 40 14 41 75 42 15 43 74 44 16 45
REMARK SMILES IDX 17 46 18 47 68 48 19 49 73 50 67 51 69 52 20 53 72 54 66 55
REMARK SMILES IDX 65 56 21 58 53 59 33 60 52 61 34 62 37 63 51 64 70 65 35 66
REMARK SMILES IDX 36 67 50 69 71 70 38 71 22 72 23 73 31 74 24 75 25 76 29 77
REMARK SMILES IDX 32 78 26 79 27 80 30 81 28 82 54 83 55 84 63 85 56 86 57 87
REMARK SMILES IDX 61 88 64 89 58 90 59 91 62 92 60 93 39 94 40 95 48 96 41 97
REMARK SMILES IDX 42 98 46 99 49 100 43 101 44 102 47 103 45 104
REMARK H PARENT 3 7 93 26 10 38 69 57 37 68
REMARK Flexibility Score: inf
ROOT
ATOM      1  C   UNL A   1      31.428  27.101  24.990  1.00  0.00     0.002 C 
ENDROOT
BRANCH   1   2
ATOM      2  C   UNL A   1      32.296  26.098  24.222  1.00  0.00     0.021 C 
BRANCH   2   3
ATOM      3  C   UNL A   1      31.552  24.925  23.596  1.00  0.00     0.116 C 
BRANCH   3   4
ATOM      4  N   UNL A   1      32.116  24.503  22.328  1.00  0.00    -0.351 N 
ATOM      5  O   UNL A   1      33.454  23.273  20.971  1.00  0.00    -0.267 OA
ATOM      6  C   UNL A   1      33.143  23.618  22.102  1.00  0.00     0.272 C 
ATOM      7  H   UNL A   1      31.711  24.903  21.525  1.00  0.00     0.163 HD
BRANCH   6   8
ATOM      8  C   UNL A   1      33.875  23.024  23.265  1.00  0.00     0.163 C 
ATOM      9  N   UNL A   1      34.949  23.549  23.806  1.00  0.00    -0.158 NA
ATOM     10  C   UNL A   1      33.467  21.778  23.918  1.00  0.00     0.091 C 
ATOM     11  N   UNL A   1      35.330  22.653  24.809  1.00  0.00    -0.196 N 
ATOM     12  C   UNL A   1      34.439  21.592  25.006  1.00  0.00     0.282 C 
ATOM     13  C   UNL A   1      32.466  20.932  23.661  1.00  0.00     0.099 C 
ATOM     14  O   UNL A   1      34.412  20.700  25.836  1.00  0.00    -0.267 OA
BRANCH  11  15
ATOM     15  C   UNL A   1      36.615  22.752  25.383  1.00  0.00     0.069 A 
ATOM     16  C   UNL A   1      37.057  23.933  25.992  1.00  0.00     0.030 A 
ATOM     17  C   UNL A   1      37.495  21.661  25.298  1.00  0.00     0.030 A 
ATOM     18  C   UNL A   1      38.344  24.005  26.544  1.00  0.00     0.021 A 
ATOM     19  C   UNL A   1      38.791  21.737  25.807  1.00  0.00     0.021 A 
ATOM     20  C   UNL A   1      39.202  22.904  26.444  1.00  0.00     0.054 A 
BRANCH  20  21
ATOM     21  S   UNL A   1      40.838  23.011  27.107  1.00  0.00     0.124 S 
ATOM     22  O   UNL A   1      41.777  22.863  26.018  1.00  0.00    -0.237 OA
ATOM     23  O   UNL A   1      40.879  24.148  28.000  1.00  0.00    -0.237 OA
ATOM     24  O   UNL A   1      41.013  21.706  28.045  1.00  0.00    -0.744 OA
ENDBRANCH  20  21
ENDBRANCH  11  15
BRANCH  13  25
ATOM     25  N   UNL A   1      32.085  19.881  24.454  1.00  0.00    -0.361 N 
ATOM     26  H   UNL A   1      31.361  20.068  25.094  1.00  0.00     0.166 HD
BRANCH  25  27
ATOM     27  C   UNL A   1      32.590  18.576  24.475  1.00  0.00     0.038 A 
ATOM     28  C   UNL A   1      33.217  18.076  23.326  1.00  0.00     0.026 A 
ATOM     29  C   UNL A   1      32.533  17.767  25.613  1.00  0.00     0.026 A 
ATOM     30  C   UNL A   1      33.747  16.786  23.304  1.00  0.00     0.002 A 
ATOM     31  C   UNL A   1      33.041  16.466  25.586  1.00  0.00     0.002 A 
ATOM     32  C   UNL A   1      33.648  15.977  24.432  1.00  0.00     0.000 A 
ENDBRANCH  25  27
ENDBRANCH  13  25
ENDBRANCH   6   8
ENDBRANCH   3   4
ENDBRANCH   2   3
ENDBRANCH   1   2
BRANCH   1  33
ATOM     33  C   UNL A   1      31.994  27.612  26.318  1.00  0.00     0.002 C 
BRANCH  33  34
ATOM     34  C   UNL A   1      33.512  27.509  26.489  1.00  0.00     0.021 C 
BRANCH  34  35
ATOM     35  C   UNL A   1      34.311  28.736  26.061  1.00  0.00     0.116 C 
BRANCH  35  36
ATOM     36  N   UNL A   1      33.633  29.987  26.355  1.00  0.00    -0.352 N 
ATOM     37  C   UNL A   1      33.959  30.968  27.258  1.00  0.00     0.251 C 
ATOM     38  H   UNL A   1      32.820  30.156  25.826  1.00  0.00     0.163 HD
ATOM     39  O   UNL A   1      33.189  31.904  27.452  1.00  0.00    -0.269 OA
BRANCH  37  40
ATOM     40  C   UNL A   1      35.223  30.890  28.027  1.00  0.00     0.039 A 
ATOM     41  C   UNL A   1      35.477  29.741  28.783  1.00  0.00     0.014 A 
ATOM     42  C   UNL A   1      36.147  31.938  28.020  1.00  0.00     0.014 A 
ATOM     43  C   UNL A   1      36.684  29.616  29.476  1.00  0.00     0.010 A 
ATOM     44  C   UNL A   1      37.378  31.784  28.655  1.00  0.00     0.010 A 
ATOM     45  C   UNL A   1      37.660  30.621  29.388  1.00  0.00    -0.014 A 
BRANCH  45  46
ATOM     46  C   UNL A   1      38.983  30.468  30.049  1.00  0.00     0.031 A 
ATOM     47  C   UNL A   1      39.265  31.165  31.352  1.00  0.00     0.074 A 
ATOM     48  C   UNL A   1      39.953  29.756  29.443  1.00  0.00     0.049 A 
ATOM     49  N   UNL A   1      40.376  31.211  32.043  1.00  0.00    -0.248 NA
ATOM     50  C   UNL A   1      38.159  31.934  31.945  1.00  0.00     0.031 C 
ATOM     51  C   UNL A   1      39.818  29.067  28.160  1.00  0.00     0.029 A 
ATOM     52  N   UNL A   1      41.248  29.502  29.822  1.00  0.00    -0.354 N 
ATOM     53  C   UNL A   1      40.110  32.026  33.135  1.00  0.00     0.074 A 
ATOM     54  C   UNL A   1      38.746  32.488  32.996  1.00  0.00     0.031 C 
ATOM     55  C   UNL A   1      40.975  28.450  27.869  1.00  0.00     0.029 A 
ATOM     56  C   UNL A   1      41.944  28.731  28.923  1.00  0.00     0.049 A 
ATOM     57  H   UNL A   1      41.640  29.840  30.659  1.00  0.00     0.167 HD
ATOM     58  C   UNL A   1      40.923  32.344  34.171  1.00  0.00     0.037 A 
ATOM     59  C   UNL A   1      43.223  28.306  28.943  1.00  0.00     0.037 A 
ATOM     60  C   UNL A   1      42.267  31.853  34.328  1.00  0.00     0.049 A 
ATOM     61  C   UNL A   1      44.105  28.681  30.104  1.00  0.00     0.074 A 
ATOM     62  C   UNL A   1      43.142  32.055  35.383  1.00  0.00     0.029 A 
ATOM     63  N   UNL A   1      42.934  31.065  33.402  1.00  0.00    -0.354 N 
ATOM     64  N   UNL A   1      43.816  29.388  31.170  1.00  0.00    -0.248 NA
ATOM     65  C   UNL A   1      45.491  28.192  30.066  1.00  0.00     0.031 C 
ATOM     66  C   UNL A   1      44.353  31.429  35.073  1.00  0.00     0.029 A 
ATOM     67  C   UNL A   1      44.218  30.794  33.849  1.00  0.00     0.049 A 
ATOM     68  H   UNL A   1      42.552  30.744  32.553  1.00  0.00     0.167 HD
ATOM     69  C   UNL A   1      44.970  29.400  31.942  1.00  0.00     0.074 A 
ATOM     70  C   UNL A   1      45.959  28.621  31.229  1.00  0.00     0.031 C 
ATOM     71  C   UNL A   1      45.188  30.004  33.135  1.00  0.00     0.037 A 
BRANCH  58  72
ATOM     72  C   UNL A   1      40.385  33.270  35.223  1.00  0.00     0.064 A 
ATOM     73  C   UNL A   1      39.713  32.788  36.357  1.00  0.00     0.173 A 
ATOM     74  C   UNL A   1      40.593  34.654  35.123  1.00  0.00     0.173 A 
ATOM     75  F   UNL A   1      39.480  31.474  36.496  1.00  0.00    -0.203 F 
ATOM     76  C   UNL A   1      39.247  33.660  37.337  1.00  0.00     0.198 A 
ATOM     77  C   UNL A   1      40.152  35.520  36.120  1.00  0.00     0.198 A 
ATOM     78  F   UNL A   1      41.236  35.167  34.063  1.00  0.00    -0.203 F 
ATOM     79  F   UNL A   1      38.569  33.180  38.389  1.00  0.00    -0.200 F 
ATOM     80  C   UNL A   1      39.473  35.023  37.222  1.00  0.00     0.200 A 
ATOM     81  F   UNL A   1      40.383  36.836  36.015  1.00  0.00    -0.200 F 
ATOM     82  F   UNL A   1      39.033  35.860  38.173  1.00  0.00    -0.200 F 
ENDBRANCH  58  72
BRANCH  59  83
ATOM     83  C   UNL A   1      43.745  27.458  27.841  1.00  0.00     0.064 A 
ATOM     84  C   UNL A   1      43.766  26.060  27.961  1.00  0.00     0.173 A 
ATOM     85  C   UNL A   1      44.251  28.019  26.659  1.00  0.00     0.173 A 
ATOM     86  F   UNL A   1      43.313  25.479  29.081  1.00  0.00    -0.203 F 
ATOM     87  C   UNL A   1      44.296  25.258  26.952  1.00  0.00     0.198 A 
ATOM     88  C   UNL A   1      44.755  27.214  25.639  1.00  0.00     0.198 A 
ATOM     89  F   UNL A   1      44.252  29.348  26.493  1.00  0.00    -0.203 F 
ATOM     90  F   UNL A   1      44.350  23.930  27.115  1.00  0.00    -0.200 F 
ATOM     91  C   UNL A   1      44.786  25.835  25.790  1.00  0.00     0.200 A 
ATOM     92  F   UNL A   1      45.213  27.774  24.512  1.00  0.00    -0.200 F 
ATOM     93  F   UNL A   1      45.295  25.064  24.820  1.00  0.00    -0.200 F 
ENDBRANCH  59  83
BRANCH  71  94
ATOM     94  C   UNL A   1      46.535  29.810  33.770  1.00  0.00     0.064 A 
ATOM     95  C   UNL A   1      46.797  28.734  34.629  1.00  0.00     0.173 A 
ATOM     96  C   UNL A   1      47.588  30.693  33.481  1.00  0.00     0.173 A 
ATOM     97  F   UNL A   1      45.820  27.872  34.948  1.00  0.00    -0.203 F 
ATOM     98  C   UNL A   1      48.057  28.562  35.198  1.00  0.00     0.198 A 
ATOM     99  C   UNL A   1      48.854  30.501  34.027  1.00  0.00     0.198 A 
ATOM    100  F   UNL A   1      47.390  31.735  32.659  1.00  0.00    -0.203 F 
ATOM    101  F   UNL A   1      48.272  27.554  36.054  1.00  0.00    -0.200 F 
ATOM    102  C   UNL A   1      49.085  29.441  34.890  1.00  0.00     0.200 A 
ATOM    103  F   UNL A   1      49.849  31.344  33.718  1.00  0.00    -0.200 F 
ATOM    104  F   UNL A   1      50.299  29.270  35.432  1.00  0.00    -0.200 F 
ENDBRANCH  71  94
ENDBRANCH  45  46
ENDBRANCH  37  40
ENDBRANCH  35  36
ENDBRANCH  34  35
ENDBRANCH  33  34
ENDBRANCH   1  33
TORSDOF 17
ENDMDL
MODEL 2
REMARK VINA RESULT:     -12.3      4.570      8.131
REMARK SMILES O=C(NCCCCCCNC(=O)c1ccc(-c2c3nc(c(-c4c(F)c(F)c(F)c(F)c4F)c4ccc([nH]4)c(-c4c(F)c(F)c(F)c(F)c4F)c4nc(c(-c5c(F)c(F)c(F)c(F)c5F)c5ccc2[nH]5)C=C4)C=C3)cc1)C1=NN(c2ccc(S(=O)(=O)[O-])cc2)C(=O)/C1=C\Nc1ccccc1
REMARK SMILES IDX 6 1 5 2 4 3 3 4 1 5 2 6 76 8 77 9 91 10 78 11 89 12 92 13
REMARK SMILES IDX 90 14 79 15 80 16 88 17 81 18 87 19 82 20 83 21 84 22 85 23
REMARK SMILES IDX 86 24 93 25 94 27 95 28 99 29 96 30 98 31 97 32 7 33 8 34
REMARK SMILES IDX 9 35 10 36 11 37 12 39 13 40 14 41 75 42 15 43 74 44 16 45
REMARK SMILES IDX 17 46 18 47 68 48 19 49 73 50 67 51 69 52 20 53 72 54 66 55
REMARK SMILES IDX 65 56 21 58 53 59 33 60 52 61 34 62 37 63 51 64 70 65 35 66
REMARK SMILES IDX 36 67 50 69 71 70 38 71 22 72 23 73 31 74 24 75 25 76 29 77
REMARK SMILES IDX 32 78 26 79 27 80 30 81 28 82 54 83 55 84 63 85 56 86 57 87
REMARK SMILES IDX 61 88 64 89 58 90 59 91 62 92 60 93 39 94 40 95 48 96 41 97
REMARK SMILES IDX 42 98 46 99 49 100 43 101 44 102 47 103 45 104
REMARK H PARENT 3 7 93 26 10 38 69 57 37 68
REMARK Flexibility Score: inf
ROOT
ATOM      1  C   UNL A   1      39.487  22.816  26.370  1.00  0.00     0.002 C 
ENDROOT
BRANCH   1   2
ATOM      2  C   UNL A   1      38.301  23.710  26.745  1.00  0.00     0.021 C 
BRANCH   2   3
ATOM      3  C   UNL A   1      37.113  23.666  25.792  1.00  0.00     0.116 C 
BRANCH   3   4
ATOM      4  N   UNL A   1      37.460  23.179  24.471  1.00  0.00    -0.351 N 
ATOM      5  O   UNL A   1      37.081  22.666  22.294  1.00  0.00    -0.267 OA
ATOM      6  C   UNL A   1      36.637  22.990  23.386  1.00  0.00     0.272 C 
ATOM      7  H   UNL A   1      38.408  22.953  24.333  1.00  0.00     0.163 HD
BRANCH   6   8
ATOM      8  C   UNL A   1      35.165  23.226  23.526  1.00  0.00     0.163 C 
ATOM      9  N   UNL A   1      34.545  24.291  23.079  1.00  0.00    -0.158 NA
ATOM     10  C   UNL A   1      34.261  22.285  24.190  1.00  0.00     0.091 C 
ATOM     11  N   UNL A   1      33.212  24.130  23.467  1.00  0.00    -0.196 N 
ATOM     12  C   UNL A   1      32.931  22.901  24.072  1.00  0.00     0.282 C 
ATOM     13  C   UNL A   1      34.491  21.118  24.798  1.00  0.00     0.099 C 
ATOM     14  O   UNL A   1      31.882  22.400  24.443  1.00  0.00    -0.267 OA
BRANCH  11  15
ATOM     15  C   UNL A   1      32.331  25.232  23.417  1.00  0.00     0.069 A 
ATOM     16  C   UNL A   1      31.674  25.698  24.563  1.00  0.00     0.030 A 
ATOM     17  C   UNL A   1      32.062  25.846  22.183  1.00  0.00     0.030 A 
ATOM     18  C   UNL A   1      30.795  26.787  24.480  1.00  0.00     0.021 A 
ATOM     19  C   UNL A   1      31.159  26.902  22.083  1.00  0.00     0.021 A 
ATOM     20  C   UNL A   1      30.544  27.380  23.237  1.00  0.00     0.054 A 
BRANCH  20  21
ATOM     21  S   UNL A   1      29.406  28.730  23.129  1.00  0.00     0.124 S 
ATOM     22  O   UNL A   1      28.066  28.200  23.239  1.00  0.00    -0.237 OA
ATOM     23  O   UNL A   1      29.884  29.780  24.000  1.00  0.00    -0.237 OA
ATOM     24  O   UNL A   1      29.552  29.302  21.625  1.00  0.00    -0.744 OA
ENDBRANCH  20  21
ENDBRANCH  11  15
BRANCH  13  25
ATOM     25  N   UNL A   1      33.530  20.244  25.238  1.00  0.00    -0.361 N 
ATOM     26  H   UNL A   1      32.792  20.644  25.753  1.00  0.00     0.166 HD
BRANCH  25  27
ATOM     27  C   UNL A   1      33.459  18.860  25.054  1.00  0.00     0.038 A 
ATOM     28  C   UNL A   1      34.420  18.235  24.250  1.00  0.00     0.026 A 
ATOM     29  C   UNL A   1      32.491  18.068  25.679  1.00  0.00     0.026 A 
ATOM     30  C   UNL A   1      34.399  16.855  24.047  1.00  0.00     0.002 A 
ATOM     31  C   UNL A   1      32.451  16.689  25.458  1.00  0.00     0.002 A 
ATOM     32  C   UNL A   1      33.405  16.083  24.644  1.00  0.00     0.000 A 
ENDBRANCH  25  27
ENDBRANCH  13  25
ENDBRANCH   6   8
ENDBRANCH   3   4
ENDBRANCH   2   3
ENDBRANCH   1   2
BRANCH   1  33
ATOM     33  C   UNL A   1      40.342  22.298  27.531  1.00  0.00     0.002 C 
BRANCH  33  34
ATOM     34  C   UNL A   1      40.745  20.823  27.465  1.00  0.00     0.021 C 
BRANCH  34  35
ATOM     35  C   UNL A   1      40.504  20.129  26.128  1.00  0.00     0.116 C 
BRANCH  35  36
ATOM     36  N   UNL A   1      41.629  19.317  25.698  1.00  0.00    -0.352 N 
ATOM     37  C   UNL A   1      42.935  19.679  25.475  1.00  0.00     0.251 C 
ATOM     38  H   UNL A   1      41.425  18.366  25.545  1.00  0.00     0.163 HD
ATOM     39  O   UNL A   1      43.722  18.870  24.991  1.00  0.00    -0.269 OA
BRANCH  37  40
ATOM     40  C   UNL A   1      43.396  21.052  25.785  1.00  0.00     0.039 A 
ATOM     41  C   UNL A   1      43.165  22.064  24.847  1.00  0.00     0.014 A 
ATOM     42  C   UNL A   1      44.061  21.346  26.978  1.00  0.00     0.014 A 
ATOM     43  C   UNL A   1      43.541  23.379  25.135  1.00  0.00     0.010 A 
ATOM     44  C   UNL A   1      44.374  22.667  27.292  1.00  0.00     0.010 A 
ATOM     45  C   UNL A   1      44.116  23.697  26.375  1.00  0.00    -0.014 A 
BRANCH  45  46
ATOM     46  C   UNL A   1      44.445  25.102  26.732  1.00  0.00     0.031 A 
ATOM     47  C   UNL A   1      43.383  26.016  27.279  1.00  0.00     0.074 A 
ATOM     48  C   UNL A   1      45.686  25.575  26.501  1.00  0.00     0.049 A 
ATOM     49  N   UNL A   1      43.460  27.288  27.581  1.00  0.00    -0.248 NA
ATOM     50  C   UNL A   1      42.050  25.430  27.491  1.00  0.00     0.031 C 
ATOM     51  C   UNL A   1      46.793  24.802  25.938  1.00  0.00     0.029 A 
ATOM     52  N   UNL A   1      46.222  26.823  26.705  1.00  0.00    -0.354 N 
ATOM     53  C   UNL A   1      42.187  27.656  27.996  1.00  0.00     0.074 A 
ATOM     54  C   UNL A   1      41.345  26.486  27.868  1.00  0.00     0.031 C 
ATOM     55  C   UNL A   1      47.881  25.585  25.861  1.00  0.00     0.029 A 
ATOM     56  C   UNL A   1      47.541  26.924  26.332  1.00  0.00     0.049 A 
ATOM     57  H   UNL A   1      45.709  27.574  27.081  1.00  0.00     0.167 HD
ATOM     58  C   UNL A   1      41.763  28.857  28.460  1.00  0.00     0.037 A 
ATOM     59  C   UNL A   1      48.377  27.979  26.360  1.00  0.00     0.037 A 
ATOM     60  C   UNL A   1      42.610  30.009  28.622  1.00  0.00     0.049 A 
ATOM     61  C   UNL A   1      47.877  29.302  26.876  1.00  0.00     0.074 A 
ATOM     62  C   UNL A   1      42.292  31.245  29.160  1.00  0.00     0.029 A 
ATOM     63  N   UNL A   1      43.944  30.069  28.245  1.00  0.00    -0.354 N 
ATOM     64  N   UNL A   1      46.691  29.616  27.339  1.00  0.00    -0.248 NA
ATOM     65  C   UNL A   1      48.835  30.417  26.876  1.00  0.00     0.031 C 
ATOM     66  C   UNL A   1      43.419  32.068  29.063  1.00  0.00     0.029 A 
ATOM     67  C   UNL A   1      44.454  31.329  28.513  1.00  0.00     0.049 A 
ATOM     68  H   UNL A   1      44.453  29.326  27.846  1.00  0.00     0.167 HD
ATOM     69  C   UNL A   1      46.771  30.950  27.717  1.00  0.00     0.074 A 
ATOM     70  C   UNL A   1      48.123  31.383  27.439  1.00  0.00     0.031 C 
ATOM     71  C   UNL A   1      45.808  31.743  28.245  1.00  0.00     0.037 A 
BRANCH  58  72
ATOM     72  C   UNL A   1      40.314  28.991  28.829  1.00  0.00     0.064 A 
ATOM     73  C   UNL A   1      39.883  28.917  30.162  1.00  0.00     0.173 A 
ATOM     74  C   UNL A   1      39.352  29.253  27.842  1.00  0.00     0.173 A 
ATOM     75  F   UNL A   1      40.761  28.659  31.143  1.00  0.00    -0.203 F 
ATOM     76  C   UNL A   1      38.538  29.074  30.489  1.00  0.00     0.198 A 
ATOM     77  C   UNL A   1      38.014  29.439  28.176  1.00  0.00     0.198 A 
ATOM     78  F   UNL A   1      39.713  29.341  26.553  1.00  0.00    -0.203 F 
ATOM     79  F   UNL A   1      38.143  28.955  31.764  1.00  0.00    -0.200 F 
ATOM     80  C   UNL A   1      37.607  29.342  29.497  1.00  0.00     0.200 A 
ATOM     81  F   UNL A   1      37.116  29.711  27.218  1.00  0.00    -0.200 F 
ATOM     82  F   UNL A   1      36.314  29.504  29.815  1.00  0.00    -0.200 F 
ENDBRANCH  58  72
BRANCH  59  83
ATOM     83  C   UNL A   1      49.785  27.829  25.909  1.00  0.00     0.064 A 
ATOM     84  C   UNL A   1      50.832  27.751  26.840  1.00  0.00     0.173 A 
ATOM     85  C   UNL A   1      50.118  27.780  24.547  1.00  0.00     0.173 A 
ATOM     86  F   UNL A   1      50.565  27.815  28.152  1.00  0.00    -0.203 F 
ATOM     87  C   UNL A   1      52.159  27.655  26.425  1.00  0.00     0.198 A 
ATOM     88  C   UNL A   1      51.444  27.656  24.135  1.00  0.00     0.198 A 
ATOM     89  F   UNL A   1      49.156  27.848  23.617  1.00  0.00    -0.203 F 
ATOM     90  F   UNL A   1      53.141  27.635  27.336  1.00  0.00    -0.200 F 
ATOM     91  C   UNL A   1      52.463  27.604  25.074  1.00  0.00     0.200 A 
ATOM     92  F   UNL A   1      51.733  27.591  22.829  1.00  0.00    -0.200 F 
ATOM     93  F   UNL A   1      53.739  27.512  24.676  1.00  0.00    -0.200 F 
ENDBRANCH  59  83
BRANCH  71  94
ATOM     94  C   UNL A   1      46.193  33.150  28.601  1.00  0.00     0.064 A 
ATOM     95  C   UNL A   1      46.733  33.471  29.855  1.00  0.00     0.173 A 
ATOM     96  C   UNL A   1      46.055  34.182  27.661  1.00  0.00     0.173 A 
ATOM     97  F   UNL A   1      46.870  32.523  30.794  1.00  0.00    -0.203 F 
ATOM     98  C   UNL A   1      47.097  34.780  30.163  1.00  0.00     0.198 A 
ATOM     99  C   UNL A   1      46.449  35.483  27.961  1.00  0.00     0.198 A 
ATOM    100  F   UNL A   1      45.550  33.925  26.444  1.00  0.00    -0.203 F 
ATOM    101  F   UNL A   1      47.566  35.073  31.383  1.00  0.00    -0.200 F 
ATOM    102  C   UNL A   1      46.962  35.782  29.213  1.00  0.00     0.200 A 
ATOM    103  F   UNL A   1      46.329  36.447  27.037  1.00  0.00    -0.200 F 
ATOM    104  F   UNL A   1      47.320  37.039  29.509  1.00  0.00    -0.200 F 
ENDBRANCH  71  94
ENDBRANCH  45  46
ENDBRANCH  37  40
ENDBRANCH  35  36
ENDBRANCH  34  35
ENDBRANCH  33  34
ENDBRANCH   1  33
TORSDOF 17
ENDMDL
MODEL 3
REMARK VINA RESULT:     -11.9      6.001     11.916
REMARK SMILES O=C(NCCCCCCNC(=O)c1ccc(-c2c3nc(c(-c4c(F)c(F)c(F)c(F)c4F)c4ccc([nH]4)c(-c4c(F)c(F)c(F)c(F)c4F)c4nc(c(-c5c(F)c(F)c(F)c(F)c5F)c5ccc2[nH]5)C=C4)C=C3)cc1)C1=NN(c2ccc(S(=O)(=O)[O-])cc2)C(=O)/C1=C\Nc1ccccc1
REMARK SMILES IDX 6 1 5 2 4 3 3 4 1 5 2 6 76 8 77 9 91 10 78 11 89 12 92 13
REMARK SMILES IDX 90 14 79 15 80 16 88 17 81 18 87 19 82 20 83 21 84 22 85 23
REMARK SMILES IDX 86 24 93 25 94 27 95 28 99 29 96 30 98 31 97 32 7 33 8 34
REMARK SMILES IDX 9 35 10 36 11 37 12 39 13 40 14 41 75 42 15 43 74 44 16 45
REMARK SMILES IDX 17 46 18 47 68 48 19 49 73 50 67 51 69 52 20 53 72 54 66 55
REMARK SMILES IDX 65 56 21 58 53 59 33 60 52 61 34 62 37 63 51 64 70 65 35 66
REMARK SMILES IDX 36 67 50 69 71 70 38 71 22 72 23 73 31 74 24 75 25 76 29 77
REMARK SMILES IDX 32 78 26 79 27 80 30 81 28 82 54 83 55 84 63 85 56 86 57 87
REMARK SMILES IDX 61 88 64 89 58 90 59 91 62 92 60 93 39 94 40 95 48 96 41 97
REMARK SMILES IDX 42 98 46 99 49 100 43 101 44 102 47 103 45 104
REMARK H PARENT 3 7 93 26 10 38 69 57 37 68
REMARK Flexibility Score: inf
ROOT
ATOM      1  C   UNL A   1      40.842  27.989  27.440  1.00  0.00     0.002 C 
ENDROOT
BRANCH   1   2
ATOM      2  C   UNL A   1      39.593  28.865  27.300  1.00  0.00     0.021 C 
BRANCH   2   3
ATOM      3  C   UNL A   1      39.284  29.767  28.489  1.00  0.00     0.116 C 
BRANCH   3   4
ATOM      4  N   UNL A   1      38.825  29.037  29.655  1.00  0.00    -0.351 N 
ATOM      5  O   UNL A   1      37.344  28.437  31.265  1.00  0.00    -0.267 OA
ATOM      6  C   UNL A   1      37.653  29.193  30.354  1.00  0.00     0.272 C 
ATOM      7  H   UNL A   1      39.434  28.339  29.989  1.00  0.00     0.163 HD
BRANCH   6   8
ATOM      8  C   UNL A   1      36.703  30.285  29.971  1.00  0.00     0.163 C 
ATOM      9  N   UNL A   1      36.543  31.394  30.652  1.00  0.00    -0.158 NA
ATOM     10  C   UNL A   1      35.843  30.221  28.787  1.00  0.00     0.091 C 
ATOM     11  N   UNL A   1      35.536  32.094  29.981  1.00  0.00    -0.196 N 
ATOM     12  C   UNL A   1      35.113  31.497  28.789  1.00  0.00     0.282 C 
ATOM     13  C   UNL A   1      35.682  29.271  27.862  1.00  0.00     0.099 C 
ATOM     14  O   UNL A   1      34.336  31.871  27.925  1.00  0.00    -0.267 OA
BRANCH  11  15
ATOM     15  C   UNL A   1      34.901  33.184  30.614  1.00  0.00     0.069 A 
ATOM     16  C   UNL A   1      34.753  33.239  32.005  1.00  0.00     0.030 A 
ATOM     17  C   UNL A   1      34.357  34.216  29.832  1.00  0.00     0.030 A 
ATOM     18  C   UNL A   1      34.108  34.330  32.605  1.00  0.00     0.021 A 
ATOM     19  C   UNL A   1      33.677  35.283  30.415  1.00  0.00     0.021 A 
ATOM     20  C   UNL A   1      33.572  35.344  31.802  1.00  0.00     0.054 A 
BRANCH  20  21
ATOM     21  S   UNL A   1      32.725  36.700  32.559  1.00  0.00     0.124 S 
ATOM     22  O   UNL A   1      31.321  36.365  32.640  1.00  0.00    -0.237 OA
ATOM     23  O   UNL A   1      33.483  37.098  33.724  1.00  0.00    -0.237 OA
ATOM     24  O   UNL A   1      32.846  37.926  31.513  1.00  0.00    -0.744 OA
ENDBRANCH  20  21
ENDBRANCH  11  15
BRANCH  13  25
ATOM     25  N   UNL A   1      34.963  29.401  26.702  1.00  0.00    -0.361 N 
ATOM     26  H   UNL A   1      35.306  30.062  26.058  1.00  0.00     0.166 HD
BRANCH  25  27
ATOM     27  C   UNL A   1      33.806  28.719  26.311  1.00  0.00     0.038 A 
ATOM     28  C   UNL A   1      32.748  28.606  27.222  1.00  0.00     0.026 A 
ATOM     29  C   UNL A   1      33.647  28.182  25.030  1.00  0.00     0.026 A 
ATOM     30  C   UNL A   1      31.569  27.946  26.874  1.00  0.00     0.002 A 
ATOM     31  C   UNL A   1      32.478  27.499  24.686  1.00  0.00     0.002 A 
ATOM     32  C   UNL A   1      31.440  27.382  25.607  1.00  0.00     0.000 A 
ENDBRANCH  25  27
ENDBRANCH  13  25
ENDBRANCH   6   8
ENDBRANCH   3   4
ENDBRANCH   2   3
ENDBRANCH   1   2
BRANCH   1  33
ATOM     33  C   UNL A   1      40.760  26.844  28.455  1.00  0.00     0.002 C 
BRANCH  33  34
ATOM     34  C   UNL A   1      39.948  25.620  28.026  1.00  0.00     0.021 C 
BRANCH  34  35
ATOM     35  C   UNL A   1      40.112  25.193  26.571  1.00  0.00     0.116 C 
BRANCH  35  36
ATOM     36  N   UNL A   1      40.760  23.901  26.427  1.00  0.00    -0.352 N 
ATOM     37  C   UNL A   1      42.088  23.603  26.243  1.00  0.00     0.251 C 
ATOM     38  H   UNL A   1      40.157  23.123  26.469  1.00  0.00     0.163 HD
ATOM     39  O   UNL A   1      42.432  22.446  26.018  1.00  0.00    -0.269 OA
BRANCH  37  40
ATOM     40  C   UNL A   1      43.110  24.674  26.285  1.00  0.00     0.039 A 
ATOM     41  C   UNL A   1      43.396  25.372  25.107  1.00  0.00     0.014 A 
ATOM     42  C   UNL A   1      43.792  24.986  27.464  1.00  0.00     0.014 A 
ATOM     43  C   UNL A   1      44.317  26.424  25.127  1.00  0.00     0.010 A 
ATOM     44  C   UNL A   1      44.658  26.078  27.497  1.00  0.00     0.010 A 
ATOM     45  C   UNL A   1      44.928  26.809  26.330  1.00  0.00    -0.014 A 
BRANCH  45  46
ATOM     46  C   UNL A   1      45.845  27.977  26.388  1.00  0.00     0.031 A 
ATOM     47  C   UNL A   1      47.325  27.792  26.189  1.00  0.00     0.074 A 
ATOM     48  C   UNL A   1      45.354  29.196  26.685  1.00  0.00     0.049 A 
ATOM     49  N   UNL A   1      48.289  28.674  26.272  1.00  0.00    -0.248 NA
ATOM     50  C   UNL A   1      47.785  26.429  25.880  1.00  0.00     0.031 C 
ATOM     51  C   UNL A   1      43.946  29.501  26.939  1.00  0.00     0.029 A 
ATOM     52  N   UNL A   1      45.987  30.407  26.833  1.00  0.00    -0.354 N 
ATOM     53  C   UNL A   1      49.465  27.972  26.048  1.00  0.00     0.074 A 
ATOM     54  C   UNL A   1      49.101  26.583  25.867  1.00  0.00     0.031 C 
ATOM     55  C   UNL A   1      43.818  30.813  27.189  1.00  0.00     0.029 A 
ATOM     56  C   UNL A   1      45.136  31.438  27.152  1.00  0.00     0.049 A 
ATOM     57  H   UNL A   1      46.957  30.523  26.720  1.00  0.00     0.167 HD
ATOM     58  C   UNL A   1      50.733  28.446  25.981  1.00  0.00     0.037 A 
ATOM     59  C   UNL A   1      45.394  32.737  27.394  1.00  0.00     0.037 A 
ATOM     60  C   UNL A   1      51.090  29.833  26.124  1.00  0.00     0.049 A 
ATOM     61  C   UNL A   1      46.813  33.234  27.318  1.00  0.00     0.074 A 
ATOM     62  C   UNL A   1      52.336  30.421  25.992  1.00  0.00     0.029 A 
ATOM     63  N   UNL A   1      50.199  30.850  26.435  1.00  0.00    -0.354 N 
ATOM     64  N   UNL A   1      47.907  32.573  27.028  1.00  0.00    -0.248 NA
ATOM     65  C   UNL A   1      47.030  34.660  27.598  1.00  0.00     0.031 C 
ATOM     66  C   UNL A   1      52.208  31.785  26.271  1.00  0.00     0.029 A 
ATOM     67  C   UNL A   1      50.873  32.057  26.526  1.00  0.00     0.049 A 
ATOM     68  H   UNL A   1      49.231  30.732  26.570  1.00  0.00     0.167 HD
ATOM     69  C   UNL A   1      48.935  33.507  27.057  1.00  0.00     0.074 A 
ATOM     70  C   UNL A   1      48.332  34.781  27.382  1.00  0.00     0.031 C 
ATOM     71  C   UNL A   1      50.259  33.322  26.835  1.00  0.00     0.037 A 
BRANCH  58  72
ATOM     72  C   UNL A   1      51.837  27.457  25.741  1.00  0.00     0.064 A 
ATOM     73  C   UNL A   1      52.509  26.829  26.801  1.00  0.00     0.173 A 
ATOM     74  C   UNL A   1      52.190  27.092  24.432  1.00  0.00     0.173 A 
ATOM     75  F   UNL A   1      52.216  27.149  28.070  1.00  0.00    -0.203 F 
ATOM     76  C   UNL A   1      53.509  25.892  26.558  1.00  0.00     0.198 A 
ATOM     77  C   UNL A   1      53.170  26.133  24.195  1.00  0.00     0.198 A 
ATOM     78  F   UNL A   1      51.574  27.658  23.384  1.00  0.00    -0.203 F 
ATOM     79  F   UNL A   1      54.167  25.337  27.586  1.00  0.00    -0.200 F 
ATOM     80  C   UNL A   1      53.834  25.539  25.257  1.00  0.00     0.200 A 
ATOM     81  F   UNL A   1      53.474  25.783  22.937  1.00  0.00    -0.200 F 
ATOM     82  F   UNL A   1      54.791  24.629  25.026  1.00  0.00    -0.200 F 
ENDBRANCH  58  72
BRANCH  59  83
ATOM     83  C   UNL A   1      44.283  33.672  27.710  1.00  0.00     0.064 A 
ATOM     84  C   UNL A   1      43.762  34.525  26.725  1.00  0.00     0.173 A 
ATOM     85  C   UNL A   1      43.733  33.750  28.998  1.00  0.00     0.173 A 
ATOM     86  F   UNL A   1      44.270  34.502  25.484  1.00  0.00    -0.203 F 
ATOM     87  C   UNL A   1      42.751  35.437  27.023  1.00  0.00     0.198 A 
ATOM     88  C   UNL A   1      42.702  34.643  29.287  1.00  0.00     0.198 A 
ATOM     89  F   UNL A   1      44.192  32.956  29.974  1.00  0.00    -0.203 F 
ATOM     90  F   UNL A   1      42.309  36.274  26.076  1.00  0.00    -0.200 F 
ATOM     91  C   UNL A   1      42.219  35.493  28.302  1.00  0.00     0.200 A 
ATOM     92  F   UNL A   1      42.181  34.684  30.520  1.00  0.00    -0.200 F 
ATOM     93  F   UNL A   1      41.248  36.369  28.588  1.00  0.00    -0.200 F 
ENDBRANCH  59  83
BRANCH  71  94
ATOM     94  C   UNL A   1      51.142  34.535  26.891  1.00  0.00     0.064 A 
ATOM     95  C   UNL A   1      51.834  34.890  28.058  1.00  0.00     0.173 A 
ATOM     96  C   UNL A   1      51.328  35.329  25.749  1.00  0.00     0.173 A 
ATOM     97  F   UNL A   1      51.677  34.171  29.180  1.00  0.00    -0.203 F 
ATOM     98  C   UNL A   1      52.660  36.010  28.088  1.00  0.00     0.198 A 
ATOM     99  C   UNL A   1      52.179  36.431  25.773  1.00  0.00     0.198 A 
ATOM    100  F   UNL A   1      50.694  35.028  24.606  1.00  0.00    -0.203 F 
ATOM    101  F   UNL A   1      53.274  36.359  29.226  1.00  0.00    -0.200 F 
ATOM    102  C   UNL A   1      52.837  36.774  26.943  1.00  0.00     0.200 A 
ATOM    103  F   UNL A   1      52.358  37.160  24.663  1.00  0.00    -0.200 F 
ATOM    104  F   UNL A   1      53.639  37.849  26.971  1.00  0.00    -0.200 F 
ENDBRANCH  71  94
ENDBRANCH  45  46
ENDBRANCH  37  40
ENDBRANCH  35  36
ENDBRANCH  34  35
ENDBRANCH  33  34
ENDBRANCH   1  33
TORSDOF 17
ENDMDL
