MODEL 1
REMARK VINA RESULT:     -11.7      0.000      0.000
REMARK SMILES O=C(NCCCCCCNC(=O)c1cc(SC[C@H]2CCOC2)ccn1)c1ccc(-c2c3nc(c(-c4c(F)c(F)c(F)c(F)c4F)c4ccc([nH]4)c(-c4c(F)c(F)c(F)c(F)c4F)c4nc(c(-c5c(F)c(F)c(F)c(F)c5F)c5ccc2[nH]5)C=C4)C=C3)cc1
REMARK SMILES IDX 7 1 6 2 5 3 4 4 3 5 1 6 2 7 26 9 27 10 88 11 28 12 87 13
REMARK SMILES IDX 29 14 30 15 31 16 81 17 32 18 86 19 80 20 82 21 33 22 85 23
REMARK SMILES IDX 79 24 78 25 34 27 66 28 46 29 65 30 47 31 50 32 64 33 83 34
REMARK SMILES IDX 48 35 49 36 63 38 84 39 51 40 35 41 36 42 44 43 37 44 38 45
REMARK SMILES IDX 42 46 45 47 39 48 40 49 43 50 41 51 67 52 68 53 76 54 69 55
REMARK SMILES IDX 70 56 74 57 77 58 71 59 72 60 75 61 73 62 52 63 53 64 61 65
REMARK SMILES IDX 54 66 55 67 59 68 62 69 56 70 57 71 60 72 58 73 8 74 9 75
REMARK SMILES IDX 10 76 11 77 12 79 13 80 14 81 25 82 15 83 24 84 23 85 16 86
REMARK SMILES IDX 17 87 18 88 19 89 22 90 20 91 21 92
REMARK H PARENT 3 8 82 26 50 37 10 78
REMARK Flexibility Score: inf
ROOT
ATOM      1  C   UNL A   1      32.517  30.007  26.592  1.00  0.00     0.002 C 
ENDROOT
BRANCH   1   2
ATOM      2  C   UNL A   1      31.413  30.885  25.990  1.00  0.00     0.002 C 
BRANCH   2   3
ATOM      3  C   UNL A   1      31.296  32.311  26.529  1.00  0.00     0.021 C 
BRANCH   3   4
ATOM      4  C   UNL A   1      32.554  32.896  27.164  1.00  0.00     0.116 C 
BRANCH   4   5
ATOM      5  N   UNL A   1      32.360  34.245  27.676  1.00  0.00    -0.352 N 
ATOM      6  O   UNL A   1      32.617  36.019  29.042  1.00  0.00    -0.269 OA
ATOM      7  C   UNL A   1      33.024  34.920  28.670  1.00  0.00     0.251 C 
ATOM      8  H   UNL A   1      31.639  34.753  27.240  1.00  0.00     0.163 HD
BRANCH   7   9
ATOM      9  C   UNL A   1      34.214  34.327  29.325  1.00  0.00     0.039 A 
ATOM     10  C   UNL A   1      35.505  34.626  28.889  1.00  0.00     0.014 A 
ATOM     11  C   UNL A   1      34.029  33.474  30.418  1.00  0.00     0.014 A 
ATOM     12  C   UNL A   1      36.596  33.956  29.439  1.00  0.00     0.010 A 
ATOM     13  C   UNL A   1      35.132  32.867  31.026  1.00  0.00     0.010 A 
ATOM     14  C   UNL A   1      36.423  33.070  30.516  1.00  0.00    -0.014 A 
BRANCH  14  15
ATOM     15  C   UNL A   1      37.609  32.396  31.108  1.00  0.00     0.031 A 
ATOM     16  C   UNL A   1      38.087  32.738  32.492  1.00  0.00     0.074 A 
ATOM     17  C   UNL A   1      38.243  31.445  30.396  1.00  0.00     0.049 A 
ATOM     18  N   UNL A   1      39.080  32.226  33.176  1.00  0.00    -0.248 NA
ATOM     19  C   UNL A   1      37.362  33.803  33.200  1.00  0.00     0.031 C 
ATOM     20  C   UNL A   1      37.882  31.030  29.038  1.00  0.00     0.029 A 
ATOM     21  N   UNL A   1      39.310  30.643  30.715  1.00  0.00    -0.354 N 
ATOM     22  C   UNL A   1      39.114  32.917  34.380  1.00  0.00     0.074 A 
ATOM     23  C   UNL A   1      38.059  33.907  34.322  1.00  0.00     0.031 C 
ATOM     24  C   UNL A   1      38.679  30.021  28.661  1.00  0.00     0.029 A 
ATOM     25  C   UNL A   1      39.644  29.755  29.722  1.00  0.00     0.049 A 
ATOM     26  H   UNL A   1      39.790  30.701  31.572  1.00  0.00     0.167 HD
ATOM     27  C   UNL A   1      39.942  32.736  35.438  1.00  0.00     0.037 A 
ATOM     28  C   UNL A   1      40.623  28.833  29.669  1.00  0.00     0.037 A 
ATOM     29  C   UNL A   1      40.982  31.739  35.494  1.00  0.00     0.049 A 
ATOM     30  C   UNL A   1      41.544  28.673  30.844  1.00  0.00     0.074 A 
ATOM     31  C   UNL A   1      41.843  31.446  36.538  1.00  0.00     0.029 A 
ATOM     32  N   UNL A   1      41.312  30.879  34.455  1.00  0.00    -0.354 N 
ATOM     33  N   UNL A   1      41.533  29.298  31.996  1.00  0.00    -0.248 NA
ATOM     34  C   UNL A   1      42.614  27.676  30.710  1.00  0.00     0.031 C 
ATOM     35  C   UNL A   1      42.728  30.451  36.112  1.00  0.00     0.029 A 
ATOM     36  C   UNL A   1      42.381  30.075  34.824  1.00  0.00     0.049 A 
ATOM     37  H   UNL A   1      40.854  30.845  33.584  1.00  0.00     0.167 HD
ATOM     38  C   UNL A   1      42.572  28.750  32.736  1.00  0.00     0.074 A 
ATOM     39  C   UNL A   1      43.183  27.733  31.906  1.00  0.00     0.031 C 
ATOM     40  C   UNL A   1      42.977  29.061  33.992  1.00  0.00     0.037 A 
BRANCH  27  41
ATOM     41  C   UNL A   1      39.777  33.657  36.616  1.00  0.00     0.064 A 
ATOM     42  C   UNL A   1      40.472  34.873  36.710  1.00  0.00     0.173 A 
ATOM     43  C   UNL A   1      38.892  33.328  37.654  1.00  0.00     0.173 A 
ATOM     44  F   UNL A   1      41.337  35.234  35.751  1.00  0.00    -0.203 F 
ATOM     45  C   UNL A   1      40.314  35.706  37.817  1.00  0.00     0.198 A 
ATOM     46  C   UNL A   1      38.712  34.179  38.742  1.00  0.00     0.198 A 
ATOM     47  F   UNL A   1      38.194  32.184  37.612  1.00  0.00    -0.203 F 
ATOM     48  F   UNL A   1      41.032  36.834  37.911  1.00  0.00    -0.200 F 
ATOM     49  C   UNL A   1      39.431  35.361  38.829  1.00  0.00     0.200 A 
ATOM     50  F   UNL A   1      37.846  33.851  39.711  1.00  0.00    -0.200 F 
ATOM     51  F   UNL A   1      39.280  36.164  39.890  1.00  0.00    -0.200 F 
ENDBRANCH  27  41
BRANCH  28  52
ATOM     52  C   UNL A   1      40.762  27.980  28.461  1.00  0.00     0.064 A 
ATOM     53  C   UNL A   1      41.541  28.397  27.373  1.00  0.00     0.173 A 
ATOM     54  C   UNL A   1      40.140  26.725  28.377  1.00  0.00     0.173 A 
ATOM     55  F   UNL A   1      42.140  29.596  27.399  1.00  0.00    -0.203 F 
ATOM     56  C   UNL A   1      41.681  27.598  26.240  1.00  0.00     0.198 A 
ATOM     57  C   UNL A   1      40.306  25.914  27.257  1.00  0.00     0.198 A 
ATOM     58  F   UNL A   1      39.390  26.279  29.395  1.00  0.00    -0.203 F 
ATOM     59  F   UNL A   1      42.399  28.036  25.198  1.00  0.00    -0.200 F 
ATOM     60  C   UNL A   1      41.070  26.353  26.187  1.00  0.00     0.200 A 
ATOM     61  F   UNL A   1      39.728  24.705  27.217  1.00  0.00    -0.200 F 
ATOM     62  F   UNL A   1      41.214  25.579  25.103  1.00  0.00    -0.200 F 
ENDBRANCH  28  52
BRANCH  40  63
ATOM     63  C   UNL A   1      44.107  28.254  34.566  1.00  0.00     0.064 A 
ATOM     64  C   UNL A   1      45.444  28.667  34.460  1.00  0.00     0.173 A 
ATOM     65  C   UNL A   1      43.844  27.057  35.252  1.00  0.00     0.173 A 
ATOM     66  F   UNL A   1      45.752  29.794  33.800  1.00  0.00    -0.203 F 
ATOM     67  C   UNL A   1      46.475  27.896  34.991  1.00  0.00     0.198 A 
ATOM     68  C   UNL A   1      44.875  26.307  35.810  1.00  0.00     0.198 A 
ATOM     69  F   UNL A   1      42.583  26.619  35.388  1.00  0.00    -0.203 F 
ATOM     70  F   UNL A   1      47.749  28.281  34.826  1.00  0.00    -0.200 F 
ATOM     71  C   UNL A   1      46.190  26.721  35.670  1.00  0.00     0.200 A 
ATOM     72  F   UNL A   1      44.595  25.180  36.479  1.00  0.00    -0.200 F 
ATOM     73  F   UNL A   1      47.185  25.983  36.183  1.00  0.00    -0.200 F 
ENDBRANCH  40  63
ENDBRANCH  14  15
ENDBRANCH   7   9
ENDBRANCH   4   5
ENDBRANCH   3   4
ENDBRANCH   2   3
ENDBRANCH   1   2
BRANCH   1  74
ATOM     74  C   UNL A   1      32.069  28.859  27.502  1.00  0.00     0.021 C 
BRANCH  74  75
ATOM     75  C   UNL A   1      32.310  27.453  26.969  1.00  0.00     0.116 C 
BRANCH  75  76
ATOM     76  N   UNL A   1      31.203  26.531  27.094  1.00  0.00    -0.351 N 
ATOM     77  C   UNL A   1      30.549  25.877  26.066  1.00  0.00     0.269 C 
ATOM     78  H   UNL A   1      30.882  26.351  28.007  1.00  0.00     0.163 HD
ATOM     79  O   UNL A   1      29.744  24.984  26.318  1.00  0.00    -0.268 OA
BRANCH  77  80
ATOM     80  C   UNL A   1      30.816  26.274  24.652  1.00  0.00     0.129 A 
ATOM     81  C   UNL A   1      30.465  27.541  24.182  1.00  0.00     0.049 A 
ATOM     82  N   UNL A   1      31.353  25.297  23.879  1.00  0.00    -0.251 NA
ATOM     83  C   UNL A   1      30.613  27.797  22.819  1.00  0.00     0.011 A 
ATOM     84  C   UNL A   1      31.558  25.598  22.585  1.00  0.00     0.113 A 
ATOM     85  C   UNL A   1      31.199  26.808  22.018  1.00  0.00     0.035 A 
BRANCH  83  86
ATOM     86  S   UNL A   1      30.115  29.279  21.944  1.00  0.00    -0.126 SA
BRANCH  86  87
ATOM     87  C   UNL A   1      28.461  29.750  22.574  1.00  0.00     0.081 C 
BRANCH  87  88
ATOM     88  C   UNL A   1      28.111  31.232  22.723  1.00  0.00     0.027 C 
ATOM     89  C   UNL A   1      29.042  32.150  23.488  1.00  0.00     0.035 C 
ATOM     90  C   UNL A   1      27.994  31.978  21.421  1.00  0.00     0.164 C 
ATOM     91  C   UNL A   1      28.628  33.535  22.997  1.00  0.00     0.160 C 
ATOM     92  O   UNL A   1      27.926  33.364  21.757  1.00  0.00    -0.381 OA
ENDBRANCH  87  88
ENDBRANCH  86  87
ENDBRANCH  83  86
ENDBRANCH  77  80
ENDBRANCH  75  76
ENDBRANCH  74  75
ENDBRANCH   1  74
TORSDOF 16
ENDMDL
MODEL 2
REMARK VINA RESULT:     -11.6      1.032      2.371
REMARK SMILES O=C(NCCCCCCNC(=O)c1cc(SC[C@H]2CCOC2)ccn1)c1ccc(-c2c3nc(c(-c4c(F)c(F)c(F)c(F)c4F)c4ccc([nH]4)c(-c4c(F)c(F)c(F)c(F)c4F)c4nc(c(-c5c(F)c(F)c(F)c(F)c5F)c5ccc2[nH]5)C=C4)C=C3)cc1
REMARK SMILES IDX 7 1 6 2 5 3 4 4 3 5 1 6 2 7 26 9 27 10 88 11 28 12 87 13
REMARK SMILES IDX 29 14 30 15 31 16 81 17 32 18 86 19 80 20 82 21 33 22 85 23
REMARK SMILES IDX 79 24 78 25 34 27 66 28 46 29 65 30 47 31 50 32 64 33 83 34
REMARK SMILES IDX 48 35 49 36 63 38 84 39 51 40 35 41 36 42 44 43 37 44 38 45
REMARK SMILES IDX 42 46 45 47 39 48 40 49 43 50 41 51 67 52 68 53 76 54 69 55
REMARK SMILES IDX 70 56 74 57 77 58 71 59 72 60 75 61 73 62 52 63 53 64 61 65
REMARK SMILES IDX 54 66 55 67 59 68 62 69 56 70 57 71 60 72 58 73 8 74 9 75
REMARK SMILES IDX 10 76 11 77 12 79 13 80 14 81 25 82 15 83 24 84 23 85 16 86
REMARK SMILES IDX 17 87 18 88 19 89 22 90 20 91 21 92
REMARK H PARENT 3 8 82 26 50 37 10 78
REMARK Flexibility Score: inf
ROOT
ATOM      1  C   UNL A   1      32.510  29.565  26.408  1.00  0.00     0.002 C 
ENDROOT
BRANCH   1   2
ATOM      2  C   UNL A   1      31.523  30.522  25.728  1.00  0.00     0.002 C 
BRANCH   2   3
ATOM      3  C   UNL A   1      31.344  31.898  26.371  1.00  0.00     0.021 C 
BRANCH   3   4
ATOM      4  C   UNL A   1      32.545  32.446  27.134  1.00  0.00     0.116 C 
BRANCH   4   5
ATOM      5  N   UNL A   1      32.383  33.836  27.533  1.00  0.00    -0.352 N 
ATOM      6  O   UNL A   1      32.687  35.713  28.743  1.00  0.00    -0.269 OA
ATOM      7  C   UNL A   1      33.069  34.579  28.462  1.00  0.00     0.251 C 
ATOM      8  H   UNL A   1      31.667  34.321  27.062  1.00  0.00     0.163 HD
BRANCH   7   9
ATOM      9  C   UNL A   1      34.253  34.019  29.154  1.00  0.00     0.039 A 
ATOM     10  C   UNL A   1      35.547  34.407  28.806  1.00  0.00     0.014 A 
ATOM     11  C   UNL A   1      34.059  33.105  30.196  1.00  0.00     0.014 A 
ATOM     12  C   UNL A   1      36.643  33.770  29.385  1.00  0.00     0.010 A 
ATOM     13  C   UNL A   1      35.160  32.529  30.836  1.00  0.00     0.010 A 
ATOM     14  C   UNL A   1      36.463  32.825  30.409  1.00  0.00    -0.014 A 
BRANCH  14  15
ATOM     15  C   UNL A   1      37.651  32.187  31.035  1.00  0.00     0.031 A 
ATOM     16  C   UNL A   1      38.082  32.548  32.429  1.00  0.00     0.074 A 
ATOM     17  C   UNL A   1      38.331  31.253  30.343  1.00  0.00     0.049 A 
ATOM     18  N   UNL A   1      39.071  32.066  33.142  1.00  0.00    -0.248 NA
ATOM     19  C   UNL A   1      37.308  33.594  33.113  1.00  0.00     0.031 C 
ATOM     20  C   UNL A   1      38.019  30.824  28.979  1.00  0.00     0.029 A 
ATOM     21  N   UNL A   1      39.412  30.483  30.694  1.00  0.00    -0.354 N 
ATOM     22  C   UNL A   1      39.052  32.762  34.344  1.00  0.00     0.074 A 
ATOM     23  C   UNL A   1      37.971  33.721  34.254  1.00  0.00     0.031 C 
ATOM     24  C   UNL A   1      38.854  29.836  28.626  1.00  0.00     0.029 A 
ATOM     25  C   UNL A   1      39.797  29.602  29.714  1.00  0.00     0.049 A 
ATOM     26  H   UNL A   1      39.867  30.557  31.564  1.00  0.00     0.167 HD
ATOM     27  C   UNL A   1      39.857  32.608  35.424  1.00  0.00     0.037 A 
ATOM     28  C   UNL A   1      40.804  28.708  29.690  1.00  0.00     0.037 A 
ATOM     29  C   UNL A   1      40.924  31.641  35.511  1.00  0.00     0.049 A 
ATOM     30  C   UNL A   1      41.697  28.578  30.891  1.00  0.00     0.074 A 
ATOM     31  C   UNL A   1      41.764  31.377  36.579  1.00  0.00     0.029 A 
ATOM     32  N   UNL A   1      41.305  30.788  34.485  1.00  0.00    -0.354 N 
ATOM     33  N   UNL A   1      41.637  29.206  32.040  1.00  0.00    -0.248 NA
ATOM     34  C   UNL A   1      42.798  27.611  30.789  1.00  0.00     0.031 C 
ATOM     35  C   UNL A   1      42.689  30.406  36.181  1.00  0.00     0.029 A 
ATOM     36  C   UNL A   1      42.386  30.016  34.886  1.00  0.00     0.049 A 
ATOM     37  H   UNL A   1      40.872  30.738  33.603  1.00  0.00     0.167 HD
ATOM     38  C   UNL A   1      42.671  28.691  32.809  1.00  0.00     0.074 A 
ATOM     39  C   UNL A   1      43.333  27.689  31.999  1.00  0.00     0.031 C 
ATOM     40  C   UNL A   1      43.034  29.017  34.074  1.00  0.00     0.037 A 
BRANCH  27  41
ATOM     41  C   UNL A   1      39.635  33.528  36.593  1.00  0.00     0.064 A 
ATOM     42  C   UNL A   1      38.828  33.163  37.682  1.00  0.00     0.173 A 
ATOM     43  C   UNL A   1      40.259  34.784  36.635  1.00  0.00     0.173 A 
ATOM     44  F   UNL A   1      38.200  31.978  37.692  1.00  0.00    -0.203 F 
ATOM     45  C   UNL A   1      38.624  34.037  38.749  1.00  0.00     0.198 A 
ATOM     46  C   UNL A   1      40.080  35.641  37.718  1.00  0.00     0.198 A 
ATOM     47  F   UNL A   1      41.049  35.181  35.627  1.00  0.00    -0.203 F 
ATOM     48  F   UNL A   1      37.804  33.689  39.750  1.00  0.00    -0.200 F 
ATOM     49  C   UNL A   1      39.255  35.272  38.769  1.00  0.00     0.200 A 
ATOM     50  F   UNL A   1      40.703  36.827  37.742  1.00  0.00    -0.200 F 
ATOM     51  F   UNL A   1      39.060  36.109  39.797  1.00  0.00    -0.200 F 
ENDBRANCH  27  41
BRANCH  28  52
ATOM     52  C   UNL A   1      41.000  27.855  28.490  1.00  0.00     0.064 A 
ATOM     53  C   UNL A   1      40.323  26.634  28.359  1.00  0.00     0.173 A 
ATOM     54  C   UNL A   1      41.847  28.248  27.444  1.00  0.00     0.173 A 
ATOM     55  F   UNL A   1      39.517  26.207  29.342  1.00  0.00    -0.203 F 
ATOM     56  C   UNL A   1      40.497  25.833  27.233  1.00  0.00     0.198 A 
ATOM     57  C   UNL A   1      41.996  27.461  26.305  1.00  0.00     0.198 A 
ATOM     58  F   UNL A   1      42.511  29.410  27.519  1.00  0.00    -0.203 F 
ATOM     59  F   UNL A   1      39.869  24.653  27.150  1.00  0.00    -0.200 F 
ATOM     60  C   UNL A   1      41.327  26.251  26.203  1.00  0.00     0.200 A 
ATOM     61  F   UNL A   1      42.786  27.877  25.304  1.00  0.00    -0.200 F 
ATOM     62  F   UNL A   1      41.486  25.486  25.115  1.00  0.00    -0.200 F 
ENDBRANCH  28  52
BRANCH  40  63
ATOM     63  C   UNL A   1      44.170  28.245  34.681  1.00  0.00     0.064 A 
ATOM     64  C   UNL A   1      43.967  27.037  35.365  1.00  0.00     0.173 A 
ATOM     65  C   UNL A   1      45.488  28.713  34.557  1.00  0.00     0.173 A 
ATOM     66  F   UNL A   1      42.725  26.554  35.526  1.00  0.00    -0.203 F 
ATOM     67  C   UNL A   1      45.035  26.344  35.929  1.00  0.00     0.198 A 
ATOM     68  C   UNL A   1      46.557  28.000  35.093  1.00  0.00     0.198 A 
ATOM     69  F   UNL A   1      45.741  29.859  33.907  1.00  0.00    -0.203 F 
ATOM     70  F   UNL A   1      44.810  25.223  36.628  1.00  0.00    -0.200 F 
ATOM     71  C   UNL A   1      46.330  26.823  35.787  1.00  0.00     0.200 A 
ATOM     72  F   UNL A   1      47.808  28.457  34.941  1.00  0.00    -0.200 F 
ATOM     73  F   UNL A   1      47.357  26.152  36.328  1.00  0.00    -0.200 F 
ENDBRANCH  40  63
ENDBRANCH  14  15
ENDBRANCH   7   9
ENDBRANCH   4   5
ENDBRANCH   3   4
ENDBRANCH   2   3
ENDBRANCH   1   2
BRANCH   1  74
ATOM     74  C   UNL A   1      33.554  28.893  25.511  1.00  0.00     0.021 C 
BRANCH  74  75
ATOM     75  C   UNL A   1      33.425  29.167  24.019  1.00  0.00     0.116 C 
BRANCH  75  76
ATOM     76  N   UNL A   1      33.944  28.142  23.141  1.00  0.00    -0.351 N 
ATOM     77  C   UNL A   1      33.229  27.115  22.552  1.00  0.00     0.269 C 
ATOM     78  H   UNL A   1      34.907  28.179  22.942  1.00  0.00     0.163 HD
ATOM     79  O   UNL A   1      33.751  26.419  21.685  1.00  0.00    -0.268 OA
BRANCH  77  80
ATOM     80  C   UNL A   1      31.825  26.850  22.987  1.00  0.00     0.129 A 
ATOM     81  C   UNL A   1      30.791  27.723  22.647  1.00  0.00     0.049 A 
ATOM     82  N   UNL A   1      31.670  25.755  23.772  1.00  0.00    -0.251 NA
ATOM     83  C   UNL A   1      29.532  27.494  23.202  1.00  0.00     0.011 A 
ATOM     84  C   UNL A   1      30.430  25.513  24.229  1.00  0.00     0.113 A 
ATOM     85  C   UNL A   1      29.352  26.346  23.985  1.00  0.00     0.035 A 
BRANCH  83  86
ATOM     86  S   UNL A   1      28.079  28.531  23.038  1.00  0.00    -0.126 SA
BRANCH  86  87
ATOM     87  C   UNL A   1      28.590  30.244  23.437  1.00  0.00     0.081 C 
BRANCH  87  88
ATOM     88  C   UNL A   1      28.665  31.282  22.315  1.00  0.00     0.027 C 
ATOM     89  C   UNL A   1      27.987  31.005  20.989  1.00  0.00     0.035 C 
ATOM     90  C   UNL A   1      28.063  32.617  22.660  1.00  0.00     0.164 C 
ATOM     91  C   UNL A   1      27.866  32.397  20.375  1.00  0.00     0.160 C 
ATOM     92  O   UNL A   1      27.989  33.353  21.439  1.00  0.00    -0.381 OA
ENDBRANCH  87  88
ENDBRANCH  86  87
ENDBRANCH  83  86
ENDBRANCH  77  80
ENDBRANCH  75  76
ENDBRANCH  74  75
ENDBRANCH   1  74
TORSDOF 16
ENDMDL
MODEL 3
REMARK VINA RESULT:     -11.4      2.480      4.521
REMARK SMILES O=C(NCCCCCCNC(=O)c1cc(SC[C@H]2CCOC2)ccn1)c1ccc(-c2c3nc(c(-c4c(F)c(F)c(F)c(F)c4F)c4ccc([nH]4)c(-c4c(F)c(F)c(F)c(F)c4F)c4nc(c(-c5c(F)c(F)c(F)c(F)c5F)c5ccc2[nH]5)C=C4)C=C3)cc1
REMARK SMILES IDX 7 1 6 2 5 3 4 4 3 5 1 6 2 7 26 9 27 10 88 11 28 12 87 13
REMARK SMILES IDX 29 14 30 15 31 16 81 17 32 18 86 19 80 20 82 21 33 22 85 23
REMARK SMILES IDX 79 24 78 25 34 27 66 28 46 29 65 30 47 31 50 32 64 33 83 34
REMARK SMILES IDX 48 35 49 36 63 38 84 39 51 40 35 41 36 42 44 43 37 44 38 45
REMARK SMILES IDX 42 46 45 47 39 48 40 49 43 50 41 51 67 52 68 53 76 54 69 55
REMARK SMILES IDX 70 56 74 57 77 58 71 59 72 60 75 61 73 62 52 63 53 64 61 65
REMARK SMILES IDX 54 66 55 67 59 68 62 69 56 70 57 71 60 72 58 73 8 74 9 75
REMARK SMILES IDX 10 76 11 77 12 79 13 80 14 81 25 82 15 83 24 84 23 85 16 86
REMARK SMILES IDX 17 87 18 88 19 89 22 90 20 91 21 92
REMARK H PARENT 3 8 82 26 50 37 10 78
REMARK Flexibility Score: inf
ROOT
ATOM      1  C   UNL A   1      30.738  26.446  25.357  1.00  0.00     0.002 C 
ENDROOT
BRANCH   1   2
ATOM      2  C   UNL A   1      31.715  26.991  26.406  1.00  0.00     0.002 C 
BRANCH   2   3
ATOM      3  C   UNL A   1      31.640  28.488  26.707  1.00  0.00     0.021 C 
BRANCH   3   4
ATOM      4  C   UNL A   1      32.789  29.340  26.179  1.00  0.00     0.116 C 
BRANCH   4   5
ATOM      5  N   UNL A   1      32.603  30.763  26.420  1.00  0.00    -0.352 N 
ATOM      6  O   UNL A   1      32.931  32.784  27.362  1.00  0.00    -0.269 OA
ATOM      7  C   UNL A   1      33.335  31.636  27.185  1.00  0.00     0.251 C 
ATOM      8  H   UNL A   1      31.829  31.163  25.961  1.00  0.00     0.163 HD
BRANCH   7   9
ATOM      9  C   UNL A   1      34.598  31.204  27.829  1.00  0.00     0.039 A 
ATOM     10  C   UNL A   1      34.787  29.885  28.241  1.00  0.00     0.014 A 
ATOM     11  C   UNL A   1      35.626  32.139  27.997  1.00  0.00     0.014 A 
ATOM     12  C   UNL A   1      35.931  29.538  28.958  1.00  0.00     0.010 A 
ATOM     13  C   UNL A   1      36.810  31.768  28.641  1.00  0.00     0.010 A 
ATOM     14  C   UNL A   1      36.957  30.475  29.163  1.00  0.00    -0.014 A 
BRANCH  14  15
ATOM     15  C   UNL A   1      38.184  30.069  29.900  1.00  0.00     0.031 A 
ATOM     16  C   UNL A   1      38.442  30.546  31.302  1.00  0.00     0.074 A 
ATOM     17  C   UNL A   1      39.060  29.239  29.302  1.00  0.00     0.049 A 
ATOM     18  N   UNL A   1      39.440  30.264  32.103  1.00  0.00    -0.248 NA
ATOM     19  C   UNL A   1      37.456  31.471  31.880  1.00  0.00     0.031 C 
ATOM     20  C   UNL A   1      38.928  28.715  27.941  1.00  0.00     0.029 A 
ATOM     21  N   UNL A   1      40.223  28.675  29.763  1.00  0.00    -0.354 N 
ATOM     22  C   UNL A   1      39.215  30.989  33.266  1.00  0.00     0.074 A 
ATOM     23  C   UNL A   1      38.000  31.749  33.056  1.00  0.00     0.031 C 
ATOM     24  C   UNL A   1      39.939  27.871  27.695  1.00  0.00     0.029 A 
ATOM     25  C   UNL A   1      40.822  27.837  28.856  1.00  0.00     0.049 A 
ATOM     26  H   UNL A   1      40.593  28.856  30.658  1.00  0.00     0.167 HD
ATOM     27  C   UNL A   1      39.950  31.012  34.406  1.00  0.00     0.037 A 
ATOM     28  C   UNL A   1      41.962  27.126  28.944  1.00  0.00     0.037 A 
ATOM     29  C   UNL A   1      41.152  30.243  34.613  1.00  0.00     0.049 A 
ATOM     30  C   UNL A   1      42.770  27.192  30.208  1.00  0.00     0.074 A 
ATOM     31  C   UNL A   1      41.940  30.162  35.747  1.00  0.00     0.029 A 
ATOM     32  N   UNL A   1      41.746  29.430  33.657  1.00  0.00    -0.354 N 
ATOM     33  N   UNL A   1      42.521  27.840  31.319  1.00  0.00    -0.248 NA
ATOM     34  C   UNL A   1      44.021  26.421  30.228  1.00  0.00     0.031 C 
ATOM     35  C   UNL A   1      43.041  29.347  35.460  1.00  0.00     0.029 A 
ATOM     36  C   UNL A   1      42.907  28.867  34.168  1.00  0.00     0.049 A 
ATOM     37  H   UNL A   1      41.395  29.276  32.750  1.00  0.00     0.167 HD
ATOM     38  C   UNL A   1      43.564  27.535  32.182  1.00  0.00     0.074 A 
ATOM     39  C   UNL A   1      44.443  26.631  31.468  1.00  0.00     0.031 C 
ATOM     40  C   UNL A   1      43.771  27.962  33.451  1.00  0.00     0.037 A 
BRANCH  27  41
ATOM     41  C   UNL A   1      39.490  31.922  35.511  1.00  0.00     0.064 A 
ATOM     42  C   UNL A   1      38.593  31.493  36.502  1.00  0.00     0.173 A 
ATOM     43  C   UNL A   1      39.974  33.237  35.594  1.00  0.00     0.173 A 
ATOM     44  F   UNL A   1      38.091  30.249  36.468  1.00  0.00    -0.203 F 
ATOM     45  C   UNL A   1      38.169  32.357  37.510  1.00  0.00     0.198 A 
ATOM     46  C   UNL A   1      39.574  34.087  36.622  1.00  0.00     0.198 A 
ATOM     47  F   UNL A   1      40.841  33.697  34.681  1.00  0.00    -0.203 F 
ATOM     48  F   UNL A   1      37.268  31.942  38.411  1.00  0.00    -0.200 F 
ATOM     49  C   UNL A   1      38.664  33.651  37.572  1.00  0.00     0.200 A 
ATOM     50  F   UNL A   1      40.065  35.332  36.689  1.00  0.00    -0.200 F 
ATOM     51  F   UNL A   1      38.257  34.480  38.544  1.00  0.00    -0.200 F 
ENDBRANCH  27  41
BRANCH  28  52
ATOM     52  C   UNL A   1      42.387  26.276  27.802  1.00  0.00     0.064 A 
ATOM     53  C   UNL A   1      41.863  24.987  27.633  1.00  0.00     0.173 A 
ATOM     54  C   UNL A   1      43.307  26.738  26.850  1.00  0.00     0.173 A 
ATOM     55  F   UNL A   1      40.994  24.495  28.528  1.00  0.00    -0.203 F 
ATOM     56  C   UNL A   1      42.252  24.188  26.561  1.00  0.00     0.198 A 
ATOM     57  C   UNL A   1      43.672  25.949  25.761  1.00  0.00     0.198 A 
ATOM     58  F   UNL A   1      43.833  27.966  26.965  1.00  0.00    -0.203 F 
ATOM     59  F   UNL A   1      41.765  22.945  26.442  1.00  0.00    -0.200 F 
ATOM     60  C   UNL A   1      43.150  24.673  25.621  1.00  0.00     0.200 A 
ATOM     61  F   UNL A   1      44.527  26.428  24.846  1.00  0.00    -0.200 F 
ATOM     62  F   UNL A   1      43.516  23.908  24.584  1.00  0.00    -0.200 F 
ENDBRANCH  28  52
BRANCH  40  63
ATOM     63  C   UNL A   1      44.970  27.415  34.171  1.00  0.00     0.064 A 
ATOM     64  C   UNL A   1      44.925  26.202  34.875  1.00  0.00     0.173 A 
ATOM     65  C   UNL A   1      46.191  28.108  34.138  1.00  0.00     0.173 A 
ATOM     66  F   UNL A   1      43.778  25.509  34.952  1.00  0.00    -0.203 F 
ATOM     67  C   UNL A   1      46.047  25.721  35.544  1.00  0.00     0.198 A 
ATOM     68  C   UNL A   1      47.319  27.606  34.780  1.00  0.00     0.198 A 
ATOM     69  F   UNL A   1      46.292  29.269  33.474  1.00  0.00    -0.203 F 
ATOM     70  F   UNL A   1      45.964  24.589  36.258  1.00  0.00    -0.200 F 
ATOM     71  C   UNL A   1      47.244  26.419  35.491  1.00  0.00     0.200 A 
ATOM     72  F   UNL A   1      48.479  28.275  34.715  1.00  0.00    -0.200 F 
ATOM     73  F   UNL A   1      48.324  25.951  36.133  1.00  0.00    -0.200 F 
ENDBRANCH  40  63
ENDBRANCH  14  15
ENDBRANCH   7   9
ENDBRANCH   4   5
ENDBRANCH   3   4
ENDBRANCH   2   3
ENDBRANCH   1   2
BRANCH   1  74
ATOM     74  C   UNL A   1      30.299  27.412  24.251  1.00  0.00     0.021 C 
BRANCH  74  75
ATOM     75  C   UNL A   1      30.822  27.107  22.854  1.00  0.00     0.116 C 
BRANCH  75  76
ATOM     76  N   UNL A   1      32.022  27.811  22.461  1.00  0.00    -0.351 N 
ATOM     77  C   UNL A   1      33.249  27.252  22.156  1.00  0.00     0.269 C 
ATOM     78  H   UNL A   1      31.958  28.792  22.404  1.00  0.00     0.163 HD
ATOM     79  O   UNL A   1      34.136  27.943  21.662  1.00  0.00    -0.268 OA
BRANCH  77  80
ATOM     80  C   UNL A   1      33.493  25.807  22.445  1.00  0.00     0.129 A 
ATOM     81  C   UNL A   1      34.139  25.407  23.616  1.00  0.00     0.049 A 
ATOM     82  N   UNL A   1      33.099  24.957  21.465  1.00  0.00    -0.251 NA
ATOM     83  C   UNL A   1      34.461  24.057  23.758  1.00  0.00     0.011 A 
ATOM     84  C   UNL A   1      33.351  23.651  21.663  1.00  0.00     0.113 A 
ATOM     85  C   UNL A   1      34.027  23.166  22.769  1.00  0.00     0.035 A 
BRANCH  83  86
ATOM     86  S   UNL A   1      35.400  23.310  25.089  1.00  0.00    -0.126 SA
BRANCH  86  87
ATOM     87  C   UNL A   1      34.200  22.511  26.217  1.00  0.00     0.081 C 
BRANCH  87  88
ATOM     88  C   UNL A   1      32.747  22.992  26.225  1.00  0.00     0.027 C 
ATOM     89  C   UNL A   1      31.684  22.180  25.513  1.00  0.00     0.035 C 
ATOM     90  C   UNL A   1      32.136  23.107  27.595  1.00  0.00     0.164 C 
ATOM     91  C   UNL A   1      30.392  22.685  26.150  1.00  0.00     0.160 C 
ATOM     92  O   UNL A   1      30.737  23.308  27.396  1.00  0.00    -0.381 OA
ENDBRANCH  87  88
ENDBRANCH  86  87
ENDBRANCH  83  86
ENDBRANCH  77  80
ENDBRANCH  75  76
ENDBRANCH  74  75
ENDBRANCH   1  74
TORSDOF 16
ENDMDL
