MODEL 1
REMARK VINA RESULT:     -14.4      0.000      0.000
REMARK SMILES O=C(CCN1C(=O)[C@@H]2[C@@H](C1=O)[C@H]1c3ccccc3[C@]2(Br)c2ccccc21)NCCCCCCNC(=O)c1ccc(-c2c3nc(c(-c4c(F)c(F)c(F)c(F)c4F)c4ccc([nH]4)c(-c4c(F)c(F)c(F)c(F)c4F)c4nc(c(-c5c(F)c(F)c(F)c(F)c5F)c5ccc2[nH]5)C=C4)C=C3)cc1
REMARK SMILES IDX 30 1 29 2 28 3 27 4 1 5 2 6 3 8 4 9 5 10 6 11 10 12 7 13
REMARK SMILES IDX 8 14 9 15 11 16 19 17 12 18 21 19 20 20 18 21 26 22 13 23
REMARK SMILES IDX 22 24 17 25 25 26 14 27 23 28 16 29 24 30 15 31 31 32 32 33
REMARK SMILES IDX 33 34 34 35 35 36 36 38 37 39 38 40 99 41 39 42 98 43 40 44
REMARK SMILES IDX 41 45 42 46 92 47 43 48 97 49 91 50 93 51 44 52 96 53 90 54
REMARK SMILES IDX 89 55 45 57 77 58 57 59 76 60 58 61 61 62 75 63 94 64 59 65
REMARK SMILES IDX 60 66 74 68 95 69 62 70 46 71 47 72 55 73 48 74 49 75 53 76
REMARK SMILES IDX 56 77 50 78 51 79 54 80 52 81 78 82 79 83 87 84 80 85 81 86
REMARK SMILES IDX 85 87 88 88 82 89 83 90 86 91 84 92 63 93 64 94 72 95 65 96
REMARK SMILES IDX 66 97 70 98 73 99 67 100 68 101 71 102 69 103
REMARK H PARENT 27 7 34 37 93 56 61 67
REMARK Flexibility Score: inf
ROOT
ATOM      1  C   UNL A   1      33.808  29.547  27.134  1.00  0.00     0.002 C 
ENDROOT
BRANCH   1   2
ATOM      2  C   UNL A   1      34.046  28.422  26.127  1.00  0.00     0.021 C 
BRANCH   2   3
ATOM      3  C   UNL A   1      33.407  28.670  24.761  1.00  0.00     0.116 C 
BRANCH   3   4
ATOM      4  N   UNL A   1      32.376  27.700  24.458  1.00  0.00    -0.356 N 
ATOM      5  O   UNL A   1      30.667  29.214  24.263  1.00  0.00    -0.275 OA
ATOM      6  C   UNL A   1      31.077  28.060  24.212  1.00  0.00     0.221 C 
ATOM      7  H   UNL A   1      32.617  26.745  24.427  1.00  0.00     0.163 HD
BRANCH   6   8
ATOM      8  C   UNL A   1      30.188  26.900  23.833  1.00  0.00     0.122 C 
BRANCH   8   9
ATOM      9  C   UNL A   1      30.073  25.897  24.974  1.00  0.00     0.138 C 
BRANCH   9  10
ATOM     10  N   UNL A   1      30.966  24.737  25.000  1.00  0.00    -0.281 N 
ATOM     11  C   UNL A   1      31.372  23.964  26.092  1.00  0.00     0.235 C 
ATOM     12  C   UNL A   1      31.465  24.223  23.801  1.00  0.00     0.234 C 
ATOM     13  O   UNL A   1      31.002  24.044  27.248  1.00  0.00    -0.274 OA
ATOM     14  C   UNL A   1      32.546  23.186  25.562  1.00  0.00     0.118 C 
ATOM     15  C   UNL A   1      31.987  22.872  24.168  1.00  0.00     0.105 C 
ATOM     16  O   UNL A   1      31.376  24.682  22.683  1.00  0.00    -0.274 OA
ATOM     17  C   UNL A   1      33.422  21.987  26.009  1.00  0.00     0.088 C 
ATOM     18  C   UNL A   1      33.006  22.052  23.376  1.00  0.00     0.063 C 
ATOM     19  C   UNL A   1      34.715  22.330  25.173  1.00  0.00    -0.022 A 
ATOM     20  Br  UNL A   1      33.652  21.931  27.917  1.00  0.00    -0.074 Br
ATOM     21  C   UNL A   1      32.961  20.637  25.432  1.00  0.00    -0.022 A 
ATOM     22  C   UNL A   1      34.421  22.482  23.771  1.00  0.00    -0.035 A 
ATOM     23  C   UNL A   1      32.820  20.653  24.008  1.00  0.00    -0.035 A 
ATOM     24  C   UNL A   1      36.004  22.591  25.618  1.00  0.00     0.006 A 
ATOM     25  C   UNL A   1      32.858  19.422  26.113  1.00  0.00     0.006 A 
ATOM     26  C   UNL A   1      35.362  22.987  22.884  1.00  0.00     0.005 A 
ATOM     27  C   UNL A   1      32.607  19.478  23.297  1.00  0.00     0.005 A 
ATOM     28  C   UNL A   1      36.947  23.101  24.718  1.00  0.00     0.000 A 
ATOM     29  C   UNL A   1      32.636  18.247  25.392  1.00  0.00     0.000 A 
ATOM     30  C   UNL A   1      36.623  23.317  23.372  1.00  0.00     0.000 A 
ATOM     31  C   UNL A   1      32.521  18.275  23.999  1.00  0.00     0.000 A 
ENDBRANCH   9  10
ENDBRANCH   8   9
ENDBRANCH   6   8
ENDBRANCH   3   4
ENDBRANCH   2   3
ENDBRANCH   1   2
BRANCH   1  32
ATOM     32  C   UNL A   1      32.355  30.011  27.222  1.00  0.00     0.002 C 
BRANCH  32  33
ATOM     33  C   UNL A   1      32.117  31.474  26.887  1.00  0.00     0.021 C 
BRANCH  33  34
ATOM     34  C   UNL A   1      33.086  32.476  27.507  1.00  0.00     0.116 C 
BRANCH  34  35
ATOM     35  N   UNL A   1      32.572  33.833  27.673  1.00  0.00    -0.352 N 
ATOM     36  C   UNL A   1      33.004  34.845  28.511  1.00  0.00     0.251 C 
ATOM     37  H   UNL A   1      31.804  34.063  27.102  1.00  0.00     0.163 HD
ATOM     38  O   UNL A   1      32.396  35.907  28.584  1.00  0.00    -0.269 OA
BRANCH  36  39
ATOM     39  C   UNL A   1      34.187  34.608  29.367  1.00  0.00     0.039 A 
ATOM     40  C   UNL A   1      35.460  34.717  28.817  1.00  0.00     0.014 A 
ATOM     41  C   UNL A   1      34.024  34.146  30.675  1.00  0.00     0.014 A 
ATOM     42  C   UNL A   1      36.517  34.073  29.440  1.00  0.00     0.010 A 
ATOM     43  C   UNL A   1      35.131  33.643  31.369  1.00  0.00     0.010 A 
ATOM     44  C   UNL A   1      36.369  33.517  30.722  1.00  0.00    -0.014 A 
BRANCH  44  45
ATOM     45  C   UNL A   1      37.520  32.790  31.327  1.00  0.00     0.031 A 
ATOM     46  C   UNL A   1      37.978  33.087  32.734  1.00  0.00     0.074 A 
ATOM     47  C   UNL A   1      38.092  31.784  30.635  1.00  0.00     0.049 A 
ATOM     48  N   UNL A   1      38.947  32.530  33.421  1.00  0.00    -0.248 NA
ATOM     49  C   UNL A   1      37.267  34.145  33.470  1.00  0.00     0.031 C 
ATOM     50  C   UNL A   1      37.720  31.382  29.278  1.00  0.00     0.029 A 
ATOM     51  N   UNL A   1      39.071  30.891  30.986  1.00  0.00    -0.354 N 
ATOM     52  C   UNL A   1      38.979  33.186  34.645  1.00  0.00     0.074 A 
ATOM     53  C   UNL A   1      37.952  34.203  34.604  1.00  0.00     0.031 C 
ATOM     54  C   UNL A   1      38.396  30.276  28.944  1.00  0.00     0.029 A 
ATOM     55  C   UNL A   1      39.323  29.949  30.020  1.00  0.00     0.049 A 
ATOM     56  H   UNL A   1      39.548  30.921  31.848  1.00  0.00     0.167 HD
ATOM     57  C   UNL A   1      39.782  32.951  35.711  1.00  0.00     0.037 A 
ATOM     58  C   UNL A   1      40.217  28.943  29.985  1.00  0.00     0.037 A 
ATOM     59  C   UNL A   1      40.779  31.912  35.761  1.00  0.00     0.049 A 
ATOM     60  C   UNL A   1      41.130  28.741  31.159  1.00  0.00     0.074 A 
ATOM     61  C   UNL A   1      41.631  31.586  36.802  1.00  0.00     0.029 A 
ATOM     62  N   UNL A   1      41.055  31.028  34.729  1.00  0.00    -0.354 N 
ATOM     63  N   UNL A   1      41.156  29.377  32.303  1.00  0.00    -0.248 NA
ATOM     64  C   UNL A   1      42.149  27.691  31.029  1.00  0.00     0.031 C 
ATOM     65  C   UNL A   1      42.455  30.539  36.383  1.00  0.00     0.029 A 
ATOM     66  C   UNL A   1      42.081  30.173  35.100  1.00  0.00     0.049 A 
ATOM     67  H   UNL A   1      40.591  31.010  33.861  1.00  0.00     0.167 HD
ATOM     68  C   UNL A   1      42.182  28.802  33.036  1.00  0.00     0.074 A 
ATOM     69  C   UNL A   1      42.741  27.747  32.215  1.00  0.00     0.031 C 
ATOM     70  C   UNL A   1      42.625  29.124  34.275  1.00  0.00     0.037 A 
BRANCH  57  71
ATOM     71  C   UNL A   1      39.632  33.832  36.921  1.00  0.00     0.064 A 
ATOM     72  C   UNL A   1      40.235  35.097  36.993  1.00  0.00     0.173 A 
ATOM     73  C   UNL A   1      38.809  33.437  37.987  1.00  0.00     0.173 A 
ATOM     74  F   UNL A   1      41.038  35.519  36.006  1.00  0.00    -0.203 F 
ATOM     75  C   UNL A   1      40.030  35.927  38.094  1.00  0.00     0.198 A 
ATOM     76  C   UNL A   1      38.582  34.282  39.072  1.00  0.00     0.198 A 
ATOM     77  F   UNL A   1      38.201  32.242  37.967  1.00  0.00    -0.203 F 
ATOM     78  F   UNL A   1      40.642  37.117  38.156  1.00  0.00    -0.200 F 
ATOM     79  C   UNL A   1      39.197  35.524  39.126  1.00  0.00     0.200 A 
ATOM     80  F   UNL A   1      37.763  33.898  40.060  1.00  0.00    -0.200 F 
ATOM     81  F   UNL A   1      38.986  36.331  40.174  1.00  0.00    -0.200 F 
ENDBRANCH  57  71
BRANCH  58  82
ATOM     82  C   UNL A   1      40.285  28.067  28.787  1.00  0.00     0.064 A 
ATOM     83  C   UNL A   1      41.034  28.439  27.664  1.00  0.00     0.173 A 
ATOM     84  C   UNL A   1      39.639  26.821  28.758  1.00  0.00     0.173 A 
ATOM     85  F   UNL A   1      41.654  29.629  27.637  1.00  0.00    -0.203 F 
ATOM     86  C   UNL A   1      41.136  27.598  26.557  1.00  0.00     0.198 A 
ATOM     87  C   UNL A   1      39.769  25.967  27.666  1.00  0.00     0.198 A 
ATOM     88  F   UNL A   1      38.913  26.416  29.810  1.00  0.00    -0.203 F 
ATOM     89  F   UNL A   1      41.836  27.990  25.484  1.00  0.00    -0.200 F 
ATOM     90  C   UNL A   1      40.513  26.359  26.563  1.00  0.00     0.200 A 
ATOM     91  F   UNL A   1      39.185  24.762  27.687  1.00  0.00    -0.200 F 
ATOM     92  F   UNL A   1      40.631  25.542  25.509  1.00  0.00    -0.200 F 
ENDBRANCH  58  82
BRANCH  70  93
ATOM     93  C   UNL A   1      43.759  28.318  34.836  1.00  0.00     0.064 A 
ATOM     94  C   UNL A   1      45.090  28.740  34.709  1.00  0.00     0.173 A 
ATOM     95  C   UNL A   1      43.505  27.150  35.571  1.00  0.00     0.173 A 
ATOM     96  F   UNL A   1      45.384  29.842  34.002  1.00  0.00    -0.203 F 
ATOM     97  C   UNL A   1      46.127  28.013  35.285  1.00  0.00     0.198 A 
ATOM     98  C   UNL A   1      44.542  26.444  36.172  1.00  0.00     0.198 A 
ATOM     99  F   UNL A   1      42.247  26.709  35.728  1.00  0.00    -0.203 F 
ATOM    100  F   UNL A   1      47.396  28.414  35.121  1.00  0.00    -0.200 F 
ATOM    101  C   UNL A   1      45.853  26.873  36.025  1.00  0.00     0.200 A 
ATOM    102  F   UNL A   1      44.273  25.351  36.900  1.00  0.00    -0.200 F 
ATOM    103  F   UNL A   1      46.851  26.186  36.596  1.00  0.00    -0.200 F 
ENDBRANCH  70  93
ENDBRANCH  44  45
ENDBRANCH  36  39
ENDBRANCH  34  35
ENDBRANCH  33  34
ENDBRANCH  32  33
ENDBRANCH   1  32
TORSDOF 15
ENDMDL
MODEL 2
REMARK VINA RESULT:     -14.3      5.145     10.393
REMARK SMILES O=C(CCN1C(=O)[C@@H]2[C@@H](C1=O)[C@H]1c3ccccc3[C@]2(Br)c2ccccc21)NCCCCCCNC(=O)c1ccc(-c2c3nc(c(-c4c(F)c(F)c(F)c(F)c4F)c4ccc([nH]4)c(-c4c(F)c(F)c(F)c(F)c4F)c4nc(c(-c5c(F)c(F)c(F)c(F)c5F)c5ccc2[nH]5)C=C4)C=C3)cc1
REMARK SMILES IDX 30 1 29 2 28 3 27 4 1 5 2 6 3 8 4 9 5 10 6 11 10 12 7 13
REMARK SMILES IDX 8 14 9 15 11 16 19 17 12 18 21 19 20 20 18 21 26 22 13 23
REMARK SMILES IDX 22 24 17 25 25 26 14 27 23 28 16 29 24 30 15 31 31 32 32 33
REMARK SMILES IDX 33 34 34 35 35 36 36 38 37 39 38 40 99 41 39 42 98 43 40 44
REMARK SMILES IDX 41 45 42 46 92 47 43 48 97 49 91 50 93 51 44 52 96 53 90 54
REMARK SMILES IDX 89 55 45 57 77 58 57 59 76 60 58 61 61 62 75 63 94 64 59 65
REMARK SMILES IDX 60 66 74 68 95 69 62 70 46 71 47 72 55 73 48 74 49 75 53 76
REMARK SMILES IDX 56 77 50 78 51 79 54 80 52 81 78 82 79 83 87 84 80 85 81 86
REMARK SMILES IDX 85 87 88 88 82 89 83 90 86 91 84 92 63 93 64 94 72 95 65 96
REMARK SMILES IDX 66 97 70 98 73 99 67 100 68 101 71 102 69 103
REMARK H PARENT 27 7 34 37 93 56 61 67
REMARK Flexibility Score: inf
ROOT
ATOM      1  C   UNL A   1      35.741  22.845  25.464  1.00  0.00     0.002 C 
ENDROOT
BRANCH   1   2
ATOM      2  C   UNL A   1      35.221  21.728  26.368  1.00  0.00     0.021 C 
BRANCH   2   3
ATOM      3  C   UNL A   1      34.105  20.893  25.740  1.00  0.00     0.116 C 
BRANCH   3   4
ATOM      4  N   UNL A   1      33.553  21.524  24.559  1.00  0.00    -0.356 N 
ATOM      5  O   UNL A   1      32.275  19.737  23.905  1.00  0.00    -0.275 OA
ATOM      6  C   UNL A   1      32.656  20.890  23.739  1.00  0.00     0.221 C 
ATOM      7  H   UNL A   1      33.832  22.442  24.337  1.00  0.00     0.163 HD
BRANCH   6   8
ATOM      8  C   UNL A   1      32.143  21.759  22.616  1.00  0.00     0.122 C 
BRANCH   8   9
ATOM      9  C   UNL A   1      33.046  22.967  22.398  1.00  0.00     0.138 C 
BRANCH   9  10
ATOM     10  N   UNL A   1      32.549  24.302  22.735  1.00  0.00    -0.281 N 
ATOM     11  C   UNL A   1      32.956  25.544  22.238  1.00  0.00     0.235 C 
ATOM     12  C   UNL A   1      31.469  24.437  23.612  1.00  0.00     0.234 C 
ATOM     13  O   UNL A   1      33.760  25.772  21.354  1.00  0.00    -0.274 OA
ATOM     14  C   UNL A   1      32.366  26.529  23.210  1.00  0.00     0.118 C 
ATOM     15  C   UNL A   1      31.008  25.844  23.417  1.00  0.00     0.105 C 
ATOM     16  O   UNL A   1      30.922  23.585  24.277  1.00  0.00    -0.274 OA
ATOM     17  C   UNL A   1      32.148  28.062  23.298  1.00  0.00     0.088 C 
ATOM     18  C   UNL A   1      30.162  26.660  24.393  1.00  0.00     0.063 C 
ATOM     19  C   UNL A   1      32.076  28.189  24.868  1.00  0.00    -0.022 A 
ATOM     20  Br  UNL A   1      33.563  29.044  22.445  1.00  0.00    -0.074 Br
ATOM     21  C   UNL A   1      30.753  28.515  22.830  1.00  0.00    -0.022 A 
ATOM     22  C   UNL A   1      31.075  27.319  25.430  1.00  0.00    -0.035 A 
ATOM     23  C   UNL A   1      29.687  27.817  23.483  1.00  0.00    -0.035 A 
ATOM     24  C   UNL A   1      32.887  28.917  25.728  1.00  0.00     0.006 A 
ATOM     25  C   UNL A   1      30.452  29.609  22.016  1.00  0.00     0.006 A 
ATOM     26  C   UNL A   1      30.982  27.111  26.800  1.00  0.00     0.005 A 
ATOM     27  C   UNL A   1      28.368  28.228  23.337  1.00  0.00     0.005 A 
ATOM     28  C   UNL A   1      32.789  28.702  27.108  1.00  0.00     0.000 A 
ATOM     29  C   UNL A   1      29.124  30.010  21.868  1.00  0.00     0.000 A 
ATOM     30  C   UNL A   1      31.862  27.793  27.636  1.00  0.00     0.000 A 
ATOM     31  C   UNL A   1      28.095  29.333  22.528  1.00  0.00     0.000 A 
ENDBRANCH   9  10
ENDBRANCH   8   9
ENDBRANCH   6   8
ENDBRANCH   3   4
ENDBRANCH   2   3
ENDBRANCH   1   2
BRANCH   1  32
ATOM     32  C   UNL A   1      37.118  22.573  24.862  1.00  0.00     0.002 C 
BRANCH  32  33
ATOM     33  C   UNL A   1      37.709  21.209  25.178  1.00  0.00     0.021 C 
BRANCH  33  34
ATOM     34  C   UNL A   1      39.063  21.205  25.881  1.00  0.00     0.116 C 
BRANCH  34  35
ATOM     35  N   UNL A   1      39.801  19.945  25.825  1.00  0.00    -0.352 N 
ATOM     36  C   UNL A   1      41.140  19.694  26.062  1.00  0.00     0.251 C 
ATOM     37  H   UNL A   1      39.264  19.156  25.583  1.00  0.00     0.163 HD
ATOM     38  O   UNL A   1      41.614  18.578  25.884  1.00  0.00    -0.269 OA
BRANCH  36  39
ATOM     39  C   UNL A   1      42.012  20.811  26.484  1.00  0.00     0.039 A 
ATOM     40  C   UNL A   1      42.179  21.072  27.840  1.00  0.00     0.014 A 
ATOM     41  C   UNL A   1      42.551  21.678  25.530  1.00  0.00     0.014 A 
ATOM     42  C   UNL A   1      42.590  22.336  28.235  1.00  0.00     0.010 A 
ATOM     43  C   UNL A   1      43.117  22.889  25.945  1.00  0.00     0.010 A 
ATOM     44  C   UNL A   1      43.057  23.269  27.294  1.00  0.00    -0.014 A 
BRANCH  44  45
ATOM     45  C   UNL A   1      43.438  24.631  27.762  1.00  0.00     0.031 A 
ATOM     46  C   UNL A   1      44.880  25.074  27.783  1.00  0.00     0.074 A 
ATOM     47  C   UNL A   1      42.463  25.509  28.074  1.00  0.00     0.049 A 
ATOM     48  N   UNL A   1      45.382  26.234  28.139  1.00  0.00    -0.248 NA
ATOM     49  C   UNL A   1      45.896  24.098  27.359  1.00  0.00     0.031 C 
ATOM     50  C   UNL A   1      41.030  25.210  28.065  1.00  0.00     0.029 A 
ATOM     51  N   UNL A   1      42.520  26.835  28.417  1.00  0.00    -0.354 N 
ATOM     52  C   UNL A   1      46.760  26.113  28.009  1.00  0.00     0.074 A 
ATOM     53  C   UNL A   1      47.024  24.761  27.570  1.00  0.00     0.031 C 
ATOM     54  C   UNL A   1      40.343  26.334  28.301  1.00  0.00     0.029 A 
ATOM     55  C   UNL A   1      41.285  27.411  28.580  1.00  0.00     0.049 A 
ATOM     56  H   UNL A   1      43.365  27.328  28.534  1.00  0.00     0.167 HD
ATOM     57  C   UNL A   1      47.715  27.050  28.224  1.00  0.00     0.037 A 
ATOM     58  C   UNL A   1      40.938  28.662  28.938  1.00  0.00     0.037 A 
ATOM     59  C   UNL A   1      47.444  28.407  28.626  1.00  0.00     0.049 A 
ATOM     60  C   UNL A   1      42.019  29.663  29.222  1.00  0.00     0.074 A 
ATOM     61  C   UNL A   1      48.344  29.433  28.854  1.00  0.00     0.029 A 
ATOM     62  N   UNL A   1      46.179  28.927  28.856  1.00  0.00    -0.354 N 
ATOM     63  N   UNL A   1      43.317  29.529  29.107  1.00  0.00    -0.248 NA
ATOM     64  C   UNL A   1      41.588  30.982  29.700  1.00  0.00     0.031 C 
ATOM     65  C   UNL A   1      47.629  30.560  29.269  1.00  0.00     0.029 A 
ATOM     66  C   UNL A   1      46.278  30.254  29.247  1.00  0.00     0.049 A 
ATOM     67  H   UNL A   1      45.336  28.429  28.757  1.00  0.00     0.167 HD
ATOM     68  C   UNL A   1      43.859  30.748  29.488  1.00  0.00     0.074 A 
ATOM     69  C   UNL A   1      42.747  31.617  29.814  1.00  0.00     0.031 C 
ATOM     70  C   UNL A   1      45.163  31.109  29.565  1.00  0.00     0.037 A 
BRANCH  57  71
ATOM     71  C   UNL A   1      49.154  26.652  28.038  1.00  0.00     0.064 A 
ATOM     72  C   UNL A   1      49.757  26.629  26.772  1.00  0.00     0.173 A 
ATOM     73  C   UNL A   1      49.960  26.370  29.153  1.00  0.00     0.173 A 
ATOM     74  F   UNL A   1      49.030  26.882  25.674  1.00  0.00    -0.203 F 
ATOM     75  C   UNL A   1      51.109  26.323  26.627  1.00  0.00     0.198 A 
ATOM     76  C   UNL A   1      51.318  26.094  29.007  1.00  0.00     0.198 A 
ATOM     77  F   UNL A   1      49.438  26.387  30.388  1.00  0.00    -0.203 F 
ATOM     78  F   UNL A   1      51.655  26.274  25.405  1.00  0.00    -0.200 F 
ATOM     79  C   UNL A   1      51.889  26.067  27.744  1.00  0.00     0.200 A 
ATOM     80  F   UNL A   1      52.075  25.863  30.088  1.00  0.00    -0.200 F 
ATOM     81  F   UNL A   1      53.194  25.792  27.604  1.00  0.00    -0.200 F 
ENDBRANCH  57  71
BRANCH  58  82
ATOM     82  C   UNL A   1      39.500  29.017  29.052  1.00  0.00     0.064 A 
ATOM     83  C   UNL A   1      38.755  29.378  27.923  1.00  0.00     0.173 A 
ATOM     84  C   UNL A   1      38.831  28.958  30.285  1.00  0.00     0.173 A 
ATOM     85  F   UNL A   1      39.354  29.467  26.726  1.00  0.00    -0.203 F 
ATOM     86  C   UNL A   1      37.395  29.668  28.022  1.00  0.00     0.198 A 
ATOM     87  C   UNL A   1      37.466  29.214  30.376  1.00  0.00     0.198 A 
ATOM     88  F   UNL A   1      39.498  28.613  31.396  1.00  0.00    -0.203 F 
ATOM     89  F   UNL A   1      36.711  30.039  26.931  1.00  0.00    -0.200 F 
ATOM     90  C   UNL A   1      36.749  29.575  29.245  1.00  0.00     0.200 A 
ATOM     91  F   UNL A   1      36.843  29.100  31.557  1.00  0.00    -0.200 F 
ATOM     92  F   UNL A   1      35.438  29.831  29.335  1.00  0.00    -0.200 F 
ENDBRANCH  58  82
BRANCH  70  93
ATOM     93  C   UNL A   1      45.467  32.512  30.001  1.00  0.00     0.064 A 
ATOM     94  C   UNL A   1      45.711  32.823  31.346  1.00  0.00     0.173 A 
ATOM     95  C   UNL A   1      45.586  33.540  29.054  1.00  0.00     0.173 A 
ATOM     96  F   UNL A   1      45.594  31.877  32.290  1.00  0.00    -0.203 F 
ATOM     97  C   UNL A   1      46.051  34.118  31.729  1.00  0.00     0.198 A 
ATOM     98  C   UNL A   1      45.956  34.826  29.437  1.00  0.00     0.198 A 
ATOM     99  F   UNL A   1      45.369  33.292  27.753  1.00  0.00    -0.203 F 
ATOM    100  F   UNL A   1      46.245  34.401  33.024  1.00  0.00    -0.200 F 
ATOM    101  C   UNL A   1      46.184  35.114  30.775  1.00  0.00     0.200 A 
ATOM    102  F   UNL A   1      46.100  35.784  28.511  1.00  0.00    -0.200 F 
ATOM    103  F   UNL A   1      46.529  36.355  31.143  1.00  0.00    -0.200 F 
ENDBRANCH  70  93
ENDBRANCH  44  45
ENDBRANCH  36  39
ENDBRANCH  34  35
ENDBRANCH  33  34
ENDBRANCH  32  33
ENDBRANCH   1  32
TORSDOF 15
ENDMDL
MODEL 3
REMARK VINA RESULT:     -14.1      5.298     10.743
REMARK SMILES O=C(CCN1C(=O)[C@@H]2[C@@H](C1=O)[C@H]1c3ccccc3[C@]2(Br)c2ccccc21)NCCCCCCNC(=O)c1ccc(-c2c3nc(c(-c4c(F)c(F)c(F)c(F)c4F)c4ccc([nH]4)c(-c4c(F)c(F)c(F)c(F)c4F)c4nc(c(-c5c(F)c(F)c(F)c(F)c5F)c5ccc2[nH]5)C=C4)C=C3)cc1
REMARK SMILES IDX 30 1 29 2 28 3 27 4 1 5 2 6 3 8 4 9 5 10 6 11 10 12 7 13
REMARK SMILES IDX 8 14 9 15 11 16 19 17 12 18 21 19 20 20 18 21 26 22 13 23
REMARK SMILES IDX 22 24 17 25 25 26 14 27 23 28 16 29 24 30 15 31 31 32 32 33
REMARK SMILES IDX 33 34 34 35 35 36 36 38 37 39 38 40 99 41 39 42 98 43 40 44
REMARK SMILES IDX 41 45 42 46 92 47 43 48 97 49 91 50 93 51 44 52 96 53 90 54
REMARK SMILES IDX 89 55 45 57 77 58 57 59 76 60 58 61 61 62 75 63 94 64 59 65
REMARK SMILES IDX 60 66 74 68 95 69 62 70 46 71 47 72 55 73 48 74 49 75 53 76
REMARK SMILES IDX 56 77 50 78 51 79 54 80 52 81 78 82 79 83 87 84 80 85 81 86
REMARK SMILES IDX 85 87 88 88 82 89 83 90 86 91 84 92 63 93 64 94 72 95 65 96
REMARK SMILES IDX 66 97 70 98 73 99 67 100 68 101 71 102 69 103
REMARK H PARENT 27 7 34 37 93 56 61 67
REMARK Flexibility Score: inf
ROOT
ATOM      1  C   UNL A   1      35.917  22.666  25.414  1.00  0.00     0.002 C 
ENDROOT
BRANCH   1   2
ATOM      2  C   UNL A   1      35.412  21.513  26.280  1.00  0.00     0.021 C 
BRANCH   2   3
ATOM      3  C   UNL A   1      34.477  20.552  25.547  1.00  0.00     0.116 C 
BRANCH   3   4
ATOM      4  N   UNL A   1      33.826  21.182  24.418  1.00  0.00    -0.356 N 
ATOM      5  O   UNL A   1      31.883  19.973  24.552  1.00  0.00    -0.275 OA
ATOM      6  C   UNL A   1      32.558  20.848  24.020  1.00  0.00     0.221 C 
ATOM      7  H   UNL A   1      34.312  21.876  23.916  1.00  0.00     0.163 HD
BRANCH   6   8
ATOM      8  C   UNL A   1      32.041  21.687  22.876  1.00  0.00     0.122 C 
BRANCH   8   9
ATOM      9  C   UNL A   1      32.969  22.860  22.590  1.00  0.00     0.138 C 
BRANCH   9  10
ATOM     10  N   UNL A   1      32.513  24.220  22.881  1.00  0.00    -0.281 N 
ATOM     11  C   UNL A   1      32.974  25.434  22.362  1.00  0.00     0.235 C 
ATOM     12  C   UNL A   1      31.420  24.416  23.730  1.00  0.00     0.234 C 
ATOM     13  O   UNL A   1      33.805  25.610  21.491  1.00  0.00    -0.274 OA
ATOM     14  C   UNL A   1      32.399  26.465  23.295  1.00  0.00     0.118 C 
ATOM     15  C   UNL A   1      31.014  25.833  23.488  1.00  0.00     0.105 C 
ATOM     16  O   UNL A   1      30.829  23.602  24.405  1.00  0.00    -0.274 OA
ATOM     17  C   UNL A   1      32.234  28.006  23.338  1.00  0.00     0.088 C 
ATOM     18  C   UNL A   1      30.177  26.704  24.424  1.00  0.00     0.063 C 
ATOM     19  C   UNL A   1      32.134  28.177  24.902  1.00  0.00    -0.022 A 
ATOM     20  Br  UNL A   1      33.703  28.914  22.492  1.00  0.00    -0.074 Br
ATOM     21  C   UNL A   1      30.868  28.495  22.827  1.00  0.00    -0.022 A 
ATOM     22  C   UNL A   1      31.090  27.358  25.464  1.00  0.00    -0.035 A 
ATOM     23  C   UNL A   1      29.764  27.853  23.474  1.00  0.00    -0.035 A 
ATOM     24  C   UNL A   1      32.952  28.899  25.761  1.00  0.00     0.006 A 
ATOM     25  C   UNL A   1      30.624  29.577  21.979  1.00  0.00     0.006 A 
ATOM     26  C   UNL A   1      30.960  27.190  26.836  1.00  0.00     0.005 A 
ATOM     27  C   UNL A   1      28.463  28.306  23.288  1.00  0.00     0.005 A 
ATOM     28  C   UNL A   1      32.816  28.724  27.143  1.00  0.00     0.000 A 
ATOM     29  C   UNL A   1      29.314  30.021  21.790  1.00  0.00     0.000 A 
ATOM     30  C   UNL A   1      31.845  27.863  27.674  1.00  0.00     0.000 A 
ATOM     31  C   UNL A   1      28.247  29.398  22.445  1.00  0.00     0.000 A 
ENDBRANCH   9  10
ENDBRANCH   8   9
ENDBRANCH   6   8
ENDBRANCH   3   4
ENDBRANCH   2   3
ENDBRANCH   1   2
BRANCH   1  32
ATOM     32  C   UNL A   1      37.326  22.461  24.859  1.00  0.00     0.002 C 
BRANCH  32  33
ATOM     33  C   UNL A   1      37.947  21.104  25.145  1.00  0.00     0.021 C 
BRANCH  33  34
ATOM     34  C   UNL A   1      39.268  21.113  25.908  1.00  0.00     0.116 C 
BRANCH  34  35
ATOM     35  N   UNL A   1      40.017  19.859  25.891  1.00  0.00    -0.352 N 
ATOM     36  C   UNL A   1      41.366  19.632  26.097  1.00  0.00     0.251 C 
ATOM     37  H   UNL A   1      39.482  19.054  25.705  1.00  0.00     0.163 HD
ATOM     38  O   UNL A   1      41.846  18.512  25.959  1.00  0.00    -0.269 OA
BRANCH  36  39
ATOM     39  C   UNL A   1      42.239  20.777  26.435  1.00  0.00     0.039 A 
ATOM     40  C   UNL A   1      42.434  21.115  27.770  1.00  0.00     0.014 A 
ATOM     41  C   UNL A   1      42.751  21.591  25.422  1.00  0.00     0.014 A 
ATOM     42  C   UNL A   1      42.844  22.401  28.083  1.00  0.00     0.010 A 
ATOM     43  C   UNL A   1      43.317  22.827  25.754  1.00  0.00     0.010 A 
ATOM     44  C   UNL A   1      43.284  23.283  27.080  1.00  0.00    -0.014 A 
BRANCH  44  45
ATOM     45  C   UNL A   1      43.665  24.672  27.461  1.00  0.00     0.031 A 
ATOM     46  C   UNL A   1      45.062  25.190  27.224  1.00  0.00     0.074 A 
ATOM     47  C   UNL A   1      42.714  25.502  27.933  1.00  0.00     0.049 A 
ATOM     48  N   UNL A   1      45.553  26.381  27.475  1.00  0.00    -0.248 NA
ATOM     49  C   UNL A   1      46.040  24.261  26.637  1.00  0.00     0.031 C 
ATOM     50  C   UNL A   1      41.320  25.128  28.179  1.00  0.00     0.029 A 
ATOM     51  N   UNL A   1      42.757  26.836  28.248  1.00  0.00    -0.354 N 
ATOM     52  C   UNL A   1      46.892  26.331  27.106  1.00  0.00     0.074 A 
ATOM     53  C   UNL A   1      47.149  24.987  26.639  1.00  0.00     0.031 C 
ATOM     54  C   UNL A   1      40.624  26.218  28.523  1.00  0.00     0.029 A 
ATOM     55  C   UNL A   1      41.539  27.349  28.621  1.00  0.00     0.049 A 
ATOM     56  H   UNL A   1      43.580  27.374  28.210  1.00  0.00     0.167 HD
ATOM     57  C   UNL A   1      47.817  27.320  27.140  1.00  0.00     0.037 A 
ATOM     58  C   UNL A   1      41.192  28.585  29.023  1.00  0.00     0.037 A 
ATOM     59  C   UNL A   1      47.547  28.668  27.572  1.00  0.00     0.049 A 
ATOM     60  C   UNL A   1      42.249  29.647  29.103  1.00  0.00     0.074 A 
ATOM     61  C   UNL A   1      48.414  29.745  27.628  1.00  0.00     0.029 A 
ATOM     62  N   UNL A   1      46.315  29.126  28.016  1.00  0.00    -0.354 N 
ATOM     63  N   UNL A   1      43.512  29.580  28.763  1.00  0.00    -0.248 NA
ATOM     64  C   UNL A   1      41.837  30.951  29.638  1.00  0.00     0.031 C 
ATOM     65  C   UNL A   1      47.723  30.840  28.152  1.00  0.00     0.029 A 
ATOM     66  C   UNL A   1      46.407  30.463  28.372  1.00  0.00     0.049 A 
ATOM     67  H   UNL A   1      45.496  28.582  28.071  1.00  0.00     0.167 HD
ATOM     68  C   UNL A   1      44.045  30.832  29.031  1.00  0.00     0.074 A 
ATOM     69  C   UNL A   1      42.961  31.648  29.540  1.00  0.00     0.031 C 
ATOM     70  C   UNL A   1      45.319  31.264  28.873  1.00  0.00     0.037 A 
BRANCH  57  71
ATOM     71  C   UNL A   1      49.220  26.996  26.708  1.00  0.00     0.064 A 
ATOM     72  C   UNL A   1      50.185  26.533  27.614  1.00  0.00     0.173 A 
ATOM     73  C   UNL A   1      49.580  27.073  25.352  1.00  0.00     0.173 A 
ATOM     74  F   UNL A   1      49.898  26.449  28.922  1.00  0.00    -0.203 F 
ATOM     75  C   UNL A   1      51.461  26.174  27.183  1.00  0.00     0.198 A 
ATOM     76  C   UNL A   1      50.846  26.685  24.920  1.00  0.00     0.198 A 
ATOM     77  F   UNL A   1      48.694  27.501  24.440  1.00  0.00    -0.203 F 
ATOM     78  F   UNL A   1      52.377  25.766  28.072  1.00  0.00    -0.200 F 
ATOM     79  C   UNL A   1      51.786  26.240  25.837  1.00  0.00     0.200 A 
ATOM     80  F   UNL A   1      51.153  26.733  23.617  1.00  0.00    -0.200 F 
ATOM     81  F   UNL A   1      53.008  25.875  25.422  1.00  0.00    -0.200 F 
ENDBRANCH  57  71
BRANCH  58  82
ATOM     82  C   UNL A   1      39.779  28.866  29.386  1.00  0.00     0.064 A 
ATOM     83  C   UNL A   1      38.866  29.323  28.428  1.00  0.00     0.173 A 
ATOM     84  C   UNL A   1      39.303  28.641  30.688  1.00  0.00     0.173 A 
ATOM     85  F   UNL A   1      39.277  29.571  27.175  1.00  0.00    -0.203 F 
ATOM     86  C   UNL A   1      37.530  29.544  28.756  1.00  0.00     0.198 A 
ATOM     87  C   UNL A   1      37.960  28.829  31.006  1.00  0.00     0.198 A 
ATOM     88  F   UNL A   1      40.136  28.200  31.641  1.00  0.00    -0.203 F 
ATOM     89  F   UNL A   1      36.682  30.007  27.828  1.00  0.00    -0.200 F 
ATOM     90  C   UNL A   1      37.075  29.286  30.041  1.00  0.00     0.200 A 
ATOM     91  F   UNL A   1      37.523  28.557  32.243  1.00  0.00    -0.200 F 
ATOM     92  F   UNL A   1      35.786  29.477  30.350  1.00  0.00    -0.200 F 
ENDBRANCH  58  82
BRANCH  70  93
ATOM     93  C   UNL A   1      45.618  32.689  29.237  1.00  0.00     0.064 A 
ATOM     94  C   UNL A   1      45.442  33.730  28.315  1.00  0.00     0.173 A 
ATOM     95  C   UNL A   1      46.013  33.021  30.541  1.00  0.00     0.173 A 
ATOM     96  F   UNL A   1      45.081  33.461  27.051  1.00  0.00    -0.203 F 
ATOM     97  C   UNL A   1      45.666  35.054  28.684  1.00  0.00     0.198 A 
ATOM     98  C   UNL A   1      46.205  34.348  30.914  1.00  0.00     0.198 A 
ATOM     99  F   UNL A   1      46.187  32.060  31.462  1.00  0.00    -0.203 F 
ATOM    100  F   UNL A   1      45.527  36.032  27.778  1.00  0.00    -0.200 F 
ATOM    101  C   UNL A   1      46.035  35.363  29.984  1.00  0.00     0.200 A 
ATOM    102  F   UNL A   1      46.547  34.645  32.175  1.00  0.00    -0.200 F 
ATOM    103  F   UNL A   1      46.232  36.639  30.341  1.00  0.00    -0.200 F 
ENDBRANCH  70  93
ENDBRANCH  44  45
ENDBRANCH  36  39
ENDBRANCH  34  35
ENDBRANCH  33  34
ENDBRANCH  32  33
ENDBRANCH   1  32
TORSDOF 15
ENDMDL
