MODEL 1
REMARK VINA RESULT:     -11.6      0.000      0.000
REMARK SMILES [NH3+][C@H](Cn1nnc2ccccc21)C(=O)NCCCCCCNC(=O)c1ccc(-c2c3nc(c(-c4c(F)c(F)c(F)c(F)c4F)c4ccc([nH]4)c(-c4c(F)c(F)c(F)c(F)c4F)c4nc(c(-c5c(F)c(F)c(F)c(F)c5F)c5ccc2[nH]5)C=C4)C=C3)cc1
REMARK SMILES IDX 18 1 17 2 16 3 15 4 13 5 14 6 2 8 1 9 3 13 4 14 5 15 12 16
REMARK SMILES IDX 6 17 7 18 11 19 8 20 10 21 9 22 19 23 20 24 21 25 22 26
REMARK SMILES IDX 23 27 24 29 25 30 26 31 87 32 27 33 86 34 28 35 29 36 30 37
REMARK SMILES IDX 80 38 31 39 85 40 79 41 81 42 32 43 84 44 78 45 77 46 33 48
REMARK SMILES IDX 65 49 45 50 64 51 46 52 49 53 63 54 82 55 47 56 48 57 62 59
REMARK SMILES IDX 83 60 50 61 34 62 35 63 43 64 36 65 37 66 41 67 44 68 38 69
REMARK SMILES IDX 39 70 42 71 40 72 66 73 67 74 75 75 68 76 69 77 73 78 76 79
REMARK SMILES IDX 70 80 71 81 74 82 72 83 51 84 52 85 60 86 53 87 54 88 58 89
REMARK SMILES IDX 61 90 55 91 56 92 59 93 57 94
REMARK H PARENT 15 7 1 10 1 11 1 12 22 28 81 47 49 58
REMARK Flexibility Score: inf
ROOT
ATOM      1  C   UNL A   1      41.861  20.944  27.373  1.00  0.00     0.002 C 
ENDROOT
BRANCH   1   2
ATOM      2  C   UNL A   1      41.142  21.750  26.287  1.00  0.00     0.021 C 
BRANCH   2   3
ATOM      3  C   UNL A   1      39.651  21.427  26.167  1.00  0.00     0.116 C 
BRANCH   3   4
ATOM      4  N   UNL A   1      38.830  22.615  26.264  1.00  0.00    -0.351 N 
ATOM      5  C   UNL A   1      37.607  22.895  25.731  1.00  0.00     0.280 C 
ATOM      6  O   UNL A   1      37.141  24.017  25.962  1.00  0.00    -0.268 OA
ATOM      7  H   UNL A   1      39.219  23.340  26.806  1.00  0.00     0.163 HD
BRANCH   5   8
ATOM      8  C   UNL A   1      36.821  21.891  24.852  1.00  0.00     0.292 C 
BRANCH   8   9
ATOM      9  N   UNL A   1      36.405  22.535  23.586  1.00  0.00    -0.346 N 
ATOM     10  H   UNL A   1      35.403  22.723  23.613  1.00  0.00     0.345 HD
ATOM     11  H   UNL A   1      36.614  21.915  22.804  1.00  0.00     0.345 HD
ATOM     12  H   UNL A   1      36.913  23.412  23.469  1.00  0.00     0.345 HD
ENDBRANCH   8   9
BRANCH   8  13
ATOM     13  C   UNL A   1      35.788  21.087  25.675  1.00  0.00     0.222 C 
BRANCH  13  14
ATOM     14  N   UNL A   1      34.610  20.615  24.973  1.00  0.00    -0.238 N 
ATOM     15  N   UNL A   1      33.561  21.441  24.790  1.00  0.00    -0.066 NA
ATOM     16  C   UNL A   1      34.326  19.352  24.516  1.00  0.00     0.089 A 
ATOM     17  N   UNL A   1      32.599  20.767  24.183  1.00  0.00    -0.130 NA
ATOM     18  C   UNL A   1      33.033  19.487  24.011  1.00  0.00     0.113 A 
ATOM     19  C   UNL A   1      35.017  18.137  24.492  1.00  0.00     0.030 A 
ATOM     20  C   UNL A   1      32.382  18.385  23.443  1.00  0.00     0.032 A 
ATOM     21  C   UNL A   1      34.351  17.043  23.921  1.00  0.00     0.002 A 
ATOM     22  C   UNL A   1      33.058  17.163  23.404  1.00  0.00     0.002 A 
ENDBRANCH  13  14
ENDBRANCH   8  13
ENDBRANCH   5   8
ENDBRANCH   3   4
ENDBRANCH   2   3
ENDBRANCH   1   2
BRANCH   1  23
ATOM     23  C   UNL A   1      41.934  19.431  27.127  1.00  0.00     0.002 C 
BRANCH  23  24
ATOM     24  C   UNL A   1      43.274  18.893  26.603  1.00  0.00     0.021 C 
BRANCH  24  25
ATOM     25  C   UNL A   1      43.478  19.032  25.094  1.00  0.00     0.116 C 
BRANCH  25  26
ATOM     26  N   UNL A   1      44.822  19.433  24.727  1.00  0.00    -0.352 N 
ATOM     27  C   UNL A   1      45.619  20.532  24.911  1.00  0.00     0.251 C 
ATOM     28  H   UNL A   1      45.282  18.732  24.212  1.00  0.00     0.163 HD
ATOM     29  O   UNL A   1      46.768  20.426  24.496  1.00  0.00    -0.269 OA
BRANCH  27  30
ATOM     30  C   UNL A   1      45.207  21.829  25.524  1.00  0.00     0.039 A 
ATOM     31  C   UNL A   1      45.496  22.259  26.816  1.00  0.00     0.014 A 
ATOM     32  C   UNL A   1      44.416  22.668  24.707  1.00  0.00     0.014 A 
ATOM     33  C   UNL A   1      44.961  23.463  27.287  1.00  0.00     0.010 A 
ATOM     34  C   UNL A   1      43.886  23.873  25.171  1.00  0.00     0.010 A 
ATOM     35  C   UNL A   1      44.135  24.264  26.476  1.00  0.00    -0.014 A 
BRANCH  35  36
ATOM     36  C   UNL A   1      43.712  25.568  27.002  1.00  0.00     0.031 A 
ATOM     37  C   UNL A   1      44.641  26.670  26.640  1.00  0.00     0.074 A 
ATOM     38  C   UNL A   1      42.594  25.851  27.707  1.00  0.00     0.049 A 
ATOM     39  N   UNL A   1      45.480  27.254  27.428  1.00  0.00    -0.248 NA
ATOM     40  C   UNL A   1      44.761  27.073  25.232  1.00  0.00     0.031 C 
ATOM     41  C   UNL A   1      41.427  24.996  27.930  1.00  0.00     0.029 A 
ATOM     42  N   UNL A   1      42.244  27.018  28.345  1.00  0.00    -0.354 N 
ATOM     43  C   UNL A   1      46.102  28.240  26.668  1.00  0.00     0.074 A 
ATOM     44  C   UNL A   1      45.734  27.988  25.300  1.00  0.00     0.031 C 
ATOM     45  C   UNL A   1      40.425  25.730  28.472  1.00  0.00     0.029 A 
ATOM     46  C   UNL A   1      40.923  27.060  28.784  1.00  0.00     0.049 A 
ATOM     47  H   UNL A   1      42.874  27.761  28.482  1.00  0.00     0.167 HD
ATOM     48  C   UNL A   1      46.641  29.327  27.285  1.00  0.00     0.037 A 
ATOM     49  C   UNL A   1      40.283  28.104  29.371  1.00  0.00     0.037 A 
ATOM     50  C   UNL A   1      46.776  29.092  28.700  1.00  0.00     0.049 A 
ATOM     51  C   UNL A   1      41.305  28.949  30.025  1.00  0.00     0.074 A 
ATOM     52  C   UNL A   1      47.602  28.374  29.535  1.00  0.00     0.029 A 
ATOM     53  N   UNL A   1      45.650  29.403  29.409  1.00  0.00    -0.354 N 
ATOM     54  N   UNL A   1      41.982  28.581  31.077  1.00  0.00    -0.248 NA
ATOM     55  C   UNL A   1      41.796  30.145  29.348  1.00  0.00     0.031 C 
ATOM     56  C   UNL A   1      46.852  28.132  30.727  1.00  0.00     0.029 A 
ATOM     57  C   UNL A   1      45.603  28.737  30.598  1.00  0.00     0.049 A 
ATOM     58  H   UNL A   1      44.958  30.031  29.098  1.00  0.00     0.167 HD
ATOM     59  C   UNL A   1      43.197  29.209  30.925  1.00  0.00     0.074 A 
ATOM     60  C   UNL A   1      42.961  30.293  29.982  1.00  0.00     0.031 C 
ATOM     61  C   UNL A   1      44.348  28.581  31.295  1.00  0.00     0.037 A 
BRANCH  48  62
ATOM     62  C   UNL A   1      46.539  30.750  26.768  1.00  0.00     0.064 A 
ATOM     63  C   UNL A   1      47.684  31.577  26.835  1.00  0.00     0.173 A 
ATOM     64  C   UNL A   1      45.318  31.427  26.567  1.00  0.00     0.173 A 
ATOM     65  F   UNL A   1      48.899  31.047  27.044  1.00  0.00    -0.203 F 
ATOM     66  C   UNL A   1      47.595  32.972  26.795  1.00  0.00     0.198 A 
ATOM     67  C   UNL A   1      45.239  32.817  26.481  1.00  0.00     0.198 A 
ATOM     68  F   UNL A   1      44.141  30.791  26.569  1.00  0.00    -0.203 F 
ATOM     69  F   UNL A   1      48.690  33.717  26.995  1.00  0.00    -0.200 F 
ATOM     70  C   UNL A   1      46.371  33.591  26.627  1.00  0.00     0.200 A 
ATOM     71  F   UNL A   1      44.040  33.400  26.346  1.00  0.00    -0.200 F 
ATOM     72  F   UNL A   1      46.271  34.926  26.654  1.00  0.00    -0.200 F 
ENDBRANCH  48  62
BRANCH  49  73
ATOM     73  C   UNL A   1      38.863  28.536  29.308  1.00  0.00     0.064 A 
ATOM     74  C   UNL A   1      38.074  28.626  30.472  1.00  0.00     0.173 A 
ATOM     75  C   UNL A   1      38.355  29.175  28.163  1.00  0.00     0.173 A 
ATOM     76  F   UNL A   1      38.492  28.071  31.620  1.00  0.00    -0.203 F 
ATOM     77  C   UNL A   1      36.883  29.360  30.501  1.00  0.00     0.198 A 
ATOM     78  C   UNL A   1      37.163  29.904  28.194  1.00  0.00     0.198 A 
ATOM     79  F   UNL A   1      39.059  29.193  27.022  1.00  0.00    -0.203 F 
ATOM     80  F   UNL A   1      36.205  29.491  31.651  1.00  0.00    -0.200 F 
ATOM     81  C   UNL A   1      36.439  30.015  29.366  1.00  0.00     0.200 A 
ATOM     82  F   UNL A   1      36.759  30.562  27.097  1.00  0.00    -0.200 F 
ATOM     83  F   UNL A   1      35.342  30.784  29.413  1.00  0.00    -0.200 F 
ENDBRANCH  49  73
BRANCH  61  84
ATOM     84  C   UNL A   1      44.263  27.536  32.358  1.00  0.00     0.064 A 
ATOM     85  C   UNL A   1      44.155  26.158  32.117  1.00  0.00     0.173 A 
ATOM     86  C   UNL A   1      44.408  27.959  33.688  1.00  0.00     0.173 A 
ATOM     87  F   UNL A   1      44.079  25.677  30.869  1.00  0.00    -0.203 F 
ATOM     88  C   UNL A   1      44.174  25.246  33.172  1.00  0.00     0.198 A 
ATOM     89  C   UNL A   1      44.465  27.044  34.733  1.00  0.00     0.198 A 
ATOM     90  F   UNL A   1      44.544  29.264  33.966  1.00  0.00    -0.203 F 
ATOM     91  F   UNL A   1      44.064  23.932  32.926  1.00  0.00    -0.200 F 
ATOM     92  C   UNL A   1      44.343  25.689  34.475  1.00  0.00     0.200 A 
ATOM     93  F   UNL A   1      44.669  27.477  35.984  1.00  0.00    -0.200 F 
ATOM     94  F   UNL A   1      44.412  24.808  35.483  1.00  0.00    -0.200 F 
ENDBRANCH  61  84
ENDBRANCH  35  36
ENDBRANCH  27  30
ENDBRANCH  25  26
ENDBRANCH  24  25
ENDBRANCH  23  24
ENDBRANCH   1  23
TORSDOF 16
ENDMDL
MODEL 2
REMARK VINA RESULT:     -11.4      2.970      4.566
REMARK SMILES [NH3+][C@H](Cn1nnc2ccccc21)C(=O)NCCCCCCNC(=O)c1ccc(-c2c3nc(c(-c4c(F)c(F)c(F)c(F)c4F)c4ccc([nH]4)c(-c4c(F)c(F)c(F)c(F)c4F)c4nc(c(-c5c(F)c(F)c(F)c(F)c5F)c5ccc2[nH]5)C=C4)C=C3)cc1
REMARK SMILES IDX 18 1 17 2 16 3 15 4 13 5 14 6 2 8 1 9 3 13 4 14 5 15 12 16
REMARK SMILES IDX 6 17 7 18 11 19 8 20 10 21 9 22 19 23 20 24 21 25 22 26
REMARK SMILES IDX 23 27 24 29 25 30 26 31 87 32 27 33 86 34 28 35 29 36 30 37
REMARK SMILES IDX 80 38 31 39 85 40 79 41 81 42 32 43 84 44 78 45 77 46 33 48
REMARK SMILES IDX 65 49 45 50 64 51 46 52 49 53 63 54 82 55 47 56 48 57 62 59
REMARK SMILES IDX 83 60 50 61 34 62 35 63 43 64 36 65 37 66 41 67 44 68 38 69
REMARK SMILES IDX 39 70 42 71 40 72 66 73 67 74 75 75 68 76 69 77 73 78 76 79
REMARK SMILES IDX 70 80 71 81 74 82 72 83 51 84 52 85 60 86 53 87 54 88 58 89
REMARK SMILES IDX 61 90 55 91 56 92 59 93 57 94
REMARK H PARENT 15 7 1 10 1 11 1 12 22 28 81 47 49 58
REMARK Flexibility Score: inf
ROOT
ATOM      1  C   UNL A   1      35.125  23.231  23.548  1.00  0.00     0.002 C 
ENDROOT
BRANCH   1   2
ATOM      2  C   UNL A   1      34.766  24.316  24.568  1.00  0.00     0.021 C 
BRANCH   2   3
ATOM      3  C   UNL A   1      33.522  25.124  24.193  1.00  0.00     0.116 C 
BRANCH   3   4
ATOM      4  N   UNL A   1      33.012  25.882  25.316  1.00  0.00    -0.351 N 
ATOM      5  C   UNL A   1      31.803  25.832  25.946  1.00  0.00     0.280 C 
ATOM      6  O   UNL A   1      31.626  26.624  26.879  1.00  0.00    -0.268 OA
ATOM      7  H   UNL A   1      33.641  26.543  25.686  1.00  0.00     0.163 HD
BRANCH   5   8
ATOM      8  C   UNL A   1      30.673  24.860  25.524  1.00  0.00     0.292 C 
BRANCH   8   9
ATOM      9  N   UNL A   1      29.467  25.620  25.127  1.00  0.00    -0.346 N 
ATOM     10  H   UNL A   1      29.591  25.987  24.183  1.00  0.00     0.345 HD
ATOM     11  H   UNL A   1      29.322  26.392  25.776  1.00  0.00     0.345 HD
ATOM     12  H   UNL A   1      28.656  25.002  25.146  1.00  0.00     0.345 HD
ENDBRANCH   8   9
BRANCH   8  13
ATOM     13  C   UNL A   1      30.538  23.670  26.502  1.00  0.00     0.222 C 
BRANCH  13  14
ATOM     14  N   UNL A   1      31.688  22.799  26.642  1.00  0.00    -0.238 N 
ATOM     15  N   UNL A   1      32.487  22.910  27.723  1.00  0.00    -0.066 NA
ATOM     16  C   UNL A   1      32.191  21.882  25.753  1.00  0.00     0.089 A 
ATOM     17  N   UNL A   1      33.488  22.057  27.592  1.00  0.00    -0.130 NA
ATOM     18  C   UNL A   1      33.340  21.422  26.395  1.00  0.00     0.113 A 
ATOM     19  C   UNL A   1      31.799  21.418  24.493  1.00  0.00     0.030 A 
ATOM     20  C   UNL A   1      34.144  20.451  25.785  1.00  0.00     0.032 A 
ATOM     21  C   UNL A   1      32.616  20.448  23.897  1.00  0.00     0.002 A 
ATOM     22  C   UNL A   1      33.767  19.970  24.529  1.00  0.00     0.002 A 
ENDBRANCH  13  14
ENDBRANCH   8  13
ENDBRANCH   5   8
ENDBRANCH   3   4
ENDBRANCH   2   3
ENDBRANCH   1   2
BRANCH   1  23
ATOM     23  C   UNL A   1      36.627  22.955  23.385  1.00  0.00     0.002 C 
BRANCH  23  24
ATOM     24  C   UNL A   1      37.203  21.816  24.241  1.00  0.00     0.021 C 
BRANCH  24  25
ATOM     25  C   UNL A   1      37.441  22.169  25.709  1.00  0.00     0.116 C 
BRANCH  25  26
ATOM     26  N   UNL A   1      38.754  21.788  26.189  1.00  0.00    -0.352 N 
ATOM     27  C   UNL A   1      39.777  22.388  26.874  1.00  0.00     0.251 C 
ATOM     28  H   UNL A   1      38.966  20.854  25.963  1.00  0.00     0.163 HD
ATOM     29  O   UNL A   1      40.719  21.657  27.163  1.00  0.00    -0.269 OA
BRANCH  27  30
ATOM     30  C   UNL A   1      39.860  23.829  27.255  1.00  0.00     0.039 A 
ATOM     31  C   UNL A   1      38.957  24.828  26.901  1.00  0.00     0.014 A 
ATOM     32  C   UNL A   1      40.992  24.197  28.017  1.00  0.00     0.014 A 
ATOM     33  C   UNL A   1      39.215  26.157  27.251  1.00  0.00     0.010 A 
ATOM     34  C   UNL A   1      41.249  25.522  28.375  1.00  0.00     0.010 A 
ATOM     35  C   UNL A   1      40.372  26.515  27.969  1.00  0.00    -0.014 A 
BRANCH  35  36
ATOM     36  C   UNL A   1      40.509  27.911  28.402  1.00  0.00     0.031 A 
ATOM     37  C   UNL A   1      41.712  28.579  27.843  1.00  0.00     0.074 A 
ATOM     38  C   UNL A   1      39.661  28.620  29.182  1.00  0.00     0.049 A 
ATOM     39  N   UNL A   1      42.797  28.864  28.482  1.00  0.00    -0.248 NA
ATOM     40  C   UNL A   1      41.787  28.830  26.397  1.00  0.00     0.031 C 
ATOM     41  C   UNL A   1      38.306  28.260  29.602  1.00  0.00     0.029 A 
ATOM     42  N   UNL A   1      39.831  29.869  29.732  1.00  0.00    -0.354 N 
ATOM     43  C   UNL A   1      43.625  29.512  27.571  1.00  0.00     0.074 A 
ATOM     44  C   UNL A   1      43.020  29.333  26.278  1.00  0.00     0.031 C 
ATOM     45  C   UNL A   1      37.705  29.337  30.164  1.00  0.00     0.029 A 
ATOM     46  C   UNL A   1      38.677  30.412  30.292  1.00  0.00     0.049 A 
ATOM     47  H   UNL A   1      40.695  30.340  29.731  1.00  0.00     0.167 HD
ATOM     48  C   UNL A   1      44.586  30.363  28.022  1.00  0.00     0.037 A 
ATOM     49  C   UNL A   1      38.527  31.649  30.833  1.00  0.00     0.037 A 
ATOM     50  C   UNL A   1      44.809  30.177  29.433  1.00  0.00     0.049 A 
ATOM     51  C   UNL A   1      39.856  32.102  31.296  1.00  0.00     0.074 A 
ATOM     52  C   UNL A   1      45.427  29.257  30.249  1.00  0.00     0.029 A 
ATOM     53  N   UNL A   1      43.965  30.914  30.214  1.00  0.00    -0.354 N 
ATOM     54  N   UNL A   1      40.487  31.574  32.307  1.00  0.00    -0.248 NA
ATOM     55  C   UNL A   1      40.647  32.998  30.459  1.00  0.00     0.031 C 
ATOM     56  C   UNL A   1      44.798  29.372  31.527  1.00  0.00     0.029 A 
ATOM     57  C   UNL A   1      43.838  30.380  31.463  1.00  0.00     0.049 A 
ATOM     58  H   UNL A   1      43.506  31.732  29.912  1.00  0.00     0.167 HD
ATOM     59  C   UNL A   1      41.816  31.709  31.975  1.00  0.00     0.074 A 
ATOM     60  C   UNL A   1      41.860  32.749  30.957  1.00  0.00     0.031 C 
ATOM     61  C   UNL A   1      42.708  30.730  32.292  1.00  0.00     0.037 A 
BRANCH  48  62
ATOM     62  C   UNL A   1      44.929  31.695  27.378  1.00  0.00     0.064 A 
ATOM     63  C   UNL A   1      46.233  31.882  26.866  1.00  0.00     0.173 A 
ATOM     64  C   UNL A   1      44.182  32.875  27.572  1.00  0.00     0.173 A 
ATOM     65  F   UNL A   1      47.044  30.834  26.660  1.00  0.00    -0.203 F 
ATOM     66  C   UNL A   1      46.771  33.156  26.656  1.00  0.00     0.198 A 
ATOM     67  C   UNL A   1      44.706  34.142  27.316  1.00  0.00     0.198 A 
ATOM     68  F   UNL A   1      42.966  32.867  28.130  1.00  0.00    -0.203 F 
ATOM     69  F   UNL A   1      48.056  33.287  26.297  1.00  0.00    -0.200 F 
ATOM     70  C   UNL A   1      46.010  34.285  26.889  1.00  0.00     0.200 A 
ATOM     71  F   UNL A   1      43.962  35.226  27.575  1.00  0.00    -0.200 F 
ATOM     72  F   UNL A   1      46.541  35.507  26.753  1.00  0.00    -0.200 F 
ENDBRANCH  48  62
BRANCH  49  73
ATOM     73  C   UNL A   1      37.356  32.561  30.867  1.00  0.00     0.064 A 
ATOM     74  C   UNL A   1      37.013  33.354  29.753  1.00  0.00     0.173 A 
ATOM     75  C   UNL A   1      36.370  32.431  31.861  1.00  0.00     0.173 A 
ATOM     76  F   UNL A   1      37.880  33.511  28.741  1.00  0.00    -0.203 F 
ATOM     77  C   UNL A   1      35.745  33.928  29.617  1.00  0.00     0.198 A 
ATOM     78  C   UNL A   1      35.105  33.009  31.726  1.00  0.00     0.198 A 
ATOM     79  F   UNL A   1      36.580  31.653  32.933  1.00  0.00    -0.203 F 
ATOM     80  F   UNL A   1      35.431  34.605  28.503  1.00  0.00    -0.200 F 
ATOM     81  C   UNL A   1      34.785  33.739  30.596  1.00  0.00     0.200 A 
ATOM     82  F   UNL A   1      34.172  32.792  32.665  1.00  0.00    -0.200 F 
ATOM     83  F   UNL A   1      33.545  34.220  30.431  1.00  0.00    -0.200 F 
ENDBRANCH  49  73
BRANCH  61  84
ATOM     84  C   UNL A   1      42.396  29.849  33.456  1.00  0.00     0.064 A 
ATOM     85  C   UNL A   1      41.739  28.613  33.369  1.00  0.00     0.173 A 
ATOM     86  C   UNL A   1      42.889  30.242  34.709  1.00  0.00     0.173 A 
ATOM     87  F   UNL A   1      41.299  28.143  32.193  1.00  0.00    -0.203 F 
ATOM     88  C   UNL A   1      41.571  27.813  34.499  1.00  0.00     0.198 A 
ATOM     89  C   UNL A   1      42.753  29.425  35.825  1.00  0.00     0.198 A 
ATOM     90  F   UNL A   1      43.549  31.403  34.836  1.00  0.00    -0.203 F 
ATOM     91  F   UNL A   1      40.936  26.636  34.401  1.00  0.00    -0.200 F 
ATOM     92  C   UNL A   1      42.089  28.215  35.722  1.00  0.00     0.200 A 
ATOM     93  F   UNL A   1      43.292  29.801  36.993  1.00  0.00    -0.200 F 
ATOM     94  F   UNL A   1      41.972  27.422  36.796  1.00  0.00    -0.200 F 
ENDBRANCH  61  84
ENDBRANCH  35  36
ENDBRANCH  27  30
ENDBRANCH  25  26
ENDBRANCH  24  25
ENDBRANCH  23  24
ENDBRANCH   1  23
TORSDOF 16
ENDMDL
MODEL 3
REMARK VINA RESULT:     -11.2      1.491      1.916
REMARK SMILES [NH3+][C@H](Cn1nnc2ccccc21)C(=O)NCCCCCCNC(=O)c1ccc(-c2c3nc(c(-c4c(F)c(F)c(F)c(F)c4F)c4ccc([nH]4)c(-c4c(F)c(F)c(F)c(F)c4F)c4nc(c(-c5c(F)c(F)c(F)c(F)c5F)c5ccc2[nH]5)C=C4)C=C3)cc1
REMARK SMILES IDX 18 1 17 2 16 3 15 4 13 5 14 6 2 8 1 9 3 13 4 14 5 15 12 16
REMARK SMILES IDX 6 17 7 18 11 19 8 20 10 21 9 22 19 23 20 24 21 25 22 26
REMARK SMILES IDX 23 27 24 29 25 30 26 31 87 32 27 33 86 34 28 35 29 36 30 37
REMARK SMILES IDX 80 38 31 39 85 40 79 41 81 42 32 43 84 44 78 45 77 46 33 48
REMARK SMILES IDX 65 49 45 50 64 51 46 52 49 53 63 54 82 55 47 56 48 57 62 59
REMARK SMILES IDX 83 60 50 61 34 62 35 63 43 64 36 65 37 66 41 67 44 68 38 69
REMARK SMILES IDX 39 70 42 71 40 72 66 73 67 74 75 75 68 76 69 77 73 78 76 79
REMARK SMILES IDX 70 80 71 81 74 82 72 83 51 84 52 85 60 86 53 87 54 88 58 89
REMARK SMILES IDX 61 90 55 91 56 92 59 93 57 94
REMARK H PARENT 15 7 1 10 1 11 1 12 22 28 81 47 49 58
REMARK Flexibility Score: inf
ROOT
ATOM      1  C   UNL A   1      41.027  20.993  27.451  1.00  0.00     0.002 C 
ENDROOT
BRANCH   1   2
ATOM      2  C   UNL A   1      40.121  21.056  26.217  1.00  0.00     0.021 C 
BRANCH   2   3
ATOM      3  C   UNL A   1      39.002  22.093  26.329  1.00  0.00     0.116 C 
BRANCH   3   4
ATOM      4  N   UNL A   1      38.319  22.289  25.067  1.00  0.00    -0.351 N 
ATOM      5  C   UNL A   1      37.030  22.031  24.705  1.00  0.00     0.280 C 
ATOM      6  O   UNL A   1      36.718  22.281  23.535  1.00  0.00    -0.268 OA
ATOM      7  H   UNL A   1      38.878  22.674  24.354  1.00  0.00     0.163 HD
BRANCH   5   8
ATOM      8  C   UNL A   1      35.986  21.429  25.678  1.00  0.00     0.292 C 
BRANCH   8   9
ATOM      9  N   UNL A   1      35.309  20.273  25.051  1.00  0.00    -0.346 N 
ATOM     10  H   UNL A   1      35.425  19.449  25.640  1.00  0.00     0.345 HD
ATOM     11  H   UNL A   1      35.716  20.096  24.134  1.00  0.00     0.345 HD
ATOM     12  H   UNL A   1      34.315  20.478  24.948  1.00  0.00     0.345 HD
ENDBRANCH   8   9
BRANCH   8  13
ATOM     13  C   UNL A   1      35.143  22.524  26.372  1.00  0.00     0.222 C 
BRANCH  13  14
ATOM     14  N   UNL A   1      34.519  23.515  25.517  1.00  0.00    -0.238 N 
ATOM     15  N   UNL A   1      35.065  24.742  25.403  1.00  0.00    -0.066 NA
ATOM     16  C   UNL A   1      33.332  23.440  24.832  1.00  0.00     0.089 A 
ATOM     17  N   UNL A   1      34.288  25.474  24.623  1.00  0.00    -0.130 NA
ATOM     18  C   UNL A   1      33.218  24.709  24.266  1.00  0.00     0.113 A 
ATOM     19  C   UNL A   1      32.363  22.448  24.651  1.00  0.00     0.030 A 
ATOM     20  C   UNL A   1      32.108  25.027  23.473  1.00  0.00     0.032 A 
ATOM     21  C   UNL A   1      31.259  22.783  23.856  1.00  0.00     0.002 A 
ATOM     22  C   UNL A   1      31.132  24.048  23.275  1.00  0.00     0.002 A 
ENDBRANCH  13  14
ENDBRANCH   8  13
ENDBRANCH   5   8
ENDBRANCH   3   4
ENDBRANCH   2   3
ENDBRANCH   1   2
BRANCH   1  23
ATOM     23  C   UNL A   1      42.029  19.831  27.470  1.00  0.00     0.002 C 
BRANCH  23  24
ATOM     24  C   UNL A   1      42.181  19.045  26.159  1.00  0.00     0.021 C 
BRANCH  24  25
ATOM     25  C   UNL A   1      43.522  18.332  25.986  1.00  0.00     0.116 C 
BRANCH  25  26
ATOM     26  N   UNL A   1      44.313  18.850  24.886  1.00  0.00    -0.352 N 
ATOM     27  C   UNL A   1      44.827  20.063  24.513  1.00  0.00     0.251 C 
ATOM     28  H   UNL A   1      44.539  18.144  24.238  1.00  0.00     0.163 HD
ATOM     29  O   UNL A   1      45.538  20.051  23.514  1.00  0.00    -0.269 OA
BRANCH  27  30
ATOM     30  C   UNL A   1      44.569  21.374  25.180  1.00  0.00     0.039 A 
ATOM     31  C   UNL A   1      45.281  21.909  26.250  1.00  0.00     0.014 A 
ATOM     32  C   UNL A   1      43.467  22.107  24.684  1.00  0.00     0.014 A 
ATOM     33  C   UNL A   1      44.864  23.109  26.835  1.00  0.00     0.010 A 
ATOM     34  C   UNL A   1      43.051  23.308  25.261  1.00  0.00     0.010 A 
ATOM     35  C   UNL A   1      43.735  23.802  26.360  1.00  0.00    -0.014 A 
BRANCH  35  36
ATOM     36  C   UNL A   1      43.435  25.113  26.950  1.00  0.00     0.031 A 
ATOM     37  C   UNL A   1      44.438  26.152  26.600  1.00  0.00     0.074 A 
ATOM     38  C   UNL A   1      42.365  25.454  27.703  1.00  0.00     0.049 A 
ATOM     39  N   UNL A   1      45.345  26.635  27.381  1.00  0.00    -0.248 NA
ATOM     40  C   UNL A   1      44.547  26.602  25.205  1.00  0.00     0.031 C 
ATOM     41  C   UNL A   1      41.141  24.686  27.932  1.00  0.00     0.029 A 
ATOM     42  N   UNL A   1      42.130  26.618  28.397  1.00  0.00    -0.354 N 
ATOM     43  C   UNL A   1      46.021  27.599  26.639  1.00  0.00     0.074 A 
ATOM     44  C   UNL A   1      45.591  27.433  25.276  1.00  0.00     0.031 C 
ATOM     45  C   UNL A   1      40.218  25.474  28.535  1.00  0.00     0.029 A 
ATOM     46  C   UNL A   1      40.831  26.746  28.881  1.00  0.00     0.049 A 
ATOM     47  H   UNL A   1      42.822  27.303  28.541  1.00  0.00     0.167 HD
ATOM     48  C   UNL A   1      46.664  28.614  27.279  1.00  0.00     0.037 A 
ATOM     49  C   UNL A   1      40.294  27.813  29.529  1.00  0.00     0.037 A 
ATOM     50  C   UNL A   1      46.823  28.311  28.679  1.00  0.00     0.049 A 
ATOM     51  C   UNL A   1      41.401  28.547  30.180  1.00  0.00     0.074 A 
ATOM     52  C   UNL A   1      47.614  27.496  29.457  1.00  0.00     0.029 A 
ATOM     53  N   UNL A   1      45.747  28.680  29.436  1.00  0.00    -0.354 N 
ATOM     54  N   UNL A   1      42.077  28.083  31.194  1.00  0.00    -0.248 NA
ATOM     55  C   UNL A   1      41.965  29.727  29.534  1.00  0.00     0.031 C 
ATOM     56  C   UNL A   1      46.883  27.266  30.663  1.00  0.00     0.029 A 
ATOM     57  C   UNL A   1      45.684  27.972  30.600  1.00  0.00     0.049 A 
ATOM     58  H   UNL A   1      45.098  29.373  29.174  1.00  0.00     0.167 HD
ATOM     59  C   UNL A   1      43.335  28.619  31.026  1.00  0.00     0.074 A 
ATOM     60  C   UNL A   1      43.157  29.756  30.133  1.00  0.00     0.031 C 
ATOM     61  C   UNL A   1      44.442  27.887  31.333  1.00  0.00     0.037 A 
BRANCH  48  62
ATOM     62  C   UNL A   1      46.661  30.061  26.821  1.00  0.00     0.064 A 
ATOM     63  C   UNL A   1      47.859  30.804  26.924  1.00  0.00     0.173 A 
ATOM     64  C   UNL A   1      45.489  30.826  26.646  1.00  0.00     0.173 A 
ATOM     65  F   UNL A   1      49.034  30.185  27.113  1.00  0.00    -0.203 F 
ATOM     66  C   UNL A   1      47.864  32.203  26.942  1.00  0.00     0.198 A 
ATOM     67  C   UNL A   1      45.505  32.221  26.617  1.00  0.00     0.198 A 
ATOM     68  F   UNL A   1      44.272  30.272  26.619  1.00  0.00    -0.203 F 
ATOM     69  F   UNL A   1      49.007  32.863  27.174  1.00  0.00    -0.200 F 
ATOM     70  C   UNL A   1      46.686  32.909  26.797  1.00  0.00     0.200 A 
ATOM     71  F   UNL A   1      44.349  32.889  26.504  1.00  0.00    -0.200 F 
ATOM     72  F   UNL A   1      46.677  34.246  26.879  1.00  0.00    -0.200 F 
ENDBRANCH  48  62
BRANCH  49  73
ATOM     73  C   UNL A   1      38.913  28.358  29.531  1.00  0.00     0.064 A 
ATOM     74  C   UNL A   1      38.192  28.519  30.731  1.00  0.00     0.173 A 
ATOM     75  C   UNL A   1      38.402  29.028  28.405  1.00  0.00     0.173 A 
ATOM     76  F   UNL A   1      38.620  27.940  31.863  1.00  0.00    -0.203 F 
ATOM     77  C   UNL A   1      37.067  29.348  30.810  1.00  0.00     0.198 A 
ATOM     78  C   UNL A   1      37.276  29.852  28.486  1.00  0.00     0.198 A 
ATOM     79  F   UNL A   1      39.048  28.981  27.231  1.00  0.00    -0.203 F 
ATOM     80  F   UNL A   1      36.460  29.541  31.990  1.00  0.00    -0.200 F 
ATOM     81  C   UNL A   1      36.621  30.029  29.691  1.00  0.00     0.200 A 
ATOM     82  F   UNL A   1      36.872  30.533  27.403  1.00  0.00    -0.200 F 
ATOM     83  F   UNL A   1      35.594  30.885  29.783  1.00  0.00    -0.200 F 
ENDBRANCH  49  73
BRANCH  61  84
ATOM     84  C   UNL A   1      44.305  26.809  32.357  1.00  0.00     0.064 A 
ATOM     85  C   UNL A   1      44.205  25.440  32.067  1.00  0.00     0.173 A 
ATOM     86  C   UNL A   1      44.389  27.189  33.704  1.00  0.00     0.173 A 
ATOM     87  F   UNL A   1      44.186  24.999  30.802  1.00  0.00    -0.203 F 
ATOM     88  C   UNL A   1      44.174  24.495  33.092  1.00  0.00     0.198 A 
ATOM     89  C   UNL A   1      44.397  26.242  34.721  1.00  0.00     0.198 A 
ATOM     90  F   UNL A   1      44.515  28.484  34.030  1.00  0.00    -0.203 F 
ATOM     91  F   UNL A   1      44.073  23.190  32.799  1.00  0.00    -0.200 F 
ATOM     92  C   UNL A   1      44.283  24.896  34.415  1.00  0.00     0.200 A 
ATOM     93  F   UNL A   1      44.543  26.634  35.993  1.00  0.00    -0.200 F 
ATOM     94  F   UNL A   1      44.305  23.983  35.396  1.00  0.00    -0.200 F 
ENDBRANCH  61  84
ENDBRANCH  35  36
ENDBRANCH  27  30
ENDBRANCH  25  26
ENDBRANCH  24  25
ENDBRANCH  23  24
ENDBRANCH   1  23
TORSDOF 16
ENDMDL
