MODEL 1
REMARK VINA RESULT:     -12.7      0.000      0.000
REMARK SMILES CCCc1cc2c(cc1Cl)C=C(C(=O)NCCCCCCNC(=O)c1ccc(-c3c4nc(c(-c5c(F)c(F)c(F)c(F)c5F)c5ccc([nH]5)c(-c5c(F)c(F)c(F)c(F)c5F)c5nc(c(-c6c(F)c(F)c(F)c(F)c6F)c6ccc3[nH]6)C=C5)C=C4)cc1)[C@H](C(F)(F)F)O2
REMARK SMILES IDX 18 1 17 2 16 3 15 4 13 5 14 6 12 8 4 9 5 10 9 11 6 12 8 13
REMARK SMILES IDX 10 14 7 15 93 16 11 17 88 18 3 19 2 20 1 21 89 22 90 23
REMARK SMILES IDX 91 24 92 25 19 26 20 27 21 28 22 29 23 30 24 32 25 33 26 34
REMARK SMILES IDX 87 35 27 36 86 37 28 38 29 39 30 40 80 41 31 42 85 43 79 44
REMARK SMILES IDX 81 45 32 46 84 47 78 48 77 49 33 51 65 52 45 53 64 54 46 55
REMARK SMILES IDX 49 56 63 57 82 58 47 59 48 60 62 62 83 63 50 64 34 65 35 66
REMARK SMILES IDX 43 67 36 68 37 69 41 70 44 71 38 72 39 73 42 74 40 75 66 76
REMARK SMILES IDX 67 77 75 78 68 79 69 80 73 81 76 82 70 83 71 84 74 85 72 86
REMARK SMILES IDX 51 87 52 88 60 89 53 90 54 91 58 92 61 93 55 94 56 95 59 96
REMARK SMILES IDX 57 97
REMARK H PARENT 15 7 22 31 81 50 49 61
REMARK Flexibility Score: inf
ROOT
ATOM      1  C   UNL A   1      32.316  29.586  27.094  1.00  0.00     0.002 C 
ENDROOT
BRANCH   1   2
ATOM      2  C   UNL A   1      33.818  29.289  27.139  1.00  0.00     0.021 C 
BRANCH   2   3
ATOM      3  C   UNL A   1      34.234  28.008  26.422  1.00  0.00     0.116 C 
BRANCH   3   4
ATOM      4  N   UNL A   1      34.060  28.128  24.987  1.00  0.00    -0.352 N 
ATOM      5  C   UNL A   1      33.664  27.341  23.963  1.00  0.00     0.251 C 
ATOM      6  O   UNL A   1      33.694  27.883  22.853  1.00  0.00    -0.270 OA
ATOM      7  H   UNL A   1      34.296  29.031  24.673  1.00  0.00     0.163 HD
BRANCH   5   8
ATOM      8  C   UNL A   1      33.198  25.925  24.080  1.00  0.00     0.067 C 
ATOM      9  C   UNL A   1      33.146  20.859  24.447  1.00  0.00    -0.026 A 
ATOM     10  C   UNL A   1      32.175  21.862  24.231  1.00  0.00     0.052 A 
ATOM     11  C   UNL A   1      34.479  21.281  24.591  1.00  0.00     0.045 A 
ATOM     12  C   UNL A   1      32.516  23.211  24.147  1.00  0.00     0.128 A 
ATOM     13  C   UNL A   1      34.816  22.641  24.494  1.00  0.00     0.032 A 
ATOM     14  Cl  UNL A   1      35.811  20.232  24.905  1.00  0.00    -0.084 Cl
ATOM     15  C   UNL A   1      33.837  23.608  24.274  1.00  0.00     0.019 A 
ATOM     16  O   UNL A   1      31.497  24.082  23.904  1.00  0.00    -0.475 OA
ATOM     17  C   UNL A   1      34.184  25.013  24.146  1.00  0.00     0.025 C 
ATOM     18  C   UNL A   1      31.758  25.493  24.153  1.00  0.00     0.314 C 
BRANCH   9  19
ATOM     19  C   UNL A   1      32.594  19.449  24.579  1.00  0.00     0.037 C 
BRANCH  19  20
ATOM     20  C   UNL A   1      32.566  18.509  23.370  1.00  0.00     0.001 C 
ATOM     21  C   UNL A   1      33.667  17.456  23.433  1.00  0.00     0.004 C 
ENDBRANCH  19  20
ENDBRANCH   9  19
BRANCH  18  22
ATOM     22  C   UNL A   1      31.067  25.898  25.466  1.00  0.00     0.429 C 
ATOM     23  F   UNL A   1      31.841  25.682  26.553  1.00  0.00    -0.167 F 
ATOM     24  F   UNL A   1      30.710  27.201  25.494  1.00  0.00    -0.167 F 
ATOM     25  F   UNL A   1      29.924  25.184  25.635  1.00  0.00    -0.167 F 
ENDBRANCH  18  22
ENDBRANCH   5   8
ENDBRANCH   3   4
ENDBRANCH   2   3
ENDBRANCH   1   2
BRANCH   1  26
ATOM     26  C   UNL A   1      31.895  30.740  26.177  1.00  0.00     0.002 C 
BRANCH  26  27
ATOM     27  C   UNL A   1      31.527  32.043  26.886  1.00  0.00     0.021 C 
BRANCH  27  28
ATOM     28  C   UNL A   1      32.707  32.816  27.459  1.00  0.00     0.116 C 
BRANCH  28  29
ATOM     29  N   UNL A   1      32.397  34.214  27.708  1.00  0.00    -0.352 N 
ATOM     30  C   UNL A   1      32.992  35.080  28.597  1.00  0.00     0.251 C 
ATOM     31  H   UNL A   1      31.664  34.591  27.170  1.00  0.00     0.163 HD
ATOM     32  O   UNL A   1      32.532  36.194  28.798  1.00  0.00    -0.269 OA
BRANCH  30  33
ATOM     33  C   UNL A   1      34.182  34.620  29.340  1.00  0.00     0.039 A 
ATOM     34  C   UNL A   1      35.447  34.690  28.752  1.00  0.00     0.014 A 
ATOM     35  C   UNL A   1      34.013  34.041  30.600  1.00  0.00     0.014 A 
ATOM     36  C   UNL A   1      36.515  34.029  29.349  1.00  0.00     0.010 A 
ATOM     37  C   UNL A   1      35.106  33.446  31.234  1.00  0.00     0.010 A 
ATOM     38  C   UNL A   1      36.352  33.390  30.589  1.00  0.00    -0.014 A 
BRANCH  38  39
ATOM     39  C   UNL A   1      37.493  32.650  31.187  1.00  0.00     0.031 A 
ATOM     40  C   UNL A   1      37.966  32.968  32.580  1.00  0.00     0.074 A 
ATOM     41  C   UNL A   1      38.067  31.653  30.490  1.00  0.00     0.049 A 
ATOM     42  N   UNL A   1      38.956  32.440  33.256  1.00  0.00    -0.248 NA
ATOM     43  C   UNL A   1      37.235  34.015  33.311  1.00  0.00     0.031 C 
ATOM     44  C   UNL A   1      37.677  31.238  29.142  1.00  0.00     0.029 A 
ATOM     45  N   UNL A   1      39.084  30.795  30.823  1.00  0.00    -0.354 N 
ATOM     46  C   UNL A   1      38.981  33.102  34.476  1.00  0.00     0.074 A 
ATOM     47  C   UNL A   1      37.921  34.088  34.443  1.00  0.00     0.031 C 
ATOM     48  C   UNL A   1      38.412  30.175  28.782  1.00  0.00     0.029 A 
ATOM     49  C   UNL A   1      39.367  29.876  29.844  1.00  0.00     0.049 A 
ATOM     50  H   UNL A   1      39.565  30.835  31.681  1.00  0.00     0.167 HD
ATOM     51  C   UNL A   1      39.807  32.898  35.530  1.00  0.00     0.037 A 
ATOM     52  C   UNL A   1      40.303  28.911  29.797  1.00  0.00     0.037 A 
ATOM     53  C   UNL A   1      40.844  31.899  35.568  1.00  0.00     0.049 A 
ATOM     54  C   UNL A   1      41.234  28.737  30.961  1.00  0.00     0.074 A 
ATOM     55  C   UNL A   1      41.723  31.606  36.597  1.00  0.00     0.029 A 
ATOM     56  N   UNL A   1      41.137  31.025  34.532  1.00  0.00    -0.354 N 
ATOM     57  N   UNL A   1      41.259  29.380  32.102  1.00  0.00    -0.248 NA
ATOM     58  C   UNL A   1      42.277  27.711  30.826  1.00  0.00     0.031 C 
ATOM     59  C   UNL A   1      42.573  30.582  36.169  1.00  0.00     0.029 A 
ATOM     60  C   UNL A   1      42.196  30.205  34.890  1.00  0.00     0.049 A 
ATOM     61  H   UNL A   1      40.664  30.993  33.669  1.00  0.00     0.167 HD
ATOM     62  C   UNL A   1      42.311  28.837  32.824  1.00  0.00     0.074 A 
ATOM     63  C   UNL A   1      42.888  27.794  32.000  1.00  0.00     0.031 C 
ATOM     64  C   UNL A   1      42.762  29.177  34.055  1.00  0.00     0.037 A 
BRANCH  51  65
ATOM     65  C   UNL A   1      39.637  33.776  36.735  1.00  0.00     0.064 A 
ATOM     66  C   UNL A   1      40.215  35.052  36.802  1.00  0.00     0.173 A 
ATOM     67  C   UNL A   1      38.831  33.363  37.807  1.00  0.00     0.173 A 
ATOM     68  F   UNL A   1      41.005  35.489  35.810  1.00  0.00    -0.203 F 
ATOM     69  C   UNL A   1      40.001  35.878  37.903  1.00  0.00     0.198 A 
ATOM     70  C   UNL A   1      38.600  34.201  38.895  1.00  0.00     0.198 A 
ATOM     71  F   UNL A   1      38.251  32.154  37.791  1.00  0.00    -0.203 F 
ATOM     72  F   UNL A   1      40.588  37.082  37.959  1.00  0.00    -0.200 F 
ATOM     73  C   UNL A   1      39.187  35.456  38.944  1.00  0.00     0.200 A 
ATOM     74  F   UNL A   1      37.804  33.796  39.895  1.00  0.00    -0.200 F 
ATOM     75  F   UNL A   1      38.972  36.258  39.995  1.00  0.00    -0.200 F 
ENDBRANCH  51  65
BRANCH  52  76
ATOM     76  C   UNL A   1      40.396  28.042  28.597  1.00  0.00     0.064 A 
ATOM     77  C   UNL A   1      41.148  28.435  27.483  1.00  0.00     0.173 A 
ATOM     78  C   UNL A   1      39.771  26.787  28.557  1.00  0.00     0.173 A 
ATOM     79  F   UNL A   1      41.746  29.635  27.468  1.00  0.00    -0.203 F 
ATOM     80  C   UNL A   1      41.272  27.602  26.372  1.00  0.00     0.198 A 
ATOM     81  C   UNL A   1      39.918  25.946  27.458  1.00  0.00     0.198 A 
ATOM     82  F   UNL A   1      39.043  26.365  29.602  1.00  0.00    -0.203 F 
ATOM     83  F   UNL A   1      41.977  28.011  25.308  1.00  0.00    -0.200 F 
ATOM     84  C   UNL A   1      40.666  26.354  26.365  1.00  0.00     0.200 A 
ATOM     85  F   UNL A   1      39.344  24.734  27.463  1.00  0.00    -0.200 F 
ATOM     86  F   UNL A   1      40.800  25.549  25.303  1.00  0.00    -0.200 F 
ENDBRANCH  52  76
BRANCH  64  87
ATOM     87  C   UNL A   1      43.933  28.411  34.593  1.00  0.00     0.064 A 
ATOM     88  C   UNL A   1      43.759  27.206  35.289  1.00  0.00     0.173 A 
ATOM     89  C   UNL A   1      45.243  28.859  34.365  1.00  0.00     0.173 A 
ATOM     90  F   UNL A   1      42.525  26.747  35.545  1.00  0.00    -0.203 F 
ATOM     91  C   UNL A   1      44.856  26.485  35.754  1.00  0.00     0.198 A 
ATOM     92  C   UNL A   1      46.337  28.121  34.808  1.00  0.00     0.198 A 
ATOM     93  F   UNL A   1      45.461  30.002  33.698  1.00  0.00    -0.203 F 
ATOM     94  F   UNL A   1      44.665  25.355  36.449  1.00  0.00    -0.200 F 
ATOM     95  C   UNL A   1      46.143  26.939  35.506  1.00  0.00     0.200 A 
ATOM     96  F   UNL A   1      47.580  28.554  34.558  1.00  0.00    -0.200 F 
ATOM     97  F   UNL A   1      47.197  26.238  35.945  1.00  0.00    -0.200 F 
ENDBRANCH  64  87
ENDBRANCH  38  39
ENDBRANCH  30  33
ENDBRANCH  28  29
ENDBRANCH  27  28
ENDBRANCH  26  27
ENDBRANCH   1  26
TORSDOF 16
ENDMDL
MODEL 2
REMARK VINA RESULT:     -12.6      0.398      1.657
REMARK SMILES CCCc1cc2c(cc1Cl)C=C(C(=O)NCCCCCCNC(=O)c1ccc(-c3c4nc(c(-c5c(F)c(F)c(F)c(F)c5F)c5ccc([nH]5)c(-c5c(F)c(F)c(F)c(F)c5F)c5nc(c(-c6c(F)c(F)c(F)c(F)c6F)c6ccc3[nH]6)C=C5)C=C4)cc1)[C@H](C(F)(F)F)O2
REMARK SMILES IDX 18 1 17 2 16 3 15 4 13 5 14 6 12 8 4 9 5 10 9 11 6 12 8 13
REMARK SMILES IDX 10 14 7 15 93 16 11 17 88 18 3 19 2 20 1 21 89 22 90 23
REMARK SMILES IDX 91 24 92 25 19 26 20 27 21 28 22 29 23 30 24 32 25 33 26 34
REMARK SMILES IDX 87 35 27 36 86 37 28 38 29 39 30 40 80 41 31 42 85 43 79 44
REMARK SMILES IDX 81 45 32 46 84 47 78 48 77 49 33 51 65 52 45 53 64 54 46 55
REMARK SMILES IDX 49 56 63 57 82 58 47 59 48 60 62 62 83 63 50 64 34 65 35 66
REMARK SMILES IDX 43 67 36 68 37 69 41 70 44 71 38 72 39 73 42 74 40 75 66 76
REMARK SMILES IDX 67 77 75 78 68 79 69 80 73 81 76 82 70 83 71 84 74 85 72 86
REMARK SMILES IDX 51 87 52 88 60 89 53 90 54 91 58 92 61 93 55 94 56 95 59 96
REMARK SMILES IDX 57 97
REMARK H PARENT 15 7 22 31 81 50 49 61
REMARK Flexibility Score: inf
ROOT
ATOM      1  C   UNL A   1      32.980  29.899  27.246  1.00  0.00     0.002 C 
ENDROOT
BRANCH   1   2
ATOM      2  C   UNL A   1      33.024  28.369  27.208  1.00  0.00     0.021 C 
BRANCH   2   3
ATOM      3  C   UNL A   1      34.029  27.787  26.218  1.00  0.00     0.116 C 
BRANCH   3   4
ATOM      4  N   UNL A   1      33.509  27.808  24.865  1.00  0.00    -0.352 N 
ATOM      5  C   UNL A   1      32.964  26.930  23.994  1.00  0.00     0.251 C 
ATOM      6  O   UNL A   1      32.673  27.407  22.892  1.00  0.00    -0.270 OA
ATOM      7  H   UNL A   1      33.569  28.709  24.473  1.00  0.00     0.163 HD
BRANCH   5   8
ATOM      8  C   UNL A   1      32.688  25.486  24.267  1.00  0.00     0.067 C 
ATOM      9  C   UNL A   1      33.274  20.483  24.921  1.00  0.00    -0.026 A 
ATOM     10  C   UNL A   1      32.173  21.362  24.818  1.00  0.00     0.052 A 
ATOM     11  C   UNL A   1      34.556  21.049  24.811  1.00  0.00     0.045 A 
ATOM     12  C   UNL A   1      32.339  22.729  24.602  1.00  0.00     0.128 A 
ATOM     13  C   UNL A   1      34.715  22.426  24.581  1.00  0.00     0.032 A 
ATOM     14  Cl  UNL A   1      36.032  20.169  24.950  1.00  0.00    -0.084 Cl
ATOM     15  C   UNL A   1      33.609  23.268  24.478  1.00  0.00     0.019 A 
ATOM     16  O   UNL A   1      31.202  23.470  24.488  1.00  0.00    -0.475 OA
ATOM     17  C   UNL A   1      33.768  24.688  24.215  1.00  0.00     0.025 C 
ATOM     18  C   UNL A   1      31.338  24.915  24.610  1.00  0.00     0.314 C 
BRANCH   9  19
ATOM     19  C   UNL A   1      32.915  19.037  25.223  1.00  0.00     0.037 C 
BRANCH  19  20
ATOM     20  C   UNL A   1      32.389  18.119  24.116  1.00  0.00     0.001 C 
ATOM     21  C   UNL A   1      33.516  17.520  23.281  1.00  0.00     0.004 C 
ENDBRANCH  19  20
ENDBRANCH   9  19
BRANCH  18  22
ATOM     22  C   UNL A   1      30.830  25.343  25.997  1.00  0.00     0.429 C 
ATOM     23  F   UNL A   1      30.390  26.621  26.022  1.00  0.00    -0.167 F 
ATOM     24  F   UNL A   1      29.814  24.572  26.447  1.00  0.00    -0.167 F 
ATOM     25  F   UNL A   1      31.825  25.240  26.915  1.00  0.00    -0.167 F 
ENDBRANCH  18  22
ENDBRANCH   5   8
ENDBRANCH   3   4
ENDBRANCH   2   3
ENDBRANCH   1   2
BRANCH   1  26
ATOM     26  C   UNL A   1      31.913  30.555  26.362  1.00  0.00     0.002 C 
BRANCH  26  27
ATOM     27  C   UNL A   1      31.605  32.019  26.680  1.00  0.00     0.021 C 
BRANCH  27  28
ATOM     28  C   UNL A   1      32.703  32.754  27.436  1.00  0.00     0.116 C 
BRANCH  28  29
ATOM     29  N   UNL A   1      32.381  34.150  27.679  1.00  0.00    -0.352 N 
ATOM     30  C   UNL A   1      32.963  35.024  28.568  1.00  0.00     0.251 C 
ATOM     31  H   UNL A   1      31.648  34.520  27.136  1.00  0.00     0.163 HD
ATOM     32  O   UNL A   1      32.494  36.134  28.765  1.00  0.00    -0.269 OA
BRANCH  30  33
ATOM     33  C   UNL A   1      34.154  34.575  29.320  1.00  0.00     0.039 A 
ATOM     34  C   UNL A   1      35.415  34.611  28.722  1.00  0.00     0.014 A 
ATOM     35  C   UNL A   1      33.986  34.040  30.599  1.00  0.00     0.014 A 
ATOM     36  C   UNL A   1      36.479  33.959  29.334  1.00  0.00     0.010 A 
ATOM     37  C   UNL A   1      35.076  33.454  31.246  1.00  0.00     0.010 A 
ATOM     38  C   UNL A   1      36.318  33.363  30.596  1.00  0.00    -0.014 A 
BRANCH  38  39
ATOM     39  C   UNL A   1      37.453  32.630  31.211  1.00  0.00     0.031 A 
ATOM     40  C   UNL A   1      37.908  32.957  32.608  1.00  0.00     0.074 A 
ATOM     41  C   UNL A   1      38.041  31.633  30.526  1.00  0.00     0.049 A 
ATOM     42  N   UNL A   1      38.892  32.436  33.298  1.00  0.00    -0.248 NA
ATOM     43  C   UNL A   1      37.164  34.004  33.325  1.00  0.00     0.031 C 
ATOM     44  C   UNL A   1      37.668  31.210  29.175  1.00  0.00     0.029 A 
ATOM     45  N   UNL A   1      39.057  30.781  30.875  1.00  0.00    -0.354 N 
ATOM     46  C   UNL A   1      38.899  33.104  34.516  1.00  0.00     0.074 A 
ATOM     47  C   UNL A   1      37.836  34.085  34.466  1.00  0.00     0.031 C 
ATOM     48  C   UNL A   1      38.412  30.148  28.829  1.00  0.00     0.029 A 
ATOM     49  C   UNL A   1      39.356  29.859  29.904  1.00  0.00     0.049 A 
ATOM     50  H   UNL A   1      39.527  30.826  31.739  1.00  0.00     0.167 HD
ATOM     51  C   UNL A   1      39.713  32.908  35.581  1.00  0.00     0.037 A 
ATOM     52  C   UNL A   1      40.296  28.897  29.873  1.00  0.00     0.037 A 
ATOM     53  C   UNL A   1      40.753  31.913  35.637  1.00  0.00     0.049 A 
ATOM     54  C   UNL A   1      41.214  28.732  31.049  1.00  0.00     0.074 A 
ATOM     55  C   UNL A   1      41.621  31.629  36.677  1.00  0.00     0.029 A 
ATOM     56  N   UNL A   1      41.064  31.036  34.608  1.00  0.00    -0.354 N 
ATOM     57  N   UNL A   1      41.221  29.381  32.188  1.00  0.00    -0.248 NA
ATOM     58  C   UNL A   1      42.263  27.710  30.931  1.00  0.00     0.031 C 
ATOM     59  C   UNL A   1      42.480  30.607  36.265  1.00  0.00     0.029 A 
ATOM     60  C   UNL A   1      42.121  30.223  34.983  1.00  0.00     0.049 A 
ATOM     61  H   UNL A   1      40.601  30.998  33.739  1.00  0.00     0.167 HD
ATOM     62  C   UNL A   1      42.267  28.845  32.925  1.00  0.00     0.074 A 
ATOM     63  C   UNL A   1      42.858  27.801  32.113  1.00  0.00     0.031 C 
ATOM     64  C   UNL A   1      42.702  29.193  34.160  1.00  0.00     0.037 A 
BRANCH  51  65
ATOM     65  C   UNL A   1      39.525  33.791  36.780  1.00  0.00     0.064 A 
ATOM     66  C   UNL A   1      40.052  35.089  36.826  1.00  0.00     0.173 A 
ATOM     67  C   UNL A   1      38.751  33.357  37.867  1.00  0.00     0.173 A 
ATOM     68  F   UNL A   1      40.811  35.547  35.819  1.00  0.00    -0.203 F 
ATOM     69  C   UNL A   1      39.821  35.918  37.922  1.00  0.00     0.198 A 
ATOM     70  C   UNL A   1      38.501  34.196  38.950  1.00  0.00     0.198 A 
ATOM     71  F   UNL A   1      38.219  32.126  37.870  1.00  0.00    -0.203 F 
ATOM     72  F   UNL A   1      40.360  37.144  37.959  1.00  0.00    -0.200 F 
ATOM     73  C   UNL A   1      39.038  35.473  38.979  1.00  0.00     0.200 A 
ATOM     74  F   UNL A   1      37.735  33.770  39.965  1.00  0.00    -0.200 F 
ATOM     75  F   UNL A   1      38.805  36.277  40.025  1.00  0.00    -0.200 F 
ENDBRANCH  51  65
BRANCH  52  76
ATOM     76  C   UNL A   1      40.407  28.023  28.678  1.00  0.00     0.064 A 
ATOM     77  C   UNL A   1      39.740  26.793  28.624  1.00  0.00     0.173 A 
ATOM     78  C   UNL A   1      41.147  28.418  27.553  1.00  0.00     0.173 A 
ATOM     79  F   UNL A   1      39.039  26.365  29.684  1.00  0.00    -0.203 F 
ATOM     80  C   UNL A   1      39.807  25.990  27.488  1.00  0.00     0.198 A 
ATOM     81  C   UNL A   1      41.190  27.627  26.409  1.00  0.00     0.198 A 
ATOM     82  F   UNL A   1      41.799  29.590  27.556  1.00  0.00    -0.203 F 
ATOM     83  F   UNL A   1      39.180  24.806  27.470  1.00  0.00    -0.200 F 
ATOM     84  C   UNL A   1      40.524  26.412  26.377  1.00  0.00     0.200 A 
ATOM     85  F   UNL A   1      41.870  28.047  25.332  1.00  0.00    -0.200 F 
ATOM     86  F   UNL A   1      40.573  25.647  25.279  1.00  0.00    -0.200 F 
ENDBRANCH  52  76
BRANCH  64  87
ATOM     87  C   UNL A   1      43.869  28.434  34.715  1.00  0.00     0.064 A 
ATOM     88  C   UNL A   1      45.182  28.902  34.561  1.00  0.00     0.173 A 
ATOM     89  C   UNL A   1      43.669  27.258  35.452  1.00  0.00     0.173 A 
ATOM     90  F   UNL A   1      45.423  30.014  33.851  1.00  0.00    -0.203 F 
ATOM     91  C   UNL A   1      46.256  28.208  35.112  1.00  0.00     0.198 A 
ATOM     92  C   UNL A   1      44.744  26.582  36.023  1.00  0.00     0.198 A 
ATOM     93  F   UNL A   1      42.432  26.774  35.633  1.00  0.00    -0.203 F 
ATOM     94  F   UNL A   1      47.506  28.653  34.921  1.00  0.00    -0.200 F 
ATOM     95  C   UNL A   1      46.036  27.054  35.848  1.00  0.00     0.200 A 
ATOM     96  F   UNL A   1      44.529  25.473  36.744  1.00  0.00    -0.200 F 
ATOM     97  F   UNL A   1      47.071  26.393  36.386  1.00  0.00    -0.200 F 
ENDBRANCH  64  87
ENDBRANCH  38  39
ENDBRANCH  30  33
ENDBRANCH  28  29
ENDBRANCH  27  28
ENDBRANCH  26  27
ENDBRANCH   1  26
TORSDOF 16
ENDMDL
MODEL 3
REMARK VINA RESULT:     -12.5      0.598      7.266
REMARK SMILES CCCc1cc2c(cc1Cl)C=C(C(=O)NCCCCCCNC(=O)c1ccc(-c3c4nc(c(-c5c(F)c(F)c(F)c(F)c5F)c5ccc([nH]5)c(-c5c(F)c(F)c(F)c(F)c5F)c5nc(c(-c6c(F)c(F)c(F)c(F)c6F)c6ccc3[nH]6)C=C5)C=C4)cc1)[C@H](C(F)(F)F)O2
REMARK SMILES IDX 18 1 17 2 16 3 15 4 13 5 14 6 12 8 4 9 5 10 9 11 6 12 8 13
REMARK SMILES IDX 10 14 7 15 93 16 11 17 88 18 3 19 2 20 1 21 89 22 90 23
REMARK SMILES IDX 91 24 92 25 19 26 20 27 21 28 22 29 23 30 24 32 25 33 26 34
REMARK SMILES IDX 87 35 27 36 86 37 28 38 29 39 30 40 80 41 31 42 85 43 79 44
REMARK SMILES IDX 81 45 32 46 84 47 78 48 77 49 33 51 65 52 45 53 64 54 46 55
REMARK SMILES IDX 49 56 63 57 82 58 47 59 48 60 62 62 83 63 50 64 34 65 35 66
REMARK SMILES IDX 43 67 36 68 37 69 41 70 44 71 38 72 39 73 42 74 40 75 66 76
REMARK SMILES IDX 67 77 75 78 68 79 69 80 73 81 76 82 70 83 71 84 74 85 72 86
REMARK SMILES IDX 51 87 52 88 60 89 53 90 54 91 58 92 61 93 55 94 56 95 59 96
REMARK SMILES IDX 57 97
REMARK H PARENT 15 7 22 31 81 50 49 61
REMARK Flexibility Score: inf
ROOT
ATOM      1  C   UNL A   1      33.191  29.933  27.164  1.00  0.00     0.002 C 
ENDROOT
BRANCH   1   2
ATOM      2  C   UNL A   1      33.212  28.402  27.164  1.00  0.00     0.021 C 
BRANCH   2   3
ATOM      3  C   UNL A   1      34.216  27.781  26.196  1.00  0.00     0.116 C 
BRANCH   3   4
ATOM      4  N   UNL A   1      33.738  27.847  24.828  1.00  0.00    -0.352 N 
ATOM      5  C   UNL A   1      33.195  27.005  23.922  1.00  0.00     0.251 C 
ATOM      6  O   UNL A   1      32.953  27.515  22.822  1.00  0.00    -0.270 OA
ATOM      7  H   UNL A   1      33.838  28.754  24.458  1.00  0.00     0.163 HD
BRANCH   5   8
ATOM      8  C   UNL A   1      32.865  25.566  24.154  1.00  0.00     0.067 C 
ATOM      9  C   UNL A   1      33.281  20.537  24.741  1.00  0.00    -0.026 A 
ATOM     10  C   UNL A   1      32.211  21.449  24.602  1.00  0.00     0.052 A 
ATOM     11  C   UNL A   1      34.582  21.068  24.703  1.00  0.00     0.045 A 
ATOM     12  C   UNL A   1      32.425  22.814  24.420  1.00  0.00     0.128 A 
ATOM     13  C   UNL A   1      34.790  22.444  24.508  1.00  0.00     0.032 A 
ATOM     14  Cl  UNL A   1      36.025  20.144  24.897  1.00  0.00    -0.084 Cl
ATOM     15  C   UNL A   1      33.714  23.318  24.368  1.00  0.00     0.019 A 
ATOM     16  O   UNL A   1      31.315  23.589  24.266  1.00  0.00    -0.475 OA
ATOM     17  C   UNL A   1      33.925  24.738  24.139  1.00  0.00     0.025 C 
ATOM     18  C   UNL A   1      31.486  25.027  24.421  1.00  0.00     0.314 C 
BRANCH   9  19
ATOM     19  C   UNL A   1      32.868  19.097  24.999  1.00  0.00     0.037 C 
BRANCH  19  20
ATOM     20  C   UNL A   1      32.477  18.180  23.836  1.00  0.00     0.001 C 
ATOM     21  C   UNL A   1      33.610  17.242  23.436  1.00  0.00     0.004 C 
ENDBRANCH  19  20
ENDBRANCH   9  19
BRANCH  18  22
ATOM     22  C   UNL A   1      30.922  25.445  25.790  1.00  0.00     0.429 C 
ATOM     23  F   UNL A   1      30.437  26.707  25.793  1.00  0.00    -0.167 F 
ATOM     24  F   UNL A   1      29.922  24.642  26.216  1.00  0.00    -0.167 F 
ATOM     25  F   UNL A   1      31.893  25.383  26.737  1.00  0.00    -0.167 F 
ENDBRANCH  18  22
ENDBRANCH   5   8
ENDBRANCH   3   4
ENDBRANCH   2   3
ENDBRANCH   1   2
BRANCH   1  26
ATOM     26  C   UNL A   1      32.003  30.580  26.443  1.00  0.00     0.002 C 
BRANCH  26  27
ATOM     27  C   UNL A   1      31.644  31.993  26.905  1.00  0.00     0.021 C 
BRANCH  27  28
ATOM     28  C   UNL A   1      32.801  32.785  27.499  1.00  0.00     0.116 C 
BRANCH  28  29
ATOM     29  N   UNL A   1      32.476  34.186  27.705  1.00  0.00    -0.352 N 
ATOM     30  C   UNL A   1      33.024  35.071  28.605  1.00  0.00     0.251 C 
ATOM     31  H   UNL A   1      31.769  34.550  27.125  1.00  0.00     0.163 HD
ATOM     32  O   UNL A   1      32.552  36.187  28.763  1.00  0.00    -0.269 OA
BRANCH  30  33
ATOM     33  C   UNL A   1      34.178  34.629  29.415  1.00  0.00     0.039 A 
ATOM     34  C   UNL A   1      35.459  34.613  28.860  1.00  0.00     0.014 A 
ATOM     35  C   UNL A   1      33.955  34.152  30.709  1.00  0.00     0.014 A 
ATOM     36  C   UNL A   1      36.487  33.965  29.535  1.00  0.00     0.010 A 
ATOM     37  C   UNL A   1      35.010  33.571  31.416  1.00  0.00     0.010 A 
ATOM     38  C   UNL A   1      36.270  33.426  30.814  1.00  0.00    -0.014 A 
BRANCH  38  39
ATOM     39  C   UNL A   1      37.367  32.696  31.498  1.00  0.00     0.031 A 
ATOM     40  C   UNL A   1      38.101  31.584  30.797  1.00  0.00     0.074 A 
ATOM     41  C   UNL A   1      37.736  33.073  32.735  1.00  0.00     0.049 A 
ATOM     42  N   UNL A   1      39.070  30.826  31.244  1.00  0.00    -0.248 NA
ATOM     43  C   UNL A   1      37.695  31.283  29.415  1.00  0.00     0.031 C 
ATOM     44  C   UNL A   1      37.115  34.153  33.503  1.00  0.00     0.029 A 
ATOM     45  N   UNL A   1      38.732  32.609  33.555  1.00  0.00    -0.354 N 
ATOM     46  C   UNL A   1      39.374  29.947  30.212  1.00  0.00     0.074 A 
ATOM     47  C   UNL A   1      38.472  30.250  29.121  1.00  0.00     0.031 C 
ATOM     48  C   UNL A   1      37.775  34.300  34.662  1.00  0.00     0.029 A 
ATOM     49  C   UNL A   1      38.819  33.285  34.746  1.00  0.00     0.049 A 
ATOM     50  H   UNL A   1      39.327  31.862  33.314  1.00  0.00     0.167 HD
ATOM     51  C   UNL A   1      40.325  28.983  30.176  1.00  0.00     0.037 A 
ATOM     52  C   UNL A   1      39.637  33.098  35.798  1.00  0.00     0.037 A 
ATOM     53  C   UNL A   1      41.238  28.702  31.255  1.00  0.00     0.049 A 
ATOM     54  C   UNL A   1      40.653  31.994  35.749  1.00  0.00     0.074 A 
ATOM     55  C   UNL A   1      42.246  27.755  31.308  1.00  0.00     0.029 A 
ATOM     56  N   UNL A   1      41.255  29.372  32.469  1.00  0.00    -0.354 N 
ATOM     57  N   UNL A   1      40.918  31.159  34.775  1.00  0.00    -0.248 NA
ATOM     58  C   UNL A   1      41.473  31.796  36.952  1.00  0.00     0.031 C 
ATOM     59  C   UNL A   1      42.848  27.826  32.567  1.00  0.00     0.029 A 
ATOM     60  C   UNL A   1      42.245  28.846  33.284  1.00  0.00     0.049 A 
ATOM     61  H   UNL A   1      40.653  30.111  32.716  1.00  0.00     0.167 HD
ATOM     62  C   UNL A   1      41.937  30.342  35.240  1.00  0.00     0.074 A 
ATOM     63  C   UNL A   1      42.259  30.795  36.578  1.00  0.00     0.031 C 
ATOM     64  C   UNL A   1      42.547  29.305  34.617  1.00  0.00     0.037 A 
BRANCH  51  65
ATOM     65  C   UNL A   1      40.431  28.147  28.935  1.00  0.00     0.064 A 
ATOM     66  C   UNL A   1      39.733  26.938  28.802  1.00  0.00     0.173 A 
ATOM     67  C   UNL A   1      41.186  28.593  27.840  1.00  0.00     0.173 A 
ATOM     68  F   UNL A   1      39.008  26.460  29.824  1.00  0.00    -0.203 F 
ATOM     69  C   UNL A   1      39.796  26.201  27.622  1.00  0.00     0.198 A 
ATOM     70  C   UNL A   1      41.227  27.866  26.653  1.00  0.00     0.198 A 
ATOM     71  F   UNL A   1      41.869  29.745  27.914  1.00  0.00    -0.203 F 
ATOM     72  F   UNL A   1      39.145  25.033  27.527  1.00  0.00    -0.200 F 
ATOM     73  C   UNL A   1      40.536  26.670  26.545  1.00  0.00     0.200 A 
ATOM     74  F   UNL A   1      41.933  28.327  25.610  1.00  0.00    -0.200 F 
ATOM     75  F   UNL A   1      40.583  25.966  25.406  1.00  0.00    -0.200 F 
ENDBRANCH  51  65
BRANCH  52  76
ATOM     76  C   UNL A   1      39.518  33.986  36.982  1.00  0.00     0.064 A 
ATOM     77  C   UNL A   1      40.128  35.246  36.999  1.00  0.00     0.173 A 
ATOM     78  C   UNL A   1      38.758  33.610  38.100  1.00  0.00     0.173 A 
ATOM     79  F   UNL A   1      40.881  35.639  35.962  1.00  0.00    -0.203 F 
ATOM     80  C   UNL A   1      39.982  36.099  38.092  1.00  0.00     0.198 A 
ATOM     81  C   UNL A   1      38.591  34.473  39.178  1.00  0.00     0.198 A 
ATOM     82  F   UNL A   1      38.151  32.414  38.128  1.00  0.00    -0.203 F 
ATOM     83  F   UNL A   1      40.596  37.289  38.095  1.00  0.00    -0.200 F 
ATOM     84  C   UNL A   1      39.205  35.716  39.176  1.00  0.00     0.200 A 
ATOM     85  F   UNL A   1      37.826  34.106  40.216  1.00  0.00    -0.200 F 
ATOM     86  F   UNL A   1      39.052  36.544  40.217  1.00  0.00    -0.200 F 
ENDBRANCH  52  76
BRANCH  64  87
ATOM     87  C   UNL A   1      43.629  28.591  35.370  1.00  0.00     0.064 A 
ATOM     88  C   UNL A   1      44.974  28.966  35.244  1.00  0.00     0.173 A 
ATOM     89  C   UNL A   1      43.312  27.558  36.264  1.00  0.00     0.173 A 
ATOM     90  F   UNL A   1      45.327  29.938  34.389  1.00  0.00    -0.203 F 
ATOM     91  C   UNL A   1      45.967  28.319  35.975  1.00  0.00     0.198 A 
ATOM     92  C   UNL A   1      44.304  26.932  37.012  1.00  0.00     0.198 A 
ATOM     93  F   UNL A   1      42.039  27.168  36.424  1.00  0.00    -0.203 F 
ATOM     94  F   UNL A   1      47.250  28.669  35.812  1.00  0.00    -0.200 F 
ATOM     95  C   UNL A   1      45.631  27.309  36.863  1.00  0.00     0.200 A 
ATOM     96  F   UNL A   1      43.977  25.964  37.879  1.00  0.00    -0.200 F 
ATOM     97  F   UNL A   1      46.587  26.694  37.574  1.00  0.00    -0.200 F 
ENDBRANCH  64  87
ENDBRANCH  38  39
ENDBRANCH  30  33
ENDBRANCH  28  29
ENDBRANCH  27  28
ENDBRANCH  26  27
ENDBRANCH   1  26
TORSDOF 16
ENDMDL
