MODEL 1
REMARK VINA RESULT:     -11.9      0.000      0.000
REMARK SMILES COc1cc(OC)cc(-c2ccc(C(=O)NCCCCCCNC(=O)c3ccc(-c4c5nc(c(-c6c(F)c(F)c(F)c(F)c6F)c6ccc([nH]6)c(-c6c(F)c(F)c(F)c(F)c6F)c6nc(c(-c7c(F)c(F)c(F)c(F)c7F)c7ccc4[nH]7)C=C6)C=C5)cc3)o2)c1
REMARK SMILES IDX 19 1 18 2 17 3 16 4 14 5 15 6 13 8 10 9 11 10 89 11 12 12
REMARK SMILES IDX 9 13 3 14 4 15 90 16 5 17 8 18 2 19 1 20 6 21 7 22 20 23
REMARK SMILES IDX 21 24 22 25 23 26 24 27 25 29 26 30 27 31 88 32 28 33 87 34
REMARK SMILES IDX 29 35 30 36 31 37 81 38 32 39 86 40 80 41 82 42 33 43 85 44
REMARK SMILES IDX 79 45 78 46 34 48 66 49 46 50 65 51 47 52 50 53 64 54 83 55
REMARK SMILES IDX 48 56 49 57 63 59 84 60 51 61 35 62 36 63 44 64 37 65 38 66
REMARK SMILES IDX 42 67 45 68 39 69 40 70 43 71 41 72 67 73 68 74 76 75 69 76
REMARK SMILES IDX 70 77 74 78 77 79 71 80 72 81 75 82 73 83 52 84 53 85 61 86
REMARK SMILES IDX 54 87 55 88 59 89 62 90 56 91 57 92 60 93 58 94
REMARK H PARENT 16 7 23 28 82 47 50 58
REMARK Flexibility Score: inf
ROOT
ATOM      1  C   UNL A   1      32.463  29.806  25.980  1.00  0.00     0.002 C 
ENDROOT
BRANCH   1   2
ATOM      2  C   UNL A   1      33.171  29.196  24.763  1.00  0.00     0.021 C 
BRANCH   2   3
ATOM      3  C   UNL A   1      32.355  28.105  24.067  1.00  0.00     0.116 C 
BRANCH   3   4
ATOM      4  N   UNL A   1      33.013  27.655  22.859  1.00  0.00    -0.349 N 
ATOM      5  C   UNL A   1      33.011  26.437  22.217  1.00  0.00     0.287 C 
ATOM      6  O   UNL A   1      33.628  26.401  21.150  1.00  0.00    -0.266 OA
ATOM      7  H   UNL A   1      33.560  28.344  22.417  1.00  0.00     0.163 HD
BRANCH   5   8
ATOM      8  C   UNL A   1      32.311  25.289  22.765  1.00  0.00     0.192 A 
ATOM      9  C   UNL A   1      32.266  23.265  23.661  1.00  0.00     0.135 A 
ATOM     10  C   UNL A   1      30.954  23.650  23.525  1.00  0.00     0.052 A 
ATOM     11  O   UNL A   1      33.093  24.242  23.209  1.00  0.00    -0.451 OA
ATOM     12  C   UNL A   1      30.985  24.965  23.004  1.00  0.00     0.057 A 
BRANCH   9  13
ATOM     13  C   UNL A   1      32.891  22.095  24.243  1.00  0.00     0.025 A 
ATOM     14  C   UNL A   1      34.876  20.820  24.781  1.00  0.00     0.123 A 
ATOM     15  C   UNL A   1      34.071  19.714  25.065  1.00  0.00     0.092 A 
ATOM     16  C   UNL A   1      34.284  22.009  24.352  1.00  0.00     0.058 A 
ATOM     17  C   UNL A   1      32.680  19.792  24.965  1.00  0.00     0.123 A 
ATOM     18  C   UNL A   1      32.091  20.995  24.581  1.00  0.00     0.058 A 
BRANCH  14  19
ATOM     19  O   UNL A   1      36.223  20.604  24.885  1.00  0.00    -0.497 OA
ATOM     20  C   UNL A   1      36.970  21.647  25.500  1.00  0.00     0.278 C 
ENDBRANCH  14  19
BRANCH  17  21
ATOM     21  O   UNL A   1      32.012  18.633  25.249  1.00  0.00    -0.497 OA
ATOM     22  C   UNL A   1      32.811  17.510  25.609  1.00  0.00     0.278 C 
ENDBRANCH  17  21
ENDBRANCH   9  13
ENDBRANCH   5   8
ENDBRANCH   3   4
ENDBRANCH   2   3
ENDBRANCH   1   2
BRANCH   1  23
ATOM     23  C   UNL A   1      31.251  30.690  25.654  1.00  0.00     0.002 C 
BRANCH  23  24
ATOM     24  C   UNL A   1      31.180  32.017  26.417  1.00  0.00     0.021 C 
BRANCH  24  25
ATOM     25  C   UNL A   1      32.515  32.509  26.969  1.00  0.00     0.116 C 
BRANCH  25  26
ATOM     26  N   UNL A   1      32.431  33.875  27.457  1.00  0.00    -0.352 N 
ATOM     27  C   UNL A   1      33.117  34.494  28.468  1.00  0.00     0.251 C 
ATOM     28  H   UNL A   1      31.778  34.445  26.987  1.00  0.00     0.163 HD
ATOM     29  O   UNL A   1      32.757  35.602  28.858  1.00  0.00    -0.269 OA
BRANCH  27  30
ATOM     30  C   UNL A   1      34.283  33.841  29.104  1.00  0.00     0.039 A 
ATOM     31  C   UNL A   1      35.562  34.297  28.772  1.00  0.00     0.014 A 
ATOM     32  C   UNL A   1      34.134  32.750  29.967  1.00  0.00     0.014 A 
ATOM     33  C   UNL A   1      36.687  33.684  29.328  1.00  0.00     0.010 A 
ATOM     34  C   UNL A   1      35.254  32.179  30.571  1.00  0.00     0.010 A 
ATOM     35  C   UNL A   1      36.542  32.631  30.246  1.00  0.00    -0.014 A 
BRANCH  35  36
ATOM     36  C   UNL A   1      37.738  31.997  30.855  1.00  0.00     0.031 A 
ATOM     37  C   UNL A   1      38.176  32.369  32.246  1.00  0.00     0.074 A 
ATOM     38  C   UNL A   1      38.443  31.097  30.145  1.00  0.00     0.049 A 
ATOM     39  N   UNL A   1      39.173  31.899  32.953  1.00  0.00    -0.248 NA
ATOM     40  C   UNL A   1      37.410  33.426  32.923  1.00  0.00     0.031 C 
ATOM     41  C   UNL A   1      38.155  30.695  28.767  1.00  0.00     0.029 A 
ATOM     42  N   UNL A   1      39.546  30.353  30.483  1.00  0.00    -0.354 N 
ATOM     43  C   UNL A   1      39.162  32.609  34.145  1.00  0.00     0.074 A 
ATOM     44  C   UNL A   1      38.089  33.575  34.051  1.00  0.00     0.031 C 
ATOM     45  C   UNL A   1      39.033  29.752  28.390  1.00  0.00     0.029 A 
ATOM     46  C   UNL A   1      39.959  29.498  29.491  1.00  0.00     0.049 A 
ATOM     47  H   UNL A   1      39.998  30.425  31.355  1.00  0.00     0.167 HD
ATOM     48  C   UNL A   1      39.958  32.454  35.230  1.00  0.00     0.037 A 
ATOM     49  C   UNL A   1      40.962  28.601  29.477  1.00  0.00     0.037 A 
ATOM     50  C   UNL A   1      41.001  31.467  35.337  1.00  0.00     0.049 A 
ATOM     51  C   UNL A   1      41.806  28.425  30.709  1.00  0.00     0.074 A 
ATOM     52  C   UNL A   1      41.811  31.179  36.422  1.00  0.00     0.029 A 
ATOM     53  N   UNL A   1      41.375  30.602  34.319  1.00  0.00    -0.354 N 
ATOM     54  N   UNL A   1      41.728  29.041  31.863  1.00  0.00    -0.248 NA
ATOM     55  C   UNL A   1      42.870  27.414  30.640  1.00  0.00     0.031 C 
ATOM     56  C   UNL A   1      42.701  30.166  36.047  1.00  0.00     0.029 A 
ATOM     57  C   UNL A   1      42.417  29.793  34.744  1.00  0.00     0.049 A 
ATOM     58  H   UNL A   1      40.962  30.569  33.426  1.00  0.00     0.167 HD
ATOM     59  C   UNL A   1      42.708  28.474  32.665  1.00  0.00     0.074 A 
ATOM     60  C   UNL A   1      43.357  27.450  31.872  1.00  0.00     0.031 C 
ATOM     61  C   UNL A   1      43.045  28.775  33.944  1.00  0.00     0.037 A 
BRANCH  48  62
ATOM     62  C   UNL A   1      39.733  33.371  36.397  1.00  0.00     0.064 A 
ATOM     63  C   UNL A   1      40.380  34.611  36.495  1.00  0.00     0.173 A 
ATOM     64  C   UNL A   1      38.822  33.025  37.407  1.00  0.00     0.173 A 
ATOM     65  F   UNL A   1      41.269  34.984  35.562  1.00  0.00    -0.203 F 
ATOM     66  C   UNL A   1      40.143  35.461  37.573  1.00  0.00     0.198 A 
ATOM     67  C   UNL A   1      38.567  33.889  38.469  1.00  0.00     0.198 A 
ATOM     68  F   UNL A   1      38.172  31.853  37.359  1.00  0.00    -0.203 F 
ATOM     69  F   UNL A   1      40.806  36.622  37.667  1.00  0.00    -0.200 F 
ATOM     70  C   UNL A   1      39.232  35.103  38.554  1.00  0.00     0.200 A 
ATOM     71  F   UNL A   1      37.677  33.546  39.412  1.00  0.00    -0.200 F 
ATOM     72  F   UNL A   1      38.999  35.925  39.586  1.00  0.00    -0.200 F 
ENDBRANCH  48  62
BRANCH  49  73
ATOM     73  C   UNL A   1      41.193  27.760  28.275  1.00  0.00     0.064 A 
ATOM     74  C   UNL A   1      40.575  26.508  28.147  1.00  0.00     0.173 A 
ATOM     75  C   UNL A   1      42.045  28.177  27.243  1.00  0.00     0.173 A 
ATOM     76  F   UNL A   1      39.768  26.059  29.119  1.00  0.00    -0.203 F 
ATOM     77  C   UNL A   1      40.821  25.693  27.044  1.00  0.00     0.198 A 
ATOM     78  C   UNL A   1      42.269  27.373  26.127  1.00  0.00     0.198 A 
ATOM     79  F   UNL A   1      42.655  29.369  27.315  1.00  0.00    -0.203 F 
ATOM     80  F   UNL A   1      40.256  24.480  26.972  1.00  0.00    -0.200 F 
ATOM     81  C   UNL A   1      41.665  26.128  26.033  1.00  0.00     0.200 A 
ATOM     82  F   UNL A   1      43.074  27.800  25.146  1.00  0.00    -0.200 F 
ATOM     83  F   UNL A   1      41.902  25.344  24.974  1.00  0.00    -0.200 F 
ENDBRANCH  49  73
BRANCH  61  84
ATOM     84  C   UNL A   1      44.141  27.961  34.568  1.00  0.00     0.064 A 
ATOM     85  C   UNL A   1      45.478  28.380  34.533  1.00  0.00     0.173 A 
ATOM     86  C   UNL A   1      43.846  26.750  35.212  1.00  0.00     0.173 A 
ATOM     87  F   UNL A   1      45.813  29.522  33.914  1.00  0.00    -0.203 F 
ATOM     88  C   UNL A   1      46.487  27.598  35.090  1.00  0.00     0.198 A 
ATOM     89  C   UNL A   1      44.854  25.986  35.794  1.00  0.00     0.198 A 
ATOM     90  F   UNL A   1      42.582  26.309  35.279  1.00  0.00    -0.203 F 
ATOM     91  F   UNL A   1      47.766  27.989  34.993  1.00  0.00    -0.200 F 
ATOM     92  C   UNL A   1      46.174  26.404  35.723  1.00  0.00     0.200 A 
ATOM     93  F   UNL A   1      44.548  24.838  36.415  1.00  0.00    -0.200 F 
ATOM     94  F   UNL A   1      47.147  25.651  36.254  1.00  0.00    -0.200 F 
ENDBRANCH  61  84
ENDBRANCH  35  36
ENDBRANCH  27  30
ENDBRANCH  25  26
ENDBRANCH  24  25
ENDBRANCH  23  24
ENDBRANCH   1  23
TORSDOF 16
ENDMDL
MODEL 2
REMARK VINA RESULT:     -11.8      0.343      2.100
REMARK SMILES COc1cc(OC)cc(-c2ccc(C(=O)NCCCCCCNC(=O)c3ccc(-c4c5nc(c(-c6c(F)c(F)c(F)c(F)c6F)c6ccc([nH]6)c(-c6c(F)c(F)c(F)c(F)c6F)c6nc(c(-c7c(F)c(F)c(F)c(F)c7F)c7ccc4[nH]7)C=C6)C=C5)cc3)o2)c1
REMARK SMILES IDX 19 1 18 2 17 3 16 4 14 5 15 6 13 8 10 9 11 10 89 11 12 12
REMARK SMILES IDX 9 13 3 14 4 15 90 16 5 17 8 18 2 19 1 20 6 21 7 22 20 23
REMARK SMILES IDX 21 24 22 25 23 26 24 27 25 29 26 30 27 31 88 32 28 33 87 34
REMARK SMILES IDX 29 35 30 36 31 37 81 38 32 39 86 40 80 41 82 42 33 43 85 44
REMARK SMILES IDX 79 45 78 46 34 48 66 49 46 50 65 51 47 52 50 53 64 54 83 55
REMARK SMILES IDX 48 56 49 57 63 59 84 60 51 61 35 62 36 63 44 64 37 65 38 66
REMARK SMILES IDX 42 67 45 68 39 69 40 70 43 71 41 72 67 73 68 74 76 75 69 76
REMARK SMILES IDX 70 77 74 78 77 79 71 80 72 81 75 82 73 83 52 84 53 85 61 86
REMARK SMILES IDX 54 87 55 88 59 89 62 90 56 91 57 92 60 93 58 94
REMARK H PARENT 16 7 23 28 82 47 50 58
REMARK Flexibility Score: inf
ROOT
ATOM      1  C   UNL A   1      31.779  29.542  26.270  1.00  0.00     0.002 C 
ENDROOT
BRANCH   1   2
ATOM      2  C   UNL A   1      31.808  28.250  25.443  1.00  0.00     0.021 C 
BRANCH   2   3
ATOM      3  C   UNL A   1      33.214  27.676  25.257  1.00  0.00     0.116 C 
BRANCH   3   4
ATOM      4  N   UNL A   1      33.588  27.662  23.858  1.00  0.00    -0.349 N 
ATOM      5  C   UNL A   1      33.313  26.768  22.848  1.00  0.00     0.287 C 
ATOM      6  O   UNL A   1      33.727  27.088  21.731  1.00  0.00    -0.266 OA
ATOM      7  H   UNL A   1      34.138  28.430  23.580  1.00  0.00     0.163 HD
BRANCH   5   8
ATOM      8  C   UNL A   1      32.571  25.544  23.096  1.00  0.00     0.192 A 
ATOM      9  C   UNL A   1      32.454  23.380  23.546  1.00  0.00     0.135 A 
ATOM     10  C   UNL A   1      31.157  23.809  23.402  1.00  0.00     0.052 A 
ATOM     11  O   UNL A   1      33.315  24.414  23.366  1.00  0.00    -0.451 OA
ATOM     12  C   UNL A   1      31.230  25.203  23.169  1.00  0.00     0.057 A 
BRANCH   9  13
ATOM     13  C   UNL A   1      33.030  22.104  23.915  1.00  0.00     0.025 A 
ATOM     14  C   UNL A   1      32.767  19.779  24.534  1.00  0.00     0.123 A 
ATOM     15  C   UNL A   1      34.106  19.749  24.933  1.00  0.00     0.092 A 
ATOM     16  C   UNL A   1      32.224  20.965  24.039  1.00  0.00     0.058 A 
ATOM     17  C   UNL A   1      34.920  20.877  24.807  1.00  0.00     0.123 A 
ATOM     18  C   UNL A   1      34.385  22.046  24.270  1.00  0.00     0.058 A 
BRANCH  14  19
ATOM     19  O   UNL A   1      32.071  18.620  24.740  1.00  0.00    -0.497 OA
ATOM     20  C   UNL A   1      32.681  17.680  25.616  1.00  0.00     0.278 C 
ENDBRANCH  14  19
BRANCH  17  21
ATOM     21  O   UNL A   1      36.202  20.721  25.255  1.00  0.00    -0.497 OA
ATOM     22  C   UNL A   1      36.949  21.914  25.472  1.00  0.00     0.278 C 
ENDBRANCH  17  21
ENDBRANCH   9  13
ENDBRANCH   5   8
ENDBRANCH   3   4
ENDBRANCH   2   3
ENDBRANCH   1   2
BRANCH   1  23
ATOM     23  C   UNL A   1      31.256  30.779  25.528  1.00  0.00     0.002 C 
BRANCH  23  24
ATOM     24  C   UNL A   1      31.132  32.050  26.375  1.00  0.00     0.021 C 
BRANCH  24  25
ATOM     25  C   UNL A   1      32.414  32.470  27.090  1.00  0.00     0.116 C 
BRANCH  25  26
ATOM     26  N   UNL A   1      32.366  33.856  27.523  1.00  0.00    -0.352 N 
ATOM     27  C   UNL A   1      33.119  34.513  28.459  1.00  0.00     0.251 C 
ATOM     28  H   UNL A   1      31.684  34.408  27.075  1.00  0.00     0.163 HD
ATOM     29  O   UNL A   1      32.789  35.638  28.824  1.00  0.00    -0.269 OA
BRANCH  27  30
ATOM     30  C   UNL A   1      34.324  33.882  29.042  1.00  0.00     0.039 A 
ATOM     31  C   UNL A   1      34.157  32.976  30.092  1.00  0.00     0.014 A 
ATOM     32  C   UNL A   1      35.612  34.220  28.611  1.00  0.00     0.014 A 
ATOM     33  C   UNL A   1      35.273  32.385  30.688  1.00  0.00     0.010 A 
ATOM     34  C   UNL A   1      36.723  33.582  29.163  1.00  0.00     0.010 A 
ATOM     35  C   UNL A   1      36.565  32.670  30.217  1.00  0.00    -0.014 A 
BRANCH  35  36
ATOM     36  C   UNL A   1      37.749  32.021  30.835  1.00  0.00     0.031 A 
ATOM     37  C   UNL A   1      38.173  32.378  32.234  1.00  0.00     0.074 A 
ATOM     38  C   UNL A   1      38.456  31.122  30.125  1.00  0.00     0.049 A 
ATOM     39  N   UNL A   1      39.158  31.894  32.948  1.00  0.00    -0.248 NA
ATOM     40  C   UNL A   1      37.407  33.435  32.911  1.00  0.00     0.031 C 
ATOM     41  C   UNL A   1      38.181  30.736  28.740  1.00  0.00     0.029 A 
ATOM     42  N   UNL A   1      39.549  30.368  30.469  1.00  0.00    -0.354 N 
ATOM     43  C   UNL A   1      39.138  32.594  34.147  1.00  0.00     0.074 A 
ATOM     44  C   UNL A   1      38.073  33.569  34.048  1.00  0.00     0.031 C 
ATOM     45  C   UNL A   1      39.057  29.790  28.365  1.00  0.00     0.029 A 
ATOM     46  C   UNL A   1      39.968  29.519  29.474  1.00  0.00     0.049 A 
ATOM     47  H   UNL A   1      39.991  30.429  31.347  1.00  0.00     0.167 HD
ATOM     48  C   UNL A   1      39.920  32.423  35.239  1.00  0.00     0.037 A 
ATOM     49  C   UNL A   1      40.964  28.614  29.464  1.00  0.00     0.037 A 
ATOM     50  C   UNL A   1      40.954  31.427  35.350  1.00  0.00     0.049 A 
ATOM     51  C   UNL A   1      41.792  28.421  30.705  1.00  0.00     0.074 A 
ATOM     52  C   UNL A   1      41.749  31.123  36.442  1.00  0.00     0.029 A 
ATOM     53  N   UNL A   1      41.334  30.569  34.329  1.00  0.00    -0.354 N 
ATOM     54  N   UNL A   1      41.705  29.027  31.863  1.00  0.00    -0.248 NA
ATOM     55  C   UNL A   1      42.850  27.403  30.639  1.00  0.00     0.031 C 
ATOM     56  C   UNL A   1      42.636  30.107  36.069  1.00  0.00     0.029 A 
ATOM     57  C   UNL A   1      42.365  29.748  34.759  1.00  0.00     0.049 A 
ATOM     58  H   UNL A   1      40.931  30.546  33.431  1.00  0.00     0.167 HD
ATOM     59  C   UNL A   1      42.671  28.446  32.672  1.00  0.00     0.074 A 
ATOM     60  C   UNL A   1      43.322  27.424  31.877  1.00  0.00     0.031 C 
ATOM     61  C   UNL A   1      42.995  28.733  33.957  1.00  0.00     0.037 A 
BRANCH  48  62
ATOM     62  C   UNL A   1      39.687  33.331  36.412  1.00  0.00     0.064 A 
ATOM     63  C   UNL A   1      38.833  32.969  37.464  1.00  0.00     0.173 A 
ATOM     64  C   UNL A   1      40.363  34.557  36.509  1.00  0.00     0.173 A 
ATOM     65  F   UNL A   1      38.154  31.813  37.415  1.00  0.00    -0.203 F 
ATOM     66  C   UNL A   1      38.644  33.811  38.557  1.00  0.00     0.198 A 
ATOM     67  C   UNL A   1      40.193  35.384  37.616  1.00  0.00     0.198 A 
ATOM     68  F   UNL A   1      41.196  34.948  35.533  1.00  0.00    -0.203 F 
ATOM     69  F   UNL A   1      37.790  33.464  39.529  1.00  0.00    -0.200 F 
ATOM     70  C   UNL A   1      39.329  35.014  38.636  1.00  0.00     0.200 A 
ATOM     71  F   UNL A   1      40.865  36.541  37.696  1.00  0.00    -0.200 F 
ATOM     72  F   UNL A   1      39.153  35.819  39.692  1.00  0.00    -0.200 F 
ENDBRANCH  48  62
BRANCH  49  73
ATOM     73  C   UNL A   1      41.204  27.782  28.257  1.00  0.00     0.064 A 
ATOM     74  C   UNL A   1      40.613  26.517  28.130  1.00  0.00     0.173 A 
ATOM     75  C   UNL A   1      42.037  28.222  27.219  1.00  0.00     0.173 A 
ATOM     76  F   UNL A   1      39.824  26.047  29.108  1.00  0.00    -0.203 F 
ATOM     77  C   UNL A   1      40.867  25.712  27.023  1.00  0.00     0.198 A 
ATOM     78  C   UNL A   1      42.269  27.426  26.099  1.00  0.00     0.198 A 
ATOM     79  F   UNL A   1      42.621  29.426  27.291  1.00  0.00    -0.203 F 
ATOM     80  F   UNL A   1      40.329  24.487  26.951  1.00  0.00    -0.200 F 
ATOM     81  C   UNL A   1      41.692  26.168  26.006  1.00  0.00     0.200 A 
ATOM     82  F   UNL A   1      43.057  27.875  25.112  1.00  0.00    -0.200 F 
ATOM     83  F   UNL A   1      41.938  25.393  24.942  1.00  0.00    -0.200 F 
ENDBRANCH  49  73
BRANCH  61  84
ATOM     84  C   UNL A   1      44.077  27.905  34.587  1.00  0.00     0.064 A 
ATOM     85  C   UNL A   1      43.791  26.703  35.249  1.00  0.00     0.173 A 
ATOM     86  C   UNL A   1      45.416  28.318  34.521  1.00  0.00     0.173 A 
ATOM     87  F   UNL A   1      42.524  26.273  35.353  1.00  0.00    -0.203 F 
ATOM     88  C   UNL A   1      44.802  25.962  35.855  1.00  0.00     0.198 A 
ATOM     89  C   UNL A   1      46.428  27.559  35.102  1.00  0.00     0.198 A 
ATOM     90  F   UNL A   1      45.743  29.457  33.892  1.00  0.00    -0.203 F 
ATOM     91  F   UNL A   1      44.499  24.847  36.534  1.00  0.00    -0.200 F 
ATOM     92  C   UNL A   1      46.120  26.388  35.777  1.00  0.00     0.200 A 
ATOM     93  F   UNL A   1      47.702  27.968  35.017  1.00  0.00    -0.200 F 
ATOM     94  F   UNL A   1      47.091  25.676  36.364  1.00  0.00    -0.200 F 
ENDBRANCH  61  84
ENDBRANCH  35  36
ENDBRANCH  27  30
ENDBRANCH  25  26
ENDBRANCH  24  25
ENDBRANCH  23  24
ENDBRANCH   1  23
TORSDOF 16
ENDMDL
MODEL 3
REMARK VINA RESULT:     -11.6      1.977      3.620
REMARK SMILES COc1cc(OC)cc(-c2ccc(C(=O)NCCCCCCNC(=O)c3ccc(-c4c5nc(c(-c6c(F)c(F)c(F)c(F)c6F)c6ccc([nH]6)c(-c6c(F)c(F)c(F)c(F)c6F)c6nc(c(-c7c(F)c(F)c(F)c(F)c7F)c7ccc4[nH]7)C=C6)C=C5)cc3)o2)c1
REMARK SMILES IDX 19 1 18 2 17 3 16 4 14 5 15 6 13 8 10 9 11 10 89 11 12 12
REMARK SMILES IDX 9 13 3 14 4 15 90 16 5 17 8 18 2 19 1 20 6 21 7 22 20 23
REMARK SMILES IDX 21 24 22 25 23 26 24 27 25 29 26 30 27 31 88 32 28 33 87 34
REMARK SMILES IDX 29 35 30 36 31 37 81 38 32 39 86 40 80 41 82 42 33 43 85 44
REMARK SMILES IDX 79 45 78 46 34 48 66 49 46 50 65 51 47 52 50 53 64 54 83 55
REMARK SMILES IDX 48 56 49 57 63 59 84 60 51 61 35 62 36 63 44 64 37 65 38 66
REMARK SMILES IDX 42 67 45 68 39 69 40 70 43 71 41 72 67 73 68 74 76 75 69 76
REMARK SMILES IDX 70 77 74 78 77 79 71 80 72 81 75 82 73 83 52 84 53 85 61 86
REMARK SMILES IDX 54 87 55 88 59 89 62 90 56 91 57 92 60 93 58 94
REMARK H PARENT 16 7 23 28 82 47 50 58
REMARK Flexibility Score: inf
ROOT
ATOM      1  C   UNL A   1      33.851  33.298  28.831  1.00  0.00     0.002 C 
ENDROOT
BRANCH   1   2
ATOM      2  C   UNL A   1      34.884  32.249  28.397  1.00  0.00     0.021 C 
BRANCH   2   3
ATOM      3  C   UNL A   1      34.271  31.066  27.645  1.00  0.00     0.116 C 
BRANCH   3   4
ATOM      4  N   UNL A   1      33.058  31.458  26.959  1.00  0.00    -0.349 N 
ATOM      5  C   UNL A   1      31.989  30.723  26.500  1.00  0.00     0.287 C 
ATOM      6  O   UNL A   1      31.065  31.379  26.014  1.00  0.00    -0.266 OA
ATOM      7  H   UNL A   1      32.986  32.426  26.790  1.00  0.00     0.163 HD
BRANCH   5   8
ATOM      8  C   UNL A   1      31.960  29.274  26.605  1.00  0.00     0.192 A 
ATOM      9  C   UNL A   1      32.389  27.244  25.834  1.00  0.00     0.135 A 
ATOM     10  C   UNL A   1      31.737  27.067  27.031  1.00  0.00     0.052 A 
ATOM     11  O   UNL A   1      32.531  28.568  25.567  1.00  0.00    -0.451 OA
ATOM     12  C   UNL A   1      31.512  28.364  27.549  1.00  0.00     0.057 A 
BRANCH   9  13
ATOM     13  C   UNL A   1      32.989  26.318  24.896  1.00  0.00     0.025 A 
ATOM     14  C   UNL A   1      33.545  25.690  22.627  1.00  0.00     0.123 A 
ATOM     15  C   UNL A   1      33.847  24.401  23.073  1.00  0.00     0.092 A 
ATOM     16  C   UNL A   1      33.098  26.647  23.539  1.00  0.00     0.058 A 
ATOM     17  C   UNL A   1      33.748  24.066  24.425  1.00  0.00     0.123 A 
ATOM     18  C   UNL A   1      33.345  25.037  25.339  1.00  0.00     0.058 A 
BRANCH  14  19
ATOM     19  O   UNL A   1      33.651  25.880  21.276  1.00  0.00    -0.497 OA
ATOM     20  C   UNL A   1      32.486  25.579  20.516  1.00  0.00     0.278 C 
ENDBRANCH  14  19
BRANCH  17  21
ATOM     21  O   UNL A   1      34.050  22.767  24.725  1.00  0.00    -0.497 OA
ATOM     22  C   UNL A   1      33.343  21.766  23.999  1.00  0.00     0.278 C 
ENDBRANCH  17  21
ENDBRANCH   9  13
ENDBRANCH   5   8
ENDBRANCH   3   4
ENDBRANCH   2   3
ENDBRANCH   1   2
BRANCH   1  23
ATOM     23  C   UNL A   1      34.357  34.747  28.834  1.00  0.00     0.002 C 
BRANCH  23  24
ATOM     24  C   UNL A   1      33.268  35.824  28.880  1.00  0.00     0.021 C 
BRANCH  24  25
ATOM     25  C   UNL A   1      33.364  36.781  30.065  1.00  0.00     0.116 C 
BRANCH  25  26
ATOM     26  N   UNL A   1      32.377  36.482  31.087  1.00  0.00    -0.352 N 
ATOM     27  C   UNL A   1      32.412  35.565  32.105  1.00  0.00     0.251 C 
ATOM     28  H   UNL A   1      31.554  37.022  31.042  1.00  0.00     0.163 HD
ATOM     29  O   UNL A   1      31.391  35.327  32.744  1.00  0.00    -0.269 OA
BRANCH  27  30
ATOM     30  C   UNL A   1      33.664  34.851  32.439  1.00  0.00     0.039 A 
ATOM     31  C   UNL A   1      34.857  35.578  32.463  1.00  0.00     0.014 A 
ATOM     32  C   UNL A   1      33.685  33.470  32.665  1.00  0.00     0.014 A 
ATOM     33  C   UNL A   1      36.063  34.931  32.744  1.00  0.00     0.010 A 
ATOM     34  C   UNL A   1      34.879  32.836  33.008  1.00  0.00     0.010 A 
ATOM     35  C   UNL A   1      36.081  33.558  33.036  1.00  0.00    -0.014 A 
BRANCH  35  36
ATOM     36  C   UNL A   1      37.360  32.877  33.359  1.00  0.00     0.031 A 
ATOM     37  C   UNL A   1      38.083  33.176  34.644  1.00  0.00     0.074 A 
ATOM     38  C   UNL A   1      37.883  32.000  32.480  1.00  0.00     0.049 A 
ATOM     39  N   UNL A   1      39.192  32.657  35.110  1.00  0.00    -0.248 NA
ATOM     40  C   UNL A   1      37.499  34.213  35.508  1.00  0.00     0.031 C 
ATOM     41  C   UNL A   1      37.308  31.668  31.176  1.00  0.00     0.029 A 
ATOM     42  N   UNL A   1      39.012  31.224  32.553  1.00  0.00    -0.354 N 
ATOM     43  C   UNL A   1      39.443  33.311  36.308  1.00  0.00     0.074 A 
ATOM     44  C   UNL A   1      38.398  34.298  36.478  1.00  0.00     0.031 C 
ATOM     45  C   UNL A   1      38.066  30.730  30.587  1.00  0.00     0.029 A 
ATOM     46  C   UNL A   1      39.191  30.410  31.461  1.00  0.00     0.049 A 
ATOM     47  H   UNL A   1      39.635  31.247  33.316  1.00  0.00     0.167 HD
ATOM     48  C   UNL A   1      40.440  33.093  37.198  1.00  0.00     0.037 A 
ATOM     49  C   UNL A   1      40.147  29.498  31.203  1.00  0.00     0.037 A 
ATOM     50  C   UNL A   1      41.457  32.085  37.047  1.00  0.00     0.049 A 
ATOM     51  C   UNL A   1      41.221  29.251  32.227  1.00  0.00     0.074 A 
ATOM     52  C   UNL A   1      42.464  31.733  37.929  1.00  0.00     0.029 A 
ATOM     53  N   UNL A   1      41.593  31.263  35.938  1.00  0.00    -0.354 N 
ATOM     54  N   UNL A   1      41.396  29.813  33.397  1.00  0.00    -0.248 NA
ATOM     55  C   UNL A   1      42.223  28.227  31.897  1.00  0.00     0.031 C 
ATOM     56  C   UNL A   1      43.233  30.725  37.336  1.00  0.00     0.029 A 
ATOM     57  C   UNL A   1      42.679  30.418  36.105  1.00  0.00     0.049 A 
ATOM     58  H   UNL A   1      41.005  31.278  35.149  1.00  0.00     0.167 HD
ATOM     59  C   UNL A   1      42.505  29.193  33.956  1.00  0.00     0.074 A 
ATOM     60  C   UNL A   1      42.951  28.198  33.004  1.00  0.00     0.031 C 
ATOM     61  C   UNL A   1      43.104  29.429  35.150  1.00  0.00     0.037 A 
BRANCH  48  62
ATOM     62  C   UNL A   1      40.481  33.957  38.425  1.00  0.00     0.064 A 
ATOM     63  C   UNL A   1      41.233  35.140  38.467  1.00  0.00     0.173 A 
ATOM     64  C   UNL A   1      39.723  33.621  39.558  1.00  0.00     0.173 A 
ATOM     65  F   UNL A   1      41.984  35.500  37.415  1.00  0.00    -0.203 F 
ATOM     66  C   UNL A   1      41.243  35.944  39.605  1.00  0.00     0.198 A 
ATOM     67  C   UNL A   1      39.714  34.441  40.683  1.00  0.00     0.198 A 
ATOM     68  F   UNL A   1      38.983  32.503  39.569  1.00  0.00    -0.203 F 
ATOM     69  F   UNL A   1      42.002  37.048  39.636  1.00  0.00    -0.200 F 
ATOM     70  C   UNL A   1      40.479  35.598  40.708  1.00  0.00     0.200 A 
ATOM     71  F   UNL A   1      38.966  34.111  41.745  1.00  0.00    -0.200 F 
ATOM     72  F   UNL A   1      40.483  36.376  41.799  1.00  0.00    -0.200 F 
ENDBRANCH  48  62
BRANCH  49  73
ATOM     73  C   UNL A   1      40.106  28.711  29.944  1.00  0.00     0.064 A 
ATOM     74  C   UNL A   1      39.463  27.466  29.899  1.00  0.00     0.173 A 
ATOM     75  C   UNL A   1      40.720  29.173  28.772  1.00  0.00     0.173 A 
ATOM     76  F   UNL A   1      38.879  26.975  31.002  1.00  0.00    -0.203 F 
ATOM     77  C   UNL A   1      39.458  26.701  28.735  1.00  0.00     0.198 A 
ATOM     78  C   UNL A   1      40.691  28.418  27.601  1.00  0.00     0.198 A 
ATOM     79  F   UNL A   1      41.343  30.360  28.763  1.00  0.00    -0.203 F 
ATOM     80  F   UNL A   1      38.878  25.493  28.734  1.00  0.00    -0.200 F 
ATOM     81  C   UNL A   1      40.069  27.179  27.586  1.00  0.00     0.200 A 
ATOM     82  F   UNL A   1      41.271  28.889  26.488  1.00  0.00    -0.200 F 
ATOM     83  F   UNL A   1      40.065  26.442  26.467  1.00  0.00    -0.200 F 
ENDBRANCH  49  73
BRANCH  61  84
ATOM     84  C   UNL A   1      44.283  28.569  35.500  1.00  0.00     0.064 A 
ATOM     85  C   UNL A   1      44.130  27.355  36.185  1.00  0.00     0.173 A 
ATOM     86  C   UNL A   1      45.581  28.963  35.140  1.00  0.00     0.173 A 
ATOM     87  F   UNL A   1      42.911  26.943  36.564  1.00  0.00    -0.203 F 
ATOM     88  C   UNL A   1      45.236  26.584  36.529  1.00  0.00     0.198 A 
ATOM     89  C   UNL A   1      46.682  28.174  35.460  1.00  0.00     0.198 A 
ATOM     90  F   UNL A   1      45.780  30.112  34.478  1.00  0.00    -0.203 F 
ATOM     91  F   UNL A   1      45.072  25.457  37.236  1.00  0.00    -0.200 F 
ATOM     92  C   UNL A   1      46.511  26.991  36.164  1.00  0.00     0.200 A 
ATOM     93  F   UNL A   1      47.912  28.565  35.098  1.00  0.00    -0.200 F 
ATOM     94  F   UNL A   1      47.575  26.250  36.500  1.00  0.00    -0.200 F 
ENDBRANCH  61  84
ENDBRANCH  35  36
ENDBRANCH  27  30
ENDBRANCH  25  26
ENDBRANCH  24  25
ENDBRANCH  23  24
ENDBRANCH   1  23
TORSDOF 16
ENDMDL
