MODEL 1
REMARK VINA RESULT:     -11.4      0.000      0.000
REMARK SMILES CC(C)C[C@H](NC(=O)[C@H](Cc1ccccc1)NC(=O)CNC(=O)CNC(=O)OCc1ccccc1)C(=O)NCCCCCCNC(=O)c1ccc(-c2c3nc(c(-c4c(F)c(F)c(F)c(F)c4F)c4ccc([nH]4)c(-c4c(F)c(F)c(F)c(F)c4F)c4nc(c(-c5c(F)c(F)c(F)c(F)c5F)c5ccc2[nH]5)C=C4)C=C3)cc1
REMARK SMILES IDX 36 1 37 2 38 3 5 5 4 6 2 7 1 8 3 9 6 10 7 11 8 13 9 14 17 15
REMARK SMILES IDX 18 16 19 18 20 19 21 20 22 21 23 23 24 24 25 25 26 26 27 28
REMARK SMILES IDX 28 29 29 30 30 31 31 32 35 33 32 34 34 35 33 36 10 37 11 38
REMARK SMILES IDX 12 39 16 40 13 41 15 42 14 43 39 44 40 45 41 46 42 47 43 48
REMARK SMILES IDX 44 49 45 50 46 51 47 53 48 54 49 55 110 56 50 57 109 58
REMARK SMILES IDX 51 59 52 60 53 61 103 62 54 63 108 64 102 65 104 66 55 67
REMARK SMILES IDX 107 68 101 69 100 70 56 72 88 73 68 74 87 75 69 76 72 77
REMARK SMILES IDX 86 78 105 79 70 80 71 81 85 83 106 84 73 85 57 86 58 87
REMARK SMILES IDX 66 88 59 89 60 90 64 91 67 92 61 93 62 94 65 95 63 96 89 97
REMARK SMILES IDX 90 98 98 99 91 100 92 101 96 102 99 103 93 104 94 105 97 106
REMARK SMILES IDX 95 107 74 108 75 109 83 110 76 111 77 112 81 113 84 114
REMARK SMILES IDX 78 115 79 116 82 117 80 118
REMARK H PARENT 38 4 6 12 17 17 21 22 25 27 45 52 104 71 72 82
REMARK Flexibility Score: inf
ROOT
ATOM      1  C   UNL A   1      30.540  31.232  25.086  1.00  0.00     0.242 C 
ATOM      2  O   UNL A   1      29.434  31.439  24.580  1.00  0.00    -0.273 OA
ATOM      3  N   UNL A   1      31.154  32.298  25.729  1.00  0.00    -0.354 N 
ATOM      4  H   UNL A   1      31.367  33.100  25.200  1.00  0.00     0.163 HD
ENDROOT
BRANCH   1   5
ATOM      5  C   UNL A   1      31.329  29.908  24.768  1.00  0.00     0.171 C 
BRANCH   5   6
ATOM      6  C   UNL A   1      32.690  29.777  25.497  1.00  0.00     0.038 C 
BRANCH   6   7
ATOM      7  C   UNL A   1      32.791  29.013  26.866  1.00  0.00    -0.015 C 
ATOM      8  C   UNL A   1      32.189  27.614  27.023  1.00  0.00     0.007 C 
ATOM      9  C   UNL A   1      34.265  28.945  27.316  1.00  0.00     0.007 C 
ENDBRANCH   6   7
ENDBRANCH   5   6
BRANCH   5  10
ATOM     10  N   UNL A   1      31.386  29.520  23.374  1.00  0.00    -0.343 N 
ATOM     11  C   UNL A   1      31.236  28.298  22.816  1.00  0.00     0.243 C 
ATOM     12  H   UNL A   1      31.559  30.253  22.740  1.00  0.00     0.164 HD
ATOM     13  O   UNL A   1      30.570  28.262  21.773  1.00  0.00    -0.273 OA
BRANCH  11  14
ATOM     14  C   UNL A   1      31.824  26.981  23.367  1.00  0.00     0.175 C 
BRANCH  14  15
ATOM     15  N   UNL A   1      31.218  25.706  23.102  1.00  0.00    -0.342 N 
ATOM     16  C   UNL A   1      30.640  24.882  24.030  1.00  0.00     0.240 C 
ATOM     17  H   UNL A   1      31.219  25.395  22.168  1.00  0.00     0.164 HD
ATOM     18  O   UNL A   1      30.252  23.774  23.652  1.00  0.00    -0.273 OA
BRANCH  16  19
ATOM     19  C   UNL A   1      30.173  25.477  25.373  1.00  0.00     0.216 C 
BRANCH  19  20
ATOM     20  N   UNL A   1      29.664  24.674  26.480  1.00  0.00    -0.346 N 
ATOM     21  C   UNL A   1      29.981  23.386  26.852  1.00  0.00     0.239 C 
ATOM     22  H   UNL A   1      28.992  25.120  27.045  1.00  0.00     0.164 HD
ATOM     23  O   UNL A   1      29.177  22.800  27.579  1.00  0.00    -0.273 OA
BRANCH  21  24
ATOM     24  C   UNL A   1      31.252  22.670  26.324  1.00  0.00     0.219 C 
BRANCH  24  25
ATOM     25  N   UNL A   1      32.417  22.704  27.190  1.00  0.00    -0.312 N 
ATOM     26  C   UNL A   1      33.486  21.846  27.253  1.00  0.00     0.407 C 
ATOM     27  H   UNL A   1      32.444  23.454  27.828  1.00  0.00     0.167 HD
ATOM     28  O   UNL A   1      34.443  22.093  27.962  1.00  0.00    -0.225 OA
BRANCH  26  29
ATOM     29  O   UNL A   1      33.314  20.732  26.516  1.00  0.00    -0.445 OA
BRANCH  29  30
ATOM     30  C   UNL A   1      34.050  20.391  25.306  1.00  0.00     0.270 C 
BRANCH  30  31
ATOM     31  C   UNL A   1      33.985  19.104  24.511  1.00  0.00    -0.011 A 
ATOM     32  C   UNL A   1      32.883  18.907  23.657  1.00  0.00     0.007 A 
ATOM     33  C   UNL A   1      34.853  18.025  24.717  1.00  0.00     0.007 A 
ATOM     34  C   UNL A   1      32.703  17.705  22.969  1.00  0.00     0.000 A 
ATOM     35  C   UNL A   1      34.691  16.829  24.005  1.00  0.00     0.000 A 
ATOM     36  C   UNL A   1      33.622  16.674  23.127  1.00  0.00     0.000 A 
ENDBRANCH  30  31
ENDBRANCH  29  30
ENDBRANCH  26  29
ENDBRANCH  24  25
ENDBRANCH  21  24
ENDBRANCH  19  20
ENDBRANCH  16  19
ENDBRANCH  14  15
BRANCH  14  37
ATOM     37  C   UNL A   1      33.312  26.870  23.753  1.00  0.00     0.070 C 
BRANCH  37  38
ATOM     38  C   UNL A   1      34.039  25.538  23.884  1.00  0.00    -0.045 A 
ATOM     39  C   UNL A   1      34.660  25.297  25.120  1.00  0.00     0.004 A 
ATOM     40  C   UNL A   1      34.089  24.500  22.940  1.00  0.00     0.004 A 
ATOM     41  C   UNL A   1      35.378  24.124  25.358  1.00  0.00     0.000 A 
ATOM     42  C   UNL A   1      34.821  23.332  23.165  1.00  0.00     0.000 A 
ATOM     43  C   UNL A   1      35.480  23.150  24.370  1.00  0.00     0.000 A 
ENDBRANCH  37  38
ENDBRANCH  14  37
ENDBRANCH  11  14
ENDBRANCH   5  10
ENDBRANCH   1   5
BRANCH   3  44
ATOM     44  C   UNL A   1      31.502  32.296  27.150  1.00  0.00     0.116 C 
BRANCH  44  45
ATOM     45  C   UNL A   1      32.646  33.205  27.603  1.00  0.00     0.021 C 
BRANCH  45  46
ATOM     46  C   UNL A   1      33.961  32.496  28.017  1.00  0.00     0.002 C 
BRANCH  46  47
ATOM     47  C   UNL A   1      34.473  32.530  29.473  1.00  0.00     0.002 C 
BRANCH  47  48
ATOM     48  C   UNL A   1      34.402  33.797  30.356  1.00  0.00     0.021 C 
BRANCH  48  49
ATOM     49  C   UNL A   1      35.599  34.248  31.176  1.00  0.00     0.116 C 
BRANCH  49  50
ATOM     50  N   UNL A   1      35.676  33.602  32.462  1.00  0.00    -0.352 N 
ATOM     51  C   UNL A   1      36.488  32.579  32.890  1.00  0.00     0.251 C 
ATOM     52  H   UNL A   1      35.049  33.946  33.140  1.00  0.00     0.163 HD
ATOM     53  O   UNL A   1      36.265  32.062  33.982  1.00  0.00    -0.269 OA
BRANCH  51  54
ATOM     54  C   UNL A   1      37.604  32.050  32.059  1.00  0.00     0.039 A 
ATOM     55  C   UNL A   1      38.701  31.492  32.723  1.00  0.00     0.014 A 
ATOM     56  C   UNL A   1      37.643  32.171  30.665  1.00  0.00     0.014 A 
ATOM     57  C   UNL A   1      39.810  31.031  32.004  1.00  0.00     0.010 A 
ATOM     58  C   UNL A   1      38.727  31.652  29.940  1.00  0.00     0.010 A 
ATOM     59  C   UNL A   1      39.829  31.086  30.601  1.00  0.00    -0.014 A 
BRANCH  59  60
ATOM     60  C   UNL A   1      41.006  30.566  29.843  1.00  0.00     0.031 A 
ATOM     61  C   UNL A   1      42.190  31.450  29.545  1.00  0.00     0.074 A 
ATOM     62  C   UNL A   1      41.014  29.289  29.409  1.00  0.00     0.049 A 
ATOM     63  N   UNL A   1      43.298  31.167  28.902  1.00  0.00    -0.248 NA
ATOM     64  C   UNL A   1      42.112  32.839  30.017  1.00  0.00     0.031 C 
ATOM     65  C   UNL A   1      39.926  28.330  29.598  1.00  0.00     0.029 A 
ATOM     66  N   UNL A   1      41.966  28.577  28.718  1.00  0.00    -0.354 N 
ATOM     67  C   UNL A   1      44.042  32.341  28.889  1.00  0.00     0.074 A 
ATOM     68  C   UNL A   1      43.237  33.352  29.541  1.00  0.00     0.031 C 
ATOM     69  C   UNL A   1      40.275  27.154  29.053  1.00  0.00     0.029 A 
ATOM     70  C   UNL A   1      41.595  27.284  28.440  1.00  0.00     0.049 A 
ATOM     71  H   UNL A   1      42.833  28.959  28.447  1.00  0.00     0.167 HD
ATOM     72  C   UNL A   1      45.289  32.553  28.399  1.00  0.00     0.037 A 
ATOM     73  C   UNL A   1      42.233  26.312  27.757  1.00  0.00     0.037 A 
ATOM     74  C   UNL A   1      46.095  31.547  27.756  1.00  0.00     0.049 A 
ATOM     75  C   UNL A   1      43.602  26.580  27.193  1.00  0.00     0.074 A 
ATOM     76  C   UNL A   1      47.390  31.653  27.278  1.00  0.00     0.029 A 
ATOM     77  N   UNL A   1      45.678  30.251  27.487  1.00  0.00    -0.354 N 
ATOM     78  N   UNL A   1      44.325  27.672  27.257  1.00  0.00    -0.248 NA
ATOM     79  C   UNL A   1      44.249  25.478  26.467  1.00  0.00     0.031 C 
ATOM     80  C   UNL A   1      47.733  30.445  26.662  1.00  0.00     0.029 A 
ATOM     81  C   UNL A   1      46.678  29.560  26.816  1.00  0.00     0.049 A 
ATOM     82  H   UNL A   1      44.802  29.877  27.734  1.00  0.00     0.167 HD
ATOM     83  C   UNL A   1      45.516  27.383  26.602  1.00  0.00     0.074 A 
ATOM     84  C   UNL A   1      45.428  26.005  26.165  1.00  0.00     0.031 C 
ATOM     85  C   UNL A   1      46.584  28.189  26.382  1.00  0.00     0.037 A 
BRANCH  72  86
ATOM     86  C   UNL A   1      45.860  33.939  28.529  1.00  0.00     0.064 A 
ATOM     87  C   UNL A   1      45.733  34.890  27.504  1.00  0.00     0.173 A 
ATOM     88  C   UNL A   1      46.516  34.334  29.706  1.00  0.00     0.173 A 
ATOM     89  F   UNL A   1      45.120  34.567  26.355  1.00  0.00    -0.203 F 
ATOM     90  C   UNL A   1      46.275  36.166  27.635  1.00  0.00     0.198 A 
ATOM     91  C   UNL A   1      47.024  35.622  29.849  1.00  0.00     0.198 A 
ATOM     92  F   UNL A   1      46.654  33.473  30.725  1.00  0.00    -0.203 F 
ATOM     93  F   UNL A   1      46.193  37.036  26.619  1.00  0.00    -0.200 F 
ATOM     94  C   UNL A   1      46.914  36.534  28.810  1.00  0.00     0.200 A 
ATOM     95  F   UNL A   1      47.625  35.982  30.992  1.00  0.00    -0.200 F 
ATOM     96  F   UNL A   1      47.432  37.764  28.937  1.00  0.00    -0.200 F 
ENDBRANCH  72  86
BRANCH  73  97
ATOM     97  C   UNL A   1      41.577  24.991  27.566  1.00  0.00     0.064 A 
ATOM     98  C   UNL A   1      42.017  23.853  28.256  1.00  0.00     0.173 A 
ATOM     99  C   UNL A   1      40.494  24.839  26.687  1.00  0.00     0.173 A 
ATOM    100  F   UNL A   1      43.063  23.939  29.091  1.00  0.00    -0.203 F 
ATOM    101  C   UNL A   1      41.413  22.613  28.061  1.00  0.00     0.198 A 
ATOM    102  C   UNL A   1      39.868  23.606  26.517  1.00  0.00     0.198 A 
ATOM    103  F   UNL A   1      40.029  25.895  26.004  1.00  0.00    -0.203 F 
ATOM    104  F   UNL A   1      41.883  21.532  28.699  1.00  0.00    -0.200 F 
ATOM    105  C   UNL A   1      40.333  22.491  27.199  1.00  0.00     0.200 A 
ATOM    106  F   UNL A   1      38.815  23.498  25.697  1.00  0.00    -0.200 F 
ATOM    107  F   UNL A   1      39.746  21.301  27.019  1.00  0.00    -0.200 F 
ENDBRANCH  73  97
BRANCH  85 108
ATOM    108  C   UNL A   1      47.762  27.597  25.660  1.00  0.00     0.064 A 
ATOM    109  C   UNL A   1      47.853  27.610  24.260  1.00  0.00     0.173 A 
ATOM    110  C   UNL A   1      48.837  27.052  26.380  1.00  0.00     0.173 A 
ATOM    111  F   UNL A   1      46.848  28.106  23.522  1.00  0.00    -0.203 F 
ATOM    112  C   UNL A   1      48.963  27.076  23.608  1.00  0.00     0.198 A 
ATOM    113  C   UNL A   1      49.959  26.550  25.726  1.00  0.00     0.198 A 
ATOM    114  F   UNL A   1      48.806  27.019  27.721  1.00  0.00    -0.203 F 
ATOM    115  F   UNL A   1      49.005  27.054  22.269  1.00  0.00    -0.200 F 
ATOM    116  C   UNL A   1      50.018  26.555  24.342  1.00  0.00     0.200 A 
ATOM    117  F   UNL A   1      50.985  26.061  26.438  1.00  0.00    -0.200 F 
ATOM    118  F   UNL A   1      51.090  26.052  23.714  1.00  0.00    -0.200 F 
ENDBRANCH  85 108
ENDBRANCH  59  60
ENDBRANCH  51  54
ENDBRANCH  49  50
ENDBRANCH  48  49
ENDBRANCH  47  48
ENDBRANCH  46  47
ENDBRANCH  45  46
ENDBRANCH  44  45
ENDBRANCH   3  44
TORSDOF 27
ENDMDL
MODEL 2
REMARK VINA RESULT:     -10.7      4.102      9.305
REMARK SMILES CC(C)C[C@H](NC(=O)[C@H](Cc1ccccc1)NC(=O)CNC(=O)CNC(=O)OCc1ccccc1)C(=O)NCCCCCCNC(=O)c1ccc(-c2c3nc(c(-c4c(F)c(F)c(F)c(F)c4F)c4ccc([nH]4)c(-c4c(F)c(F)c(F)c(F)c4F)c4nc(c(-c5c(F)c(F)c(F)c(F)c5F)c5ccc2[nH]5)C=C4)C=C3)cc1
REMARK SMILES IDX 36 1 37 2 38 3 5 5 4 6 2 7 1 8 3 9 6 10 7 11 8 13 9 14 17 15
REMARK SMILES IDX 18 16 19 18 20 19 21 20 22 21 23 23 24 24 25 25 26 26 27 28
REMARK SMILES IDX 28 29 29 30 30 31 31 32 35 33 32 34 34 35 33 36 10 37 11 38
REMARK SMILES IDX 12 39 16 40 13 41 15 42 14 43 39 44 40 45 41 46 42 47 43 48
REMARK SMILES IDX 44 49 45 50 46 51 47 53 48 54 49 55 110 56 50 57 109 58
REMARK SMILES IDX 51 59 52 60 53 61 103 62 54 63 108 64 102 65 104 66 55 67
REMARK SMILES IDX 107 68 101 69 100 70 56 72 88 73 68 74 87 75 69 76 72 77
REMARK SMILES IDX 86 78 105 79 70 80 71 81 85 83 106 84 73 85 57 86 58 87
REMARK SMILES IDX 66 88 59 89 60 90 64 91 67 92 61 93 62 94 65 95 63 96 89 97
REMARK SMILES IDX 90 98 98 99 91 100 92 101 96 102 99 103 93 104 94 105 97 106
REMARK SMILES IDX 95 107 74 108 75 109 83 110 76 111 77 112 81 113 84 114
REMARK SMILES IDX 78 115 79 116 82 117 80 118
REMARK H PARENT 38 4 6 12 17 17 21 22 25 27 45 52 104 71 72 82
REMARK Flexibility Score: inf
ROOT
ATOM      1  C   UNL A   1      37.519  32.199  33.457  1.00  0.00     0.242 C 
ATOM      2  O   UNL A   1      38.678  32.063  33.054  1.00  0.00    -0.273 OA
ATOM      3  N   UNL A   1      37.325  32.236  34.830  1.00  0.00    -0.354 N 
ATOM      4  H   UNL A   1      37.587  31.448  35.358  1.00  0.00     0.163 HD
ENDROOT
BRANCH   1   5
ATOM      5  C   UNL A   1      36.306  32.051  32.466  1.00  0.00     0.171 C 
BRANCH   5   6
ATOM      6  C   UNL A   1      35.048  32.865  32.859  1.00  0.00     0.038 C 
BRANCH   6   7
ATOM      7  C   UNL A   1      34.800  34.291  32.248  1.00  0.00    -0.015 C 
ATOM      8  C   UNL A   1      33.554  35.095  32.629  1.00  0.00     0.007 C 
ATOM      9  C   UNL A   1      36.032  35.186  32.498  1.00  0.00     0.007 C 
ENDBRANCH   6   7
ENDBRANCH   5   6
BRANCH   5  10
ATOM     10  N   UNL A   1      36.003  30.704  32.027  1.00  0.00    -0.343 N 
ATOM     11  C   UNL A   1      36.261  30.108  30.843  1.00  0.00     0.243 C 
ATOM     12  H   UNL A   1      35.541  30.140  32.689  1.00  0.00     0.164 HD
ATOM     13  O   UNL A   1      36.656  28.935  30.906  1.00  0.00    -0.273 OA
BRANCH  11  14
ATOM     14  C   UNL A   1      36.099  30.762  29.453  1.00  0.00     0.175 C 
BRANCH  14  15
ATOM     15  N   UNL A   1      34.853  31.327  29.017  1.00  0.00    -0.342 N 
ATOM     16  C   UNL A   1      34.163  30.978  27.887  1.00  0.00     0.240 C 
ATOM     17  H   UNL A   1      34.458  32.031  29.581  1.00  0.00     0.164 HD
ATOM     18  O   UNL A   1      33.155  31.630  27.605  1.00  0.00    -0.273 OA
BRANCH  16  19
ATOM     19  C   UNL A   1      34.437  29.608  27.236  1.00  0.00     0.216 C 
BRANCH  19  20
ATOM     20  N   UNL A   1      33.405  28.604  27.000  1.00  0.00    -0.346 N 
ATOM     21  C   UNL A   1      32.466  28.526  25.994  1.00  0.00     0.239 C 
ATOM     22  H   UNL A   1      33.376  27.872  27.659  1.00  0.00     0.164 HD
ATOM     23  O   UNL A   1      31.487  27.806  26.198  1.00  0.00    -0.273 OA
BRANCH  21  24
ATOM     24  C   UNL A   1      32.589  29.360  24.692  1.00  0.00     0.219 C 
BRANCH  24  25
ATOM     25  N   UNL A   1      31.442  29.336  23.801  1.00  0.00    -0.312 N 
ATOM     26  C   UNL A   1      31.183  28.520  22.730  1.00  0.00     0.407 C 
ATOM     27  H   UNL A   1      30.747  30.007  23.994  1.00  0.00     0.167 HD
ATOM     28  O   UNL A   1      30.108  28.557  22.162  1.00  0.00    -0.225 OA
BRANCH  26  29
ATOM     29  O   UNL A   1      32.238  27.762  22.375  1.00  0.00    -0.445 OA
BRANCH  29  30
ATOM     30  C   UNL A   1      32.334  26.315  22.521  1.00  0.00     0.270 C 
BRANCH  30  31
ATOM     31  C   UNL A   1      32.781  25.531  23.736  1.00  0.00    -0.011 A 
ATOM     32  C   UNL A   1      31.824  24.750  24.410  1.00  0.00     0.007 A 
ATOM     33  C   UNL A   1      34.038  25.683  24.334  1.00  0.00     0.007 A 
ATOM     34  C   UNL A   1      32.137  24.079  25.594  1.00  0.00     0.000 A 
ATOM     35  C   UNL A   1      34.363  24.988  25.505  1.00  0.00     0.000 A 
ATOM     36  C   UNL A   1      33.416  24.181  26.129  1.00  0.00     0.000 A 
ENDBRANCH  30  31
ENDBRANCH  29  30
ENDBRANCH  26  29
ENDBRANCH  24  25
ENDBRANCH  21  24
ENDBRANCH  19  20
ENDBRANCH  16  19
ENDBRANCH  14  15
BRANCH  14  37
ATOM     37  C   UNL A   1      37.313  31.325  28.689  1.00  0.00     0.070 C 
BRANCH  37  38
ATOM     38  C   UNL A   1      38.235  32.392  29.265  1.00  0.00    -0.045 A 
ATOM     39  C   UNL A   1      37.735  33.703  29.261  1.00  0.00     0.004 A 
ATOM     40  C   UNL A   1      39.489  32.197  29.866  1.00  0.00     0.004 A 
ATOM     41  C   UNL A   1      38.493  34.774  29.740  1.00  0.00     0.000 A 
ATOM     42  C   UNL A   1      40.260  33.266  30.330  1.00  0.00     0.000 A 
ATOM     43  C   UNL A   1      39.767  34.558  30.252  1.00  0.00     0.000 A 
ENDBRANCH  37  38
ENDBRANCH  14  37
ENDBRANCH  11  14
ENDBRANCH   5  10
ENDBRANCH   1   5
BRANCH   3  44
ATOM     44  C   UNL A   1      36.752  33.382  35.537  1.00  0.00     0.116 C 
BRANCH  44  45
ATOM     45  C   UNL A   1      37.238  33.655  36.962  1.00  0.00     0.021 C 
BRANCH  45  46
ATOM     46  C   UNL A   1      38.392  32.756  37.475  1.00  0.00     0.002 C 
BRANCH  46  47
ATOM     47  C   UNL A   1      39.053  32.998  38.849  1.00  0.00     0.002 C 
BRANCH  47  48
ATOM     48  C   UNL A   1      38.878  34.314  39.642  1.00  0.00     0.021 C 
BRANCH  48  49
ATOM     49  C   UNL A   1      40.036  34.922  40.418  1.00  0.00     0.116 C 
BRANCH  49  50
ATOM     50  N   UNL A   1      40.289  36.296  40.066  1.00  0.00    -0.352 N 
ATOM     51  C   UNL A   1      40.869  36.828  38.939  1.00  0.00     0.251 C 
ATOM     52  H   UNL A   1      40.002  36.958  40.738  1.00  0.00     0.163 HD
ATOM     53  O   UNL A   1      41.143  38.026  38.922  1.00  0.00    -0.269 OA
BRANCH  51  54
ATOM     54  C   UNL A   1      41.209  35.996  37.753  1.00  0.00     0.039 A 
ATOM     55  C   UNL A   1      42.505  35.476  37.675  1.00  0.00     0.014 A 
ATOM     56  C   UNL A   1      40.330  35.795  36.683  1.00  0.00     0.014 A 
ATOM     57  C   UNL A   1      42.909  34.736  36.558  1.00  0.00     0.010 A 
ATOM     58  C   UNL A   1      40.715  35.000  35.591  1.00  0.00     0.010 A 
ATOM     59  C   UNL A   1      42.014  34.470  35.510  1.00  0.00    -0.014 A 
BRANCH  59  60
ATOM     60  C   UNL A   1      42.447  33.655  34.336  1.00  0.00     0.031 A 
ATOM     61  C   UNL A   1      42.582  32.158  34.439  1.00  0.00     0.074 A 
ATOM     62  C   UNL A   1      42.729  34.262  33.165  1.00  0.00     0.049 A 
ATOM     63  N   UNL A   1      42.944  31.291  33.522  1.00  0.00    -0.248 NA
ATOM     64  C   UNL A   1      42.289  31.556  35.746  1.00  0.00     0.031 C 
ATOM     65  C   UNL A   1      42.671  35.705  32.930  1.00  0.00     0.029 A 
ATOM     66  N   UNL A   1      43.124  33.746  31.954  1.00  0.00    -0.354 N 
ATOM     67  C   UNL A   1      42.926  30.048  34.144  1.00  0.00     0.074 A 
ATOM     68  C   UNL A   1      42.571  30.280  35.528  1.00  0.00     0.031 C 
ATOM     69  C   UNL A   1      43.001  35.957  31.654  1.00  0.00     0.029 A 
ATOM     70  C   UNL A   1      43.333  34.700  30.988  1.00  0.00     0.049 A 
ATOM     71  H   UNL A   1      43.246  32.781  31.793  1.00  0.00     0.167 HD
ATOM     72  C   UNL A   1      43.162  28.825  33.608  1.00  0.00     0.037 A 
ATOM     73  C   UNL A   1      43.758  34.585  29.714  1.00  0.00     0.037 A 
ATOM     74  C   UNL A   1      43.510  28.591  32.229  1.00  0.00     0.049 A 
ATOM     75  C   UNL A   1      44.047  33.219  29.149  1.00  0.00     0.074 A 
ATOM     76  C   UNL A   1      43.713  27.384  31.583  1.00  0.00     0.029 A 
ATOM     77  N   UNL A   1      43.720  29.586  31.286  1.00  0.00    -0.354 N 
ATOM     78  N   UNL A   1      43.950  32.047  29.728  1.00  0.00    -0.248 NA
ATOM     79  C   UNL A   1      44.498  33.160  27.752  1.00  0.00     0.031 C 
ATOM     80  C   UNL A   1      44.109  27.650  30.268  1.00  0.00     0.029 A 
ATOM     81  C   UNL A   1      44.086  29.021  30.073  1.00  0.00     0.049 A 
ATOM     82  H   UNL A   1      43.623  30.552  31.452  1.00  0.00     0.167 HD
ATOM     83  C   UNL A   1      44.305  31.112  28.763  1.00  0.00     0.074 A 
ATOM     84  C   UNL A   1      44.599  31.853  27.554  1.00  0.00     0.031 C 
ATOM     85  C   UNL A   1      44.380  29.763  28.872  1.00  0.00     0.037 A 
BRANCH  72  86
ATOM     86  C   UNL A   1      43.066  27.634  34.524  1.00  0.00     0.064 A 
ATOM     87  C   UNL A   1      41.874  26.908  34.669  1.00  0.00     0.173 A 
ATOM     88  C   UNL A   1      44.189  27.193  35.241  1.00  0.00     0.173 A 
ATOM     89  F   UNL A   1      40.767  27.287  34.011  1.00  0.00    -0.203 F 
ATOM     90  C   UNL A   1      41.798  25.814  35.528  1.00  0.00     0.198 A 
ATOM     91  C   UNL A   1      44.120  26.077  36.070  1.00  0.00     0.198 A 
ATOM     92  F   UNL A   1      45.359  27.840  35.131  1.00  0.00    -0.203 F 
ATOM     93  F   UNL A   1      40.633  25.174  35.694  1.00  0.00    -0.200 F 
ATOM     94  C   UNL A   1      42.923  25.394  36.222  1.00  0.00     0.200 A 
ATOM     95  F   UNL A   1      45.213  25.661  36.726  1.00  0.00    -0.200 F 
ATOM     96  F   UNL A   1      42.850  24.338  37.044  1.00  0.00    -0.200 F 
ENDBRANCH  72  86
BRANCH  73  97
ATOM     97  C   UNL A   1      43.939  35.805  28.882  1.00  0.00     0.064 A 
ATOM     98  C   UNL A   1      45.151  36.510  28.878  1.00  0.00     0.173 A 
ATOM     99  C   UNL A   1      42.901  36.292  28.073  1.00  0.00     0.173 A 
ATOM    100  F   UNL A   1      46.167  36.100  29.650  1.00  0.00    -0.203 F 
ATOM    101  C   UNL A   1      45.311  37.663  28.112  1.00  0.00     0.198 A 
ATOM    102  C   UNL A   1      43.072  37.426  27.282  1.00  0.00     0.198 A 
ATOM    103  F   UNL A   1      41.722  35.654  28.037  1.00  0.00    -0.203 F 
ATOM    104  F   UNL A   1      46.464  38.344  28.161  1.00  0.00    -0.200 F 
ATOM    105  C   UNL A   1      44.275  38.116  27.308  1.00  0.00     0.200 A 
ATOM    106  F   UNL A   1      42.074  37.848  26.494  1.00  0.00    -0.200 F 
ATOM    107  F   UNL A   1      44.432  39.219  26.564  1.00  0.00    -0.200 F 
ENDBRANCH  73  97
BRANCH  85 108
ATOM    108  C   UNL A   1      44.771  28.989  27.644  1.00  0.00     0.064 A 
ATOM    109  C   UNL A   1      46.109  28.673  27.364  1.00  0.00     0.173 A 
ATOM    110  C   UNL A   1      43.788  28.516  26.759  1.00  0.00     0.173 A 
ATOM    111  F   UNL A   1      47.089  29.111  28.169  1.00  0.00    -0.203 F 
ATOM    112  C   UNL A   1      46.450  27.936  26.232  1.00  0.00     0.198 A 
ATOM    113  C   UNL A   1      44.131  27.752  25.648  1.00  0.00     0.198 A 
ATOM    114  F   UNL A   1      42.492  28.784  26.982  1.00  0.00    -0.203 F 
ATOM    115  F   UNL A   1      47.738  27.689  25.959  1.00  0.00    -0.200 F 
ATOM    116  C   UNL A   1      45.460  27.469  25.380  1.00  0.00     0.200 A 
ATOM    117  F   UNL A   1      43.171  27.288  24.834  1.00  0.00    -0.200 F 
ATOM    118  F   UNL A   1      45.790  26.750  24.298  1.00  0.00    -0.200 F 
ENDBRANCH  85 108
ENDBRANCH  59  60
ENDBRANCH  51  54
ENDBRANCH  49  50
ENDBRANCH  48  49
ENDBRANCH  47  48
ENDBRANCH  46  47
ENDBRANCH  45  46
ENDBRANCH  44  45
ENDBRANCH   3  44
TORSDOF 27
ENDMDL
MODEL 3
REMARK VINA RESULT:     -10.7      4.251      7.673
REMARK SMILES CC(C)C[C@H](NC(=O)[C@H](Cc1ccccc1)NC(=O)CNC(=O)CNC(=O)OCc1ccccc1)C(=O)NCCCCCCNC(=O)c1ccc(-c2c3nc(c(-c4c(F)c(F)c(F)c(F)c4F)c4ccc([nH]4)c(-c4c(F)c(F)c(F)c(F)c4F)c4nc(c(-c5c(F)c(F)c(F)c(F)c5F)c5ccc2[nH]5)C=C4)C=C3)cc1
REMARK SMILES IDX 36 1 37 2 38 3 5 5 4 6 2 7 1 8 3 9 6 10 7 11 8 13 9 14 17 15
REMARK SMILES IDX 18 16 19 18 20 19 21 20 22 21 23 23 24 24 25 25 26 26 27 28
REMARK SMILES IDX 28 29 29 30 30 31 31 32 35 33 32 34 34 35 33 36 10 37 11 38
REMARK SMILES IDX 12 39 16 40 13 41 15 42 14 43 39 44 40 45 41 46 42 47 43 48
REMARK SMILES IDX 44 49 45 50 46 51 47 53 48 54 49 55 110 56 50 57 109 58
REMARK SMILES IDX 51 59 52 60 53 61 103 62 54 63 108 64 102 65 104 66 55 67
REMARK SMILES IDX 107 68 101 69 100 70 56 72 88 73 68 74 87 75 69 76 72 77
REMARK SMILES IDX 86 78 105 79 70 80 71 81 85 83 106 84 73 85 57 86 58 87
REMARK SMILES IDX 66 88 59 89 60 90 64 91 67 92 61 93 62 94 65 95 63 96 89 97
REMARK SMILES IDX 90 98 98 99 91 100 92 101 96 102 99 103 93 104 94 105 97 106
REMARK SMILES IDX 95 107 74 108 75 109 83 110 76 111 77 112 81 113 84 114
REMARK SMILES IDX 78 115 79 116 82 117 80 118
REMARK H PARENT 38 4 6 12 17 17 21 22 25 27 45 52 104 71 72 82
REMARK Flexibility Score: inf
ROOT
ATOM      1  C   UNL A   1      38.334  32.088  34.224  1.00  0.00     0.242 C 
ATOM      2  O   UNL A   1      39.429  31.545  34.047  1.00  0.00    -0.273 OA
ATOM      3  N   UNL A   1      37.888  32.205  35.533  1.00  0.00    -0.354 N 
ATOM      4  H   UNL A   1      37.742  31.380  36.049  1.00  0.00     0.163 HD
ENDROOT
BRANCH   1   5
ATOM      5  C   UNL A   1      37.378  32.374  33.008  1.00  0.00     0.171 C 
BRANCH   5   6
ATOM      6  C   UNL A   1      36.699  33.766  33.033  1.00  0.00     0.038 C 
BRANCH   6   7
ATOM      7  C   UNL A   1      35.198  33.929  32.598  1.00  0.00    -0.015 C 
ATOM      8  C   UNL A   1      34.075  33.300  33.427  1.00  0.00     0.007 C 
ATOM      9  C   UNL A   1      34.869  35.425  32.418  1.00  0.00     0.007 C 
ENDBRANCH   6   7
ENDBRANCH   5   6
BRANCH   5  10
ATOM     10  N   UNL A   1      36.474  31.302  32.643  1.00  0.00    -0.343 N 
ATOM     11  C   UNL A   1      36.405  30.588  31.498  1.00  0.00     0.243 C 
ATOM     12  H   UNL A   1      35.813  31.057  33.331  1.00  0.00     0.164 HD
ATOM     13  O   UNL A   1      36.208  29.373  31.633  1.00  0.00    -0.273 OA
BRANCH  11  14
ATOM     14  C   UNL A   1      36.544  31.164  30.071  1.00  0.00     0.175 C 
BRANCH  14  15
ATOM     15  N   UNL A   1      35.560  32.042  29.504  1.00  0.00    -0.342 N 
ATOM     16  C   UNL A   1      34.981  31.910  28.270  1.00  0.00     0.240 C 
ATOM     17  H   UNL A   1      35.276  32.809  30.051  1.00  0.00     0.164 HD
ATOM     18  O   UNL A   1      34.224  32.807  27.893  1.00  0.00    -0.273 OA
BRANCH  16  19
ATOM     19  C   UNL A   1      34.995  30.532  27.579  1.00  0.00     0.216 C 
BRANCH  19  20
ATOM     20  N   UNL A   1      33.924  29.551  27.709  1.00  0.00    -0.346 N 
ATOM     21  C   UNL A   1      32.631  29.591  27.233  1.00  0.00     0.239 C 
ATOM     22  H   UNL A   1      34.160  28.738  28.214  1.00  0.00     0.164 HD
ATOM     23  O   UNL A   1      31.816  28.834  27.765  1.00  0.00    -0.273 OA
BRANCH  21  24
ATOM     24  C   UNL A   1      32.194  30.591  26.132  1.00  0.00     0.219 C 
BRANCH  24  25
ATOM     25  N   UNL A   1      31.391  30.048  25.049  1.00  0.00    -0.312 N 
ATOM     26  C   UNL A   1      31.752  29.204  24.031  1.00  0.00     0.407 C 
ATOM     27  H   UNL A   1      30.447  30.328  25.047  1.00  0.00     0.167 HD
ATOM     28  O   UNL A   1      30.918  28.747  23.272  1.00  0.00    -0.225 OA
BRANCH  26  29
ATOM     29  O   UNL A   1      33.082  29.010  23.951  1.00  0.00    -0.445 OA
BRANCH  29  30
ATOM     30  C   UNL A   1      33.775  27.750  24.187  1.00  0.00     0.270 C 
BRANCH  30  31
ATOM     31  C   UNL A   1      33.507  26.407  23.542  1.00  0.00    -0.011 A 
ATOM     32  C   UNL A   1      33.788  25.246  24.286  1.00  0.00     0.007 A 
ATOM     33  C   UNL A   1      33.176  26.251  22.190  1.00  0.00     0.007 A 
ATOM     34  C   UNL A   1      33.661  23.973  23.725  1.00  0.00     0.000 A 
ATOM     35  C   UNL A   1      33.019  24.976  21.633  1.00  0.00     0.000 A 
ATOM     36  C   UNL A   1      33.255  23.839  22.402  1.00  0.00     0.000 A 
ENDBRANCH  30  31
ENDBRANCH  29  30
ENDBRANCH  26  29
ENDBRANCH  24  25
ENDBRANCH  21  24
ENDBRANCH  19  20
ENDBRANCH  16  19
ENDBRANCH  14  15
BRANCH  14  37
ATOM     37  C   UNL A   1      37.922  31.286  29.391  1.00  0.00     0.070 C 
BRANCH  37  38
ATOM     38  C   UNL A   1      38.813  30.086  29.097  1.00  0.00    -0.045 A 
ATOM     39  C   UNL A   1      39.654  29.676  30.142  1.00  0.00     0.004 A 
ATOM     40  C   UNL A   1      38.827  29.304  27.931  1.00  0.00     0.004 A 
ATOM     41  C   UNL A   1      40.535  28.603  29.990  1.00  0.00     0.000 A 
ATOM     42  C   UNL A   1      39.718  28.242  27.765  1.00  0.00     0.000 A 
ATOM     43  C   UNL A   1      40.585  27.900  28.790  1.00  0.00     0.000 A 
ENDBRANCH  37  38
ENDBRANCH  14  37
ENDBRANCH  11  14
ENDBRANCH   5  10
ENDBRANCH   1   5
BRANCH   3  44
ATOM     44  C   UNL A   1      37.620  33.486  36.187  1.00  0.00     0.116 C 
BRANCH  44  45
ATOM     45  C   UNL A   1      38.163  33.689  37.603  1.00  0.00     0.021 C 
BRANCH  45  46
ATOM     46  C   UNL A   1      39.447  32.899  37.963  1.00  0.00     0.002 C 
BRANCH  46  47
ATOM     47  C   UNL A   1      40.271  33.231  39.225  1.00  0.00     0.002 C 
BRANCH  47  48
ATOM     48  C   UNL A   1      40.130  34.568  39.990  1.00  0.00     0.021 C 
BRANCH  48  49
ATOM     49  C   UNL A   1      41.339  35.246  40.613  1.00  0.00     0.116 C 
BRANCH  49  50
ATOM     50  N   UNL A   1      41.514  36.606  40.166  1.00  0.00    -0.352 N 
ATOM     51  C   UNL A   1      41.924  37.090  38.947  1.00  0.00     0.251 C 
ATOM     52  H   UNL A   1      41.308  37.295  40.840  1.00  0.00     0.163 HD
ATOM     53  O   UNL A   1      42.169  38.289  38.838  1.00  0.00    -0.269 OA
BRANCH  51  54
ATOM     54  C   UNL A   1      42.116  36.206  37.765  1.00  0.00     0.039 A 
ATOM     55  C   UNL A   1      43.387  35.656  37.566  1.00  0.00     0.014 A 
ATOM     56  C   UNL A   1      41.120  35.982  36.808  1.00  0.00     0.014 A 
ATOM     57  C   UNL A   1      43.651  34.865  36.442  1.00  0.00     0.010 A 
ATOM     58  C   UNL A   1      41.367  35.138  35.714  1.00  0.00     0.010 A 
ATOM     59  C   UNL A   1      42.640  34.578  35.511  1.00  0.00    -0.014 A 
BRANCH  59  60
ATOM     60  C   UNL A   1      42.926  33.710  34.330  1.00  0.00     0.031 A 
ATOM     61  C   UNL A   1      43.143  34.307  32.963  1.00  0.00     0.074 A 
ATOM     62  C   UNL A   1      42.987  32.371  34.480  1.00  0.00     0.049 A 
ATOM     63  N   UNL A   1      43.404  33.707  31.826  1.00  0.00    -0.248 NA
ATOM     64  C   UNL A   1      43.036  35.769  32.856  1.00  0.00     0.031 C 
ATOM     65  C   UNL A   1      42.768  31.655  35.736  1.00  0.00     0.029 A 
ATOM     66  N   UNL A   1      43.247  31.373  33.571  1.00  0.00    -0.354 N 
ATOM     67  C   UNL A   1      43.487  34.715  30.873  1.00  0.00     0.074 A 
ATOM     68  C   UNL A   1      43.195  35.958  31.554  1.00  0.00     0.031 C 
ATOM     69  C   UNL A   1      42.917  30.338  35.525  1.00  0.00     0.029 A 
ATOM     70  C   UNL A   1      43.204  30.110  34.110  1.00  0.00     0.049 A 
ATOM     71  H   UNL A   1      43.446  31.547  32.622  1.00  0.00     0.167 HD
ATOM     72  C   UNL A   1      43.798  34.618  29.556  1.00  0.00     0.037 A 
ATOM     73  C   UNL A   1      43.361  28.901  33.534  1.00  0.00     0.037 A 
ATOM     74  C   UNL A   1      44.095  33.382  28.876  1.00  0.00     0.049 A 
ATOM     75  C   UNL A   1      43.673  28.816  32.064  1.00  0.00     0.074 A 
ATOM     76  C   UNL A   1      44.475  33.191  27.559  1.00  0.00     0.029 A 
ATOM     77  N   UNL A   1      44.032  32.124  29.458  1.00  0.00    -0.354 N 
ATOM     78  N   UNL A   1      43.825  29.783  31.193  1.00  0.00    -0.248 NA
ATOM     79  C   UNL A   1      43.842  27.470  31.498  1.00  0.00     0.031 C 
ATOM     80  C   UNL A   1      44.578  31.816  27.325  1.00  0.00     0.029 A 
ATOM     81  C   UNL A   1      44.330  31.150  28.515  1.00  0.00     0.049 A 
ATOM     82  H   UNL A   1      43.808  31.947  30.400  1.00  0.00     0.167 HD
ATOM     83  C   UNL A   1      44.128  29.167  29.985  1.00  0.00     0.074 A 
ATOM     84  C   UNL A   1      44.160  27.741  30.240  1.00  0.00     0.031 C 
ATOM     85  C   UNL A   1      44.358  29.732  28.774  1.00  0.00     0.037 A 
BRANCH  72  86
ATOM     86  C   UNL A   1      43.821  35.890  28.752  1.00  0.00     0.064 A 
ATOM     87  C   UNL A   1      44.988  36.657  28.615  1.00  0.00     0.173 A 
ATOM     88  C   UNL A   1      42.669  36.331  28.081  1.00  0.00     0.173 A 
ATOM     89  F   UNL A   1      46.118  36.285  29.237  1.00  0.00    -0.203 F 
ATOM     90  C   UNL A   1      44.991  37.836  27.874  1.00  0.00     0.198 A 
ATOM     91  C   UNL A   1      42.685  37.490  27.311  1.00  0.00     0.198 A 
ATOM     92  F   UNL A   1      41.528  35.630  28.164  1.00  0.00    -0.203 F 
ATOM     93  F   UNL A   1      46.103  38.582  27.808  1.00  0.00    -0.200 F 
ATOM     94  C   UNL A   1      43.842  38.249  27.217  1.00  0.00     0.200 A 
ATOM     95  F   UNL A   1      41.578  37.877  26.661  1.00  0.00    -0.200 F 
ATOM     96  F   UNL A   1      43.847  39.381  26.500  1.00  0.00    -0.200 F 
ENDBRANCH  72  86
BRANCH  73  97
ATOM     97  C   UNL A   1      43.223  27.669  34.356  1.00  0.00     0.064 A 
ATOM     98  C   UNL A   1      41.984  27.030  34.508  1.00  0.00     0.173 A 
ATOM     99  C   UNL A   1      44.330  27.103  35.007  1.00  0.00     0.173 A 
ATOM    100  F   UNL A   1      40.891  27.543  33.925  1.00  0.00    -0.203 F 
ATOM    101  C   UNL A   1      41.854  25.886  35.293  1.00  0.00     0.198 A 
ATOM    102  C   UNL A   1      44.206  25.940  35.764  1.00  0.00     0.198 A 
ATOM    103  F   UNL A   1      45.539  27.670  34.892  1.00  0.00    -0.203 F 
ATOM    104  F   UNL A   1      40.650  25.322  35.459  1.00  0.00    -0.200 F 
ATOM    105  C   UNL A   1      42.966  25.337  35.914  1.00  0.00     0.200 A 
ATOM    106  F   UNL A   1      45.287  25.404  36.347  1.00  0.00    -0.200 F 
ATOM    107  F   UNL A   1      42.844  24.231  36.660  1.00  0.00    -0.200 F 
ENDBRANCH  73  97
BRANCH  85 108
ATOM    108  C   UNL A   1      44.694  28.815  27.632  1.00  0.00     0.064 A 
ATOM    109  C   UNL A   1      45.943  28.184  27.533  1.00  0.00     0.173 A 
ATOM    110  C   UNL A   1      43.735  28.527  26.647  1.00  0.00     0.173 A 
ATOM    111  F   UNL A   1      46.900  28.435  28.439  1.00  0.00    -0.203 F 
ATOM    112  C   UNL A   1      46.228  27.320  26.477  1.00  0.00     0.198 A 
ATOM    113  C   UNL A   1      44.013  27.637  25.613  1.00  0.00     0.198 A 
ATOM    114  F   UNL A   1      42.522  29.097  26.696  1.00  0.00    -0.203 F 
ATOM    115  F   UNL A   1      47.445  26.768  26.376  1.00  0.00    -0.200 F 
ATOM    116  C   UNL A   1      45.260  27.040  25.524  1.00  0.00     0.200 A 
ATOM    117  F   UNL A   1      43.070  27.356  24.702  1.00  0.00    -0.200 F 
ATOM    118  F   UNL A   1      45.533  26.200  24.516  1.00  0.00    -0.200 F 
ENDBRANCH  85 108
ENDBRANCH  59  60
ENDBRANCH  51  54
ENDBRANCH  49  50
ENDBRANCH  48  49
ENDBRANCH  47  48
ENDBRANCH  46  47
ENDBRANCH  45  46
ENDBRANCH  44  45
ENDBRANCH   3  44
TORSDOF 27
ENDMDL
