MODEL 1
REMARK VINA RESULT:     -11.5      0.000      0.000
REMARK SMILES CCC(CC)(NC(=O)CC1([NH3+])CCCC1)C(=O)NCCCCCCNC(=O)c1ccc(-c2c3nc(c(-c4c(F)c(F)c(F)c(F)c4F)c4ccc([nH]4)c(-c4c(F)c(F)c(F)c(F)c4F)c4nc(c(-c5c(F)c(F)c(F)c(F)c5F)c5ccc2[nH]5)C=C4)C=C3)cc1
REMARK SMILES IDX 20 1 19 2 18 3 16 4 17 5 3 7 2 8 1 9 4 10 5 11 6 12 7 13
REMARK SMILES IDX 8 15 9 16 10 17 12 18 15 19 13 20 14 21 11 22 21 26 22 27
REMARK SMILES IDX 23 28 24 29 25 30 26 31 27 33 28 34 29 35 90 36 30 37 89 38
REMARK SMILES IDX 31 39 32 40 33 41 83 42 34 43 88 44 82 45 84 46 35 47 87 48
REMARK SMILES IDX 81 49 80 50 36 52 68 53 48 54 67 55 49 56 52 57 66 58 85 59
REMARK SMILES IDX 50 60 51 61 65 63 86 64 53 65 37 66 38 67 46 68 39 69 40 70
REMARK SMILES IDX 44 71 47 72 41 73 42 74 45 75 43 76 69 77 70 78 78 79 71 80
REMARK SMILES IDX 72 81 76 82 79 83 73 84 74 85 77 86 75 87 54 88 55 89 63 90
REMARK SMILES IDX 56 91 57 92 61 93 64 94 58 95 59 96 62 97 60 98
REMARK H PARENT 18 6 6 14 11 23 11 24 11 25 25 32 84 51 52 62
REMARK Flexibility Score: inf
ROOT
ATOM      1  C   UNL A   1      31.750  28.827  27.629  1.00  0.00     0.021 C 
ENDROOT
BRANCH   1   2
ATOM      2  C   UNL A   1      32.265  27.469  27.151  1.00  0.00     0.116 C 
BRANCH   2   3
ATOM      3  N   UNL A   1      31.217  26.515  26.818  1.00  0.00    -0.354 N 
ATOM      4  C   UNL A   1      30.976  25.766  25.695  1.00  0.00     0.245 C 
ATOM      5  O   UNL A   1      30.089  24.916  25.816  1.00  0.00    -0.272 OA
ATOM      6  H   UNL A   1      30.555  26.384  27.535  1.00  0.00     0.163 HD
BRANCH   4   7
ATOM      7  C   UNL A   1      31.907  25.861  24.436  1.00  0.00     0.118 C 
BRANCH   7   8
ATOM      8  C   UNL A   1      31.312  25.364  23.087  1.00  0.00     0.035 C 
ATOM      9  C   UNL A   1      32.222  25.336  21.868  1.00  0.00     0.007 C 
ENDBRANCH   7   8
BRANCH   7  10
ATOM     10  C   UNL A   1      33.126  24.945  24.823  1.00  0.00     0.035 C 
ATOM     11  C   UNL A   1      34.390  25.637  25.317  1.00  0.00     0.007 C 
ENDBRANCH   7  10
BRANCH   7  12
ATOM     12  N   UNL A   1      32.352  27.265  24.218  1.00  0.00    -0.342 N 
ATOM     13  C   UNL A   1      31.744  28.285  23.538  1.00  0.00     0.227 C 
ATOM     14  H   UNL A   1      33.217  27.496  24.627  1.00  0.00     0.164 HD
ATOM     15  O   UNL A   1      32.488  29.153  23.066  1.00  0.00    -0.275 OA
BRANCH  13  16
ATOM     16  C   UNL A   1      30.231  28.482  23.501  1.00  0.00     0.168 C 
BRANCH  16  17
ATOM     17  C   UNL A   1      29.651  29.704  22.789  1.00  0.00     0.103 C 
ATOM     18  C   UNL A   1      28.209  29.441  22.313  1.00  0.00     0.069 C 
ATOM     19  C   UNL A   1      29.449  30.915  23.706  1.00  0.00     0.069 C 
ATOM     20  C   UNL A   1      27.652  30.833  22.035  1.00  0.00     0.007 C 
ATOM     21  C   UNL A   1      28.327  31.739  23.065  1.00  0.00     0.007 C 
BRANCH  17  22
ATOM     22  N   UNL A   1      30.456  30.060  21.622  1.00  0.00    -0.352 N 
ATOM     23  H   UNL A   1      31.156  30.753  21.891  1.00  0.00     0.344 HD
ATOM     24  H   UNL A   1      29.852  30.452  20.900  1.00  0.00     0.344 HD
ATOM     25  H   UNL A   1      30.922  29.228  21.263  1.00  0.00     0.344 HD
ENDBRANCH  17  22
ENDBRANCH  16  17
ENDBRANCH  13  16
ENDBRANCH   7  12
ENDBRANCH   4   7
ENDBRANCH   2   3
ENDBRANCH   1   2
BRANCH   1  26
ATOM     26  C   UNL A   1      32.454  30.048  27.030  1.00  0.00     0.002 C 
BRANCH  26  27
ATOM     27  C   UNL A   1      31.578  30.918  26.129  1.00  0.00     0.002 C 
BRANCH  27  28
ATOM     28  C   UNL A   1      31.399  32.359  26.609  1.00  0.00     0.021 C 
BRANCH  28  29
ATOM     29  C   UNL A   1      32.608  32.944  27.325  1.00  0.00     0.116 C 
BRANCH  29  30
ATOM     30  N   UNL A   1      32.414  34.341  27.672  1.00  0.00    -0.352 N 
ATOM     31  C   UNL A   1      33.011  35.065  28.670  1.00  0.00     0.251 C 
ATOM     32  H   UNL A   1      31.768  34.832  27.116  1.00  0.00     0.163 HD
ATOM     33  O   UNL A   1      32.588  36.181  28.967  1.00  0.00    -0.269 OA
BRANCH  31  34
ATOM     34  C   UNL A   1      34.152  34.488  29.410  1.00  0.00     0.039 A 
ATOM     35  C   UNL A   1      33.908  33.845  30.624  1.00  0.00     0.014 A 
ATOM     36  C   UNL A   1      35.453  34.572  28.903  1.00  0.00     0.014 A 
ATOM     37  C   UNL A   1      34.964  33.242  31.307  1.00  0.00     0.010 A 
ATOM     38  C   UNL A   1      36.491  33.901  29.545  1.00  0.00     0.010 A 
ATOM     39  C   UNL A   1      36.258  33.236  30.758  1.00  0.00    -0.014 A 
BRANCH  39  40
ATOM     40  C   UNL A   1      37.364  32.525  31.447  1.00  0.00     0.031 A 
ATOM     41  C   UNL A   1      38.079  31.386  30.776  1.00  0.00     0.074 A 
ATOM     42  C   UNL A   1      37.707  32.894  32.696  1.00  0.00     0.049 A 
ATOM     43  N   UNL A   1      39.097  30.681  31.204  1.00  0.00    -0.248 NA
ATOM     44  C   UNL A   1      37.571  30.964  29.462  1.00  0.00     0.031 C 
ATOM     45  C   UNL A   1      37.047  33.943  33.476  1.00  0.00     0.029 A 
ATOM     46  N   UNL A   1      38.699  32.437  33.526  1.00  0.00    -0.354 N 
ATOM     47  C   UNL A   1      39.342  29.732  30.220  1.00  0.00     0.074 A 
ATOM     48  C   UNL A   1      38.331  29.912  29.201  1.00  0.00     0.031 C 
ATOM     49  C   UNL A   1      37.683  34.084  34.648  1.00  0.00     0.029 A 
ATOM     50  C   UNL A   1      38.772  33.114  34.719  1.00  0.00     0.049 A 
ATOM     51  H   UNL A   1      39.302  31.696  33.289  1.00  0.00     0.167 HD
ATOM     52  C   UNL A   1      40.334  28.811  30.162  1.00  0.00     0.037 A 
ATOM     53  C   UNL A   1      39.627  32.975  35.749  1.00  0.00     0.037 A 
ATOM     54  C   UNL A   1      41.347  28.648  31.173  1.00  0.00     0.049 A 
ATOM     55  C   UNL A   1      40.720  31.944  35.657  1.00  0.00     0.074 A 
ATOM     56  C   UNL A   1      42.440  27.800  31.173  1.00  0.00     0.029 A 
ATOM     57  N   UNL A   1      41.382  29.342  32.375  1.00  0.00    -0.354 N 
ATOM     58  N   UNL A   1      41.003  31.120  34.679  1.00  0.00    -0.248 NA
ATOM     59  C   UNL A   1      41.617  31.834  36.815  1.00  0.00     0.031 C 
ATOM     60  C   UNL A   1      43.100  27.935  32.400  1.00  0.00     0.029 A 
ATOM     61  C   UNL A   1      42.456  28.912  33.140  1.00  0.00     0.049 A 
ATOM     62  H   UNL A   1      40.738  30.036  32.646  1.00  0.00     0.167 HD
ATOM     63  C   UNL A   1      42.124  30.410  35.090  1.00  0.00     0.074 A 
ATOM     64  C   UNL A   1      42.482  30.923  36.397  1.00  0.00     0.031 C 
ATOM     65  C   UNL A   1      42.794  29.422  34.446  1.00  0.00     0.037 A 
BRANCH  52  66
ATOM     66  C   UNL A   1      40.366  27.900  28.966  1.00  0.00     0.064 A 
ATOM     67  C   UNL A   1      39.653  26.691  28.936  1.00  0.00     0.173 A 
ATOM     68  C   UNL A   1      41.101  28.252  27.824  1.00  0.00     0.173 A 
ATOM     69  F   UNL A   1      38.940  26.299  30.003  1.00  0.00    -0.203 F 
ATOM     70  C   UNL A   1      39.708  25.851  27.825  1.00  0.00     0.198 A 
ATOM     71  C   UNL A   1      41.126  27.428  26.702  1.00  0.00     0.198 A 
ATOM     72  F   UNL A   1      41.797  29.399  27.794  1.00  0.00    -0.203 F 
ATOM     73  F   UNL A   1      39.069  24.674  27.845  1.00  0.00    -0.200 F 
ATOM     74  C   UNL A   1      40.438  26.223  26.707  1.00  0.00     0.200 A 
ATOM     75  F   UNL A   1      41.820  27.796  25.617  1.00  0.00    -0.200 F 
ATOM     76  F   UNL A   1      40.487  25.417  25.638  1.00  0.00    -0.200 F 
ENDBRANCH  52  66
BRANCH  53  77
ATOM     77  C   UNL A   1      39.515  33.865  36.932  1.00  0.00     0.064 A 
ATOM     78  C   UNL A   1      38.806  33.457  38.072  1.00  0.00     0.173 A 
ATOM     79  C   UNL A   1      40.110  35.134  36.955  1.00  0.00     0.173 A 
ATOM     80  F   UNL A   1      38.203  32.260  38.092  1.00  0.00    -0.203 F 
ATOM     81  C   UNL A   1      38.681  34.293  39.180  1.00  0.00     0.198 A 
ATOM     82  C   UNL A   1      40.010  35.957  38.074  1.00  0.00     0.198 A 
ATOM     83  F   UNL A   1      40.804  35.569  35.893  1.00  0.00    -0.203 F 
ATOM     84  F   UNL A   1      37.959  33.897  40.237  1.00  0.00    -0.200 F 
ATOM     85  C   UNL A   1      39.287  35.540  39.182  1.00  0.00     0.200 A 
ATOM     86  F   UNL A   1      40.612  37.154  38.080  1.00  0.00    -0.200 F 
ATOM     87  F   UNL A   1      39.173  36.342  40.250  1.00  0.00    -0.200 F 
ENDBRANCH  53  77
BRANCH  65  88
ATOM     88  C   UNL A   1      43.995  28.847  35.144  1.00  0.00     0.064 A 
ATOM     89  C   UNL A   1      45.280  29.379  34.959  1.00  0.00     0.173 A 
ATOM     90  C   UNL A   1      43.858  27.750  36.008  1.00  0.00     0.173 A 
ATOM     91  F   UNL A   1      45.469  30.419  34.132  1.00  0.00    -0.203 F 
ATOM     92  C   UNL A   1      46.389  28.807  35.579  1.00  0.00     0.198 A 
ATOM     93  C   UNL A   1      44.964  27.204  36.655  1.00  0.00     0.198 A 
ATOM     94  F   UNL A   1      42.652  27.207  36.227  1.00  0.00    -0.203 F 
ATOM     95  F   UNL A   1      47.615  29.288  35.331  1.00  0.00    -0.200 F 
ATOM     96  C   UNL A   1      46.229  27.723  36.430  1.00  0.00     0.200 A 
ATOM     97  F   UNL A   1      44.805  26.167  37.489  1.00  0.00    -0.200 F 
ATOM     98  F   UNL A   1      47.297  27.172  37.022  1.00  0.00    -0.200 F 
ENDBRANCH  65  88
ENDBRANCH  39  40
ENDBRANCH  31  34
ENDBRANCH  29  30
ENDBRANCH  28  29
ENDBRANCH  27  28
ENDBRANCH  26  27
ENDBRANCH   1  26
TORSDOF 19
ENDMDL
MODEL 2
REMARK VINA RESULT:     -11.4      6.090     11.531
REMARK SMILES CCC(CC)(NC(=O)CC1([NH3+])CCCC1)C(=O)NCCCCCCNC(=O)c1ccc(-c2c3nc(c(-c4c(F)c(F)c(F)c(F)c4F)c4ccc([nH]4)c(-c4c(F)c(F)c(F)c(F)c4F)c4nc(c(-c5c(F)c(F)c(F)c(F)c5F)c5ccc2[nH]5)C=C4)C=C3)cc1
REMARK SMILES IDX 20 1 19 2 18 3 16 4 17 5 3 7 2 8 1 9 4 10 5 11 6 12 7 13
REMARK SMILES IDX 8 15 9 16 10 17 12 18 15 19 13 20 14 21 11 22 21 26 22 27
REMARK SMILES IDX 23 28 24 29 25 30 26 31 27 33 28 34 29 35 90 36 30 37 89 38
REMARK SMILES IDX 31 39 32 40 33 41 83 42 34 43 88 44 82 45 84 46 35 47 87 48
REMARK SMILES IDX 81 49 80 50 36 52 68 53 48 54 67 55 49 56 52 57 66 58 85 59
REMARK SMILES IDX 50 60 51 61 65 63 86 64 53 65 37 66 38 67 46 68 39 69 40 70
REMARK SMILES IDX 44 71 47 72 41 73 42 74 45 75 43 76 69 77 70 78 78 79 71 80
REMARK SMILES IDX 72 81 76 82 79 83 73 84 74 85 77 86 75 87 54 88 55 89 63 90
REMARK SMILES IDX 56 91 57 92 61 93 64 94 58 95 59 96 62 97 60 98
REMARK H PARENT 18 6 6 14 11 23 11 24 11 25 25 32 84 51 52 62
REMARK Flexibility Score: inf
ROOT
ATOM      1  C   UNL A   1      36.793  23.452  24.679  1.00  0.00     0.021 C 
ENDROOT
BRANCH   1   2
ATOM      2  C   UNL A   1      35.764  24.034  25.647  1.00  0.00     0.116 C 
BRANCH   2   3
ATOM      3  N   UNL A   1      34.804  24.936  25.029  1.00  0.00    -0.354 N 
ATOM      4  C   UNL A   1      33.557  24.730  24.495  1.00  0.00     0.245 C 
ATOM      5  O   UNL A   1      32.936  25.758  24.212  1.00  0.00    -0.272 OA
ATOM      6  H   UNL A   1      35.107  25.872  24.986  1.00  0.00     0.163 HD
BRANCH   4   7
ATOM      7  C   UNL A   1      32.917  23.299  24.450  1.00  0.00     0.118 C 
BRANCH   7   8
ATOM      8  C   UNL A   1      33.027  22.526  23.103  1.00  0.00     0.035 C 
ATOM      9  C   UNL A   1      33.273  23.329  21.834  1.00  0.00     0.007 C 
ENDBRANCH   7   8
BRANCH   7  10
ATOM     10  C   UNL A   1      31.399  23.577  24.754  1.00  0.00     0.035 C 
ATOM     11  C   UNL A   1      31.009  23.805  26.209  1.00  0.00     0.007 C 
ENDBRANCH   7  10
BRANCH   7  12
ATOM     12  N   UNL A   1      33.512  22.424  25.497  1.00  0.00    -0.342 N 
ATOM     13  C   UNL A   1      33.140  21.177  25.918  1.00  0.00     0.227 C 
ATOM     14  H   UNL A   1      34.297  22.801  25.957  1.00  0.00     0.164 HD
ATOM     15  O   UNL A   1      33.428  20.879  27.083  1.00  0.00    -0.275 OA
BRANCH  13  16
ATOM     16  C   UNL A   1      32.568  20.113  24.984  1.00  0.00     0.168 C 
BRANCH  16  17
ATOM     17  C   UNL A   1      33.118  18.689  25.044  1.00  0.00     0.103 C 
ATOM     18  C   UNL A   1      32.436  17.782  24.000  1.00  0.00     0.069 C 
ATOM     19  C   UNL A   1      34.588  18.576  24.626  1.00  0.00     0.069 C 
ATOM     20  C   UNL A   1      33.364  16.577  23.896  1.00  0.00     0.007 C 
ATOM     21  C   UNL A   1      34.767  17.140  24.120  1.00  0.00     0.007 C 
BRANCH  17  22
ATOM     22  N   UNL A   1      32.903  18.100  26.365  1.00  0.00    -0.352 N 
ATOM     23  H   UNL A   1      33.232  17.134  26.364  1.00  0.00     0.344 HD
ATOM     24  H   UNL A   1      31.908  18.119  26.587  1.00  0.00     0.344 HD
ATOM     25  H   UNL A   1      33.418  18.635  27.063  1.00  0.00     0.344 HD
ENDBRANCH  17  22
ENDBRANCH  16  17
ENDBRANCH  13  16
ENDBRANCH   7  12
ENDBRANCH   4   7
ENDBRANCH   2   3
ENDBRANCH   1   2
BRANCH   1  26
ATOM     26  C   UNL A   1      37.605  22.268  25.212  1.00  0.00     0.002 C 
BRANCH  26  27
ATOM     27  C   UNL A   1      37.209  20.906  24.642  1.00  0.00     0.002 C 
BRANCH  27  28
ATOM     28  C   UNL A   1      38.156  19.761  25.001  1.00  0.00     0.021 C 
BRANCH  28  29
ATOM     29  C   UNL A   1      39.262  20.136  25.978  1.00  0.00     0.116 C 
BRANCH  29  30
ATOM     30  N   UNL A   1      40.297  19.119  26.046  1.00  0.00    -0.352 N 
ATOM     31  C   UNL A   1      41.655  19.285  26.120  1.00  0.00     0.251 C 
ATOM     32  H   UNL A   1      39.981  18.187  26.037  1.00  0.00     0.163 HD
ATOM     33  O   UNL A   1      42.408  18.326  25.963  1.00  0.00    -0.269 OA
BRANCH  31  34
ATOM     34  C   UNL A   1      42.215  20.630  26.365  1.00  0.00     0.039 A 
ATOM     35  C   UNL A   1      42.565  21.421  25.270  1.00  0.00     0.014 A 
ATOM     36  C   UNL A   1      42.383  21.112  27.668  1.00  0.00     0.014 A 
ATOM     37  C   UNL A   1      43.039  22.716  25.481  1.00  0.00     0.010 A 
ATOM     38  C   UNL A   1      42.779  22.432  27.872  1.00  0.00     0.010 A 
ATOM     39  C   UNL A   1      43.119  23.243  26.781  1.00  0.00    -0.014 A 
BRANCH  39  40
ATOM     40  C   UNL A   1      43.547  24.649  26.997  1.00  0.00     0.031 A 
ATOM     41  C   UNL A   1      42.581  25.672  27.526  1.00  0.00     0.074 A 
ATOM     42  C   UNL A   1      44.808  25.007  26.689  1.00  0.00     0.049 A 
ATOM     43  N   UNL A   1      42.790  26.931  27.822  1.00  0.00    -0.248 NA
ATOM     44  C   UNL A   1      41.192  25.233  27.727  1.00  0.00     0.031 C 
ATOM     45  C   UNL A   1      45.819  24.121  26.110  1.00  0.00     0.029 A 
ATOM     46  N   UNL A   1      45.458  26.207  26.826  1.00  0.00    -0.354 N 
ATOM     47  C   UNL A   1      41.562  27.433  28.233  1.00  0.00     0.074 A 
ATOM     48  C   UNL A   1      40.601  26.360  28.092  1.00  0.00     0.031 C 
ATOM     49  C   UNL A   1      46.974  24.791  25.990  1.00  0.00     0.029 A 
ATOM     50  C   UNL A   1      46.778  26.163  26.449  1.00  0.00     0.049 A 
ATOM     51  H   UNL A   1      45.021  27.022  27.164  1.00  0.00     0.167 HD
ATOM     52  C   UNL A   1      41.268  28.668  28.706  1.00  0.00     0.037 A 
ATOM     53  C   UNL A   1      47.725  27.119  26.479  1.00  0.00     0.037 A 
ATOM     54  C   UNL A   1      42.234  29.726  28.858  1.00  0.00     0.049 A 
ATOM     55  C   UNL A   1      47.372  28.482  27.010  1.00  0.00     0.074 A 
ATOM     56  C   UNL A   1      42.056  30.986  29.400  1.00  0.00     0.029 A 
ATOM     57  N   UNL A   1      43.559  29.651  28.453  1.00  0.00    -0.354 N 
ATOM     58  N   UNL A   1      46.232  28.916  27.489  1.00  0.00    -0.248 NA
ATOM     59  C   UNL A   1      48.445  29.484  27.010  1.00  0.00     0.031 C 
ATOM     60  C   UNL A   1      43.256  31.695  29.266  1.00  0.00     0.029 A 
ATOM     61  C   UNL A   1      44.200  30.856  28.698  1.00  0.00     0.049 A 
ATOM     62  H   UNL A   1      43.982  28.858  28.049  1.00  0.00     0.167 HD
ATOM     63  C   UNL A   1      46.455  30.232  27.871  1.00  0.00     0.074 A 
ATOM     64  C   UNL A   1      47.848  30.514  27.591  1.00  0.00     0.031 C 
ATOM     65  C   UNL A   1      45.585  31.128  28.402  1.00  0.00     0.037 A 
BRANCH  52  66
ATOM     66  C   UNL A   1      39.839  28.944  29.085  1.00  0.00     0.064 A 
ATOM     67  C   UNL A   1      38.902  29.413  28.151  1.00  0.00     0.173 A 
ATOM     68  C   UNL A   1      39.396  28.715  30.396  1.00  0.00     0.173 A 
ATOM     69  F   UNL A   1      39.273  29.659  26.885  1.00  0.00    -0.203 F 
ATOM     70  C   UNL A   1      37.586  29.679  28.525  1.00  0.00     0.198 A 
ATOM     71  C   UNL A   1      38.071  28.949  30.758  1.00  0.00     0.198 A 
ATOM     72  F   UNL A   1      40.246  28.261  31.329  1.00  0.00    -0.203 F 
ATOM     73  F   UNL A   1      36.727  30.185  27.630  1.00  0.00    -0.200 F 
ATOM     74  C   UNL A   1      37.170  29.441  29.826  1.00  0.00     0.200 A 
ATOM     75  F   UNL A   1      37.668  28.703  32.012  1.00  0.00    -0.200 F 
ATOM     76  F   UNL A   1      35.904  29.694  30.183  1.00  0.00    -0.200 F 
ENDBRANCH  52  66
BRANCH  53  77
ATOM     77  C   UNL A   1      49.109  26.807  26.038  1.00  0.00     0.064 A 
ATOM     78  C   UNL A   1      50.054  26.305  26.944  1.00  0.00     0.173 A 
ATOM     79  C   UNL A   1      49.516  26.999  24.711  1.00  0.00     0.173 A 
ATOM     80  F   UNL A   1      49.719  26.122  28.229  1.00  0.00    -0.203 F 
ATOM     81  C   UNL A   1      51.360  26.027  26.543  1.00  0.00     0.198 A 
ATOM     82  C   UNL A   1      50.813  26.692  24.303  1.00  0.00     0.198 A 
ATOM     83  F   UNL A   1      48.648  27.472  23.803  1.00  0.00    -0.203 F 
ATOM     84  F   UNL A   1      52.256  25.591  27.439  1.00  0.00    -0.200 F 
ATOM     85  C   UNL A   1      51.736  26.215  25.221  1.00  0.00     0.200 A 
ATOM     86  F   UNL A   1      51.168  26.860  23.022  1.00  0.00    -0.200 F 
ATOM     87  F   UNL A   1      52.989  25.941  24.833  1.00  0.00    -0.200 F 
ENDBRANCH  53  77
BRANCH  65  88
ATOM     88  C   UNL A   1      46.127  32.491  28.731  1.00  0.00     0.064 A 
ATOM     89  C   UNL A   1      46.082  33.545  27.807  1.00  0.00     0.173 A 
ATOM     90  C   UNL A   1      46.700  32.744  29.987  1.00  0.00     0.173 A 
ATOM     91  F   UNL A   1      45.558  33.353  26.586  1.00  0.00    -0.203 F 
ATOM     92  C   UNL A   1      46.628  34.790  28.111  1.00  0.00     0.198 A 
ATOM     93  C   UNL A   1      47.212  34.001  30.301  1.00  0.00     0.198 A 
ATOM     94  F   UNL A   1      46.763  31.775  30.911  1.00  0.00    -0.203 F 
ATOM     95  F   UNL A   1      46.637  35.760  27.187  1.00  0.00    -0.200 F 
ATOM     96  C   UNL A   1      47.189  35.018  29.359  1.00  0.00     0.200 A 
ATOM     97  F   UNL A   1      47.739  34.223  31.513  1.00  0.00    -0.200 F 
ATOM     98  F   UNL A   1      47.718  36.214  29.649  1.00  0.00    -0.200 F 
ENDBRANCH  65  88
ENDBRANCH  39  40
ENDBRANCH  31  34
ENDBRANCH  29  30
ENDBRANCH  28  29
ENDBRANCH  27  28
ENDBRANCH  26  27
ENDBRANCH   1  26
TORSDOF 19
ENDMDL
MODEL 3
REMARK VINA RESULT:     -11.4      5.934     10.422
REMARK SMILES CCC(CC)(NC(=O)CC1([NH3+])CCCC1)C(=O)NCCCCCCNC(=O)c1ccc(-c2c3nc(c(-c4c(F)c(F)c(F)c(F)c4F)c4ccc([nH]4)c(-c4c(F)c(F)c(F)c(F)c4F)c4nc(c(-c5c(F)c(F)c(F)c(F)c5F)c5ccc2[nH]5)C=C4)C=C3)cc1
REMARK SMILES IDX 20 1 19 2 18 3 16 4 17 5 3 7 2 8 1 9 4 10 5 11 6 12 7 13
REMARK SMILES IDX 8 15 9 16 10 17 12 18 15 19 13 20 14 21 11 22 21 26 22 27
REMARK SMILES IDX 23 28 24 29 25 30 26 31 27 33 28 34 29 35 90 36 30 37 89 38
REMARK SMILES IDX 31 39 32 40 33 41 83 42 34 43 88 44 82 45 84 46 35 47 87 48
REMARK SMILES IDX 81 49 80 50 36 52 68 53 48 54 67 55 49 56 52 57 66 58 85 59
REMARK SMILES IDX 50 60 51 61 65 63 86 64 53 65 37 66 38 67 46 68 39 69 40 70
REMARK SMILES IDX 44 71 47 72 41 73 42 74 45 75 43 76 69 77 70 78 78 79 71 80
REMARK SMILES IDX 72 81 76 82 79 83 73 84 74 85 77 86 75 87 54 88 55 89 63 90
REMARK SMILES IDX 56 91 57 92 61 93 64 94 58 95 59 96 62 97 60 98
REMARK H PARENT 18 6 6 14 11 23 11 24 11 25 25 32 84 51 52 62
REMARK Flexibility Score: inf
ROOT
ATOM      1  C   UNL A   1      37.288  23.691  25.316  1.00  0.00     0.021 C 
ENDROOT
BRANCH   1   2
ATOM      2  C   UNL A   1      35.993  23.911  26.099  1.00  0.00     0.116 C 
BRANCH   2   3
ATOM      3  N   UNL A   1      35.096  24.892  25.507  1.00  0.00    -0.354 N 
ATOM      4  C   UNL A   1      33.885  24.769  24.875  1.00  0.00     0.245 C 
ATOM      5  O   UNL A   1      33.304  25.835  24.651  1.00  0.00    -0.272 OA
ATOM      6  H   UNL A   1      35.419  25.819  25.575  1.00  0.00     0.163 HD
BRANCH   4   7
ATOM      7  C   UNL A   1      33.221  23.367  24.649  1.00  0.00     0.118 C 
BRANCH   7   8
ATOM      8  C   UNL A   1      33.501  22.672  23.284  1.00  0.00     0.035 C 
ATOM      9  C   UNL A   1      34.807  22.992  22.572  1.00  0.00     0.007 C 
ENDBRANCH   7   8
BRANCH   7  10
ATOM     10  C   UNL A   1      31.684  23.677  24.757  1.00  0.00     0.035 C 
ATOM     11  C   UNL A   1      30.861  23.582  23.479  1.00  0.00     0.007 C 
ENDBRANCH   7  10
BRANCH   7  12
ATOM     12  N   UNL A   1      33.642  22.411  25.711  1.00  0.00    -0.342 N 
ATOM     13  C   UNL A   1      33.120  21.194  26.056  1.00  0.00     0.227 C 
ATOM     14  H   UNL A   1      34.415  22.699  26.247  1.00  0.00     0.164 HD
ATOM     15  O   UNL A   1      33.279  20.839  27.230  1.00  0.00    -0.275 OA
BRANCH  13  16
ATOM     16  C   UNL A   1      32.534  20.215  25.042  1.00  0.00     0.168 C 
BRANCH  16  17
ATOM     17  C   UNL A   1      33.076  18.788  24.976  1.00  0.00     0.103 C 
ATOM     18  C   UNL A   1      32.454  18.007  23.802  1.00  0.00     0.069 C 
ATOM     19  C   UNL A   1      34.568  18.709  24.633  1.00  0.00     0.069 C 
ATOM     20  C   UNL A   1      33.383  16.812  23.620  1.00  0.00     0.007 C 
ATOM     21  C   UNL A   1      34.773  17.336  23.984  1.00  0.00     0.007 C 
BRANCH  17  22
ATOM     22  N   UNL A   1      32.785  18.061  26.211  1.00  0.00    -0.352 N 
ATOM     23  H   UNL A   1      33.168  18.574  27.006  1.00  0.00     0.344 HD
ATOM     24  H   UNL A   1      33.210  17.135  26.168  1.00  0.00     0.344 HD
ATOM     25  H   UNL A   1      31.776  17.967  26.320  1.00  0.00     0.344 HD
ENDBRANCH  17  22
ENDBRANCH  16  17
ENDBRANCH  13  16
ENDBRANCH   7  12
ENDBRANCH   4   7
ENDBRANCH   2   3
ENDBRANCH   1   2
BRANCH   1  26
ATOM     26  C   UNL A   1      38.021  22.379  25.608  1.00  0.00     0.002 C 
BRANCH  26  27
ATOM     27  C   UNL A   1      37.499  21.165  24.839  1.00  0.00     0.002 C 
BRANCH  27  28
ATOM     28  C   UNL A   1      38.348  19.902  24.985  1.00  0.00     0.021 C 
BRANCH  28  29
ATOM     29  C   UNL A   1      39.322  19.923  26.155  1.00  0.00     0.116 C 
BRANCH  29  30
ATOM     30  N   UNL A   1      40.418  18.988  25.969  1.00  0.00    -0.352 N 
ATOM     31  C   UNL A   1      41.764  19.241  25.953  1.00  0.00     0.251 C 
ATOM     32  H   UNL A   1      40.158  18.048  25.838  1.00  0.00     0.163 HD
ATOM     33  O   UNL A   1      42.554  18.376  25.579  1.00  0.00    -0.269 OA
BRANCH  31  34
ATOM     34  C   UNL A   1      42.263  20.570  26.362  1.00  0.00     0.039 A 
ATOM     35  C   UNL A   1      42.564  21.507  25.373  1.00  0.00     0.014 A 
ATOM     36  C   UNL A   1      42.424  20.892  27.714  1.00  0.00     0.014 A 
ATOM     37  C   UNL A   1      42.979  22.786  25.742  1.00  0.00     0.010 A 
ATOM     38  C   UNL A   1      42.761  22.192  28.080  1.00  0.00     0.010 A 
ATOM     39  C   UNL A   1      43.050  23.150  27.098  1.00  0.00    -0.014 A 
BRANCH  39  40
ATOM     40  C   UNL A   1      43.414  24.536  27.487  1.00  0.00     0.031 A 
ATOM     41  C   UNL A   1      44.849  24.985  27.471  1.00  0.00     0.074 A 
ATOM     42  C   UNL A   1      42.446  25.386  27.879  1.00  0.00     0.049 A 
ATOM     43  N   UNL A   1      45.348  26.168  27.732  1.00  0.00    -0.248 NA
ATOM     44  C   UNL A   1      45.860  23.967  27.145  1.00  0.00     0.031 C 
ATOM     45  C   UNL A   1      41.026  25.049  27.996  1.00  0.00     0.029 A 
ATOM     46  N   UNL A   1      42.506  26.706  28.245  1.00  0.00    -0.354 N 
ATOM     47  C   UNL A   1      46.725  26.033  27.610  1.00  0.00     0.074 A 
ATOM     48  C   UNL A   1      46.987  24.642  27.311  1.00  0.00     0.031 C 
ATOM     49  C   UNL A   1      40.343  26.146  28.354  1.00  0.00     0.029 A 
ATOM     50  C   UNL A   1      41.278  27.254  28.527  1.00  0.00     0.049 A 
ATOM     51  H   UNL A   1      43.348  27.214  28.298  1.00  0.00     0.167 HD
ATOM     52  C   UNL A   1      47.681  26.988  27.715  1.00  0.00     0.037 A 
ATOM     53  C   UNL A   1      40.944  28.510  28.877  1.00  0.00     0.037 A 
ATOM     54  C   UNL A   1      47.411  28.375  27.997  1.00  0.00     0.049 A 
ATOM     55  C   UNL A   1      42.026  29.550  28.986  1.00  0.00     0.074 A 
ATOM     56  C   UNL A   1      48.299  29.434  28.047  1.00  0.00     0.029 A 
ATOM     57  N   UNL A   1      46.157  28.891  28.292  1.00  0.00    -0.354 N 
ATOM     58  N   UNL A   1      43.314  29.435  28.771  1.00  0.00    -0.248 NA
ATOM     59  C   UNL A   1      41.600  30.900  29.378  1.00  0.00     0.031 C 
ATOM     60  C   UNL A   1      47.592  30.580  28.433  1.00  0.00     0.029 A 
ATOM     61  C   UNL A   1      46.254  30.248  28.563  1.00  0.00     0.049 A 
ATOM     62  H   UNL A   1      45.321  28.370  28.308  1.00  0.00     0.167 HD
ATOM     63  C   UNL A   1      43.850  30.699  28.978  1.00  0.00     0.074 A 
ATOM     64  C   UNL A   1      42.740  31.570  29.308  1.00  0.00     0.031 C 
ATOM     65  C   UNL A   1      45.143  31.101  28.904  1.00  0.00     0.037 A 
BRANCH  52  66
ATOM     66  C   UNL A   1      49.111  26.560  27.533  1.00  0.00     0.064 A 
ATOM     67  C   UNL A   1      49.674  26.376  26.260  1.00  0.00     0.173 A 
ATOM     68  C   UNL A   1      49.938  26.353  28.648  1.00  0.00     0.173 A 
ATOM     69  F   UNL A   1      48.927  26.551  25.159  1.00  0.00    -0.203 F 
ATOM     70  C   UNL A   1      50.997  25.964  26.111  1.00  0.00     0.198 A 
ATOM     71  C   UNL A   1      51.269  25.975  28.495  1.00  0.00     0.198 A 
ATOM     72  F   UNL A   1      49.456  26.521  29.889  1.00  0.00    -0.203 F 
ATOM     73  F   UNL A   1      51.492  25.736  24.887  1.00  0.00    -0.200 F 
ATOM     74  C   UNL A   1      51.795  25.770  27.228  1.00  0.00     0.200 A 
ATOM     75  F   UNL A   1      52.044  25.803  29.575  1.00  0.00    -0.200 F 
ATOM     76  F   UNL A   1      53.068  25.377  27.083  1.00  0.00    -0.200 F 
ENDBRANCH  52  66
BRANCH  53  77
ATOM     77  C   UNL A   1      39.519  28.864  29.101  1.00  0.00     0.064 A 
ATOM     78  C   UNL A   1      38.949  28.769  30.379  1.00  0.00     0.173 A 
ATOM     79  C   UNL A   1      38.699  29.303  28.053  1.00  0.00     0.173 A 
ATOM     80  F   UNL A   1      39.687  28.335  31.411  1.00  0.00    -0.203 F 
ATOM     81  C   UNL A   1      37.609  29.082  30.595  1.00  0.00     0.198 A 
ATOM     82  C   UNL A   1      37.367  29.645  28.275  1.00  0.00     0.198 A 
ATOM     83  F   UNL A   1      39.197  29.417  26.813  1.00  0.00    -0.203 F 
ATOM     84  F   UNL A   1      37.077  28.939  31.817  1.00  0.00    -0.200 F 
ATOM     85  C   UNL A   1      36.820  29.525  29.544  1.00  0.00     0.200 A 
ATOM     86  F   UNL A   1      36.613  30.089  27.261  1.00  0.00    -0.200 F 
ATOM     87  F   UNL A   1      35.532  29.833  29.753  1.00  0.00    -0.200 F 
ENDBRANCH  53  77
BRANCH  65  88
ATOM     88  C   UNL A   1      45.420  32.555  29.168  1.00  0.00     0.064 A 
ATOM     89  C   UNL A   1      45.371  33.513  28.144  1.00  0.00     0.173 A 
ATOM     90  C   UNL A   1      45.739  32.995  30.461  1.00  0.00     0.173 A 
ATOM     91  F   UNL A   1      45.085  33.144  26.885  1.00  0.00    -0.203 F 
ATOM     92  C   UNL A   1      45.673  34.849  28.396  1.00  0.00     0.198 A 
ATOM     93  C   UNL A   1      46.003  34.338  30.717  1.00  0.00     0.198 A 
ATOM     94  F   UNL A   1      45.792  32.124  31.479  1.00  0.00    -0.203 F 
ATOM     95  F   UNL A   1      45.689  35.733  27.389  1.00  0.00    -0.200 F 
ATOM     96  C   UNL A   1      45.984  35.262  29.684  1.00  0.00     0.200 A 
ATOM     97  F   UNL A   1      46.289  34.736  31.965  1.00  0.00    -0.200 F 
ATOM     98  F   UNL A   1      46.279  36.546  29.925  1.00  0.00    -0.200 F 
ENDBRANCH  65  88
ENDBRANCH  39  40
ENDBRANCH  31  34
ENDBRANCH  29  30
ENDBRANCH  28  29
ENDBRANCH  27  28
ENDBRANCH  26  27
ENDBRANCH   1  26
TORSDOF 19
ENDMDL
