MODEL 1
REMARK VINA RESULT:     -11.9      0.000      0.000
REMARK SMILES O=C(NCCCCCCNC(=O)c1ccc(S(=O)(=O)NCC[NH+]2CCCC2)c(F)c1)c1ccc(-c2c3nc(c(-c4c(F)c(F)c(F)c(F)c4F)c4ccc([nH]4)c(-c4c(F)c(F)c(F)c(F)c4F)c4nc(c(-c5c(F)c(F)c(F)c(F)c5F)c5ccc2[nH]5)C=C4)C=C3)cc1
REMARK SMILES IDX 8 1 7 2 6 3 5 4 4 5 3 6 1 7 2 8 31 10 32 11 93 12 33 13
REMARK SMILES IDX 92 14 34 15 35 16 36 17 86 18 37 19 91 20 85 21 87 22 38 23
REMARK SMILES IDX 90 24 84 25 83 26 39 28 71 29 51 30 70 31 52 32 55 33 69 34
REMARK SMILES IDX 88 35 53 36 54 37 68 39 89 40 56 41 40 42 41 43 49 44 42 45
REMARK SMILES IDX 43 46 47 47 50 48 44 49 45 50 48 51 46 52 72 53 73 54 81 55
REMARK SMILES IDX 74 56 75 57 79 58 82 59 76 60 77 61 80 62 78 63 57 64 58 65
REMARK SMILES IDX 66 66 59 67 60 68 64 69 67 70 61 71 62 72 65 73 63 74 9 75
REMARK SMILES IDX 10 76 11 77 12 79 13 80 14 81 30 82 15 83 28 84 16 85 29 86
REMARK SMILES IDX 17 87 18 88 19 89 20 90 21 92 22 93 23 94 24 95 27 96 25 98
REMARK SMILES IDX 26 99
REMARK H PARENT 3 9 87 27 55 38 10 78 20 91 23 97
REMARK Flexibility Score: inf
ROOT
ATOM      1  C   UNL A   1      35.114  21.203  25.899  1.00  0.00     0.021 C 
ENDROOT
BRANCH   1   2
ATOM      2  C   UNL A   1      35.786  21.398  24.537  1.00  0.00     0.002 C 
BRANCH   2   3
ATOM      3  C   UNL A   1      37.316  21.412  24.529  1.00  0.00     0.002 C 
BRANCH   3   4
ATOM      4  C   UNL A   1      38.008  20.093  24.883  1.00  0.00     0.021 C 
BRANCH   4   5
ATOM      5  C   UNL A   1      38.984  20.148  26.052  1.00  0.00     0.116 C 
BRANCH   5   6
ATOM      6  N   UNL A   1      40.096  19.226  25.906  1.00  0.00    -0.352 N 
ATOM      7  O   UNL A   1      42.249  18.585  25.722  1.00  0.00    -0.269 OA
ATOM      8  C   UNL A   1      41.444  19.471  25.997  1.00  0.00     0.251 C 
ATOM      9  H   UNL A   1      39.848  18.293  25.713  1.00  0.00     0.163 HD
BRANCH   8  10
ATOM     10  C   UNL A   1      41.941  20.805  26.405  1.00  0.00     0.039 A 
ATOM     11  C   UNL A   1      42.191  21.808  25.464  1.00  0.00     0.014 A 
ATOM     12  C   UNL A   1      42.109  21.071  27.769  1.00  0.00     0.014 A 
ATOM     13  C   UNL A   1      42.695  23.040  25.877  1.00  0.00     0.010 A 
ATOM     14  C   UNL A   1      42.562  22.325  28.188  1.00  0.00     0.010 A 
ATOM     15  C   UNL A   1      42.871  23.316  27.243  1.00  0.00    -0.014 A 
BRANCH  15  16
ATOM     16  C   UNL A   1      43.292  24.673  27.668  1.00  0.00     0.031 A 
ATOM     17  C   UNL A   1      44.738  25.067  27.703  1.00  0.00     0.074 A 
ATOM     18  C   UNL A   1      42.339  25.562  28.011  1.00  0.00     0.049 A 
ATOM     19  N   UNL A   1      45.269  26.220  28.030  1.00  0.00    -0.248 NA
ATOM     20  C   UNL A   1      45.721  24.041  27.325  1.00  0.00     0.031 C 
ATOM     21  C   UNL A   1      40.902  25.286  28.032  1.00  0.00     0.029 A 
ATOM     22  N   UNL A   1      42.432  26.876  28.391  1.00  0.00    -0.354 N 
ATOM     23  C   UNL A   1      46.641  26.056  27.909  1.00  0.00     0.074 A 
ATOM     24  C   UNL A   1      46.868  24.688  27.493  1.00  0.00     0.031 C 
ATOM     25  C   UNL A   1      40.245  26.405  28.370  1.00  0.00     0.029 A 
ATOM     26  C   UNL A   1      41.214  27.463  28.629  1.00  0.00     0.049 A 
ATOM     27  H   UNL A   1      43.288  27.352  28.485  1.00  0.00     0.167 HD
ATOM     28  C   UNL A   1      47.618  26.969  28.120  1.00  0.00     0.037 A 
ATOM     29  C   UNL A   1      40.911  28.715  29.021  1.00  0.00     0.037 A 
ATOM     30  C   UNL A   1      47.389  28.336  28.512  1.00  0.00     0.049 A 
ATOM     31  C   UNL A   1      42.016  29.701  29.258  1.00  0.00     0.074 A 
ATOM     32  C   UNL A   1      48.318  29.346  28.698  1.00  0.00     0.029 A 
ATOM     33  N   UNL A   1      46.144  28.883  28.780  1.00  0.00    -0.354 N 
ATOM     34  N   UNL A   1      43.308  29.540  29.111  1.00  0.00    -0.248 NA
ATOM     35  C   UNL A   1      41.623  31.038  29.726  1.00  0.00     0.031 C 
ATOM     36  C   UNL A   1      47.637  30.496  29.111  1.00  0.00     0.029 A 
ATOM     37  C   UNL A   1      46.283  30.211  29.152  1.00  0.00     0.049 A 
ATOM     38  H   UNL A   1      45.288  28.401  28.716  1.00  0.00     0.167 HD
ATOM     39  C   UNL A   1      43.884  30.749  29.469  1.00  0.00     0.074 A 
ATOM     40  C   UNL A   1      42.800  31.645  29.818  1.00  0.00     0.031 C 
ATOM     41  C   UNL A   1      45.196  31.083  29.511  1.00  0.00     0.037 A 
BRANCH  28  42
ATOM     42  C   UNL A   1      49.038  26.537  27.930  1.00  0.00     0.064 A 
ATOM     43  C   UNL A   1      49.850  26.255  29.039  1.00  0.00     0.173 A 
ATOM     44  C   UNL A   1      49.624  26.500  26.657  1.00  0.00     0.173 A 
ATOM     45  F   UNL A   1      49.335  26.284  30.277  1.00  0.00    -0.203 F 
ATOM     46  C   UNL A   1      51.203  25.967  28.880  1.00  0.00     0.198 A 
ATOM     47  C   UNL A   1      50.975  26.197  26.501  1.00  0.00     0.198 A 
ATOM     48  F   UNL A   1      48.886  26.755  25.567  1.00  0.00    -0.203 F 
ATOM     49  F   UNL A   1      51.966  25.728  29.955  1.00  0.00    -0.200 F 
ATOM     50  C   UNL A   1      51.764  25.939  27.612  1.00  0.00     0.200 A 
ATOM     51  F   UNL A   1      51.514  26.157  25.274  1.00  0.00    -0.200 F 
ATOM     52  F   UNL A   1      53.067  25.666  27.461  1.00  0.00    -0.200 F 
ENDBRANCH  28  42
BRANCH  29  53
ATOM     53  C   UNL A   1      39.489  29.095  29.207  1.00  0.00     0.064 A 
ATOM     54  C   UNL A   1      38.883  29.043  30.470  1.00  0.00     0.173 A 
ATOM     55  C   UNL A   1      38.700  29.478  28.115  1.00  0.00     0.173 A 
ATOM     56  F   UNL A   1      39.600  28.678  31.544  1.00  0.00    -0.203 F 
ATOM     57  C   UNL A   1      37.533  29.343  30.631  1.00  0.00     0.198 A 
ATOM     58  C   UNL A   1      37.355  29.798  28.280  1.00  0.00     0.198 A 
ATOM     59  F   UNL A   1      39.244  29.558  26.891  1.00  0.00    -0.203 F 
ATOM     60  F   UNL A   1      36.970  29.256  31.844  1.00  0.00    -0.200 F 
ATOM     61  C   UNL A   1      36.771  29.722  29.537  1.00  0.00     0.200 A 
ATOM     62  F   UNL A   1      36.625  30.182  27.224  1.00  0.00    -0.200 F 
ATOM     63  F   UNL A   1      35.473  30.017  29.692  1.00  0.00    -0.200 F 
ENDBRANCH  29  53
BRANCH  41  64
ATOM     64  C   UNL A   1      45.534  32.469  29.963  1.00  0.00     0.064 A 
ATOM     65  C   UNL A   1      45.741  32.748  31.322  1.00  0.00     0.173 A 
ATOM     66  C   UNL A   1      45.598  33.531  29.052  1.00  0.00     0.173 A 
ATOM     67  F   UNL A   1      45.687  31.762  32.230  1.00  0.00    -0.203 F 
ATOM     68  C   UNL A   1      45.993  34.047  31.752  1.00  0.00     0.198 A 
ATOM     69  C   UNL A   1      45.866  34.826  29.483  1.00  0.00     0.198 A 
ATOM     70  F   UNL A   1      45.421  33.307  27.741  1.00  0.00    -0.203 F 
ATOM     71  F   UNL A   1      46.169  34.296  33.057  1.00  0.00    -0.200 F 
ATOM     72  C   UNL A   1      46.057  35.084  30.833  1.00  0.00     0.200 A 
ATOM     73  F   UNL A   1      45.949  35.824  28.592  1.00  0.00    -0.200 F 
ATOM     74  F   UNL A   1      46.308  36.334  31.248  1.00  0.00    -0.200 F 
ENDBRANCH  41  64
ENDBRANCH  15  16
ENDBRANCH   8  10
ENDBRANCH   5   6
ENDBRANCH   4   5
ENDBRANCH   3   4
ENDBRANCH   2   3
ENDBRANCH   1   2
BRANCH   1  75
ATOM     75  C   UNL A   1      34.900  22.463  26.735  1.00  0.00     0.116 C 
BRANCH  75  76
ATOM     76  N   UNL A   1      33.543  22.596  27.236  1.00  0.00    -0.352 N 
ATOM     77  C   UNL A   1      32.554  23.475  26.867  1.00  0.00     0.251 C 
ATOM     78  H   UNL A   1      33.295  21.961  27.948  1.00  0.00     0.163 HD
ATOM     79  O   UNL A   1      31.487  23.496  27.472  1.00  0.00    -0.269 OA
BRANCH  77  80
ATOM     80  C   UNL A   1      32.787  24.439  25.771  1.00  0.00     0.042 A 
ATOM     81  C   UNL A   1      33.334  25.702  26.012  1.00  0.00     0.015 A 
ATOM     82  C   UNL A   1      32.435  24.061  24.472  1.00  0.00     0.054 A 
ATOM     83  C   UNL A   1      33.395  26.633  24.976  1.00  0.00     0.026 A 
ATOM     84  C   UNL A   1      32.527  24.987  23.433  1.00  0.00     0.144 A 
ATOM     85  C   UNL A   1      32.955  26.282  23.691  1.00  0.00     0.118 A 
ATOM     86  F   UNL A   1      32.143  24.590  22.214  1.00  0.00    -0.205 F 
BRANCH  85  87
ATOM     87  S   UNL A   1      32.811  27.587  22.512  1.00  0.00     0.243 S 
ATOM     88  O   UNL A   1      32.998  28.817  23.250  1.00  0.00    -0.207 OA
ATOM     89  O   UNL A   1      33.669  27.239  21.401  1.00  0.00    -0.207 OA
BRANCH  87  90
ATOM     90  N   UNL A   1      31.244  27.581  21.934  1.00  0.00    -0.205 NA
ATOM     91  H   UNL A   1      30.939  26.607  21.929  1.00  0.00     0.141 HD
BRANCH  90  92
ATOM     92  C   UNL A   1      30.192  28.348  22.617  1.00  0.00     0.160 C 
BRANCH  92  93
ATOM     93  C   UNL A   1      29.903  29.702  21.949  1.00  0.00     0.278 C 
BRANCH  93  94
ATOM     94  N   UNL A   1      28.478  30.011  21.711  1.00  0.00    -0.334 N 
ATOM     95  C   UNL A   1      28.337  31.408  21.257  1.00  0.00     0.262 C 
ATOM     96  C   UNL A   1      27.637  29.943  22.914  1.00  0.00     0.262 C 
ATOM     97  H   UNL A   1      28.179  29.311  21.033  1.00  0.00     0.348 HD
ATOM     98  C   UNL A   1      28.302  32.239  22.530  1.00  0.00     0.067 C 
ATOM     99  C   UNL A   1      27.674  31.319  23.565  1.00  0.00     0.067 C 
ENDBRANCH  93  94
ENDBRANCH  92  93
ENDBRANCH  90  92
ENDBRANCH  87  90
ENDBRANCH  85  87
ENDBRANCH  77  80
ENDBRANCH  75  76
ENDBRANCH   1  75
TORSDOF 18
ENDMDL
MODEL 2
REMARK VINA RESULT:     -11.8      0.794      7.137
REMARK SMILES O=C(NCCCCCCNC(=O)c1ccc(S(=O)(=O)NCC[NH+]2CCCC2)c(F)c1)c1ccc(-c2c3nc(c(-c4c(F)c(F)c(F)c(F)c4F)c4ccc([nH]4)c(-c4c(F)c(F)c(F)c(F)c4F)c4nc(c(-c5c(F)c(F)c(F)c(F)c5F)c5ccc2[nH]5)C=C4)C=C3)cc1
REMARK SMILES IDX 8 1 7 2 6 3 5 4 4 5 3 6 1 7 2 8 31 10 32 11 93 12 33 13
REMARK SMILES IDX 92 14 34 15 35 16 36 17 86 18 37 19 91 20 85 21 87 22 38 23
REMARK SMILES IDX 90 24 84 25 83 26 39 28 71 29 51 30 70 31 52 32 55 33 69 34
REMARK SMILES IDX 88 35 53 36 54 37 68 39 89 40 56 41 40 42 41 43 49 44 42 45
REMARK SMILES IDX 43 46 47 47 50 48 44 49 45 50 48 51 46 52 72 53 73 54 81 55
REMARK SMILES IDX 74 56 75 57 79 58 82 59 76 60 77 61 80 62 78 63 57 64 58 65
REMARK SMILES IDX 66 66 59 67 60 68 64 69 67 70 61 71 62 72 65 73 63 74 9 75
REMARK SMILES IDX 10 76 11 77 12 79 13 80 14 81 30 82 15 83 28 84 16 85 29 86
REMARK SMILES IDX 17 87 18 88 19 89 20 90 21 92 22 93 23 94 24 95 27 96 25 98
REMARK SMILES IDX 26 99
REMARK H PARENT 3 9 87 27 55 38 10 78 20 91 23 97
REMARK Flexibility Score: inf
ROOT
ATOM      1  C   UNL A   1      35.142  21.179  25.859  1.00  0.00     0.021 C 
ENDROOT
BRANCH   1   2
ATOM      2  C   UNL A   1      35.833  21.419  24.514  1.00  0.00     0.002 C 
BRANCH   2   3
ATOM      3  C   UNL A   1      37.363  21.429  24.527  1.00  0.00     0.002 C 
BRANCH   3   4
ATOM      4  C   UNL A   1      38.046  20.117  24.916  1.00  0.00     0.021 C 
BRANCH   4   5
ATOM      5  C   UNL A   1      39.012  20.194  26.093  1.00  0.00     0.116 C 
BRANCH   5   6
ATOM      6  N   UNL A   1      40.115  19.256  25.984  1.00  0.00    -0.352 N 
ATOM      7  O   UNL A   1      42.259  18.587  25.787  1.00  0.00    -0.269 OA
ATOM      8  C   UNL A   1      41.467  19.497  26.018  1.00  0.00     0.251 C 
ATOM      9  H   UNL A   1      39.858  18.313  25.868  1.00  0.00     0.163 HD
BRANCH   8  10
ATOM     10  C   UNL A   1      41.982  20.854  26.311  1.00  0.00     0.039 A 
ATOM     11  C   UNL A   1      42.168  21.797  25.296  1.00  0.00     0.014 A 
ATOM     12  C   UNL A   1      42.232  21.205  27.643  1.00  0.00     0.014 A 
ATOM     13  C   UNL A   1      42.691  23.053  25.600  1.00  0.00     0.010 A 
ATOM     14  C   UNL A   1      42.705  22.483  27.954  1.00  0.00     0.010 A 
ATOM     15  C   UNL A   1      42.950  23.413  26.933  1.00  0.00    -0.014 A 
BRANCH  15  16
ATOM     16  C   UNL A   1      43.390  24.794  27.246  1.00  0.00     0.031 A 
ATOM     17  C   UNL A   1      42.441  25.805  27.818  1.00  0.00     0.074 A 
ATOM     18  C   UNL A   1      44.676  25.126  27.020  1.00  0.00     0.049 A 
ATOM     19  N   UNL A   1      42.674  27.047  28.166  1.00  0.00    -0.248 NA
ATOM     20  C   UNL A   1      41.051  25.374  28.028  1.00  0.00     0.031 C 
ATOM     21  C   UNL A   1      45.685  24.231  26.450  1.00  0.00     0.029 A 
ATOM     22  N   UNL A   1      45.358  26.292  27.253  1.00  0.00    -0.354 N 
ATOM     23  C   UNL A   1      41.463  27.548  28.623  1.00  0.00     0.074 A 
ATOM     24  C   UNL A   1      40.490  26.483  28.496  1.00  0.00     0.031 C 
ATOM     25  C   UNL A   1      46.865  24.868  26.412  1.00  0.00     0.029 A 
ATOM     26  C   UNL A   1      46.686  26.226  26.914  1.00  0.00     0.049 A 
ATOM     27  H   UNL A   1      44.936  27.099  27.627  1.00  0.00     0.167 HD
ATOM     28  C   UNL A   1      41.195  28.782  29.111  1.00  0.00     0.037 A 
ATOM     29  C   UNL A   1      47.654  27.159  26.991  1.00  0.00     0.037 A 
ATOM     30  C   UNL A   1      42.169  29.833  29.257  1.00  0.00     0.049 A 
ATOM     31  C   UNL A   1      47.323  28.521  27.525  1.00  0.00     0.074 A 
ATOM     32  C   UNL A   1      41.997  31.099  29.790  1.00  0.00     0.029 A 
ATOM     33  N   UNL A   1      43.496  29.741  28.867  1.00  0.00    -0.354 N 
ATOM     34  N   UNL A   1      46.181  28.971  27.981  1.00  0.00    -0.248 NA
ATOM     35  C   UNL A   1      48.412  29.509  27.543  1.00  0.00     0.031 C 
ATOM     36  C   UNL A   1      43.212  31.784  29.693  1.00  0.00     0.029 A 
ATOM     37  C   UNL A   1      44.148  30.935  29.128  1.00  0.00     0.049 A 
ATOM     38  H   UNL A   1      43.913  28.944  28.465  1.00  0.00     0.167 HD
ATOM     39  C   UNL A   1      46.408  30.291  28.339  1.00  0.00     0.074 A 
ATOM     40  C   UNL A   1      47.805  30.565  28.070  1.00  0.00     0.031 C 
ATOM     41  C   UNL A   1      45.534  31.195  28.840  1.00  0.00     0.037 A 
BRANCH  28  42
ATOM     42  C   UNL A   1      39.791  29.082  29.534  1.00  0.00     0.064 A 
ATOM     43  C   UNL A   1      39.385  28.859  30.858  1.00  0.00     0.173 A 
ATOM     44  C   UNL A   1      38.823  29.493  28.607  1.00  0.00     0.173 A 
ATOM     45  F   UNL A   1      40.275  28.460  31.779  1.00  0.00    -0.203 F 
ATOM     46  C   UNL A   1      38.054  29.022  31.235  1.00  0.00     0.198 A 
ATOM     47  C   UNL A   1      37.496  29.669  28.991  1.00  0.00     0.198 A 
ATOM     48  F   UNL A   1      39.166  29.724  27.331  1.00  0.00    -0.203 F 
ATOM     49  F   UNL A   1      37.682  28.777  32.499  1.00  0.00    -0.200 F 
ATOM     50  C   UNL A   1      37.111  29.426  30.302  1.00  0.00     0.200 A 
ATOM     51  F   UNL A   1      36.587  30.071  28.091  1.00  0.00    -0.200 F 
ATOM     52  F   UNL A   1      35.830  29.578  30.664  1.00  0.00    -0.200 F 
ENDBRANCH  28  42
BRANCH  29  53
ATOM     53  C   UNL A   1      49.029  26.819  26.550  1.00  0.00     0.064 A 
ATOM     54  C   UNL A   1      49.421  26.971  25.213  1.00  0.00     0.173 A 
ATOM     55  C   UNL A   1      49.963  26.297  27.453  1.00  0.00     0.173 A 
ATOM     56  F   UNL A   1      48.557  27.464  24.312  1.00  0.00    -0.203 F 
ATOM     57  C   UNL A   1      50.693  26.595  24.791  1.00  0.00     0.198 A 
ATOM     58  C   UNL A   1      51.243  25.941  27.034  1.00  0.00     0.198 A 
ATOM     59  F   UNL A   1      49.637  26.151  28.746  1.00  0.00    -0.203 F 
ATOM     60  F   UNL A   1      51.033  26.721  23.501  1.00  0.00    -0.200 F 
ATOM     61  C   UNL A   1      51.604  26.082  25.702  1.00  0.00     0.200 A 
ATOM     62  F   UNL A   1      52.127  25.463  27.921  1.00  0.00    -0.200 F 
ATOM     63  F   UNL A   1      52.830  25.726  25.298  1.00  0.00    -0.200 F 
ENDBRANCH  29  53
BRANCH  41  64
ATOM     64  C   UNL A   1      46.056  32.571  29.115  1.00  0.00     0.064 A 
ATOM     65  C   UNL A   1      46.588  32.896  30.371  1.00  0.00     0.173 A 
ATOM     66  C   UNL A   1      45.976  33.581  28.148  1.00  0.00     0.173 A 
ATOM     67  F   UNL A   1      46.682  31.961  31.328  1.00  0.00    -0.203 F 
ATOM     68  C   UNL A   1      47.015  34.191  30.650  1.00  0.00     0.198 A 
ATOM     69  C   UNL A   1      46.419  34.871  28.425  1.00  0.00     0.198 A 
ATOM     70  F   UNL A   1      45.486  33.311  26.928  1.00  0.00    -0.203 F 
ATOM     71  F   UNL A   1      47.504  34.486  31.863  1.00  0.00    -0.200 F 
ATOM     72  C   UNL A   1      46.932  35.175  29.677  1.00  0.00     0.200 A 
ATOM     73  F   UNL A   1      46.358  35.816  27.478  1.00  0.00    -0.200 F 
ATOM     74  F   UNL A   1      47.352  36.420  29.946  1.00  0.00    -0.200 F 
ENDBRANCH  41  64
ENDBRANCH  15  16
ENDBRANCH   8  10
ENDBRANCH   5   6
ENDBRANCH   4   5
ENDBRANCH   3   4
ENDBRANCH   2   3
ENDBRANCH   1   2
BRANCH   1  75
ATOM     75  C   UNL A   1      34.924  22.409  26.737  1.00  0.00     0.116 C 
BRANCH  75  76
ATOM     76  N   UNL A   1      33.564  22.527  27.234  1.00  0.00    -0.352 N 
ATOM     77  C   UNL A   1      32.569  23.400  26.866  1.00  0.00     0.251 C 
ATOM     78  H   UNL A   1      33.319  21.886  27.940  1.00  0.00     0.163 HD
ATOM     79  O   UNL A   1      31.500  23.408  27.465  1.00  0.00    -0.269 OA
BRANCH  77  80
ATOM     80  C   UNL A   1      32.799  24.373  25.776  1.00  0.00     0.042 A 
ATOM     81  C   UNL A   1      33.340  25.636  26.027  1.00  0.00     0.015 A 
ATOM     82  C   UNL A   1      32.448  24.003  24.474  1.00  0.00     0.054 A 
ATOM     83  C   UNL A   1      33.398  26.575  24.997  1.00  0.00     0.026 A 
ATOM     84  C   UNL A   1      32.537  24.936  23.443  1.00  0.00     0.144 A 
ATOM     85  C   UNL A   1      32.960  26.231  23.710  1.00  0.00     0.118 A 
ATOM     86  F   UNL A   1      32.155  24.547  22.221  1.00  0.00    -0.205 F 
BRANCH  85  87
ATOM     87  S   UNL A   1      32.811  27.544  22.540  1.00  0.00     0.243 S 
ATOM     88  O   UNL A   1      33.002  28.769  23.285  1.00  0.00    -0.207 OA
ATOM     89  O   UNL A   1      33.664  27.203  21.423  1.00  0.00    -0.207 OA
BRANCH  87  90
ATOM     90  N   UNL A   1      31.241  27.542  21.969  1.00  0.00    -0.205 NA
ATOM     91  H   UNL A   1      30.927  26.571  21.984  1.00  0.00     0.141 HD
BRANCH  90  92
ATOM     92  C   UNL A   1      30.200  28.332  22.642  1.00  0.00     0.160 C 
BRANCH  92  93
ATOM     93  C   UNL A   1      29.921  29.676  21.950  1.00  0.00     0.278 C 
BRANCH  93  94
ATOM     94  N   UNL A   1      28.500  29.984  21.690  1.00  0.00    -0.334 N 
ATOM     95  C   UNL A   1      28.370  31.363  21.183  1.00  0.00     0.262 C 
ATOM     96  C   UNL A   1      27.650  29.966  22.889  1.00  0.00     0.262 C 
ATOM     97  H   UNL A   1      28.200  29.260  21.037  1.00  0.00     0.348 HD
ATOM     98  C   UNL A   1      28.331  32.242  22.424  1.00  0.00     0.067 C 
ATOM     99  C   UNL A   1      27.691  31.365  23.488  1.00  0.00     0.067 C 
ENDBRANCH  93  94
ENDBRANCH  92  93
ENDBRANCH  90  92
ENDBRANCH  87  90
ENDBRANCH  85  87
ENDBRANCH  77  80
ENDBRANCH  75  76
ENDBRANCH   1  75
TORSDOF 18
ENDMDL
MODEL 3
REMARK VINA RESULT:     -11.6      5.259     10.235
REMARK SMILES O=C(NCCCCCCNC(=O)c1ccc(S(=O)(=O)NCC[NH+]2CCCC2)c(F)c1)c1ccc(-c2c3nc(c(-c4c(F)c(F)c(F)c(F)c4F)c4ccc([nH]4)c(-c4c(F)c(F)c(F)c(F)c4F)c4nc(c(-c5c(F)c(F)c(F)c(F)c5F)c5ccc2[nH]5)C=C4)C=C3)cc1
REMARK SMILES IDX 8 1 7 2 6 3 5 4 4 5 3 6 1 7 2 8 31 10 32 11 93 12 33 13
REMARK SMILES IDX 92 14 34 15 35 16 36 17 86 18 37 19 91 20 85 21 87 22 38 23
REMARK SMILES IDX 90 24 84 25 83 26 39 28 71 29 51 30 70 31 52 32 55 33 69 34
REMARK SMILES IDX 88 35 53 36 54 37 68 39 89 40 56 41 40 42 41 43 49 44 42 45
REMARK SMILES IDX 43 46 47 47 50 48 44 49 45 50 48 51 46 52 72 53 73 54 81 55
REMARK SMILES IDX 74 56 75 57 79 58 82 59 76 60 77 61 80 62 78 63 57 64 58 65
REMARK SMILES IDX 66 66 59 67 60 68 64 69 67 70 61 71 62 72 65 73 63 74 9 75
REMARK SMILES IDX 10 76 11 77 12 79 13 80 14 81 30 82 15 83 28 84 16 85 29 86
REMARK SMILES IDX 17 87 18 88 19 89 20 90 21 92 22 93 23 94 24 95 27 96 25 98
REMARK SMILES IDX 26 99
REMARK H PARENT 3 9 87 27 55 38 10 78 20 91 23 97
REMARK Flexibility Score: inf
ROOT
ATOM      1  C   UNL A   1      32.795  28.894  25.697  1.00  0.00     0.021 C 
ENDROOT
BRANCH   1   2
ATOM      2  C   UNL A   1      32.689  30.291  26.316  1.00  0.00     0.002 C 
BRANCH   2   3
ATOM      3  C   UNL A   1      31.325  30.977  26.217  1.00  0.00     0.002 C 
BRANCH   3   4
ATOM      4  C   UNL A   1      31.293  32.472  26.540  1.00  0.00     0.021 C 
BRANCH   4   5
ATOM      5  C   UNL A   1      32.526  33.026  27.242  1.00  0.00     0.116 C 
BRANCH   5   6
ATOM      6  N   UNL A   1      32.361  34.401  27.680  1.00  0.00    -0.352 N 
ATOM      7  O   UNL A   1      32.652  36.210  28.992  1.00  0.00    -0.269 OA
ATOM      8  C   UNL A   1      33.012  35.078  28.682  1.00  0.00     0.251 C 
ATOM      9  H   UNL A   1      31.685  34.921  27.189  1.00  0.00     0.163 HD
BRANCH   8  10
ATOM     10  C   UNL A   1      34.136  34.446  29.410  1.00  0.00     0.039 A 
ATOM     11  C   UNL A   1      33.934  33.773  30.619  1.00  0.00     0.014 A 
ATOM     12  C   UNL A   1      35.413  34.483  28.839  1.00  0.00     0.014 A 
ATOM     13  C   UNL A   1      35.018  33.222  31.299  1.00  0.00     0.010 A 
ATOM     14  C   UNL A   1      36.492  33.883  29.494  1.00  0.00     0.010 A 
ATOM     15  C   UNL A   1      36.305  33.259  30.736  1.00  0.00    -0.014 A 
BRANCH  15  16
ATOM     16  C   UNL A   1      37.422  32.560  31.417  1.00  0.00     0.031 A 
ATOM     17  C   UNL A   1      38.168  31.444  30.749  1.00  0.00     0.074 A 
ATOM     18  C   UNL A   1      37.771  32.961  32.655  1.00  0.00     0.049 A 
ATOM     19  N   UNL A   1      39.181  30.746  31.200  1.00  0.00    -0.248 NA
ATOM     20  C   UNL A   1      37.724  31.054  29.402  1.00  0.00     0.031 C 
ATOM     21  C   UNL A   1      37.106  34.024  33.410  1.00  0.00     0.029 A 
ATOM     22  N   UNL A   1      38.773  32.536  33.488  1.00  0.00    -0.354 N 
ATOM     23  C   UNL A   1      39.488  29.831  30.203  1.00  0.00     0.074 A 
ATOM     24  C   UNL A   1      38.546  30.049  29.125  1.00  0.00     0.031 C 
ATOM     25  C   UNL A   1      37.741  34.194  34.580  1.00  0.00     0.029 A 
ATOM     26  C   UNL A   1      38.828  33.226  34.674  1.00  0.00     0.049 A 
ATOM     27  H   UNL A   1      39.394  31.807  33.259  1.00  0.00     0.167 HD
ATOM     28  C   UNL A   1      40.472  28.901  30.190  1.00  0.00     0.037 A 
ATOM     29  C   UNL A   1      39.657  33.089  35.726  1.00  0.00     0.037 A 
ATOM     30  C   UNL A   1      41.422  28.701  31.253  1.00  0.00     0.049 A 
ATOM     31  C   UNL A   1      40.730  32.042  35.686  1.00  0.00     0.074 A 
ATOM     32  C   UNL A   1      42.486  27.816  31.303  1.00  0.00     0.029 A 
ATOM     33  N   UNL A   1      41.422  29.393  32.454  1.00  0.00    -0.354 N 
ATOM     34  N   UNL A   1      41.028  31.205  34.724  1.00  0.00    -0.248 NA
ATOM     35  C   UNL A   1      41.576  31.914  36.882  1.00  0.00     0.031 C 
ATOM     36  C   UNL A   1      43.110  27.951  32.548  1.00  0.00     0.029 A 
ATOM     37  C   UNL A   1      42.454  28.940  33.260  1.00  0.00     0.049 A 
ATOM     38  H   UNL A   1      40.783  30.102  32.698  1.00  0.00     0.167 HD
ATOM     39  C   UNL A   1      42.089  30.448  35.194  1.00  0.00     0.074 A 
ATOM     40  C   UNL A   1      42.403  30.941  36.519  1.00  0.00     0.031 C 
ATOM     41  C   UNL A   1      42.741  29.430  34.583  1.00  0.00     0.037 A 
BRANCH  28  42
ATOM     42  C   UNL A   1      40.591  28.019  28.987  1.00  0.00     0.064 A 
ATOM     43  C   UNL A   1      41.384  28.406  27.896  1.00  0.00     0.173 A 
ATOM     44  C   UNL A   1      39.841  26.840  28.871  1.00  0.00     0.173 A 
ATOM     45  F   UNL A   1      42.114  29.530  27.959  1.00  0.00    -0.203 F 
ATOM     46  C   UNL A   1      41.409  27.652  26.726  1.00  0.00     0.198 A 
ATOM     47  C   UNL A   1      39.879  26.080  27.704  1.00  0.00     0.198 A 
ATOM     48  F   UNL A   1      39.073  26.427  29.890  1.00  0.00    -0.203 F 
ATOM     49  F   UNL A   1      42.152  28.055  25.686  1.00  0.00    -0.200 F 
ATOM     50  C   UNL A   1      40.656  26.491  26.631  1.00  0.00     0.200 A 
ATOM     51  F   UNL A   1      39.162  24.951  27.618  1.00  0.00    -0.200 F 
ATOM     52  F   UNL A   1      40.677  25.768  25.503  1.00  0.00    -0.200 F 
ENDBRANCH  28  42
BRANCH  29  53
ATOM     53  C   UNL A   1      39.495  33.980  36.900  1.00  0.00     0.064 A 
ATOM     54  C   UNL A   1      40.124  35.232  36.954  1.00  0.00     0.173 A 
ATOM     55  C   UNL A   1      38.741  33.576  38.009  1.00  0.00     0.173 A 
ATOM     56  F   UNL A   1      40.860  35.658  35.917  1.00  0.00    -0.203 F 
ATOM     57  C   UNL A   1      40.019  36.040  38.083  1.00  0.00     0.198 A 
ATOM     58  C   UNL A   1      38.618  34.394  39.129  1.00  0.00     0.198 A 
ATOM     59  F   UNL A   1      38.108  32.393  37.993  1.00  0.00    -0.203 F 
ATOM     60  F   UNL A   1      40.654  37.218  38.123  1.00  0.00    -0.200 F 
ATOM     61  C   UNL A   1      39.264  35.621  39.169  1.00  0.00     0.200 A 
ATOM     62  F   UNL A   1      37.874  33.995  40.169  1.00  0.00    -0.200 F 
ATOM     63  F   UNL A   1      39.158  36.401  40.253  1.00  0.00    -0.200 F 
ENDBRANCH  29  53
BRANCH  41  64
ATOM     64  C   UNL A   1      43.848  28.771  35.345  1.00  0.00     0.064 A 
ATOM     65  C   UNL A   1      45.180  29.165  35.158  1.00  0.00     0.173 A 
ATOM     66  C   UNL A   1      43.588  27.708  36.220  1.00  0.00     0.173 A 
ATOM     67  F   UNL A   1      45.475  30.176  34.327  1.00  0.00    -0.203 F 
ATOM     68  C   UNL A   1      46.216  28.511  35.817  1.00  0.00     0.198 A 
ATOM     69  C   UNL A   1      44.625  27.067  36.891  1.00  0.00     0.198 A 
ATOM     70  F   UNL A   1      42.327  27.307  36.440  1.00  0.00    -0.203 F 
ATOM     71  F   UNL A   1      47.485  28.891  35.610  1.00  0.00    -0.200 F 
ATOM     72  C   UNL A   1      45.938  27.465  36.683  1.00  0.00     0.200 A 
ATOM     73  F   UNL A   1      44.354  26.070  37.744  1.00  0.00    -0.200 F 
ATOM     74  F   UNL A   1      46.937  26.841  37.324  1.00  0.00    -0.200 F 
ENDBRANCH  41  64
ENDBRANCH  15  16
ENDBRANCH   8  10
ENDBRANCH   5   6
ENDBRANCH   4   5
ENDBRANCH   3   4
ENDBRANCH   2   3
ENDBRANCH   1   2
BRANCH   1  75
ATOM     75  C   UNL A   1      33.140  28.837  24.210  1.00  0.00     0.116 C 
BRANCH  75  76
ATOM     76  N   UNL A   1      31.973  28.884  23.347  1.00  0.00    -0.352 N 
ATOM     77  C   UNL A   1      31.033  27.916  23.089  1.00  0.00     0.251 C 
ATOM     78  H   UNL A   1      31.836  29.738  22.875  1.00  0.00     0.163 HD
ATOM     79  O   UNL A   1      30.158  28.110  22.253  1.00  0.00    -0.269 OA
BRANCH  77  80
ATOM     80  C   UNL A   1      31.101  26.611  23.781  1.00  0.00     0.042 A 
ATOM     81  C   UNL A   1      30.341  26.350  24.924  1.00  0.00     0.015 A 
ATOM     82  C   UNL A   1      31.961  25.635  23.269  1.00  0.00     0.054 A 
ATOM     83  C   UNL A   1      30.548  25.165  25.631  1.00  0.00     0.026 A 
ATOM     84  C   UNL A   1      32.141  24.440  23.963  1.00  0.00     0.144 A 
ATOM     85  C   UNL A   1      31.480  24.225  25.164  1.00  0.00     0.118 A 
ATOM     86  F   UNL A   1      33.002  23.551  23.453  1.00  0.00    -0.205 F 
BRANCH  85  87
ATOM     87  S   UNL A   1      31.879  22.892  26.250  1.00  0.00     0.243 S 
ATOM     88  O   UNL A   1      33.309  22.958  26.458  1.00  0.00    -0.207 OA
ATOM     89  O   UNL A   1      30.954  22.970  27.359  1.00  0.00    -0.207 OA
BRANCH  87  90
ATOM     90  N   UNL A   1      31.553  21.465  25.446  1.00  0.00    -0.205 NA
ATOM     91  H   UNL A   1      30.881  21.691  24.712  1.00  0.00     0.141 HD
BRANCH  90  92
ATOM     92  C   UNL A   1      32.635  20.703  24.806  1.00  0.00     0.160 C 
BRANCH  92  93
ATOM     93  C   UNL A   1      32.903  19.351  25.486  1.00  0.00     0.278 C 
BRANCH  93  94
ATOM     94  N   UNL A   1      32.263  18.177  24.858  1.00  0.00    -0.334 N 
ATOM     95  C   UNL A   1      32.825  16.935  25.424  1.00  0.00     0.262 C 
ATOM     96  C   UNL A   1      32.512  18.053  23.415  1.00  0.00     0.262 C 
ATOM     97  H   UNL A   1      31.267  18.310  25.032  1.00  0.00     0.348 HD
ATOM     98  C   UNL A   1      34.091  16.670  24.622  1.00  0.00     0.067 C 
ATOM     99  C   UNL A   1      33.797  17.254  23.249  1.00  0.00     0.067 C 
ENDBRANCH  93  94
ENDBRANCH  92  93
ENDBRANCH  90  92
ENDBRANCH  87  90
ENDBRANCH  85  87
ENDBRANCH  77  80
ENDBRANCH  75  76
ENDBRANCH   1  75
TORSDOF 18
ENDMDL
