MODEL 1
REMARK VINA RESULT:     -11.7      0.000      0.000
REMARK SMILES O=C(NCCCCCCNC(=O)c1cccc(OS(=O)(=O)c2cccc([N+](=O)[O-])c2)c1)c1ccc(-c2c3nc(c(-c4c(F)c(F)c(F)c(F)c4F)c4ccc([nH]4)c(-c4c(F)c(F)c(F)c(F)c4F)c4nc(c(-c5c(F)c(F)c(F)c(F)c5F)c5ccc2[nH]5)C=C4)C=C3)cc1
REMARK SMILES IDX 7 1 6 2 5 3 4 4 3 5 1 6 2 7 32 9 33 10 94 11 34 12 93 13
REMARK SMILES IDX 35 14 36 15 37 16 87 17 38 18 92 19 86 20 88 21 39 22 91 23
REMARK SMILES IDX 85 24 84 25 40 27 72 28 52 29 71 30 53 31 56 32 70 33 89 34
REMARK SMILES IDX 54 35 55 36 69 38 90 39 57 40 41 41 42 42 50 43 43 44 44 45
REMARK SMILES IDX 48 46 51 47 45 48 46 49 49 50 47 51 73 52 74 53 82 54 75 55
REMARK SMILES IDX 76 56 80 57 83 58 77 59 78 60 81 61 79 62 58 63 59 64 67 65
REMARK SMILES IDX 60 66 61 67 65 68 68 69 62 70 63 71 66 72 64 73 8 74 9 75
REMARK SMILES IDX 10 76 11 77 12 79 13 80 14 81 31 82 15 83 17 84 16 85 18 86
REMARK SMILES IDX 19 87 20 88 21 89 22 90 23 91 30 92 24 93 26 94 25 95 27 96
REMARK SMILES IDX 28 97 29 98
REMARK H PARENT 3 8 88 26 56 37 10 78
REMARK Flexibility Score: inf
ROOT
ATOM      1  C   UNL A   1      34.409  32.229  28.849  1.00  0.00     0.002 C 
ENDROOT
BRANCH   1   2
ATOM      2  C   UNL A   1      34.564  33.749  28.935  1.00  0.00     0.002 C 
BRANCH   2   3
ATOM      3  C   UNL A   1      33.268  34.558  28.876  1.00  0.00     0.021 C 
BRANCH   3   4
ATOM      4  C   UNL A   1      33.337  35.960  29.472  1.00  0.00     0.116 C 
BRANCH   4   5
ATOM      5  N   UNL A   1      32.470  36.128  30.627  1.00  0.00    -0.352 N 
ATOM      6  O   UNL A   1      31.721  35.798  32.729  1.00  0.00    -0.269 OA
ATOM      7  C   UNL A   1      32.625  35.661  31.909  1.00  0.00     0.251 C 
ATOM      8  H   UNL A   1      31.653  36.653  30.467  1.00  0.00     0.163 HD
BRANCH   7   9
ATOM      9  C   UNL A   1      33.871  34.968  32.305  1.00  0.00     0.039 A 
ATOM     10  C   UNL A   1      35.107  35.617  32.264  1.00  0.00     0.014 A 
ATOM     11  C   UNL A   1      33.791  33.645  32.755  1.00  0.00     0.014 A 
ATOM     12  C   UNL A   1      36.273  34.913  32.559  1.00  0.00     0.010 A 
ATOM     13  C   UNL A   1      34.954  32.957  33.111  1.00  0.00     0.010 A 
ATOM     14  C   UNL A   1      36.207  33.578  32.991  1.00  0.00    -0.014 A 
BRANCH  14  15
ATOM     15  C   UNL A   1      37.453  32.860  33.357  1.00  0.00     0.031 A 
ATOM     16  C   UNL A   1      38.158  33.145  34.652  1.00  0.00     0.074 A 
ATOM     17  C   UNL A   1      37.942  31.933  32.512  1.00  0.00     0.049 A 
ATOM     18  N   UNL A   1      39.258  32.615  35.127  1.00  0.00    -0.248 NA
ATOM     19  C   UNL A   1      37.556  34.162  35.527  1.00  0.00     0.031 C 
ATOM     20  C   UNL A   1      37.351  31.580  31.220  1.00  0.00     0.029 A 
ATOM     21  N   UNL A   1      39.038  31.115  32.614  1.00  0.00    -0.354 N 
ATOM     22  C   UNL A   1      39.490  33.244  36.343  1.00  0.00     0.074 A 
ATOM     23  C   UNL A   1      38.427  34.211  36.526  1.00  0.00     0.031 C 
ATOM     24  C   UNL A   1      38.072  30.595  30.663  1.00  0.00     0.029 A 
ATOM     25  C   UNL A   1      39.200  30.281  31.536  1.00  0.00     0.049 A 
ATOM     26  H   UNL A   1      39.650  31.126  33.385  1.00  0.00     0.167 HD
ATOM     27  C   UNL A   1      40.493  33.028  37.227  1.00  0.00     0.037 A 
ATOM     28  C   UNL A   1      40.156  29.372  31.273  1.00  0.00     0.037 A 
ATOM     29  C   UNL A   1      41.536  32.050  37.053  1.00  0.00     0.049 A 
ATOM     30  C   UNL A   1      41.260  29.157  32.267  1.00  0.00     0.074 A 
ATOM     31  C   UNL A   1      42.573  31.730  37.913  1.00  0.00     0.029 A 
ATOM     32  N   UNL A   1      41.675  31.233  35.941  1.00  0.00    -0.354 N 
ATOM     33  N   UNL A   1      41.451  29.739  33.426  1.00  0.00    -0.248 NA
ATOM     34  C   UNL A   1      42.282  28.163  31.916  1.00  0.00     0.031 C 
ATOM     35  C   UNL A   1      43.359  30.744  37.306  1.00  0.00     0.029 A 
ATOM     36  C   UNL A   1      42.789  30.422  36.085  1.00  0.00     0.049 A 
ATOM     37  H   UNL A   1      41.070  31.229  35.165  1.00  0.00     0.167 HD
ATOM     38  C   UNL A   1      42.605  29.174  33.949  1.00  0.00     0.074 A 
ATOM     39  C   UNL A   1      43.061  28.190  32.988  1.00  0.00     0.031 C 
ATOM     40  C   UNL A   1      43.231  29.450  35.118  1.00  0.00     0.037 A 
BRANCH  27  41
ATOM     41  C   UNL A   1      40.523  33.876  38.464  1.00  0.00     0.064 A 
ATOM     42  C   UNL A   1      41.255  35.071  38.518  1.00  0.00     0.173 A 
ATOM     43  C   UNL A   1      39.772  33.514  39.592  1.00  0.00     0.173 A 
ATOM     44  F   UNL A   1      41.994  35.457  37.467  1.00  0.00    -0.203 F 
ATOM     45  C   UNL A   1      41.251  35.862  39.665  1.00  0.00     0.198 A 
ATOM     46  C   UNL A   1      39.751  34.318  40.729  1.00  0.00     0.198 A 
ATOM     47  F   UNL A   1      39.049  32.383  39.588  1.00  0.00    -0.203 F 
ATOM     48  F   UNL A   1      41.982  36.983  39.708  1.00  0.00    -0.200 F 
ATOM     49  C   UNL A   1      40.495  35.488  40.765  1.00  0.00     0.200 A 
ATOM     50  F   UNL A   1      39.011  33.961  41.787  1.00  0.00    -0.200 F 
ATOM     51  F   UNL A   1      40.485  36.253  41.867  1.00  0.00    -0.200 F 
ENDBRANCH  27  41
BRANCH  28  52
ATOM     52  C   UNL A   1      40.097  28.595  30.010  1.00  0.00     0.064 A 
ATOM     53  C   UNL A   1      40.699  29.077  28.841  1.00  0.00     0.173 A 
ATOM     54  C   UNL A   1      39.463  27.346  29.955  1.00  0.00     0.173 A 
ATOM     55  F   UNL A   1      41.298  30.276  28.841  1.00  0.00    -0.203 F 
ATOM     56  C   UNL A   1      40.665  28.338  27.660  1.00  0.00     0.198 A 
ATOM     57  C   UNL A   1      39.450  26.597  28.781  1.00  0.00     0.198 A 
ATOM     58  F   UNL A   1      38.877  26.842  31.051  1.00  0.00    -0.203 F 
ATOM     59  F   UNL A   1      41.222  28.834  26.547  1.00  0.00    -0.200 F 
ATOM     60  C   UNL A   1      40.048  27.097  27.633  1.00  0.00     0.200 A 
ATOM     61  F   UNL A   1      38.866  25.392  28.763  1.00  0.00    -0.200 F 
ATOM     62  F   UNL A   1      40.026  26.382  26.500  1.00  0.00    -0.200 F 
ENDBRANCH  28  52
BRANCH  40  63
ATOM     63  C   UNL A   1      44.469  28.663  35.429  1.00  0.00     0.064 A 
ATOM     64  C   UNL A   1      44.404  27.445  36.120  1.00  0.00     0.173 A 
ATOM     65  C   UNL A   1      45.726  29.119  35.008  1.00  0.00     0.173 A 
ATOM     66  F   UNL A   1      43.225  26.978  36.558  1.00  0.00    -0.203 F 
ATOM     67  C   UNL A   1      45.559  26.719  36.396  1.00  0.00     0.198 A 
ATOM     68  C   UNL A   1      46.876  28.380  35.265  1.00  0.00     0.198 A 
ATOM     69  F   UNL A   1      45.837  30.278  34.342  1.00  0.00    -0.203 F 
ATOM     70  F   UNL A   1      45.482  25.577  37.093  1.00  0.00    -0.200 F 
ATOM     71  C   UNL A   1      46.793  27.184  35.964  1.00  0.00     0.200 A 
ATOM     72  F   UNL A   1      48.066  28.826  34.841  1.00  0.00    -0.200 F 
ATOM     73  F   UNL A   1      47.905  26.483  36.228  1.00  0.00    -0.200 F 
ENDBRANCH  40  63
ENDBRANCH  14  15
ENDBRANCH   7   9
ENDBRANCH   4   5
ENDBRANCH   3   4
ENDBRANCH   2   3
ENDBRANCH   1   2
BRANCH   1  74
ATOM     74  C   UNL A   1      35.446  31.498  27.991  1.00  0.00     0.021 C 
BRANCH  74  75
ATOM     75  C   UNL A   1      34.932  30.261  27.259  1.00  0.00     0.116 C 
BRANCH  75  76
ATOM     76  N   UNL A   1      33.653  29.801  27.781  1.00  0.00    -0.352 N 
ATOM     77  C   UNL A   1      32.673  29.078  27.145  1.00  0.00     0.251 C 
ATOM     78  H   UNL A   1      33.465  30.041  28.717  1.00  0.00     0.163 HD
ATOM     79  O   UNL A   1      31.579  28.904  27.671  1.00  0.00    -0.269 OA
BRANCH  77  80
ATOM     80  C   UNL A   1      32.942  28.511  25.807  1.00  0.00     0.043 A 
ATOM     81  C   UNL A   1      32.699  29.277  24.668  1.00  0.00     0.014 A 
ATOM     82  C   UNL A   1      33.438  27.208  25.692  1.00  0.00     0.062 A 
ATOM     83  C   UNL A   1      33.012  28.756  23.413  1.00  0.00     0.005 A 
ATOM     84  C   UNL A   1      33.801  26.703  24.445  1.00  0.00     0.143 A 
ATOM     85  C   UNL A   1      33.573  27.478  23.302  1.00  0.00     0.048 A 
BRANCH  84  86
ATOM     86  O   UNL A   1      34.394  25.476  24.253  1.00  0.00    -0.379 OA
BRANCH  86  87
ATOM     87  S   UNL A   1      33.548  24.244  23.588  1.00  0.00     0.339 S 
ATOM     88  O   UNL A   1      32.193  24.282  24.111  1.00  0.00    -0.181 OA
ATOM     89  O   UNL A   1      33.791  24.220  22.158  1.00  0.00    -0.181 OA
BRANCH  87  90
ATOM     90  C   UNL A   1      34.300  22.761  24.217  1.00  0.00     0.112 A 
ATOM     91  C   UNL A   1      35.672  22.749  24.490  1.00  0.00     0.024 A 
ATOM     92  C   UNL A   1      33.528  21.601  24.336  1.00  0.00     0.109 A 
ATOM     93  C   UNL A   1      36.284  21.553  24.873  1.00  0.00     0.009 A 
ATOM     94  C   UNL A   1      34.154  20.407  24.710  1.00  0.00     0.270 A 
ATOM     95  C   UNL A   1      35.531  20.379  24.979  1.00  0.00     0.086 A 
BRANCH  94  96
ATOM     96  N   UNL A   1      33.369  19.168  24.786  1.00  0.00     0.062 N 
ATOM     97  O   UNL A   1      33.957  18.101  24.567  1.00  0.00    -0.258 OA
ATOM     98  O   UNL A   1      32.165  19.269  25.061  1.00  0.00    -0.258 OA
ENDBRANCH  94  96
ENDBRANCH  87  90
ENDBRANCH  86  87
ENDBRANCH  84  86
ENDBRANCH  77  80
ENDBRANCH  75  76
ENDBRANCH  74  75
ENDBRANCH   1  74
TORSDOF 17
ENDMDL
MODEL 2
REMARK VINA RESULT:     -11.7      2.178      3.116
REMARK SMILES O=C(NCCCCCCNC(=O)c1cccc(OS(=O)(=O)c2cccc([N+](=O)[O-])c2)c1)c1ccc(-c2c3nc(c(-c4c(F)c(F)c(F)c(F)c4F)c4ccc([nH]4)c(-c4c(F)c(F)c(F)c(F)c4F)c4nc(c(-c5c(F)c(F)c(F)c(F)c5F)c5ccc2[nH]5)C=C4)C=C3)cc1
REMARK SMILES IDX 7 1 6 2 5 3 4 4 3 5 1 6 2 7 32 9 33 10 94 11 34 12 93 13
REMARK SMILES IDX 35 14 36 15 37 16 87 17 38 18 92 19 86 20 88 21 39 22 91 23
REMARK SMILES IDX 85 24 84 25 40 27 72 28 52 29 71 30 53 31 56 32 70 33 89 34
REMARK SMILES IDX 54 35 55 36 69 38 90 39 57 40 41 41 42 42 50 43 43 44 44 45
REMARK SMILES IDX 48 46 51 47 45 48 46 49 49 50 47 51 73 52 74 53 82 54 75 55
REMARK SMILES IDX 76 56 80 57 83 58 77 59 78 60 81 61 79 62 58 63 59 64 67 65
REMARK SMILES IDX 60 66 61 67 65 68 68 69 62 70 63 71 66 72 64 73 8 74 9 75
REMARK SMILES IDX 10 76 11 77 12 79 13 80 14 81 31 82 15 83 17 84 16 85 18 86
REMARK SMILES IDX 19 87 20 88 21 89 22 90 23 91 30 92 24 93 26 94 25 95 27 96
REMARK SMILES IDX 28 97 29 98
REMARK H PARENT 3 8 88 26 56 37 10 78
REMARK Flexibility Score: inf
ROOT
ATOM      1  C   UNL A   1      34.789  32.949  29.180  1.00  0.00     0.002 C 
ENDROOT
BRANCH   1   2
ATOM      2  C   UNL A   1      34.698  34.416  28.755  1.00  0.00     0.002 C 
BRANCH   2   3
ATOM      3  C   UNL A   1      33.328  35.077  28.919  1.00  0.00     0.021 C 
BRANCH   3   4
ATOM      4  C   UNL A   1      33.302  36.338  29.776  1.00  0.00     0.116 C 
BRANCH   4   5
ATOM      5  N   UNL A   1      32.344  36.262  30.866  1.00  0.00    -0.352 N 
ATOM      6  O   UNL A   1      31.473  35.553  32.821  1.00  0.00    -0.269 OA
ATOM      7  C   UNL A   1      32.442  35.608  32.069  1.00  0.00     0.251 C 
ATOM      8  H   UNL A   1      31.503  36.753  30.721  1.00  0.00     0.163 HD
BRANCH   7   9
ATOM      9  C   UNL A   1      33.706  34.943  32.456  1.00  0.00     0.039 A 
ATOM     10  C   UNL A   1      34.925  35.623  32.416  1.00  0.00     0.014 A 
ATOM     11  C   UNL A   1      33.660  33.615  32.896  1.00  0.00     0.014 A 
ATOM     12  C   UNL A   1      36.109  34.946  32.703  1.00  0.00     0.010 A 
ATOM     13  C   UNL A   1      34.841  32.954  33.243  1.00  0.00     0.010 A 
ATOM     14  C   UNL A   1      36.078  33.607  33.124  1.00  0.00    -0.014 A 
BRANCH  14  15
ATOM     15  C   UNL A   1      37.342  32.917  33.481  1.00  0.00     0.031 A 
ATOM     16  C   UNL A   1      38.041  33.205  34.778  1.00  0.00     0.074 A 
ATOM     17  C   UNL A   1      37.854  32.012  32.625  1.00  0.00     0.049 A 
ATOM     18  N   UNL A   1      39.155  32.699  35.246  1.00  0.00    -0.248 NA
ATOM     19  C   UNL A   1      37.415  34.197  35.665  1.00  0.00     0.031 C 
ATOM     20  C   UNL A   1      37.270  31.658  31.330  1.00  0.00     0.029 A 
ATOM     21  N   UNL A   1      38.971  31.222  32.716  1.00  0.00    -0.354 N 
ATOM     22  C   UNL A   1      39.372  33.320  36.468  1.00  0.00     0.074 A 
ATOM     23  C   UNL A   1      38.285  34.257  36.664  1.00  0.00     0.031 C 
ATOM     24  C   UNL A   1      38.016  30.699  30.761  1.00  0.00     0.029 A 
ATOM     25  C   UNL A   1      39.153  30.404  31.629  1.00  0.00     0.049 A 
ATOM     26  H   UNL A   1      39.583  31.240  33.486  1.00  0.00     0.167 HD
ATOM     27  C   UNL A   1      40.382  33.119  37.350  1.00  0.00     0.037 A 
ATOM     28  C   UNL A   1      40.132  29.523  31.354  1.00  0.00     0.037 A 
ATOM     29  C   UNL A   1      41.449  32.170  37.163  1.00  0.00     0.049 A 
ATOM     30  C   UNL A   1      41.242  29.326  32.345  1.00  0.00     0.074 A 
ATOM     31  C   UNL A   1      42.495  31.868  38.019  1.00  0.00     0.029 A 
ATOM     32  N   UNL A   1      41.608  31.370  36.042  1.00  0.00    -0.354 N 
ATOM     33  N   UNL A   1      41.419  29.899  33.511  1.00  0.00    -0.248 NA
ATOM     34  C   UNL A   1      42.289  28.362  31.982  1.00  0.00     0.031 C 
ATOM     35  C   UNL A   1      43.306  30.910  37.400  1.00  0.00     0.029 A 
ATOM     36  C   UNL A   1      42.743  30.587  36.175  1.00  0.00     0.049 A 
ATOM     37  H   UNL A   1      41.002  31.359  35.266  1.00  0.00     0.167 HD
ATOM     38  C   UNL A   1      42.588  29.358  34.026  1.00  0.00     0.074 A 
ATOM     39  C   UNL A   1      43.068  28.398  33.053  1.00  0.00     0.031 C 
ATOM     40  C   UNL A   1      43.209  29.637  35.197  1.00  0.00     0.037 A 
BRANCH  27  41
ATOM     41  C   UNL A   1      40.392  33.955  38.596  1.00  0.00     0.064 A 
ATOM     42  C   UNL A   1      41.091  35.169  38.661  1.00  0.00     0.173 A 
ATOM     43  C   UNL A   1      39.654  33.558  39.722  1.00  0.00     0.173 A 
ATOM     44  F   UNL A   1      41.815  35.586  37.613  1.00  0.00    -0.203 F 
ATOM     45  C   UNL A   1      41.067  35.946  39.817  1.00  0.00     0.198 A 
ATOM     46  C   UNL A   1      39.614  34.349  40.867  1.00  0.00     0.198 A 
ATOM     47  F   UNL A   1      38.962  32.409  39.706  1.00  0.00    -0.203 F 
ATOM     48  F   UNL A   1      41.767  37.086  39.871  1.00  0.00    -0.200 F 
ATOM     49  C   UNL A   1      40.324  35.539  40.915  1.00  0.00     0.200 A 
ATOM     50  F   UNL A   1      38.886  33.960  41.923  1.00  0.00    -0.200 F 
ATOM     51  F   UNL A   1      40.296  36.291  42.025  1.00  0.00    -0.200 F 
ENDBRANCH  27  41
BRANCH  28  52
ATOM     52  C   UNL A   1      40.091  28.759  30.083  1.00  0.00     0.064 A 
ATOM     53  C   UNL A   1      40.674  29.272  28.918  1.00  0.00     0.173 A 
ATOM     54  C   UNL A   1      39.494  27.493  30.016  1.00  0.00     0.173 A 
ATOM     55  F   UNL A   1      41.238  30.489  28.930  1.00  0.00    -0.203 F 
ATOM     56  C   UNL A   1      40.658  28.546  27.728  1.00  0.00     0.198 A 
ATOM     57  C   UNL A   1      39.499  26.757  28.834  1.00  0.00     0.198 A 
ATOM     58  F   UNL A   1      38.927  26.959  31.108  1.00  0.00    -0.203 F 
ATOM     59  F   UNL A   1      41.196  29.071  26.619  1.00  0.00    -0.200 F 
ATOM     60  C   UNL A   1      40.077  27.287  27.689  1.00  0.00     0.200 A 
ATOM     61  F   UNL A   1      38.951  25.536  28.804  1.00  0.00    -0.200 F 
ATOM     62  F   UNL A   1      40.073  26.585  26.548  1.00  0.00    -0.200 F 
ENDBRANCH  28  52
BRANCH  40  63
ATOM     63  C   UNL A   1      44.466  28.879  35.499  1.00  0.00     0.064 A 
ATOM     64  C   UNL A   1      44.433  27.647  36.166  1.00  0.00     0.173 A 
ATOM     65  C   UNL A   1      45.712  29.377  35.090  1.00  0.00     0.173 A 
ATOM     66  F   UNL A   1      43.266  27.139  36.591  1.00  0.00    -0.203 F 
ATOM     67  C   UNL A   1      45.608  26.948  36.432  1.00  0.00     0.198 A 
ATOM     68  C   UNL A   1      46.881  28.666  35.338  1.00  0.00     0.198 A 
ATOM     69  F   UNL A   1      45.793  30.552  34.446  1.00  0.00    -0.203 F 
ATOM     70  F   UNL A   1      45.559  25.792  37.108  1.00  0.00    -0.200 F 
ATOM     71  C   UNL A   1      46.829  27.455  36.014  1.00  0.00     0.200 A 
ATOM     72  F   UNL A   1      48.060  29.153  34.927  1.00  0.00    -0.200 F 
ATOM     73  F   UNL A   1      47.959  26.781  36.270  1.00  0.00    -0.200 F 
ENDBRANCH  40  63
ENDBRANCH  14  15
ENDBRANCH   7   9
ENDBRANCH   4   5
ENDBRANCH   3   4
ENDBRANCH   2   3
ENDBRANCH   1   2
BRANCH   1  74
ATOM     74  C   UNL A   1      35.537  32.019  28.221  1.00  0.00     0.021 C 
BRANCH  74  75
ATOM     75  C   UNL A   1      34.702  30.889  27.624  1.00  0.00     0.116 C 
BRANCH  75  76
ATOM     76  N   UNL A   1      33.373  31.331  27.229  1.00  0.00    -0.352 N 
ATOM     77  C   UNL A   1      32.379  30.620  26.600  1.00  0.00     0.251 C 
ATOM     78  H   UNL A   1      33.157  32.268  27.442  1.00  0.00     0.163 HD
ATOM     79  O   UNL A   1      31.369  31.180  26.190  1.00  0.00    -0.269 OA
BRANCH  77  80
ATOM     80  C   UNL A   1      32.538  29.163  26.412  1.00  0.00     0.043 A 
ATOM     81  C   UNL A   1      31.990  28.281  27.342  1.00  0.00     0.014 A 
ATOM     82  C   UNL A   1      33.240  28.679  25.303  1.00  0.00     0.062 A 
ATOM     83  C   UNL A   1      32.094  26.907  27.124  1.00  0.00     0.005 A 
ATOM     84  C   UNL A   1      33.300  27.309  25.055  1.00  0.00     0.143 A 
ATOM     85  C   UNL A   1      32.736  26.422  25.979  1.00  0.00     0.048 A 
BRANCH  84  86
ATOM     86  O   UNL A   1      33.876  26.753  23.935  1.00  0.00    -0.379 OA
BRANCH  86  87
ATOM     87  S   UNL A   1      32.940  26.129  22.748  1.00  0.00     0.339 S 
ATOM     88  O   UNL A   1      33.350  26.715  21.483  1.00  0.00    -0.181 OA
ATOM     89  O   UNL A   1      32.868  24.689  22.909  1.00  0.00    -0.181 OA
BRANCH  87  90
ATOM     90  C   UNL A   1      31.298  26.721  23.080  1.00  0.00     0.112 A 
ATOM     91  C   UNL A   1      30.370  25.870  23.689  1.00  0.00     0.024 A 
ATOM     92  C   UNL A   1      30.930  27.997  22.639  1.00  0.00     0.109 A 
ATOM     93  C   UNL A   1      29.048  26.296  23.845  1.00  0.00     0.009 A 
ATOM     94  C   UNL A   1      29.601  28.407  22.791  1.00  0.00     0.270 A 
ATOM     95  C   UNL A   1      28.658  27.560  23.392  1.00  0.00     0.086 A 
BRANCH  94  96
ATOM     96  N   UNL A   1      29.184  29.721  22.285  1.00  0.00     0.062 N 
ATOM     97  O   UNL A   1      29.621  30.078  21.182  1.00  0.00    -0.258 OA
ATOM     98  O   UNL A   1      28.425  30.395  22.996  1.00  0.00    -0.258 OA
ENDBRANCH  94  96
ENDBRANCH  87  90
ENDBRANCH  86  87
ENDBRANCH  84  86
ENDBRANCH  77  80
ENDBRANCH  75  76
ENDBRANCH  74  75
ENDBRANCH   1  74
TORSDOF 17
ENDMDL
MODEL 3
REMARK VINA RESULT:     -11.7      5.194      8.579
REMARK SMILES O=C(NCCCCCCNC(=O)c1cccc(OS(=O)(=O)c2cccc([N+](=O)[O-])c2)c1)c1ccc(-c2c3nc(c(-c4c(F)c(F)c(F)c(F)c4F)c4ccc([nH]4)c(-c4c(F)c(F)c(F)c(F)c4F)c4nc(c(-c5c(F)c(F)c(F)c(F)c5F)c5ccc2[nH]5)C=C4)C=C3)cc1
REMARK SMILES IDX 7 1 6 2 5 3 4 4 3 5 1 6 2 7 32 9 33 10 94 11 34 12 93 13
REMARK SMILES IDX 35 14 36 15 37 16 87 17 38 18 92 19 86 20 88 21 39 22 91 23
REMARK SMILES IDX 85 24 84 25 40 27 72 28 52 29 71 30 53 31 56 32 70 33 89 34
REMARK SMILES IDX 54 35 55 36 69 38 90 39 57 40 41 41 42 42 50 43 43 44 44 45
REMARK SMILES IDX 48 46 51 47 45 48 46 49 49 50 47 51 73 52 74 53 82 54 75 55
REMARK SMILES IDX 76 56 80 57 83 58 77 59 78 60 81 61 79 62 58 63 59 64 67 65
REMARK SMILES IDX 60 66 61 67 65 68 68 69 62 70 63 71 66 72 64 73 8 74 9 75
REMARK SMILES IDX 10 76 11 77 12 79 13 80 14 81 31 82 15 83 17 84 16 85 18 86
REMARK SMILES IDX 19 87 20 88 21 89 22 90 23 91 30 92 24 93 26 94 25 95 27 96
REMARK SMILES IDX 28 97 29 98
REMARK H PARENT 3 8 88 26 56 37 10 78
REMARK Flexibility Score: inf
ROOT
ATOM      1  C   UNL A   1      36.706  32.619  31.094  1.00  0.00     0.002 C 
ENDROOT
BRANCH   1   2
ATOM      2  C   UNL A   1      35.189  32.424  31.020  1.00  0.00     0.002 C 
BRANCH   2   3
ATOM      3  C   UNL A   1      34.471  33.188  29.907  1.00  0.00     0.021 C 
BRANCH   3   4
ATOM      4  C   UNL A   1      34.795  32.741  28.485  1.00  0.00     0.116 C 
BRANCH   4   5
ATOM      5  N   UNL A   1      34.053  31.559  28.080  1.00  0.00    -0.352 N 
ATOM      6  O   UNL A   1      33.743  29.425  27.420  1.00  0.00    -0.269 OA
ATOM      7  C   UNL A   1      34.496  30.274  27.887  1.00  0.00     0.251 C 
ATOM      8  H   UNL A   1      33.091  31.700  27.921  1.00  0.00     0.163 HD
BRANCH   7   9
ATOM      9  C   UNL A   1      35.893  29.909  28.215  1.00  0.00     0.039 A 
ATOM     10  C   UNL A   1      36.227  29.366  29.458  1.00  0.00     0.014 A 
ATOM     11  C   UNL A   1      36.882  30.091  27.242  1.00  0.00     0.014 A 
ATOM     12  C   UNL A   1      37.562  29.114  29.769  1.00  0.00     0.010 A 
ATOM     13  C   UNL A   1      38.213  29.779  27.533  1.00  0.00     0.010 A 
ATOM     14  C   UNL A   1      38.566  29.312  28.808  1.00  0.00    -0.014 A 
BRANCH  14  15
ATOM     15  C   UNL A   1      39.976  28.985  29.137  1.00  0.00     0.031 A 
ATOM     16  C   UNL A   1      40.812  29.914  29.968  1.00  0.00     0.074 A 
ATOM     17  C   UNL A   1      40.497  27.828  28.687  1.00  0.00     0.049 A 
ATOM     18  N   UNL A   1      42.061  29.788  30.345  1.00  0.00    -0.248 NA
ATOM     19  C   UNL A   1      40.169  31.153  30.432  1.00  0.00     0.031 C 
ATOM     20  C   UNL A   1      39.785  26.851  27.861  1.00  0.00     0.029 A 
ATOM     21  N   UNL A   1      41.738  27.273  28.866  1.00  0.00    -0.354 N 
ATOM     22  C   UNL A   1      42.357  30.932  31.072  1.00  0.00     0.074 A 
ATOM     23  C   UNL A   1      41.165  31.754  31.068  1.00  0.00     0.031 C 
ATOM     24  C   UNL A   1      40.589  25.803  27.630  1.00  0.00     0.029 A 
ATOM     25  C   UNL A   1      41.886  26.054  28.253  1.00  0.00     0.049 A 
ATOM     26  H   UNL A   1      42.454  27.707  29.383  1.00  0.00     0.167 HD
ATOM     27  C   UNL A   1      43.516  31.262  31.692  1.00  0.00     0.037 A 
ATOM     28  C   UNL A   1      42.951  25.234  28.187  1.00  0.00     0.037 A 
ATOM     29  C   UNL A   1      44.693  30.432  31.713  1.00  0.00     0.049 A 
ATOM     30  C   UNL A   1      44.225  25.627  28.878  1.00  0.00     0.074 A 
ATOM     31  C   UNL A   1      45.902  30.663  32.349  1.00  0.00     0.029 A 
ATOM     32  N   UNL A   1      44.810  29.210  31.068  1.00  0.00    -0.354 N 
ATOM     33  N   UNL A   1      44.482  26.699  29.586  1.00  0.00    -0.248 NA
ATOM     34  C   UNL A   1      45.355  24.698  28.757  1.00  0.00     0.031 C 
ATOM     35  C   UNL A   1      46.761  29.597  32.060  1.00  0.00     0.029 A 
ATOM     36  C   UNL A   1      46.075  28.683  31.275  1.00  0.00     0.049 A 
ATOM     37  H   UNL A   1      44.099  28.779  30.542  1.00  0.00     0.167 HD
ATOM     38  C   UNL A   1      45.798  26.570  30.007  1.00  0.00     0.074 A 
ATOM     39  C   UNL A   1      46.280  25.306  29.488  1.00  0.00     0.031 C 
ATOM     40  C   UNL A   1      46.540  27.425  30.751  1.00  0.00     0.037 A 
BRANCH  27  41
ATOM     41  C   UNL A   1      43.577  32.588  32.391  1.00  0.00     0.064 A 
ATOM     42  C   UNL A   1      43.439  32.692  33.783  1.00  0.00     0.173 A 
ATOM     43  C   UNL A   1      43.824  33.762  31.664  1.00  0.00     0.173 A 
ATOM     44  F   UNL A   1      43.195  31.599  34.519  1.00  0.00    -0.203 F 
ATOM     45  C   UNL A   1      43.525  33.929  34.419  1.00  0.00     0.198 A 
ATOM     46  C   UNL A   1      43.933  34.993  32.306  1.00  0.00     0.198 A 
ATOM     47  F   UNL A   1      43.971  33.714  30.331  1.00  0.00    -0.203 F 
ATOM     48  F   UNL A   1      43.358  34.012  35.745  1.00  0.00    -0.200 F 
ATOM     49  C   UNL A   1      43.778  35.076  33.682  1.00  0.00     0.200 A 
ATOM     50  F   UNL A   1      44.189  36.099  31.593  1.00  0.00    -0.200 F 
ATOM     51  F   UNL A   1      43.868  36.264  34.296  1.00  0.00    -0.200 F 
ENDBRANCH  27  41
BRANCH  28  52
ATOM     52  C   UNL A   1      42.843  23.956  27.442  1.00  0.00     0.064 A 
ATOM     53  C   UNL A   1      43.218  23.876  26.095  1.00  0.00     0.173 A 
ATOM     54  C   UNL A   1      42.391  22.786  28.068  1.00  0.00     0.173 A 
ATOM     55  F   UNL A   1      43.637  24.974  25.449  1.00  0.00    -0.203 F 
ATOM     56  C   UNL A   1      43.140  22.671  25.399  1.00  0.00     0.198 A 
ATOM     57  C   UNL A   1      42.336  21.577  27.379  1.00  0.00     0.198 A 
ATOM     58  F   UNL A   1      42.025  22.814  29.358  1.00  0.00    -0.203 F 
ATOM     59  F   UNL A   1      43.477  22.626  24.103  1.00  0.00    -0.200 F 
ATOM     60  C   UNL A   1      42.707  21.522  26.043  1.00  0.00     0.200 A 
ATOM     61  F   UNL A   1      41.931  20.467  28.009  1.00  0.00    -0.200 F 
ATOM     62  F   UNL A   1      42.643  20.362  25.377  1.00  0.00    -0.200 F 
ENDBRANCH  28  52
BRANCH  40  63
ATOM     63  C   UNL A   1      47.946  27.011  31.064  1.00  0.00     0.064 A 
ATOM     64  C   UNL A   1      49.022  27.421  30.265  1.00  0.00     0.173 A 
ATOM     65  C   UNL A   1      48.221  26.220  32.189  1.00  0.00     0.173 A 
ATOM     66  F   UNL A   1      48.805  28.164  29.169  1.00  0.00    -0.203 F 
ATOM     67  C   UNL A   1      50.325  27.037  30.571  1.00  0.00     0.198 A 
ATOM     68  C   UNL A   1      49.526  25.857  32.504  1.00  0.00     0.198 A 
ATOM     69  F   UNL A   1      47.223  25.805  32.985  1.00  0.00    -0.203 F 
ATOM     70  F   UNL A   1      51.336  27.406  29.772  1.00  0.00    -0.200 F 
ATOM     71  C   UNL A   1      50.576  26.261  31.692  1.00  0.00     0.200 A 
ATOM     72  F   UNL A   1      49.769  25.113  33.593  1.00  0.00    -0.200 F 
ATOM     73  F   UNL A   1      51.831  25.893  31.987  1.00  0.00    -0.200 F 
ENDBRANCH  40  63
ENDBRANCH  14  15
ENDBRANCH   7   9
ENDBRANCH   4   5
ENDBRANCH   3   4
ENDBRANCH   2   3
ENDBRANCH   1   2
BRANCH   1  74
ATOM     74  C   UNL A   1      37.200  33.640  32.123  1.00  0.00     0.021 C 
BRANCH  74  75
ATOM     75  C   UNL A   1      38.399  33.198  32.957  1.00  0.00     0.116 C 
BRANCH  75  76
ATOM     76  N   UNL A   1      38.036  32.900  34.334  1.00  0.00    -0.352 N 
ATOM     77  C   UNL A   1      38.104  31.701  35.004  1.00  0.00     0.251 C 
ATOM     78  H   UNL A   1      37.693  33.660  34.857  1.00  0.00     0.163 HD
ATOM     79  O   UNL A   1      37.609  31.575  36.118  1.00  0.00    -0.269 OA
BRANCH  77  80
ATOM     80  C   UNL A   1      38.778  30.551  34.365  1.00  0.00     0.043 A 
ATOM     81  C   UNL A   1      38.072  29.741  33.477  1.00  0.00     0.014 A 
ATOM     82  C   UNL A   1      40.119  30.282  34.658  1.00  0.00     0.062 A 
ATOM     83  C   UNL A   1      38.732  28.694  32.834  1.00  0.00     0.005 A 
ATOM     84  C   UNL A   1      40.795  29.270  33.979  1.00  0.00     0.143 A 
ATOM     85  C   UNL A   1      40.092  28.467  33.074  1.00  0.00     0.048 A 
BRANCH  84  86
ATOM     86  O   UNL A   1      42.138  29.008  34.126  1.00  0.00    -0.379 OA
BRANCH  86  87
ATOM     87  S   UNL A   1      42.699  28.309  35.495  1.00  0.00     0.339 S 
ATOM     88  O   UNL A   1      44.112  28.621  35.625  1.00  0.00    -0.181 OA
ATOM     89  O   UNL A   1      41.776  28.584  36.580  1.00  0.00    -0.181 OA
BRANCH  87  90
ATOM     90  C   UNL A   1      42.583  26.558  35.212  1.00  0.00     0.112 A 
ATOM     91  C   UNL A   1      41.620  25.813  35.899  1.00  0.00     0.024 A 
ATOM     92  C   UNL A   1      43.521  25.937  34.380  1.00  0.00     0.109 A 
ATOM     93  C   UNL A   1      41.604  24.422  35.765  1.00  0.00     0.009 A 
ATOM     94  C   UNL A   1      43.502  24.543  34.263  1.00  0.00     0.270 A 
ATOM     95  C   UNL A   1      42.546  23.783  34.954  1.00  0.00     0.086 A 
BRANCH  94  96
ATOM     96  N   UNL A   1      44.514  23.870  33.438  1.00  0.00     0.062 N 
ATOM     97  O   UNL A   1      44.474  24.054  32.215  1.00  0.00    -0.258 OA
ATOM     98  O   UNL A   1      45.343  23.153  34.019  1.00  0.00    -0.258 OA
ENDBRANCH  94  96
ENDBRANCH  87  90
ENDBRANCH  86  87
ENDBRANCH  84  86
ENDBRANCH  77  80
ENDBRANCH  75  76
ENDBRANCH  74  75
ENDBRANCH   1  74
TORSDOF 17
ENDMDL
