MODEL 1
REMARK VINA RESULT:     -13.0      0.000      0.000
REMARK SMILES Nc1oc2ccc(F)cc2c(=O)c1[C@@H]1[NH2+][C@H](C(=O)NCCCCCCNC(=O)c2ccc(-c3c4nc(c(-c5c(F)c(F)c(F)c(F)c5F)c5ccc([nH]5)c(-c5c(F)c(F)c(F)c(F)c5F)c5nc(c(-c6c(F)c(F)c(F)c(F)c6F)c6ccc3[nH]6)C=C5)C=C4)cc2)CS1
REMARK SMILES IDX 22 1 21 2 20 3 19 4 17 5 18 6 16 8 14 9 15 10 93 11 92 14
REMARK SMILES IDX 13 15 2 16 3 17 4 18 11 19 5 20 10 21 12 22 6 23 9 24 7 25
REMARK SMILES IDX 8 26 1 27 23 30 24 31 25 32 26 33 27 34 28 36 29 37 30 38
REMARK SMILES IDX 91 39 31 40 90 41 32 42 33 43 34 44 84 45 35 46 89 47 83 48
REMARK SMILES IDX 85 49 36 50 88 51 82 52 81 53 37 55 69 56 49 57 68 58 50 59
REMARK SMILES IDX 53 60 67 61 86 62 51 63 52 64 66 66 87 67 54 68 38 69 39 70
REMARK SMILES IDX 47 71 40 72 41 73 45 74 48 75 42 76 43 77 46 78 44 79 70 80
REMARK SMILES IDX 71 81 79 82 72 83 73 84 77 85 80 86 74 87 75 88 78 89 76 90
REMARK SMILES IDX 55 91 56 92 64 93 57 94 58 95 62 96 65 97 59 98 60 99 63 100
REMARK SMILES IDX 61 101
REMARK H PARENT 19 7 15 12 15 13 1 28 1 29 26 35 85 54 53 65
REMARK Flexibility Score: inf
ROOT
ATOM      1  C   UNL A   1      32.377  29.603  27.177  1.00  0.00     0.002 C 
ENDROOT
BRANCH   1   2
ATOM      2  C   UNL A   1      31.758  28.225  27.504  1.00  0.00     0.021 C 
BRANCH   2   3
ATOM      3  C   UNL A   1      31.452  27.309  26.304  1.00  0.00     0.116 C 
BRANCH   3   4
ATOM      4  N   UNL A   1      31.022  25.966  26.650  1.00  0.00    -0.351 N 
ATOM      5  C   UNL A   1      31.685  24.770  26.607  1.00  0.00     0.279 C 
ATOM      6  O   UNL A   1      31.159  23.833  27.225  1.00  0.00    -0.268 OA
ATOM      7  H   UNL A   1      30.094  25.906  26.973  1.00  0.00     0.163 HD
BRANCH   5   8
ATOM      8  C   UNL A   1      33.053  24.530  25.924  1.00  0.00     0.283 C 
ATOM      9  C   UNL A   1      34.403  22.638  25.185  1.00  0.00     0.283 C 
ATOM     10  N   UNL A   1      33.693  23.259  26.321  1.00  0.00    -0.320 N 
ATOM     11  S   UNL A   1      34.361  23.775  23.779  1.00  0.00    -0.087 SA
ATOM     12  H   UNL A   1      34.362  23.444  27.069  1.00  0.00     0.348 HD
ATOM     13  H   UNL A   1      32.967  22.617  26.637  1.00  0.00     0.348 HD
ATOM     14  C   UNL A   1      32.933  24.674  24.416  1.00  0.00     0.151 C 
BRANCH   9  15
ATOM     15  C   UNL A   1      33.791  21.278  24.947  1.00  0.00     0.128 A 
ATOM     16  C   UNL A   1      32.490  20.903  24.966  1.00  0.00     0.205 A 
ATOM     17  O   UNL A   1      32.075  19.588  24.999  1.00  0.00    -0.440 OA
ATOM     18  C   UNL A   1      33.001  18.596  25.051  1.00  0.00     0.140 A 
ATOM     19  C   UNL A   1      34.821  20.205  24.803  1.00  0.00     0.205 A 
ATOM     20  C   UNL A   1      32.514  17.311  25.222  1.00  0.00     0.051 A 
ATOM     21  C   UNL A   1      34.362  18.819  24.905  1.00  0.00     0.068 A 
ATOM     22  O   UNL A   1      36.010  20.443  24.635  1.00  0.00    -0.288 OA
ATOM     23  C   UNL A   1      33.405  16.251  25.184  1.00  0.00     0.043 A 
ATOM     24  C   UNL A   1      35.264  17.751  24.880  1.00  0.00     0.055 A 
ATOM     25  C   UNL A   1      34.767  16.466  25.013  1.00  0.00     0.124 A 
ATOM     26  F   UNL A   1      35.597  15.417  24.982  1.00  0.00    -0.207 F 
BRANCH  16  27
ATOM     27  N   UNL A   1      31.419  21.740  25.054  1.00  0.00    -0.369 N 
ATOM     28  H   UNL A   1      31.061  22.170  24.243  1.00  0.00     0.159 HD
ATOM     29  H   UNL A   1      31.001  21.913  25.929  1.00  0.00     0.159 HD
ENDBRANCH  16  27
ENDBRANCH   9  15
ENDBRANCH   5   8
ENDBRANCH   3   4
ENDBRANCH   2   3
ENDBRANCH   1   2
BRANCH   1  30
ATOM     30  C   UNL A   1      31.407  30.597  26.512  1.00  0.00     0.002 C 
BRANCH  30  31
ATOM     31  C   UNL A   1      31.403  32.102  26.881  1.00  0.00     0.021 C 
BRANCH  31  32
ATOM     32  C   UNL A   1      32.709  32.903  26.980  1.00  0.00     0.116 C 
BRANCH  32  33
ATOM     33  N   UNL A   1      32.465  34.200  27.617  1.00  0.00    -0.352 N 
ATOM     34  C   UNL A   1      33.030  34.839  28.693  1.00  0.00     0.251 C 
ATOM     35  H   UNL A   1      31.751  34.720  27.184  1.00  0.00     0.163 HD
ATOM     36  O   UNL A   1      32.519  35.873  29.113  1.00  0.00    -0.269 OA
BRANCH  34  37
ATOM     37  C   UNL A   1      34.227  34.313  29.385  1.00  0.00     0.039 A 
ATOM     38  C   UNL A   1      35.513  34.573  28.922  1.00  0.00     0.014 A 
ATOM     39  C   UNL A   1      34.065  33.639  30.601  1.00  0.00     0.014 A 
ATOM     40  C   UNL A   1      36.621  34.040  29.603  1.00  0.00     0.010 A 
ATOM     41  C   UNL A   1      35.178  33.142  31.297  1.00  0.00     0.010 A 
ATOM     42  C   UNL A   1      36.477  33.285  30.782  1.00  0.00    -0.014 A 
BRANCH  42  43
ATOM     43  C   UNL A   1      37.650  32.628  31.454  1.00  0.00     0.031 A 
ATOM     44  C   UNL A   1      38.412  31.505  30.775  1.00  0.00     0.074 A 
ATOM     45  C   UNL A   1      38.073  33.027  32.672  1.00  0.00     0.049 A 
ATOM     46  N   UNL A   1      39.351  30.721  31.256  1.00  0.00    -0.248 NA
ATOM     47  C   UNL A   1      38.076  31.227  29.371  1.00  0.00     0.031 C 
ATOM     48  C   UNL A   1      37.503  34.126  33.449  1.00  0.00     0.029 A 
ATOM     49  N   UNL A   1      39.091  32.554  33.470  1.00  0.00    -0.354 N 
ATOM     50  C   UNL A   1      39.687  29.843  30.231  1.00  0.00     0.074 A 
ATOM     51  C   UNL A   1      38.835  30.173  29.108  1.00  0.00     0.031 C 
ATOM     52  C   UNL A   1      38.207  34.277  34.580  1.00  0.00     0.029 A 
ATOM     53  C   UNL A   1      39.217  33.226  34.662  1.00  0.00     0.049 A 
ATOM     54  H   UNL A   1      39.674  31.804  33.211  1.00  0.00     0.167 HD
ATOM     55  C   UNL A   1      40.624  28.860  30.215  1.00  0.00     0.037 A 
ATOM     56  C   UNL A   1      40.020  33.012  35.723  1.00  0.00     0.037 A 
ATOM     57  C   UNL A   1      41.503  28.536  31.311  1.00  0.00     0.049 A 
ATOM     58  C   UNL A   1      40.979  31.854  35.725  1.00  0.00     0.074 A 
ATOM     59  C   UNL A   1      42.469  27.543  31.379  1.00  0.00     0.029 A 
ATOM     60  N   UNL A   1      41.537  29.200  32.528  1.00  0.00    -0.354 N 
ATOM     61  N   UNL A   1      41.237  30.992  34.775  1.00  0.00    -0.248 NA
ATOM     62  C   UNL A   1      41.746  31.633  36.960  1.00  0.00     0.031 C 
ATOM     63  C   UNL A   1      43.054  27.578  32.648  1.00  0.00     0.029 A 
ATOM     64  C   UNL A   1      42.497  28.631  33.354  1.00  0.00     0.049 A 
ATOM     65  H   UNL A   1      40.964  29.963  32.770  1.00  0.00     0.167 HD
ATOM     66  C   UNL A   1      42.215  30.146  35.284  1.00  0.00     0.074 A 
ATOM     67  C   UNL A   1      42.511  30.603  36.624  1.00  0.00     0.031 C 
ATOM     68  C   UNL A   1      42.810  29.085  34.685  1.00  0.00     0.037 A 
BRANCH  55  69
ATOM     69  C   UNL A   1      40.754  28.035  28.961  1.00  0.00     0.064 A 
ATOM     70  C   UNL A   1      39.982  26.882  28.753  1.00  0.00     0.173 A 
ATOM     71  C   UNL A   1      41.607  28.446  27.924  1.00  0.00     0.173 A 
ATOM     72  F   UNL A   1      39.156  26.440  29.713  1.00  0.00    -0.203 F 
ATOM     73  C   UNL A   1      40.077  26.160  27.565  1.00  0.00     0.198 A 
ATOM     74  C   UNL A   1      41.675  27.739  26.724  1.00  0.00     0.198 A 
ATOM     75  F   UNL A   1      42.359  29.548  28.061  1.00  0.00    -0.203 F 
ATOM     76  F   UNL A   1      39.362  25.036  27.408  1.00  0.00    -0.200 F 
ATOM     77  C   UNL A   1      40.915  26.594  26.549  1.00  0.00     0.200 A 
ATOM     78  F   UNL A   1      42.470  28.172  25.736  1.00  0.00    -0.200 F 
ATOM     79  F   UNL A   1      40.993  25.904  25.402  1.00  0.00    -0.200 F 
ENDBRANCH  55  69
BRANCH  56  80
ATOM     80  C   UNL A   1      39.945  33.930  36.891  1.00  0.00     0.064 A 
ATOM     81  C   UNL A   1      40.697  35.112  36.918  1.00  0.00     0.173 A 
ATOM     82  C   UNL A   1      39.107  33.663  37.984  1.00  0.00     0.173 A 
ATOM     83  F   UNL A   1      41.538  35.393  35.911  1.00  0.00    -0.203 F 
ATOM     84  C   UNL A   1      40.610  35.995  37.992  1.00  0.00     0.198 A 
ATOM     85  C   UNL A   1      38.996  34.562  39.041  1.00  0.00     0.198 A 
ATOM     86  F   UNL A   1      38.372  32.542  38.008  1.00  0.00    -0.203 F 
ATOM     87  F   UNL A   1      41.361  37.104  38.007  1.00  0.00    -0.200 F 
ATOM     88  C   UNL A   1      39.749  35.726  39.045  1.00  0.00     0.200 A 
ATOM     89  F   UNL A   1      38.152  34.306  40.050  1.00  0.00    -0.200 F 
ATOM     90  F   UNL A   1      39.649  36.587  40.068  1.00  0.00    -0.200 F 
ENDBRANCH  56  80
BRANCH  68  91
ATOM     91  C   UNL A   1      43.884  28.360  35.445  1.00  0.00     0.064 A 
ATOM     92  C   UNL A   1      43.587  27.317  36.334  1.00  0.00     0.173 A 
ATOM     93  C   UNL A   1      45.236  28.683  35.245  1.00  0.00     0.173 A 
ATOM     94  F   UNL A   1      42.312  26.975  36.574  1.00  0.00    -0.203 F 
ATOM     95  C   UNL A   1      44.602  26.638  37.007  1.00  0.00     0.198 A 
ATOM     96  C   UNL A   1      46.248  27.983  35.897  1.00  0.00     0.198 A 
ATOM     97  F   UNL A   1      45.578  29.668  34.401  1.00  0.00    -0.203 F 
ATOM     98  F   UNL A   1      44.291  25.672  37.884  1.00  0.00    -0.200 F 
ATOM     99  C   UNL A   1      45.929  26.964  36.782  1.00  0.00     0.200 A 
ATOM    100  F   UNL A   1      47.532  28.291  35.665  1.00  0.00    -0.200 F 
ATOM    101  F   UNL A   1      46.903  26.303  37.423  1.00  0.00    -0.200 F 
ENDBRANCH  68  91
ENDBRANCH  42  43
ENDBRANCH  34  37
ENDBRANCH  32  33
ENDBRANCH  31  32
ENDBRANCH  30  31
ENDBRANCH   1  30
TORSDOF 15
ENDMDL
MODEL 2
REMARK VINA RESULT:     -12.9      4.061      8.640
REMARK SMILES Nc1oc2ccc(F)cc2c(=O)c1[C@@H]1[NH2+][C@H](C(=O)NCCCCCCNC(=O)c2ccc(-c3c4nc(c(-c5c(F)c(F)c(F)c(F)c5F)c5ccc([nH]5)c(-c5c(F)c(F)c(F)c(F)c5F)c5nc(c(-c6c(F)c(F)c(F)c(F)c6F)c6ccc3[nH]6)C=C5)C=C4)cc2)CS1
REMARK SMILES IDX 22 1 21 2 20 3 19 4 17 5 18 6 16 8 14 9 15 10 93 11 92 14
REMARK SMILES IDX 13 15 2 16 3 17 4 18 11 19 5 20 10 21 12 22 6 23 9 24 7 25
REMARK SMILES IDX 8 26 1 27 23 30 24 31 25 32 26 33 27 34 28 36 29 37 30 38
REMARK SMILES IDX 91 39 31 40 90 41 32 42 33 43 34 44 84 45 35 46 89 47 83 48
REMARK SMILES IDX 85 49 36 50 88 51 82 52 81 53 37 55 69 56 49 57 68 58 50 59
REMARK SMILES IDX 53 60 67 61 86 62 51 63 52 64 66 66 87 67 54 68 38 69 39 70
REMARK SMILES IDX 47 71 40 72 41 73 45 74 48 75 42 76 43 77 46 78 44 79 70 80
REMARK SMILES IDX 71 81 79 82 72 83 73 84 77 85 80 86 74 87 75 88 78 89 76 90
REMARK SMILES IDX 55 91 56 92 64 93 57 94 58 95 62 96 65 97 59 98 60 99 63 100
REMARK SMILES IDX 61 101
REMARK H PARENT 19 7 15 12 15 13 1 28 1 29 26 35 85 54 53 65
REMARK Flexibility Score: inf
ROOT
ATOM      1  C   UNL A   1      34.717  20.829  25.457  1.00  0.00     0.002 C 
ENDROOT
BRANCH   1   2
ATOM      2  C   UNL A   1      33.526  20.295  24.628  1.00  0.00     0.021 C 
BRANCH   2   3
ATOM      3  C   UNL A   1      32.121  20.719  25.097  1.00  0.00     0.116 C 
BRANCH   3   4
ATOM      4  N   UNL A   1      32.102  21.661  26.202  1.00  0.00    -0.351 N 
ATOM      5  C   UNL A   1      31.626  22.941  26.285  1.00  0.00     0.279 C 
ATOM      6  O   UNL A   1      31.493  23.400  27.428  1.00  0.00    -0.268 OA
ATOM      7  H   UNL A   1      32.498  21.318  27.036  1.00  0.00     0.163 HD
BRANCH   5   8
ATOM      8  C   UNL A   1      31.179  23.807  25.083  1.00  0.00     0.283 C 
ATOM      9  C   UNL A   1      31.284  26.145  24.395  1.00  0.00     0.283 C 
ATOM     10  N   UNL A   1      30.861  25.203  25.451  1.00  0.00    -0.320 N 
ATOM     11  S   UNL A   1      31.873  25.200  22.970  1.00  0.00    -0.087 SA
ATOM     12  H   UNL A   1      29.854  25.288  25.588  1.00  0.00     0.348 HD
ATOM     13  H   UNL A   1      31.363  25.433  26.308  1.00  0.00     0.348 HD
ATOM     14  C   UNL A   1      32.190  23.721  23.952  1.00  0.00     0.151 C 
BRANCH   9  15
ATOM     15  C   UNL A   1      32.281  27.102  25.005  1.00  0.00     0.128 A 
ATOM     16  C   UNL A   1      33.498  26.852  25.542  1.00  0.00     0.205 A 
ATOM     17  O   UNL A   1      34.198  27.763  26.306  1.00  0.00    -0.440 OA
ATOM     18  C   UNL A   1      33.644  28.973  26.576  1.00  0.00     0.140 A 
ATOM     19  C   UNL A   1      31.742  28.491  25.123  1.00  0.00     0.205 A 
ATOM     20  C   UNL A   1      34.339  29.781  27.460  1.00  0.00     0.051 A 
ATOM     21  C   UNL A   1      32.469  29.420  25.988  1.00  0.00     0.068 A 
ATOM     22  O   UNL A   1      30.722  28.859  24.554  1.00  0.00    -0.288 OA
ATOM     23  C   UNL A   1      33.872  31.064  27.697  1.00  0.00     0.043 A 
ATOM     24  C   UNL A   1      31.990  30.709  26.237  1.00  0.00     0.055 A 
ATOM     25  C   UNL A   1      32.710  31.527  27.091  1.00  0.00     0.124 A 
ATOM     26  F   UNL A   1      32.289  32.771  27.346  1.00  0.00    -0.207 F 
BRANCH  16  27
ATOM     27  N   UNL A   1      34.160  25.662  25.501  1.00  0.00    -0.369 N 
ATOM     28  H   UNL A   1      33.666  24.819  25.624  1.00  0.00     0.159 HD
ATOM     29  H   UNL A   1      35.133  25.645  25.348  1.00  0.00     0.159 HD
ENDBRANCH  16  27
ENDBRANCH   9  15
ENDBRANCH   5   8
ENDBRANCH   3   4
ENDBRANCH   2   3
ENDBRANCH   1   2
BRANCH   1  30
ATOM     30  C   UNL A   1      35.898  21.350  24.617  1.00  0.00     0.002 C 
BRANCH  30  31
ATOM     31  C   UNL A   1      36.105  22.862  24.352  1.00  0.00     0.021 C 
BRANCH  31  32
ATOM     32  C   UNL A   1      37.154  23.672  25.127  1.00  0.00     0.116 C 
BRANCH  32  33
ATOM     33  N   UNL A   1      38.246  22.802  25.572  1.00  0.00    -0.352 N 
ATOM     34  C   UNL A   1      39.410  23.033  26.261  1.00  0.00     0.251 C 
ATOM     35  H   UNL A   1      38.117  21.857  25.327  1.00  0.00     0.163 HD
ATOM     36  O   UNL A   1      40.235  22.130  26.366  1.00  0.00    -0.269 OA
BRANCH  34  37
ATOM     37  C   UNL A   1      39.721  24.345  26.869  1.00  0.00     0.039 A 
ATOM     38  C   UNL A   1      40.338  25.360  26.145  1.00  0.00     0.014 A 
ATOM     39  C   UNL A   1      39.275  24.612  28.169  1.00  0.00     0.014 A 
ATOM     40  C   UNL A   1      40.628  26.586  26.769  1.00  0.00     0.010 A 
ATOM     41  C   UNL A   1      39.533  25.853  28.773  1.00  0.00     0.010 A 
ATOM     42  C   UNL A   1      40.265  26.846  28.103  1.00  0.00    -0.014 A 
BRANCH  42  43
ATOM     43  C   UNL A   1      40.664  28.115  28.803  1.00  0.00     0.031 A 
ATOM     44  C   UNL A   1      42.102  28.357  29.223  1.00  0.00     0.074 A 
ATOM     45  C   UNL A   1      39.762  29.084  29.063  1.00  0.00     0.049 A 
ATOM     46  N   UNL A   1      42.606  29.318  29.964  1.00  0.00    -0.248 NA
ATOM     47  C   UNL A   1      43.105  27.394  28.747  1.00  0.00     0.031 C 
ATOM     48  C   UNL A   1      38.351  29.054  28.682  1.00  0.00     0.029 A 
ATOM     49  N   UNL A   1      39.902  30.293  29.707  1.00  0.00    -0.354 N 
ATOM     50  C   UNL A   1      43.968  29.054  30.070  1.00  0.00     0.074 A 
ATOM     51  C   UNL A   1      44.209  27.829  29.337  1.00  0.00     0.031 C 
ATOM     52  C   UNL A   1      37.771  30.206  29.049  1.00  0.00     0.029 A 
ATOM     53  C   UNL A   1      38.737  31.019  29.781  1.00  0.00     0.049 A 
ATOM     54  H   UNL A   1      40.757  30.609  30.080  1.00  0.00     0.167 HD
ATOM     55  C   UNL A   1      44.934  29.767  30.705  1.00  0.00     0.037 A 
ATOM     56  C   UNL A   1      38.453  32.186  30.393  1.00  0.00     0.037 A 
ATOM     57  C   UNL A   1      44.719  31.004  31.414  1.00  0.00     0.049 A 
ATOM     58  C   UNL A   1      39.514  32.906  31.178  1.00  0.00     0.074 A 
ATOM     59  C   UNL A   1      45.644  31.780  32.097  1.00  0.00     0.029 A 
ATOM     60  N   UNL A   1      43.502  31.659  31.523  1.00  0.00    -0.354 N 
ATOM     61  N   UNL A   1      40.780  32.609  31.325  1.00  0.00    -0.248 NA
ATOM     62  C   UNL A   1      39.095  34.120  31.897  1.00  0.00     0.031 C 
ATOM     63  C   UNL A   1      44.980  32.875  32.656  1.00  0.00     0.029 A 
ATOM     64  C   UNL A   1      43.651  32.818  32.272  1.00  0.00     0.049 A 
ATOM     65  H   UNL A   1      42.656  31.346  31.128  1.00  0.00     0.167 HD
ATOM     66  C   UNL A   1      41.316  33.610  32.126  1.00  0.00     0.074 A 
ATOM     67  C   UNL A   1      40.240  34.530  32.426  1.00  0.00     0.031 C 
ATOM     68  C   UNL A   1      42.590  33.748  32.567  1.00  0.00     0.037 A 
BRANCH  55  69
ATOM     69  C   UNL A   1      46.338  29.223  30.679  1.00  0.00     0.064 A 
ATOM     70  C   UNL A   1      46.800  28.324  31.652  1.00  0.00     0.173 A 
ATOM     71  C   UNL A   1      47.208  29.547  29.625  1.00  0.00     0.173 A 
ATOM     72  F   UNL A   1      46.014  27.985  32.685  1.00  0.00    -0.203 F 
ATOM     73  C   UNL A   1      48.085  27.789  31.584  1.00  0.00     0.198 A 
ATOM     74  C   UNL A   1      48.481  28.986  29.542  1.00  0.00     0.198 A 
ATOM     75  F   UNL A   1      46.816  30.391  28.659  1.00  0.00    -0.203 F 
ATOM     76  F   UNL A   1      48.518  26.967  32.550  1.00  0.00    -0.200 F 
ATOM     77  C   UNL A   1      48.920  28.113  30.525  1.00  0.00     0.200 A 
ATOM     78  F   UNL A   1      49.278  29.284  28.507  1.00  0.00    -0.200 F 
ATOM     79  F   UNL A   1      50.151  27.586  30.455  1.00  0.00    -0.200 F 
ENDBRANCH  55  69
BRANCH  56  80
ATOM     80  C   UNL A   1      37.081  32.750  30.287  1.00  0.00     0.064 A 
ATOM     81  C   UNL A   1      36.716  33.534  29.184  1.00  0.00     0.173 A 
ATOM     82  C   UNL A   1      36.105  32.499  31.262  1.00  0.00     0.173 A 
ATOM     83  F   UNL A   1      37.625  33.829  28.243  1.00  0.00    -0.203 F 
ATOM     84  C   UNL A   1      35.424  34.040  29.058  1.00  0.00     0.198 A 
ATOM     85  C   UNL A   1      34.805  32.978  31.119  1.00  0.00     0.198 A 
ATOM     86  F   UNL A   1      36.407  31.760  32.340  1.00  0.00    -0.203 F 
ATOM     87  F   UNL A   1      35.109  34.810  28.009  1.00  0.00    -0.200 F 
ATOM     88  C   UNL A   1      34.467  33.750  30.018  1.00  0.00     0.200 A 
ATOM     89  F   UNL A   1      33.879  32.683  32.042  1.00  0.00    -0.200 F 
ATOM     90  F   UNL A   1      33.218  34.218  29.885  1.00  0.00    -0.200 F 
ENDBRANCH  56  80
BRANCH  68  91
ATOM     91  C   UNL A   1      42.922  34.962  33.388  1.00  0.00     0.064 A 
ATOM     92  C   UNL A   1      43.307  36.174  32.796  1.00  0.00     0.173 A 
ATOM     93  C   UNL A   1      42.807  34.926  34.787  1.00  0.00     0.173 A 
ATOM     94  F   UNL A   1      43.446  36.261  31.464  1.00  0.00    -0.203 F 
ATOM     95  C   UNL A   1      43.582  37.297  33.574  1.00  0.00     0.198 A 
ATOM     96  C   UNL A   1      43.054  36.059  35.559  1.00  0.00     0.198 A 
ATOM     97  F   UNL A   1      42.437  33.795  35.406  1.00  0.00    -0.203 F 
ATOM     98  F   UNL A   1      43.989  38.433  32.988  1.00  0.00    -0.200 F 
ATOM     99  C   UNL A   1      43.447  37.242  34.952  1.00  0.00     0.200 A 
ATOM    100  F   UNL A   1      42.908  36.006  36.891  1.00  0.00    -0.200 F 
ATOM    101  F   UNL A   1      43.703  38.326  35.698  1.00  0.00    -0.200 F 
ENDBRANCH  68  91
ENDBRANCH  42  43
ENDBRANCH  34  37
ENDBRANCH  32  33
ENDBRANCH  31  32
ENDBRANCH  30  31
ENDBRANCH   1  30
TORSDOF 15
ENDMDL
MODEL 3
REMARK VINA RESULT:     -12.9      2.153      7.793
REMARK SMILES Nc1oc2ccc(F)cc2c(=O)c1[C@@H]1[NH2+][C@H](C(=O)NCCCCCCNC(=O)c2ccc(-c3c4nc(c(-c5c(F)c(F)c(F)c(F)c5F)c5ccc([nH]5)c(-c5c(F)c(F)c(F)c(F)c5F)c5nc(c(-c6c(F)c(F)c(F)c(F)c6F)c6ccc3[nH]6)C=C5)C=C4)cc2)CS1
REMARK SMILES IDX 22 1 21 2 20 3 19 4 17 5 18 6 16 8 14 9 15 10 93 11 92 14
REMARK SMILES IDX 13 15 2 16 3 17 4 18 11 19 5 20 10 21 12 22 6 23 9 24 7 25
REMARK SMILES IDX 8 26 1 27 23 30 24 31 25 32 26 33 27 34 28 36 29 37 30 38
REMARK SMILES IDX 91 39 31 40 90 41 32 42 33 43 34 44 84 45 35 46 89 47 83 48
REMARK SMILES IDX 85 49 36 50 88 51 82 52 81 53 37 55 69 56 49 57 68 58 50 59
REMARK SMILES IDX 53 60 67 61 86 62 51 63 52 64 66 66 87 67 54 68 38 69 39 70
REMARK SMILES IDX 47 71 40 72 41 73 45 74 48 75 42 76 43 77 46 78 44 79 70 80
REMARK SMILES IDX 71 81 79 82 72 83 73 84 77 85 80 86 74 87 75 88 78 89 76 90
REMARK SMILES IDX 55 91 56 92 64 93 57 94 58 95 62 96 65 97 59 98 60 99 63 100
REMARK SMILES IDX 61 101
REMARK H PARENT 19 7 15 12 15 13 1 28 1 29 26 35 85 54 53 65
REMARK Flexibility Score: inf
ROOT
ATOM      1  C   UNL A   1      35.525  33.347  28.574  1.00  0.00     0.002 C 
ENDROOT
BRANCH   1   2
ATOM      2  C   UNL A   1      34.740  32.045  28.858  1.00  0.00     0.021 C 
BRANCH   2   3
ATOM      3  C   UNL A   1      34.357  31.196  27.631  1.00  0.00     0.116 C 
BRANCH   3   4
ATOM      4  N   UNL A   1      33.224  30.309  27.829  1.00  0.00    -0.351 N 
ATOM      5  C   UNL A   1      32.699  29.329  27.031  1.00  0.00     0.279 C 
ATOM      6  O   UNL A   1      31.905  28.550  27.577  1.00  0.00    -0.268 OA
ATOM      7  H   UNL A   1      32.754  30.433  28.685  1.00  0.00     0.163 HD
BRANCH   5   8
ATOM      8  C   UNL A   1      33.077  29.084  25.551  1.00  0.00     0.283 C 
ATOM      9  C   UNL A   1      33.261  27.198  24.015  1.00  0.00     0.283 C 
ATOM     10  N   UNL A   1      33.688  27.759  25.312  1.00  0.00    -0.320 N 
ATOM     11  S   UNL A   1      32.285  28.440  23.134  1.00  0.00    -0.087 SA
ATOM     12  H   UNL A   1      34.703  27.857  25.313  1.00  0.00     0.348 HD
ATOM     13  H   UNL A   1      33.385  27.127  26.052  1.00  0.00     0.348 HD
ATOM     14  C   UNL A   1      31.890  29.349  24.640  1.00  0.00     0.151 C 
BRANCH   9  15
ATOM     15  C   UNL A   1      32.560  25.888  24.289  1.00  0.00     0.128 A 
ATOM     16  C   UNL A   1      31.464  25.638  25.043  1.00  0.00     0.205 A 
ATOM     17  O   UNL A   1      31.077  24.372  25.433  1.00  0.00    -0.440 OA
ATOM     18  C   UNL A   1      31.839  23.303  25.082  1.00  0.00     0.140 A 
ATOM     19  C   UNL A   1      33.299  24.716  23.727  1.00  0.00     0.205 A 
ATOM     20  C   UNL A   1      31.468  22.084  25.623  1.00  0.00     0.051 A 
ATOM     21  C   UNL A   1      32.910  23.389  24.205  1.00  0.00     0.068 A 
ATOM     22  O   UNL A   1      34.214  24.831  22.922  1.00  0.00    -0.288 OA
ATOM     23  C   UNL A   1      32.149  20.945  25.223  1.00  0.00     0.043 A 
ATOM     24  C   UNL A   1      33.605  22.242  23.811  1.00  0.00     0.055 A 
ATOM     25  C   UNL A   1      33.206  21.020  24.325  1.00  0.00     0.124 A 
ATOM     26  F   UNL A   1      33.840  19.898  23.964  1.00  0.00    -0.207 F 
BRANCH  16  27
ATOM     27  N   UNL A   1      30.650  26.575  25.605  1.00  0.00    -0.369 N 
ATOM     28  H   UNL A   1      29.785  26.307  25.992  1.00  0.00     0.159 HD
ATOM     29  H   UNL A   1      30.928  27.519  25.626  1.00  0.00     0.159 HD
ENDBRANCH  16  27
ENDBRANCH   9  15
ENDBRANCH   5   8
ENDBRANCH   3   4
ENDBRANCH   2   3
ENDBRANCH   1   2
BRANCH   1  30
ATOM     30  C   UNL A   1      34.665  34.506  28.036  1.00  0.00     0.002 C 
BRANCH  30  31
ATOM     31  C   UNL A   1      33.378  34.971  28.761  1.00  0.00     0.021 C 
BRANCH  31  32
ATOM     32  C   UNL A   1      33.266  36.376  29.368  1.00  0.00     0.116 C 
BRANCH  32  33
ATOM     33  N   UNL A   1      32.380  36.360  30.535  1.00  0.00    -0.352 N 
ATOM     34  C   UNL A   1      32.461  35.762  31.768  1.00  0.00     0.251 C 
ATOM     35  H   UNL A   1      31.558  36.887  30.410  1.00  0.00     0.163 HD
ATOM     36  O   UNL A   1      31.486  35.788  32.514  1.00  0.00    -0.269 OA
BRANCH  34  37
ATOM     37  C   UNL A   1      33.681  35.064  32.229  1.00  0.00     0.039 A 
ATOM     38  C   UNL A   1      34.915  35.703  32.279  1.00  0.00     0.014 A 
ATOM     39  C   UNL A   1      33.566  33.765  32.738  1.00  0.00     0.014 A 
ATOM     40  C   UNL A   1      36.051  34.995  32.709  1.00  0.00     0.010 A 
ATOM     41  C   UNL A   1      34.698  33.077  33.203  1.00  0.00     0.010 A 
ATOM     42  C   UNL A   1      35.975  33.660  33.145  1.00  0.00    -0.014 A 
BRANCH  42  43
ATOM     43  C   UNL A   1      37.201  32.869  33.507  1.00  0.00     0.031 A 
ATOM     44  C   UNL A   1      37.882  33.054  34.850  1.00  0.00     0.074 A 
ATOM     45  C   UNL A   1      37.723  31.958  32.658  1.00  0.00     0.049 A 
ATOM     46  N   UNL A   1      39.028  32.574  35.280  1.00  0.00    -0.248 NA
ATOM     47  C   UNL A   1      37.185  33.888  35.840  1.00  0.00     0.031 C 
ATOM     48  C   UNL A   1      37.171  31.602  31.353  1.00  0.00     0.029 A 
ATOM     49  N   UNL A   1      38.836  31.157  32.774  1.00  0.00    -0.354 N 
ATOM     50  C   UNL A   1      39.200  33.074  36.567  1.00  0.00     0.074 A 
ATOM     51  C   UNL A   1      38.054  33.916  36.840  1.00  0.00     0.031 C 
ATOM     52  C   UNL A   1      37.911  30.624  30.813  1.00  0.00     0.029 A 
ATOM     53  C   UNL A   1      39.050  30.347  31.684  1.00  0.00     0.049 A 
ATOM     54  H   UNL A   1      39.425  31.163  33.562  1.00  0.00     0.167 HD
ATOM     55  C   UNL A   1      40.209  32.849  37.447  1.00  0.00     0.037 A 
ATOM     56  C   UNL A   1      40.057  29.502  31.387  1.00  0.00     0.037 A 
ATOM     57  C   UNL A   1      41.343  31.991  37.206  1.00  0.00     0.049 A 
ATOM     58  C   UNL A   1      41.216  29.345  32.332  1.00  0.00     0.074 A 
ATOM     59  C   UNL A   1      42.416  31.722  38.042  1.00  0.00     0.029 A 
ATOM     60  N   UNL A   1      41.550  31.250  36.052  1.00  0.00    -0.354 N 
ATOM     61  N   UNL A   1      41.398  29.876  33.514  1.00  0.00    -0.248 NA
ATOM     62  C   UNL A   1      42.319  28.480  31.887  1.00  0.00     0.031 C 
ATOM     63  C   UNL A   1      43.292  30.858  37.378  1.00  0.00     0.029 A 
ATOM     64  C   UNL A   1      42.737  30.538  36.151  1.00  0.00     0.049 A 
ATOM     65  H   UNL A   1      40.944  31.234  35.276  1.00  0.00     0.167 HD
ATOM     66  C   UNL A   1      42.618  29.389  33.967  1.00  0.00     0.074 A 
ATOM     67  C   UNL A   1      43.130  28.512  32.937  1.00  0.00     0.031 C 
ATOM     68  C   UNL A   1      43.251  29.651  35.137  1.00  0.00     0.037 A 
BRANCH  55  69
ATOM     69  C   UNL A   1      40.150  33.553  38.777  1.00  0.00     0.064 A 
ATOM     70  C   UNL A   1      40.878  34.727  39.024  1.00  0.00     0.173 A 
ATOM     71  C   UNL A   1      39.296  33.090  39.792  1.00  0.00     0.173 A 
ATOM     72  F   UNL A   1      41.715  35.210  38.093  1.00  0.00    -0.203 F 
ATOM     73  C   UNL A   1      40.772  35.395  40.242  1.00  0.00     0.198 A 
ATOM     74  C   UNL A   1      39.167  33.779  40.996  1.00  0.00     0.198 A 
ATOM     75  F   UNL A   1      38.565  31.980  39.607  1.00  0.00    -0.203 F 
ATOM     76  F   UNL A   1      41.512  36.490  40.469  1.00  0.00    -0.200 F 
ATOM     77  C   UNL A   1      39.910  34.927  41.222  1.00  0.00     0.200 A 
ATOM     78  F   UNL A   1      38.319  33.335  41.934  1.00  0.00    -0.200 F 
ATOM     79  F   UNL A   1      39.800  35.580  42.388  1.00  0.00    -0.200 F 
ENDBRANCH  55  69
BRANCH  56  80
ATOM     80  C   UNL A   1      40.012  28.730  30.117  1.00  0.00     0.064 A 
ATOM     81  C   UNL A   1      40.604  29.237  28.952  1.00  0.00     0.173 A 
ATOM     82  C   UNL A   1      39.405  27.467  30.045  1.00  0.00     0.173 A 
ATOM     83  F   UNL A   1      41.167  30.455  28.964  1.00  0.00    -0.203 F 
ATOM     84  C   UNL A   1      40.596  28.508  27.766  1.00  0.00     0.198 A 
ATOM     85  C   UNL A   1      39.426  26.726  28.866  1.00  0.00     0.198 A 
ATOM     86  F   UNL A   1      38.819  26.941  31.130  1.00  0.00    -0.203 F 
ATOM     87  F   UNL A   1      41.144  29.028  26.659  1.00  0.00    -0.200 F 
ATOM     88  C   UNL A   1      40.019  27.248  27.727  1.00  0.00     0.200 A 
ATOM     89  F   UNL A   1      38.881  25.502  28.838  1.00  0.00    -0.200 F 
ATOM     90  F   UNL A   1      40.031  26.538  26.591  1.00  0.00    -0.200 F 
ENDBRANCH  56  80
BRANCH  68  91
ATOM     91  C   UNL A   1      44.551  28.948  35.405  1.00  0.00     0.064 A 
ATOM     92  C   UNL A   1      45.787  29.525  35.077  1.00  0.00     0.173 A 
ATOM     93  C   UNL A   1      44.564  27.699  36.045  1.00  0.00     0.173 A 
ATOM     94  F   UNL A   1      45.834  30.712  34.452  1.00  0.00    -0.203 F 
ATOM     95  C   UNL A   1      46.983  28.869  35.361  1.00  0.00     0.198 A 
ATOM     96  C   UNL A   1      45.762  27.059  36.354  1.00  0.00     0.198 A 
ATOM     97  F   UNL A   1      43.411  27.103  36.388  1.00  0.00    -0.203 F 
ATOM     98  F   UNL A   1      48.151  29.421  35.000  1.00  0.00    -0.200 F 
ATOM     99  C   UNL A   1      46.970  27.643  36.007  1.00  0.00     0.200 A 
ATOM    100  F   UNL A   1      45.746  25.880  36.992  1.00  0.00    -0.200 F 
ATOM    101  F   UNL A   1      48.122  27.018  36.288  1.00  0.00    -0.200 F 
ENDBRANCH  68  91
ENDBRANCH  42  43
ENDBRANCH  34  37
ENDBRANCH  32  33
ENDBRANCH  31  32
ENDBRANCH  30  31
ENDBRANCH   1  30
TORSDOF 15
ENDMDL
