MODEL 1
REMARK VINA RESULT:     -12.0      0.000      0.000
REMARK SMILES O=C(NCCCCCCNC(=O)c1ccc(-c2c3nc(c(-c4c(F)c(F)c(F)c(F)c4F)c4ccc([nH]4)c(-c4c(F)c(F)c(F)c(F)c4F)c4nc(c(-c5c(F)c(F)c(F)c(F)c5F)c5ccc2[nH]5)C=C4)C=C3)cc1)c1ccc(N/C=C\C(=O)c2ccco2)cc1
REMARK SMILES IDX 5 1 4 2 3 3 1 4 2 5 76 7 77 8 91 9 78 10 90 11 79 12 80 13
REMARK SMILES IDX 81 15 82 16 83 17 84 18 85 19 86 20 89 21 87 22 88 23 6 24
REMARK SMILES IDX 7 25 8 26 9 27 10 28 11 29 12 31 13 32 14 33 75 34 15 35
REMARK SMILES IDX 74 36 16 37 17 38 18 39 68 40 19 41 73 42 67 43 69 44 20 45
REMARK SMILES IDX 72 46 66 47 65 48 21 50 53 51 33 52 52 53 34 54 37 55 51 56
REMARK SMILES IDX 70 57 35 58 36 59 50 61 71 62 38 63 22 64 23 65 31 66 24 67
REMARK SMILES IDX 25 68 29 69 32 70 26 71 27 72 30 73 28 74 54 75 55 76 63 77
REMARK SMILES IDX 56 78 57 79 61 80 64 81 58 82 59 83 62 84 60 85 39 86 40 87
REMARK SMILES IDX 48 88 41 89 42 90 46 91 49 92 43 93 44 94 47 95 45 96
REMARK H PARENT 3 6 80 14 10 30 69 49 37 60
REMARK Flexibility Score: inf
ROOT
ATOM      1  C   UNL A   1      33.794  29.301  26.359  1.00  0.00     0.021 C 
ENDROOT
BRANCH   1   2
ATOM      2  C   UNL A   1      33.432  28.269  25.294  1.00  0.00     0.116 C 
BRANCH   2   3
ATOM      3  N   UNL A   1      33.847  28.682  23.966  1.00  0.00    -0.352 N 
ATOM      4  O   UNL A   1      34.347  28.403  21.783  1.00  0.00    -0.269 OA
ATOM      5  C   UNL A   1      33.816  27.965  22.798  1.00  0.00     0.251 C 
ATOM      6  H   UNL A   1      34.196  29.599  23.894  1.00  0.00     0.163 HD
BRANCH   5   7
ATOM      7  C   UNL A   1      33.162  26.644  22.773  1.00  0.00     0.039 A 
ATOM      8  C   UNL A   1      31.769  26.527  22.769  1.00  0.00     0.016 A 
ATOM      9  C   UNL A   1      33.963  25.505  22.737  1.00  0.00     0.016 A 
ATOM     10  C   UNL A   1      31.176  25.261  22.785  1.00  0.00     0.027 A 
ATOM     11  C   UNL A   1      33.362  24.247  22.737  1.00  0.00     0.027 A 
ATOM     12  C   UNL A   1      31.963  24.105  22.760  1.00  0.00     0.038 A 
BRANCH  12  13
ATOM     13  N   UNL A   1      31.439  22.804  22.840  1.00  0.00    -0.362 N 
ATOM     14  H   UNL A   1      30.498  22.750  23.125  1.00  0.00     0.166 HD
BRANCH  13  15
ATOM     15  C   UNL A   1      32.039  21.601  22.581  1.00  0.00     0.087 C 
ATOM     16  C   UNL A   1      32.409  20.631  23.430  1.00  0.00     0.074 C 
BRANCH  16  17
ATOM     17  C   UNL A   1      32.237  20.602  24.914  1.00  0.00     0.222 C 
ATOM     18  O   UNL A   1      32.250  19.500  25.460  1.00  0.00    -0.286 OA
BRANCH  17  19
ATOM     19  C   UNL A   1      32.054  21.847  25.630  1.00  0.00     0.173 A 
ATOM     20  C   UNL A   1      32.946  22.722  26.228  1.00  0.00     0.054 A 
ATOM     21  O   UNL A   1      30.777  22.280  25.858  1.00  0.00    -0.461 OA
ATOM     22  C   UNL A   1      32.171  23.713  26.878  1.00  0.00     0.043 A 
ATOM     23  C   UNL A   1      30.858  23.399  26.622  1.00  0.00     0.196 A 
ENDBRANCH  17  19
ENDBRANCH  16  17
ENDBRANCH  13  15
ENDBRANCH  12  13
ENDBRANCH   5   7
ENDBRANCH   2   3
ENDBRANCH   1   2
BRANCH   1  24
ATOM     24  C   UNL A   1      32.605  29.919  27.103  1.00  0.00     0.002 C 
BRANCH  24  25
ATOM     25  C   UNL A   1      31.630  30.724  26.242  1.00  0.00     0.002 C 
BRANCH  25  26
ATOM     26  C   UNL A   1      31.414  32.178  26.670  1.00  0.00     0.021 C 
BRANCH  26  27
ATOM     27  C   UNL A   1      32.651  32.894  27.202  1.00  0.00     0.116 C 
BRANCH  27  28
ATOM     28  N   UNL A   1      32.376  34.256  27.626  1.00  0.00    -0.352 N 
ATOM     29  C   UNL A   1      32.969  34.996  28.620  1.00  0.00     0.251 C 
ATOM     30  H   UNL A   1      31.660  34.714  27.131  1.00  0.00     0.163 HD
ATOM     31  O   UNL A   1      32.513  36.093  28.926  1.00  0.00    -0.269 OA
BRANCH  29  32
ATOM     32  C   UNL A   1      34.143  34.462  29.344  1.00  0.00     0.039 A 
ATOM     33  C   UNL A   1      33.943  33.851  30.585  1.00  0.00     0.014 A 
ATOM     34  C   UNL A   1      35.432  34.572  28.816  1.00  0.00     0.014 A 
ATOM     35  C   UNL A   1      35.027  33.294  31.267  1.00  0.00     0.010 A 
ATOM     36  C   UNL A   1      36.502  33.962  29.467  1.00  0.00     0.010 A 
ATOM     37  C   UNL A   1      36.310  33.319  30.700  1.00  0.00    -0.014 A 
BRANCH  37  38
ATOM     38  C   UNL A   1      37.463  32.673  31.378  1.00  0.00     0.031 A 
ATOM     39  C   UNL A   1      38.178  31.524  30.723  1.00  0.00     0.074 A 
ATOM     40  C   UNL A   1      37.824  33.077  32.610  1.00  0.00     0.049 A 
ATOM     41  N   UNL A   1      39.155  30.784  31.186  1.00  0.00    -0.248 NA
ATOM     42  C   UNL A   1      37.718  31.138  29.380  1.00  0.00     0.031 C 
ATOM     43  C   UNL A   1      37.182  34.152  33.368  1.00  0.00     0.029 A 
ATOM     44  N   UNL A   1      38.811  32.622  33.450  1.00  0.00    -0.354 N 
ATOM     45  C   UNL A   1      39.409  29.836  30.204  1.00  0.00     0.074 A 
ATOM     46  C   UNL A   1      38.460  30.067  29.136  1.00  0.00     0.031 C 
ATOM     47  C   UNL A   1      37.804  34.288  34.551  1.00  0.00     0.029 A 
ATOM     48  C   UNL A   1      38.865  33.289  34.649  1.00  0.00     0.049 A 
ATOM     49  H   UNL A   1      39.423  31.889  33.213  1.00  0.00     0.167 HD
ATOM     50  C   UNL A   1      40.359  28.872  30.187  1.00  0.00     0.037 A 
ATOM     51  C   UNL A   1      39.673  33.110  35.710  1.00  0.00     0.037 A 
ATOM     52  C   UNL A   1      41.330  28.670  31.231  1.00  0.00     0.049 A 
ATOM     53  C   UNL A   1      40.725  32.035  35.662  1.00  0.00     0.074 A 
ATOM     54  C   UNL A   1      42.384  27.775  31.268  1.00  0.00     0.029 A 
ATOM     55  N   UNL A   1      41.363  29.378  32.424  1.00  0.00    -0.354 N 
ATOM     56  N   UNL A   1      41.002  31.191  34.697  1.00  0.00    -0.248 NA
ATOM     57  C   UNL A   1      41.579  31.889  36.849  1.00  0.00     0.031 C 
ATOM     58  C   UNL A   1      43.031  27.910  32.501  1.00  0.00     0.029 A 
ATOM     59  C   UNL A   1      42.407  28.922  33.213  1.00  0.00     0.049 A 
ATOM     60  H   UNL A   1      40.740  30.098  32.672  1.00  0.00     0.167 HD
ATOM     61  C   UNL A   1      42.079  30.439  35.146  1.00  0.00     0.074 A 
ATOM     62  C   UNL A   1      42.412  30.931  36.467  1.00  0.00     0.031 C 
ATOM     63  C   UNL A   1      42.734  29.432  34.520  1.00  0.00     0.037 A 
BRANCH  50  64
ATOM     64  C   UNL A   1      40.404  27.957  28.999  1.00  0.00     0.064 A 
ATOM     65  C   UNL A   1      39.656  26.772  28.954  1.00  0.00     0.173 A 
ATOM     66  C   UNL A   1      41.170  28.295  27.873  1.00  0.00     0.173 A 
ATOM     67  F   UNL A   1      38.918  26.400  30.010  1.00  0.00    -0.203 F 
ATOM     68  C   UNL A   1      39.690  25.946  27.834  1.00  0.00     0.198 A 
ATOM     69  C   UNL A   1      41.180  27.481  26.744  1.00  0.00     0.198 A 
ATOM     70  F   UNL A   1      41.900  29.421  27.863  1.00  0.00    -0.203 F 
ATOM     71  F   UNL A   1      38.999  24.798  27.828  1.00  0.00    -0.200 F 
ATOM     72  C   UNL A   1      40.446  26.305  26.726  1.00  0.00     0.200 A 
ATOM     73  F   UNL A   1      41.902  27.834  25.671  1.00  0.00    -0.200 F 
ATOM     74  F   UNL A   1      40.470  25.513  25.646  1.00  0.00    -0.200 F 
ENDBRANCH  50  64
BRANCH  51  75
ATOM     75  C   UNL A   1      39.542  33.985  36.903  1.00  0.00     0.064 A 
ATOM     76  C   UNL A   1      40.189  35.228  36.952  1.00  0.00     0.173 A 
ATOM     77  C   UNL A   1      38.785  33.597  38.017  1.00  0.00     0.173 A 
ATOM     78  F   UNL A   1      40.942  35.632  35.919  1.00  0.00    -0.203 F 
ATOM     79  C   UNL A   1      40.100  36.041  38.080  1.00  0.00     0.198 A 
ATOM     80  C   UNL A   1      38.676  34.423  39.134  1.00  0.00     0.198 A 
ATOM     81  F   UNL A   1      38.145  32.419  38.017  1.00  0.00    -0.203 F 
ATOM     82  F   UNL A   1      40.766  37.203  38.119  1.00  0.00    -0.200 F 
ATOM     83  C   UNL A   1      39.340  35.639  39.168  1.00  0.00     0.200 A 
ATOM     84  F   UNL A   1      37.932  34.037  40.179  1.00  0.00    -0.200 F 
ATOM     85  F   UNL A   1      39.255  36.422  40.254  1.00  0.00    -0.200 F 
ENDBRANCH  51  75
BRANCH  63  86
ATOM     86  C   UNL A   1      43.899  28.818  35.238  1.00  0.00     0.064 A 
ATOM     87  C   UNL A   1      45.206  29.293  35.056  1.00  0.00     0.173 A 
ATOM     88  C   UNL A   1      43.699  27.768  36.146  1.00  0.00     0.173 A 
ATOM     89  F   UNL A   1      45.450  30.284  34.186  1.00  0.00    -0.203 F 
ATOM     90  C   UNL A   1      46.275  28.721  35.743  1.00  0.00     0.198 A 
ATOM     91  C   UNL A   1      44.765  27.218  36.851  1.00  0.00     0.198 A 
ATOM     92  F   UNL A   1      42.466  27.282  36.357  1.00  0.00    -0.203 F 
ATOM     93  F   UNL A   1      47.521  29.162  35.523  1.00  0.00    -0.200 F 
ATOM     94  C   UNL A   1      46.052  27.691  36.645  1.00  0.00     0.200 A 
ATOM     95  F   UNL A   1      44.548  26.229  37.729  1.00  0.00    -0.200 F 
ATOM     96  F   UNL A   1      47.082  27.148  37.309  1.00  0.00    -0.200 F 
ENDBRANCH  63  86
ENDBRANCH  37  38
ENDBRANCH  29  32
ENDBRANCH  27  28
ENDBRANCH  26  27
ENDBRANCH  25  26
ENDBRANCH  24  25
ENDBRANCH   1  24
TORSDOF 17
ENDMDL
MODEL 2
REMARK VINA RESULT:     -12.0      4.104      8.371
REMARK SMILES O=C(NCCCCCCNC(=O)c1ccc(-c2c3nc(c(-c4c(F)c(F)c(F)c(F)c4F)c4ccc([nH]4)c(-c4c(F)c(F)c(F)c(F)c4F)c4nc(c(-c5c(F)c(F)c(F)c(F)c5F)c5ccc2[nH]5)C=C4)C=C3)cc1)c1ccc(N/C=C\C(=O)c2ccco2)cc1
REMARK SMILES IDX 5 1 4 2 3 3 1 4 2 5 76 7 77 8 91 9 78 10 90 11 79 12 80 13
REMARK SMILES IDX 81 15 82 16 83 17 84 18 85 19 86 20 89 21 87 22 88 23 6 24
REMARK SMILES IDX 7 25 8 26 9 27 10 28 11 29 12 31 13 32 14 33 75 34 15 35
REMARK SMILES IDX 74 36 16 37 17 38 18 39 68 40 19 41 73 42 67 43 69 44 20 45
REMARK SMILES IDX 72 46 66 47 65 48 21 50 53 51 33 52 52 53 34 54 37 55 51 56
REMARK SMILES IDX 70 57 35 58 36 59 50 61 71 62 38 63 22 64 23 65 31 66 24 67
REMARK SMILES IDX 25 68 29 69 32 70 26 71 27 72 30 73 28 74 54 75 55 76 63 77
REMARK SMILES IDX 56 78 57 79 61 80 64 81 58 82 59 83 62 84 60 85 39 86 40 87
REMARK SMILES IDX 48 88 41 89 42 90 46 91 49 92 43 93 44 94 47 95 45 96
REMARK H PARENT 3 6 80 14 10 30 69 49 37 60
REMARK Flexibility Score: inf
ROOT
ATOM      1  C   UNL A   1      33.396  20.370  25.605  1.00  0.00     0.021 C 
ENDROOT
BRANCH   1   2
ATOM      2  C   UNL A   1      32.141  21.057  25.071  1.00  0.00     0.116 C 
BRANCH   2   3
ATOM      3  N   UNL A   1      31.457  21.824  26.095  1.00  0.00    -0.352 N 
ATOM      4  O   UNL A   1      30.910  23.676  27.263  1.00  0.00    -0.269 OA
ATOM      5  C   UNL A   1      31.404  23.185  26.254  1.00  0.00     0.251 C 
ATOM      6  H   UNL A   1      30.965  21.297  26.766  1.00  0.00     0.163 HD
BRANCH   5   7
ATOM      7  C   UNL A   1      31.972  24.061  25.213  1.00  0.00     0.039 A 
ATOM      8  C   UNL A   1      33.235  24.638  25.364  1.00  0.00     0.016 A 
ATOM      9  C   UNL A   1      31.227  24.291  24.058  1.00  0.00     0.016 A 
ATOM     10  C   UNL A   1      33.732  25.497  24.378  1.00  0.00     0.027 A 
ATOM     11  C   UNL A   1      31.738  25.135  23.073  1.00  0.00     0.027 A 
ATOM     12  C   UNL A   1      32.995  25.750  23.217  1.00  0.00     0.038 A 
BRANCH  12  13
ATOM     13  N   UNL A   1      33.401  26.649  22.217  1.00  0.00    -0.362 N 
ATOM     14  H   UNL A   1      33.425  26.277  21.306  1.00  0.00     0.166 HD
BRANCH  13  15
ATOM     15  C   UNL A   1      33.765  27.964  22.319  1.00  0.00     0.087 C 
ATOM     16  C   UNL A   1      33.132  28.982  22.920  1.00  0.00     0.074 C 
BRANCH  16  17
ATOM     17  C   UNL A   1      31.843  28.938  23.674  1.00  0.00     0.222 C 
ATOM     18  O   UNL A   1      30.805  28.929  23.014  1.00  0.00    -0.286 OA
BRANCH  17  19
ATOM     19  C   UNL A   1      31.870  28.917  25.121  1.00  0.00     0.173 A 
ATOM     20  C   UNL A   1      31.535  27.945  26.050  1.00  0.00     0.054 A 
ATOM     21  O   UNL A   1      32.222  30.064  25.778  1.00  0.00    -0.461 OA
ATOM     22  C   UNL A   1      31.658  28.543  27.328  1.00  0.00     0.043 A 
ATOM     23  C   UNL A   1      32.079  29.832  27.107  1.00  0.00     0.196 A 
ENDBRANCH  17  19
ENDBRANCH  16  17
ENDBRANCH  13  15
ENDBRANCH  12  13
ENDBRANCH   5   7
ENDBRANCH   2   3
ENDBRANCH   1   2
BRANCH   1  24
ATOM     24  C   UNL A   1      34.602  21.290  25.829  1.00  0.00     0.002 C 
BRANCH  24  25
ATOM     25  C   UNL A   1      35.575  21.404  24.654  1.00  0.00     0.002 C 
BRANCH  25  26
ATOM     26  C   UNL A   1      36.109  22.811  24.371  1.00  0.00     0.021 C 
BRANCH  26  27
ATOM     27  C   UNL A   1      37.022  23.392  25.445  1.00  0.00     0.116 C 
BRANCH  27  28
ATOM     28  N   UNL A   1      38.051  22.460  25.875  1.00  0.00    -0.352 N 
ATOM     29  C   UNL A   1      39.240  22.710  26.516  1.00  0.00     0.251 C 
ATOM     30  H   UNL A   1      37.870  21.514  25.677  1.00  0.00     0.163 HD
ATOM     31  O   UNL A   1      40.051  21.804  26.683  1.00  0.00    -0.269 OA
BRANCH  29  32
ATOM     32  C   UNL A   1      39.561  24.076  26.982  1.00  0.00     0.039 A 
ATOM     33  C   UNL A   1      39.244  24.426  28.297  1.00  0.00     0.014 A 
ATOM     34  C   UNL A   1      40.156  25.012  26.131  1.00  0.00     0.014 A 
ATOM     35  C   UNL A   1      39.581  25.694  28.779  1.00  0.00     0.010 A 
ATOM     36  C   UNL A   1      40.547  26.252  26.630  1.00  0.00     0.010 A 
ATOM     37  C   UNL A   1      40.262  26.605  27.958  1.00  0.00    -0.014 A 
BRANCH  37  38
ATOM     38  C   UNL A   1      40.689  27.932  28.473  1.00  0.00     0.031 A 
ATOM     39  C   UNL A   1      42.136  28.188  28.794  1.00  0.00     0.074 A 
ATOM     40  C   UNL A   1      39.767  28.882  28.712  1.00  0.00     0.049 A 
ATOM     41  N   UNL A   1      42.692  29.250  29.320  1.00  0.00    -0.248 NA
ATOM     42  C   UNL A   1      43.079  27.095  28.511  1.00  0.00     0.031 C 
ATOM     43  C   UNL A   1      38.328  28.741  28.481  1.00  0.00     0.029 A 
ATOM     44  N   UNL A   1      39.899  30.153  29.216  1.00  0.00    -0.354 N 
ATOM     45  C   UNL A   1      44.040  28.946  29.450  1.00  0.00     0.074 A 
ATOM     46  C   UNL A   1      44.215  27.587  28.986  1.00  0.00     0.031 C 
ATOM     47  C   UNL A   1      37.714  29.886  28.822  1.00  0.00     0.029 A 
ATOM     48  C   UNL A   1      38.709  30.828  29.327  1.00  0.00     0.049 A 
ATOM     49  H   UNL A   1      40.766  30.544  29.470  1.00  0.00     0.167 HD
ATOM     50  C   UNL A   1      45.043  29.736  29.900  1.00  0.00     0.037 A 
ATOM     51  C   UNL A   1      38.448  32.065  29.791  1.00  0.00     0.037 A 
ATOM     52  C   UNL A   1      44.875  31.102  30.322  1.00  0.00     0.049 A 
ATOM     53  C   UNL A   1      39.584  32.923  30.279  1.00  0.00     0.074 A 
ATOM     54  C   UNL A   1      45.843  32.010  30.714  1.00  0.00     0.029 A 
ATOM     55  N   UNL A   1      43.656  31.757  30.404  1.00  0.00    -0.354 N 
ATOM     56  N   UNL A   1      40.865  32.649  30.329  1.00  0.00    -0.248 NA
ATOM     57  C   UNL A   1      39.238  34.264  30.770  1.00  0.00     0.031 C 
ATOM     58  C   UNL A   1      45.206  33.201  31.075  1.00  0.00     0.029 A 
ATOM     59  C   UNL A   1      43.845  33.050  30.864  1.00  0.00     0.049 A 
ATOM     60  H   UNL A   1      42.785  31.363  30.169  1.00  0.00     0.167 HD
ATOM     61  C   UNL A   1      41.479  33.791  30.827  1.00  0.00     0.074 A 
ATOM     62  C   UNL A   1      40.432  34.765  31.053  1.00  0.00     0.031 C 
ATOM     63  C   UNL A   1      42.793  34.012  31.072  1.00  0.00     0.037 A 
BRANCH  50  64
ATOM     64  C   UNL A   1      46.422  29.147  29.958  1.00  0.00     0.064 A 
ATOM     65  C   UNL A   1      47.296  29.210  28.863  1.00  0.00     0.173 A 
ATOM     66  C   UNL A   1      46.890  28.553  31.140  1.00  0.00     0.173 A 
ATOM     67  F   UNL A   1      46.892  29.758  27.708  1.00  0.00    -0.203 F 
ATOM     68  C   UNL A   1      48.581  28.679  28.942  1.00  0.00     0.198 A 
ATOM     69  C   UNL A   1      48.184  28.048  31.224  1.00  0.00     0.198 A 
ATOM     70  F   UNL A   1      46.094  28.472  32.218  1.00  0.00    -0.203 F 
ATOM     71  F   UNL A   1      49.385  28.714  27.870  1.00  0.00    -0.200 F 
ATOM     72  C   UNL A   1      49.026  28.106  30.124  1.00  0.00     0.200 A 
ATOM     73  F   UNL A   1      48.617  27.504  32.370  1.00  0.00    -0.200 F 
ATOM     74  F   UNL A   1      50.267  27.604  30.201  1.00  0.00    -0.200 F 
ENDBRANCH  50  64
BRANCH  51  75
ATOM     75  C   UNL A   1      37.056  32.582  29.794  1.00  0.00     0.064 A 
ATOM     76  C   UNL A   1      36.558  33.300  28.697  1.00  0.00     0.173 A 
ATOM     77  C   UNL A   1      36.203  32.384  30.888  1.00  0.00     0.173 A 
ATOM     78  F   UNL A   1      37.345  33.533  27.637  1.00  0.00    -0.203 F 
ATOM     79  C   UNL A   1      35.264  33.818  28.704  1.00  0.00     0.198 A 
ATOM     80  C   UNL A   1      34.901  32.881  30.882  1.00  0.00     0.198 A 
ATOM     81  F   UNL A   1      36.631  31.701  31.959  1.00  0.00    -0.203 F 
ATOM     82  F   UNL A   1      34.830  34.540  27.662  1.00  0.00    -0.200 F 
ATOM     83  C   UNL A   1      34.436  33.605  29.795  1.00  0.00     0.200 A 
ATOM     84  F   UNL A   1      34.099  32.662  31.934  1.00  0.00    -0.200 F 
ATOM     85  F   UNL A   1      33.192  34.104  29.802  1.00  0.00    -0.200 F 
ENDBRANCH  51  75
BRANCH  63  86
ATOM     86  C   UNL A   1      43.179  35.371  31.578  1.00  0.00     0.064 A 
ATOM     87  C   UNL A   1      43.123  35.690  32.942  1.00  0.00     0.173 A 
ATOM     88  C   UNL A   1      43.645  36.352  30.689  1.00  0.00     0.173 A 
ATOM     89  F   UNL A   1      42.668  34.791  33.827  1.00  0.00    -0.203 F 
ATOM     90  C   UNL A   1      43.500  36.952  33.395  1.00  0.00     0.198 A 
ATOM     91  C   UNL A   1      44.046  37.602  31.150  1.00  0.00     0.198 A 
ATOM     92  F   UNL A   1      43.721  36.093  29.375  1.00  0.00    -0.203 F 
ATOM     93  F   UNL A   1      43.398  37.249  34.698  1.00  0.00    -0.200 F 
ATOM     94  C   UNL A   1      43.968  37.903  32.501  1.00  0.00     0.200 A 
ATOM     95  F   UNL A   1      44.508  38.516  30.286  1.00  0.00    -0.200 F 
ATOM     96  F   UNL A   1      44.337  39.113  32.942  1.00  0.00    -0.200 F 
ENDBRANCH  63  86
ENDBRANCH  37  38
ENDBRANCH  29  32
ENDBRANCH  27  28
ENDBRANCH  26  27
ENDBRANCH  25  26
ENDBRANCH  24  25
ENDBRANCH   1  24
TORSDOF 17
ENDMDL
MODEL 3
REMARK VINA RESULT:     -11.9      1.159      2.379
REMARK SMILES O=C(NCCCCCCNC(=O)c1ccc(-c2c3nc(c(-c4c(F)c(F)c(F)c(F)c4F)c4ccc([nH]4)c(-c4c(F)c(F)c(F)c(F)c4F)c4nc(c(-c5c(F)c(F)c(F)c(F)c5F)c5ccc2[nH]5)C=C4)C=C3)cc1)c1ccc(N/C=C\C(=O)c2ccco2)cc1
REMARK SMILES IDX 5 1 4 2 3 3 1 4 2 5 76 7 77 8 91 9 78 10 90 11 79 12 80 13
REMARK SMILES IDX 81 15 82 16 83 17 84 18 85 19 86 20 89 21 87 22 88 23 6 24
REMARK SMILES IDX 7 25 8 26 9 27 10 28 11 29 12 31 13 32 14 33 75 34 15 35
REMARK SMILES IDX 74 36 16 37 17 38 18 39 68 40 19 41 73 42 67 43 69 44 20 45
REMARK SMILES IDX 72 46 66 47 65 48 21 50 53 51 33 52 52 53 34 54 37 55 51 56
REMARK SMILES IDX 70 57 35 58 36 59 50 61 71 62 38 63 22 64 23 65 31 66 24 67
REMARK SMILES IDX 25 68 29 69 32 70 26 71 27 72 30 73 28 74 54 75 55 76 63 77
REMARK SMILES IDX 56 78 57 79 61 80 64 81 58 82 59 83 62 84 60 85 39 86 40 87
REMARK SMILES IDX 48 88 41 89 42 90 46 91 49 92 43 93 44 94 47 95 45 96
REMARK H PARENT 3 6 80 14 10 30 69 49 37 60
REMARK Flexibility Score: inf
ROOT
ATOM      1  C   UNL A   1      32.338  28.481  25.854  1.00  0.00     0.021 C 
ENDROOT
BRANCH   1   2
ATOM      2  C   UNL A   1      31.072  27.687  25.535  1.00  0.00     0.116 C 
BRANCH   2   3
ATOM      3  N   UNL A   1      30.628  27.888  24.168  1.00  0.00    -0.352 N 
ATOM      4  O   UNL A   1      30.619  27.561  21.935  1.00  0.00    -0.269 OA
ATOM      5  C   UNL A   1      30.957  27.170  23.048  1.00  0.00     0.251 C 
ATOM      6  H   UNL A   1      30.008  28.640  24.027  1.00  0.00     0.163 HD
BRANCH   5   7
ATOM      7  C   UNL A   1      31.747  25.933  23.183  1.00  0.00     0.039 A 
ATOM      8  C   UNL A   1      33.144  25.965  23.189  1.00  0.00     0.016 A 
ATOM      9  C   UNL A   1      31.070  24.723  23.321  1.00  0.00     0.016 A 
ATOM     10  C   UNL A   1      33.868  24.771  23.278  1.00  0.00     0.027 A 
ATOM     11  C   UNL A   1      31.802  23.540  23.427  1.00  0.00     0.027 A 
ATOM     12  C   UNL A   1      33.208  23.545  23.408  1.00  0.00     0.038 A 
BRANCH  12  13
ATOM     13  N   UNL A   1      33.866  22.305  23.437  1.00  0.00    -0.362 N 
ATOM     14  H   UNL A   1      33.834  21.796  22.595  1.00  0.00     0.166 HD
BRANCH  13  15
ATOM     15  C   UNL A   1      34.547  21.699  24.458  1.00  0.00     0.087 C 
ATOM     16  C   UNL A   1      34.206  20.634  25.198  1.00  0.00     0.074 C 
BRANCH  16  17
ATOM     17  C   UNL A   1      32.973  19.798  25.080  1.00  0.00     0.222 C 
ATOM     18  O   UNL A   1      31.892  20.384  25.093  1.00  0.00    -0.286 OA
BRANCH  17  19
ATOM     19  C   UNL A   1      33.101  18.360  24.969  1.00  0.00     0.173 A 
ATOM     20  C   UNL A   1      33.791  17.547  24.085  1.00  0.00     0.054 A 
ATOM     21  O   UNL A   1      32.378  17.578  25.828  1.00  0.00    -0.461 OA
ATOM     22  C   UNL A   1      33.444  16.212  24.403  1.00  0.00     0.043 A 
ATOM     23  C   UNL A   1      32.582  16.285  25.471  1.00  0.00     0.196 A 
ENDBRANCH  17  19
ENDBRANCH  16  17
ENDBRANCH  13  15
ENDBRANCH  12  13
ENDBRANCH   5   7
ENDBRANCH   2   3
ENDBRANCH   1   2
BRANCH   1  24
ATOM     24  C   UNL A   1      32.235  29.993  25.635  1.00  0.00     0.002 C 
BRANCH  24  25
ATOM     25  C   UNL A   1      31.390  30.756  26.657  1.00  0.00     0.002 C 
BRANCH  25  26
ATOM     26  C   UNL A   1      31.444  32.282  26.554  1.00  0.00     0.021 C 
BRANCH  26  27
ATOM     27  C   UNL A   1      32.650  32.940  27.216  1.00  0.00     0.116 C 
BRANCH  27  28
ATOM     28  N   UNL A   1      32.383  34.301  27.650  1.00  0.00    -0.352 N 
ATOM     29  C   UNL A   1      32.987  35.034  28.642  1.00  0.00     0.251 C 
ATOM     30  H   UNL A   1      31.665  34.764  27.162  1.00  0.00     0.163 HD
ATOM     31  O   UNL A   1      32.537  36.131  28.958  1.00  0.00    -0.269 OA
BRANCH  29  32
ATOM     32  C   UNL A   1      34.165  34.493  29.354  1.00  0.00     0.039 A 
ATOM     33  C   UNL A   1      33.972  33.875  30.593  1.00  0.00     0.014 A 
ATOM     34  C   UNL A   1      35.450  34.602  28.817  1.00  0.00     0.014 A 
ATOM     35  C   UNL A   1      35.060  33.311  31.264  1.00  0.00     0.010 A 
ATOM     36  C   UNL A   1      36.524  33.986  29.456  1.00  0.00     0.010 A 
ATOM     37  C   UNL A   1      36.339  33.335  30.686  1.00  0.00    -0.014 A 
BRANCH  37  38
ATOM     38  C   UNL A   1      37.495  32.682  31.352  1.00  0.00     0.031 A 
ATOM     39  C   UNL A   1      38.201  31.534  30.685  1.00  0.00     0.074 A 
ATOM     40  C   UNL A   1      37.867  33.079  32.583  1.00  0.00     0.049 A 
ATOM     41  N   UNL A   1      39.179  30.789  31.136  1.00  0.00    -0.248 NA
ATOM     42  C   UNL A   1      37.729  31.157  29.344  1.00  0.00     0.031 C 
ATOM     43  C   UNL A   1      37.235  34.152  33.352  1.00  0.00     0.029 A 
ATOM     44  N   UNL A   1      38.860  32.617  33.412  1.00  0.00    -0.354 N 
ATOM     45  C   UNL A   1      39.422  29.845  30.147  1.00  0.00     0.074 A 
ATOM     46  C   UNL A   1      38.466  30.085  29.088  1.00  0.00     0.031 C 
ATOM     47  C   UNL A   1      37.868  34.280  34.531  1.00  0.00     0.029 A 
ATOM     48  C   UNL A   1      38.925  33.277  34.614  1.00  0.00     0.049 A 
ATOM     49  H   UNL A   1      39.468  31.883  33.167  1.00  0.00     0.167 HD
ATOM     50  C   UNL A   1      40.370  28.879  30.118  1.00  0.00     0.037 A 
ATOM     51  C   UNL A   1      39.742  33.090  35.668  1.00  0.00     0.037 A 
ATOM     52  C   UNL A   1      41.348  28.668  31.153  1.00  0.00     0.049 A 
ATOM     53  C   UNL A   1      40.790  32.012  35.605  1.00  0.00     0.074 A 
ATOM     54  C   UNL A   1      42.400  27.769  31.177  1.00  0.00     0.029 A 
ATOM     55  N   UNL A   1      41.393  29.370  32.349  1.00  0.00    -0.354 N 
ATOM     56  N   UNL A   1      41.057  31.172  34.634  1.00  0.00    -0.248 NA
ATOM     57  C   UNL A   1      41.653  31.857  36.785  1.00  0.00     0.031 C 
ATOM     58  C   UNL A   1      43.057  27.897  32.405  1.00  0.00     0.029 A 
ATOM     59  C   UNL A   1      42.442  28.906  33.127  1.00  0.00     0.049 A 
ATOM     60  H   UNL A   1      40.774  30.090  32.606  1.00  0.00     0.167 HD
ATOM     61  C   UNL A   1      42.134  30.414  35.071  1.00  0.00     0.074 A 
ATOM     62  C   UNL A   1      42.479  30.899  36.391  1.00  0.00     0.031 C 
ATOM     63  C   UNL A   1      42.781  29.408  34.434  1.00  0.00     0.037 A 
BRANCH  50  64
ATOM     64  C   UNL A   1      40.402  27.970  28.925  1.00  0.00     0.064 A 
ATOM     65  C   UNL A   1      41.160  28.276  27.786  1.00  0.00     0.173 A 
ATOM     66  C   UNL A   1      39.701  26.754  28.941  1.00  0.00     0.173 A 
ATOM     67  F   UNL A   1      41.838  29.432  27.718  1.00  0.00    -0.203 F 
ATOM     68  C   UNL A   1      41.197  27.410  26.697  1.00  0.00     0.198 A 
ATOM     69  C   UNL A   1      39.763  25.877  27.862  1.00  0.00     0.198 A 
ATOM     70  F   UNL A   1      38.965  26.411  30.009  1.00  0.00    -0.203 F 
ATOM     71  F   UNL A   1      41.896  27.742  25.602  1.00  0.00    -0.200 F 
ATOM     72  C   UNL A   1      40.506  26.208  26.738  1.00  0.00     0.200 A 
ATOM     73  F   UNL A   1      39.103  24.711  27.907  1.00  0.00    -0.200 F 
ATOM     74  F   UNL A   1      40.551  25.371  25.692  1.00  0.00    -0.200 F 
ENDBRANCH  50  64
BRANCH  51  75
ATOM     75  C   UNL A   1      39.623  33.959  36.867  1.00  0.00     0.064 A 
ATOM     76  C   UNL A   1      40.278  35.198  36.918  1.00  0.00     0.173 A 
ATOM     77  C   UNL A   1      38.870  33.570  37.983  1.00  0.00     0.173 A 
ATOM     78  F   UNL A   1      41.028  35.603  35.883  1.00  0.00    -0.203 F 
ATOM     79  C   UNL A   1      40.201  36.005  38.051  1.00  0.00     0.198 A 
ATOM     80  C   UNL A   1      38.773  34.390  39.105  1.00  0.00     0.198 A 
ATOM     81  F   UNL A   1      38.223  32.396  37.980  1.00  0.00    -0.203 F 
ATOM     82  F   UNL A   1      40.874  37.163  38.093  1.00  0.00    -0.200 F 
ATOM     83  C   UNL A   1      39.445  35.602  39.142  1.00  0.00     0.200 A 
ATOM     84  F   UNL A   1      38.032  34.003  40.152  1.00  0.00    -0.200 F 
ATOM     85  F   UNL A   1      39.371  36.379  40.232  1.00  0.00    -0.200 F 
ENDBRANCH  51  75
BRANCH  63  86
ATOM     86  C   UNL A   1      43.950  28.788  35.139  1.00  0.00     0.064 A 
ATOM     87  C   UNL A   1      43.786  27.731  36.046  1.00  0.00     0.173 A 
ATOM     88  C   UNL A   1      45.255  29.233  34.874  1.00  0.00     0.173 A 
ATOM     89  F   UNL A   1      42.557  27.283  36.344  1.00  0.00    -0.203 F 
ATOM     90  C   UNL A   1      44.885  27.157  36.679  1.00  0.00     0.198 A 
ATOM     91  C   UNL A   1      46.352  28.638  35.488  1.00  0.00     0.198 A 
ATOM     92  F   UNL A   1      45.464  30.238  34.011  1.00  0.00    -0.203 F 
ATOM     93  F   UNL A   1      44.701  26.177  37.575  1.00  0.00    -0.200 F 
ATOM     94  C   UNL A   1      46.166  27.605  36.395  1.00  0.00     0.200 A 
ATOM     95  F   UNL A   1      47.590  29.065  35.204  1.00  0.00    -0.200 F 
ATOM     96  F   UNL A   1      47.222  27.045  37.001  1.00  0.00    -0.200 F 
ENDBRANCH  63  86
ENDBRANCH  37  38
ENDBRANCH  29  32
ENDBRANCH  27  28
ENDBRANCH  26  27
ENDBRANCH  25  26
ENDBRANCH  24  25
ENDBRANCH   1  24
TORSDOF 17
ENDMDL
