MODEL 1
REMARK VINA RESULT:     -10.4      0.000      0.000
REMARK SMILES COCCN(C(=O)N1CC[C@H](C(=O)NCCCCCCNC(=O)c2ccc(-c3c4nc(c(-c5c(F)c(F)c(F)c(F)c5F)c5ccc([nH]5)c(-c5c(F)c(F)c(F)c(F)c5F)c5nc(c(-c6c(F)c(F)c(F)c(F)c6F)c6ccc3[nH]6)C=C5)C=C4)cc2)[C@H]1C)[C@@H](C)COC
REMARK SMILES IDX 16 1 15 2 14 3 12 4 13 5 11 7 8 8 9 9 87 10 10 11 88 12 6 13
REMARK SMILES IDX 7 14 5 15 4 16 3 17 2 18 1 19 89 20 90 21 91 22 92 23 93 24
REMARK SMILES IDX 17 25 18 26 19 27 20 28 21 29 22 30 23 32 24 33 25 34 86 35
REMARK SMILES IDX 26 36 85 37 27 38 28 39 29 40 79 41 30 42 84 43 78 44 80 45
REMARK SMILES IDX 31 46 83 47 77 48 76 49 32 51 64 52 44 53 63 54 45 55 48 56
REMARK SMILES IDX 62 57 81 58 46 59 47 60 61 62 82 63 49 64 33 65 34 66 42 67
REMARK SMILES IDX 35 68 36 69 40 70 43 71 37 72 38 73 41 74 39 75 65 76 66 77
REMARK SMILES IDX 74 78 67 79 68 80 72 81 75 82 69 83 70 84 73 85 71 86 50 87
REMARK SMILES IDX 51 88 59 89 52 90 53 91 57 92 60 93 54 94 55 95 58 96 56 97
REMARK H PARENT 14 6 21 31 80 50 48 61
REMARK Flexibility Score: inf
ROOT
ATOM      1  C   UNL A   1      35.305  22.920  26.641  1.00  0.00     0.021 C 
ENDROOT
BRANCH   1   2
ATOM      2  C   UNL A   1      34.392  21.754  27.031  1.00  0.00     0.116 C 
BRANCH   2   3
ATOM      3  N   UNL A   1      33.091  22.264  27.406  1.00  0.00    -0.356 N 
ATOM      4  C   UNL A   1      32.249  23.114  26.761  1.00  0.00     0.225 C 
ATOM      5  O   UNL A   1      31.292  23.545  27.408  1.00  0.00    -0.275 OA
ATOM      6  H   UNL A   1      32.761  21.943  28.276  1.00  0.00     0.163 HD
BRANCH   4   7
ATOM      7  C   UNL A   1      32.384  23.353  25.260  1.00  0.00     0.102 C 
ATOM      8  N   UNL A   1      31.634  25.544  24.594  1.00  0.00    -0.321 N 
ATOM      9  C   UNL A   1      30.480  24.636  24.671  1.00  0.00     0.122 C 
ATOM     10  C   UNL A   1      32.862  24.748  24.788  1.00  0.00     0.096 C 
ATOM     11  C   UNL A   1      31.037  23.231  24.542  1.00  0.00     0.037 C 
ATOM     12  C   UNL A   1      33.648  24.532  23.482  1.00  0.00     0.032 C 
BRANCH   8  13
ATOM     13  C   UNL A   1      31.424  26.787  25.179  1.00  0.00     0.320 C 
ATOM     14  O   UNL A   1      30.934  26.845  26.310  1.00  0.00    -0.248 OA
BRANCH  13  15
ATOM     15  N   UNL A   1      31.665  27.954  24.450  1.00  0.00    -0.317 N 
BRANCH  15  16
ATOM     16  C   UNL A   1      30.637  28.809  23.829  1.00  0.00     0.150 C 
BRANCH  16  17
ATOM     17  C   UNL A   1      29.796  28.209  22.691  1.00  0.00     0.181 C 
BRANCH  17  18
ATOM     18  O   UNL A   1      28.933  29.175  22.072  1.00  0.00    -0.383 OA
ATOM     19  C   UNL A   1      29.602  30.325  21.584  1.00  0.00     0.194 C 
ENDBRANCH  17  18
ENDBRANCH  16  17
ENDBRANCH  15  16
BRANCH  15  20
ATOM     20  C   UNL A   1      33.116  28.281  24.241  1.00  0.00     0.109 C 
ATOM     21  C   UNL A   1      33.392  29.027  22.927  1.00  0.00     0.033 C 
BRANCH  20  22
ATOM     22  C   UNL A   1      33.839  29.003  25.414  1.00  0.00     0.184 C 
BRANCH  22  23
ATOM     23  O   UNL A   1      33.169  30.114  26.004  1.00  0.00    -0.383 OA
ATOM     24  C   UNL A   1      32.671  29.883  27.309  1.00  0.00     0.194 C 
ENDBRANCH  22  23
ENDBRANCH  20  22
ENDBRANCH  15  20
ENDBRANCH  13  15
ENDBRANCH   8  13
ENDBRANCH   4   7
ENDBRANCH   2   3
ENDBRANCH   1   2
BRANCH   1  25
ATOM     25  C   UNL A   1      36.443  22.509  25.694  1.00  0.00     0.002 C 
BRANCH  25  26
ATOM     26  C   UNL A   1      36.511  21.008  25.388  1.00  0.00     0.002 C 
BRANCH  26  27
ATOM     27  C   UNL A   1      37.874  20.523  24.892  1.00  0.00     0.021 C 
BRANCH  27  28
ATOM     28  C   UNL A   1      38.997  20.678  25.912  1.00  0.00     0.116 C 
BRANCH  28  29
ATOM     29  N   UNL A   1      39.904  19.539  25.898  1.00  0.00    -0.352 N 
ATOM     30  C   UNL A   1      41.269  19.511  26.050  1.00  0.00     0.251 C 
ATOM     31  H   UNL A   1      39.477  18.663  25.759  1.00  0.00     0.163 HD
ATOM     32  O   UNL A   1      41.905  18.498  25.794  1.00  0.00    -0.269 OA
BRANCH  30  33
ATOM     33  C   UNL A   1      41.970  20.730  26.502  1.00  0.00     0.039 A 
ATOM     34  C   UNL A   1      42.469  21.618  25.547  1.00  0.00     0.014 A 
ATOM     35  C   UNL A   1      42.103  21.007  27.866  1.00  0.00     0.014 A 
ATOM     36  C   UNL A   1      43.019  22.833  25.959  1.00  0.00     0.010 A 
ATOM     37  C   UNL A   1      42.588  22.246  28.270  1.00  0.00     0.010 A 
ATOM     38  C   UNL A   1      43.032  23.178  27.320  1.00  0.00    -0.014 A 
BRANCH  38  39
ATOM     39  C   UNL A   1      43.442  24.533  27.768  1.00  0.00     0.031 A 
ATOM     40  C   UNL A   1      42.411  25.576  28.080  1.00  0.00     0.074 A 
ATOM     41  C   UNL A   1      44.754  24.844  27.802  1.00  0.00     0.049 A 
ATOM     42  N   UNL A   1      42.577  26.841  28.378  1.00  0.00    -0.248 NA
ATOM     43  C   UNL A   1      41.004  25.150  28.028  1.00  0.00     0.031 C 
ATOM     44  C   UNL A   1      45.847  23.925  27.482  1.00  0.00     0.029 A 
ATOM     45  N   UNL A   1      45.388  26.024  28.101  1.00  0.00    -0.354 N 
ATOM     46  C   UNL A   1      41.301  27.360  28.542  1.00  0.00     0.074 A 
ATOM     47  C   UNL A   1      40.368  26.290  28.261  1.00  0.00     0.031 C 
ATOM     48  C   UNL A   1      47.017  24.570  27.615  1.00  0.00     0.029 A 
ATOM     49  C   UNL A   1      46.755  25.959  27.978  1.00  0.00     0.049 A 
ATOM     50  H   UNL A   1      44.909  26.839  28.377  1.00  0.00     0.167 HD
ATOM     51  C   UNL A   1      40.943  28.614  28.910  1.00  0.00     0.037 A 
ATOM     52  C   UNL A   1      47.691  26.917  28.117  1.00  0.00     0.037 A 
ATOM     53  C   UNL A   1      41.878  29.671  29.197  1.00  0.00     0.049 A 
ATOM     54  C   UNL A   1      47.263  28.314  28.476  1.00  0.00     0.074 A 
ATOM     55  C   UNL A   1      41.617  30.956  29.642  1.00  0.00     0.029 A 
ATOM     56  N   UNL A   1      43.254  29.571  29.052  1.00  0.00    -0.354 N 
ATOM     57  N   UNL A   1      46.057  28.777  28.705  1.00  0.00    -0.248 NA
ATOM     58  C   UNL A   1      48.323  29.325  28.590  1.00  0.00     0.031 C 
ATOM     59  C   UNL A   1      42.828  31.652  29.706  1.00  0.00     0.029 A 
ATOM     60  C   UNL A   1      43.851  30.785  29.356  1.00  0.00     0.049 A 
ATOM     61  H   UNL A   1      43.736  28.759  28.774  1.00  0.00     0.167 HD
ATOM     62  C   UNL A   1      46.215  30.122  29.007  1.00  0.00     0.074 A 
ATOM     63  C   UNL A   1      47.635  30.398  28.955  1.00  0.00     0.031 C 
ATOM     64  C   UNL A   1      45.267  31.047  29.294  1.00  0.00     0.037 A 
BRANCH  51  65
ATOM     65  C   UNL A   1      39.476  28.918  29.020  1.00  0.00     0.064 A 
ATOM     66  C   UNL A   1      38.804  28.870  30.251  1.00  0.00     0.173 A 
ATOM     67  C   UNL A   1      38.745  29.311  27.889  1.00  0.00     0.173 A 
ATOM     68  F   UNL A   1      39.454  28.493  31.362  1.00  0.00    -0.203 F 
ATOM     69  C   UNL A   1      37.448  29.176  30.340  1.00  0.00     0.198 A 
ATOM     70  C   UNL A   1      37.397  29.647  27.987  1.00  0.00     0.198 A 
ATOM     71  F   UNL A   1      39.340  29.381  26.689  1.00  0.00    -0.203 F 
ATOM     72  F   UNL A   1      36.816  29.077  31.517  1.00  0.00    -0.200 F 
ATOM     73  C   UNL A   1      36.748  29.572  29.210  1.00  0.00     0.200 A 
ATOM     74  F   UNL A   1      36.727  30.045  26.897  1.00  0.00    -0.200 F 
ATOM     75  F   UNL A   1      35.447  29.876  29.299  1.00  0.00    -0.200 F 
ENDBRANCH  51  65
BRANCH  52  76
ATOM     76  C   UNL A   1      49.127  26.591  27.907  1.00  0.00     0.064 A 
ATOM     77  C   UNL A   1      49.669  26.523  26.617  1.00  0.00     0.173 A 
ATOM     78  C   UNL A   1      49.984  26.336  28.988  1.00  0.00     0.173 A 
ATOM     79  F   UNL A   1      48.886  26.738  25.548  1.00  0.00    -0.203 F 
ATOM     80  C   UNL A   1      51.008  26.191  26.414  1.00  0.00     0.198 A 
ATOM     81  C   UNL A   1      51.329  26.037  28.786  1.00  0.00     0.198 A 
ATOM     82  F   UNL A   1      49.518  26.392  30.244  1.00  0.00    -0.203 F 
ATOM     83  F   UNL A   1      51.488  26.085  25.167  1.00  0.00    -0.200 F 
ATOM     84  C   UNL A   1      51.839  25.956  27.499  1.00  0.00     0.200 A 
ATOM     85  F   UNL A   1      52.133  25.826  29.838  1.00  0.00    -0.200 F 
ATOM     86  F   UNL A   1      53.126  25.642  27.304  1.00  0.00    -0.200 F 
ENDBRANCH  52  76
BRANCH  64  87
ATOM     87  C   UNL A   1      45.732  32.445  29.584  1.00  0.00     0.064 A 
ATOM     88  C   UNL A   1      45.810  33.415  28.572  1.00  0.00     0.173 A 
ATOM     89  C   UNL A   1      46.052  32.836  30.893  1.00  0.00     0.173 A 
ATOM     90  F   UNL A   1      45.533  33.087  27.301  1.00  0.00    -0.203 F 
ATOM     91  C   UNL A   1      46.207  34.718  28.859  1.00  0.00     0.198 A 
ATOM     92  C   UNL A   1      46.417  34.148  31.181  1.00  0.00     0.198 A 
ATOM     93  F   UNL A   1      45.990  31.948  31.897  1.00  0.00    -0.203 F 
ATOM     94  F   UNL A   1      46.314  35.616  27.869  1.00  0.00    -0.200 F 
ATOM     95  C   UNL A   1      46.500  35.086  30.164  1.00  0.00     0.200 A 
ATOM     96  F   UNL A   1      46.685  34.505  32.444  1.00  0.00    -0.200 F 
ATOM     97  F   UNL A   1      46.867  36.344  30.440  1.00  0.00    -0.200 F 
ENDBRANCH  64  87
ENDBRANCH  38  39
ENDBRANCH  30  33
ENDBRANCH  28  29
ENDBRANCH  27  28
ENDBRANCH  26  27
ENDBRANCH  25  26
ENDBRANCH   1  25
TORSDOF 21
ENDMDL
MODEL 2
REMARK VINA RESULT:     -10.2      1.025      2.517
REMARK SMILES COCCN(C(=O)N1CC[C@H](C(=O)NCCCCCCNC(=O)c2ccc(-c3c4nc(c(-c5c(F)c(F)c(F)c(F)c5F)c5ccc([nH]5)c(-c5c(F)c(F)c(F)c(F)c5F)c5nc(c(-c6c(F)c(F)c(F)c(F)c6F)c6ccc3[nH]6)C=C5)C=C4)cc2)[C@H]1C)[C@@H](C)COC
REMARK SMILES IDX 16 1 15 2 14 3 12 4 13 5 11 7 8 8 9 9 87 10 10 11 88 12 6 13
REMARK SMILES IDX 7 14 5 15 4 16 3 17 2 18 1 19 89 20 90 21 91 22 92 23 93 24
REMARK SMILES IDX 17 25 18 26 19 27 20 28 21 29 22 30 23 32 24 33 25 34 86 35
REMARK SMILES IDX 26 36 85 37 27 38 28 39 29 40 79 41 30 42 84 43 78 44 80 45
REMARK SMILES IDX 31 46 83 47 77 48 76 49 32 51 64 52 44 53 63 54 45 55 48 56
REMARK SMILES IDX 62 57 81 58 46 59 47 60 61 62 82 63 49 64 33 65 34 66 42 67
REMARK SMILES IDX 35 68 36 69 40 70 43 71 37 72 38 73 41 74 39 75 65 76 66 77
REMARK SMILES IDX 74 78 67 79 68 80 72 81 75 82 69 83 70 84 73 85 71 86 50 87
REMARK SMILES IDX 51 88 59 89 52 90 53 91 57 92 60 93 54 94 55 95 58 96 56 97
REMARK H PARENT 14 6 21 31 80 50 48 61
REMARK Flexibility Score: inf
ROOT
ATOM      1  C   UNL A   1      35.314  22.171  26.408  1.00  0.00     0.021 C 
ENDROOT
BRANCH   1   2
ATOM      2  C   UNL A   1      34.109  21.253  26.186  1.00  0.00     0.116 C 
BRANCH   2   3
ATOM      3  N   UNL A   1      32.893  21.964  26.516  1.00  0.00    -0.356 N 
ATOM      4  C   UNL A   1      32.276  23.006  25.897  1.00  0.00     0.225 C 
ATOM      5  O   UNL A   1      31.359  23.554  26.513  1.00  0.00    -0.275 OA
ATOM      6  H   UNL A   1      32.436  21.640  27.325  1.00  0.00     0.163 HD
BRANCH   4   7
ATOM      7  C   UNL A   1      32.582  23.337  24.440  1.00  0.00     0.102 C 
ATOM      8  N   UNL A   1      31.702  25.476  23.765  1.00  0.00    -0.321 N 
ATOM      9  C   UNL A   1      30.649  24.456  23.647  1.00  0.00     0.122 C 
ATOM     10  C   UNL A   1      32.970  24.795  24.092  1.00  0.00     0.096 C 
ATOM     11  C   UNL A   1      31.361  23.122  23.540  1.00  0.00     0.037 C 
ATOM     12  C   UNL A   1      33.939  24.727  22.899  1.00  0.00     0.032 C 
BRANCH   8  13
ATOM     13  C   UNL A   1      31.288  26.660  24.364  1.00  0.00     0.320 C 
ATOM     14  O   UNL A   1      30.752  26.617  25.475  1.00  0.00    -0.248 OA
BRANCH  13  15
ATOM     15  N   UNL A   1      31.382  27.868  23.669  1.00  0.00    -0.317 N 
BRANCH  15  16
ATOM     16  C   UNL A   1      32.433  28.886  23.849  1.00  0.00     0.150 C 
BRANCH  16  17
ATOM     17  C   UNL A   1      33.541  28.599  24.876  1.00  0.00     0.181 C 
BRANCH  17  18
ATOM     18  O   UNL A   1      33.476  29.469  26.016  1.00  0.00    -0.383 OA
ATOM     19  C   UNL A   1      33.284  28.798  27.249  1.00  0.00     0.194 C 
ENDBRANCH  17  18
ENDBRANCH  16  17
ENDBRANCH  15  16
BRANCH  15  20
ATOM     20  C   UNL A   1      30.248  28.142  22.723  1.00  0.00     0.109 C 
ATOM     21  C   UNL A   1      28.875  27.745  23.284  1.00  0.00     0.033 C 
BRANCH  20  22
ATOM     22  C   UNL A   1      30.175  29.577  22.126  1.00  0.00     0.184 C 
BRANCH  22  23
ATOM     23  O   UNL A   1      29.123  29.843  21.203  1.00  0.00    -0.383 OA
ATOM     24  C   UNL A   1      28.307  30.951  21.536  1.00  0.00     0.194 C 
ENDBRANCH  22  23
ENDBRANCH  20  22
ENDBRANCH  15  20
ENDBRANCH  13  15
ENDBRANCH   8  13
ENDBRANCH   4   7
ENDBRANCH   2   3
ENDBRANCH   1   2
BRANCH   1  25
ATOM     25  C   UNL A   1      36.440  21.951  25.385  1.00  0.00     0.002 C 
BRANCH  25  26
ATOM     26  C   UNL A   1      36.749  20.481  25.079  1.00  0.00     0.002 C 
BRANCH  26  27
ATOM     27  C   UNL A   1      38.196  20.211  24.664  1.00  0.00     0.021 C 
BRANCH  27  28
ATOM     28  C   UNL A   1      39.213  20.417  25.783  1.00  0.00     0.116 C 
BRANCH  28  29
ATOM     29  N   UNL A   1      40.094  19.269  25.934  1.00  0.00    -0.352 N 
ATOM     30  C   UNL A   1      41.451  19.234  26.146  1.00  0.00     0.251 C 
ATOM     31  H   UNL A   1      39.654  18.390  25.875  1.00  0.00     0.163 HD
ATOM     32  O   UNL A   1      42.075  18.188  26.032  1.00  0.00    -0.269 OA
BRANCH  30  33
ATOM     33  C   UNL A   1      42.159  20.484  26.490  1.00  0.00     0.039 A 
ATOM     34  C   UNL A   1      42.762  21.224  25.470  1.00  0.00     0.014 A 
ATOM     35  C   UNL A   1      42.197  20.937  27.811  1.00  0.00     0.014 A 
ATOM     36  C   UNL A   1      43.323  22.468  25.762  1.00  0.00     0.010 A 
ATOM     37  C   UNL A   1      42.695  22.206  28.088  1.00  0.00     0.010 A 
ATOM     38  C   UNL A   1      43.244  22.992  27.063  1.00  0.00    -0.014 A 
BRANCH  38  39
ATOM     39  C   UNL A   1      43.668  24.383  27.362  1.00  0.00     0.031 A 
ATOM     40  C   UNL A   1      42.670  25.397  27.836  1.00  0.00     0.074 A 
ATOM     41  C   UNL A   1      44.941  24.749  27.113  1.00  0.00     0.049 A 
ATOM     42  N   UNL A   1      42.829  26.681  28.041  1.00  0.00    -0.248 NA
ATOM     43  C   UNL A   1      41.305  24.911  28.092  1.00  0.00     0.031 C 
ATOM     44  C   UNL A   1      45.993  23.861  26.613  1.00  0.00     0.029 A 
ATOM     45  N   UNL A   1      45.563  25.967  27.226  1.00  0.00    -0.354 N 
ATOM     46  C   UNL A   1      41.588  27.155  28.442  1.00  0.00     0.074 A 
ATOM     47  C   UNL A   1      40.674  26.034  28.404  1.00  0.00     0.031 C 
ATOM     48  C   UNL A   1      47.130  24.559  26.476  1.00  0.00     0.029 A 
ATOM     49  C   UNL A   1      46.878  25.953  26.828  1.00  0.00     0.049 A 
ATOM     50  H   UNL A   1      45.110  26.775  27.561  1.00  0.00     0.167 HD
ATOM     51  C   UNL A   1      41.251  28.410  28.825  1.00  0.00     0.037 A 
ATOM     52  C   UNL A   1      47.773  26.954  26.732  1.00  0.00     0.037 A 
ATOM     53  C   UNL A   1      42.169  29.518  28.870  1.00  0.00     0.049 A 
ATOM     54  C   UNL A   1      47.357  28.349  27.114  1.00  0.00     0.074 A 
ATOM     55  C   UNL A   1      41.940  30.811  29.307  1.00  0.00     0.029 A 
ATOM     56  N   UNL A   1      43.491  29.467  28.449  1.00  0.00    -0.354 N 
ATOM     57  N   UNL A   1      46.201  28.772  27.567  1.00  0.00    -0.248 NA
ATOM     58  C   UNL A   1      48.365  29.407  26.967  1.00  0.00     0.031 C 
ATOM     59  C   UNL A   1      43.102  31.559  29.091  1.00  0.00     0.029 A 
ATOM     60  C   UNL A   1      44.075  30.719  28.575  1.00  0.00     0.049 A 
ATOM     61  H   UNL A   1      43.946  28.662  28.112  1.00  0.00     0.167 HD
ATOM     62  C   UNL A   1      46.349  30.136  27.774  1.00  0.00     0.074 A 
ATOM     63  C   UNL A   1      47.713  30.467  27.421  1.00  0.00     0.031 C 
ATOM     64  C   UNL A   1      45.433  31.034  28.213  1.00  0.00     0.037 A 
BRANCH  51  65
ATOM     65  C   UNL A   1      39.823  28.659  29.221  1.00  0.00     0.064 A 
ATOM     66  C   UNL A   1      39.373  28.436  30.531  1.00  0.00     0.173 A 
ATOM     67  C   UNL A   1      38.906  29.173  28.292  1.00  0.00     0.173 A 
ATOM     68  F   UNL A   1      40.206  27.938  31.457  1.00  0.00    -0.203 F 
ATOM     69  C   UNL A   1      38.051  28.692  30.889  1.00  0.00     0.198 A 
ATOM     70  C   UNL A   1      37.594  29.458  28.660  1.00  0.00     0.198 A 
ATOM     71  F   UNL A   1      39.286  29.411  27.027  1.00  0.00    -0.203 F 
ATOM     72  F   UNL A   1      37.631  28.427  32.133  1.00  0.00    -0.200 F 
ATOM     73  C   UNL A   1      37.166  29.210  29.956  1.00  0.00     0.200 A 
ATOM     74  F   UNL A   1      36.745  29.974  27.762  1.00  0.00    -0.200 F 
ATOM     75  F   UNL A   1      35.897  29.466  30.303  1.00  0.00    -0.200 F 
ENDBRANCH  51  65
BRANCH  52  76
ATOM     76  C   UNL A   1      49.151  26.677  26.245  1.00  0.00     0.064 A 
ATOM     77  C   UNL A   1      50.137  26.187  27.113  1.00  0.00     0.173 A 
ATOM     78  C   UNL A   1      49.513  26.899  24.908  1.00  0.00     0.173 A 
ATOM     79  F   UNL A   1      49.846  25.978  28.406  1.00  0.00    -0.203 F 
ATOM     80  C   UNL A   1      51.436  25.951  26.668  1.00  0.00     0.198 A 
ATOM     81  C   UNL A   1      50.803  26.633  24.457  1.00  0.00     0.198 A 
ATOM     82  F   UNL A   1      48.607  27.363  24.035  1.00  0.00    -0.203 F 
ATOM     83  F   UNL A   1      52.371  25.531  27.531  1.00  0.00    -0.200 F 
ATOM     84  C   UNL A   1      51.767  26.167  25.339  1.00  0.00     0.200 A 
ATOM     85  F   UNL A   1      51.114  26.827  23.167  1.00  0.00    -0.200 F 
ATOM     86  F   UNL A   1      53.014  25.936  24.910  1.00  0.00    -0.200 F 
ENDBRANCH  52  76
BRANCH  64  87
ATOM     87  C   UNL A   1      45.877  32.463  28.343  1.00  0.00     0.064 A 
ATOM     88  C   UNL A   1      46.485  32.938  29.516  1.00  0.00     0.173 A 
ATOM     89  C   UNL A   1      45.742  33.354  27.268  1.00  0.00     0.173 A 
ATOM     90  F   UNL A   1      46.620  32.130  30.579  1.00  0.00    -0.203 F 
ATOM     91  C   UNL A   1      46.927  34.254  29.611  1.00  0.00     0.198 A 
ATOM     92  C   UNL A   1      46.214  34.661  27.355  1.00  0.00     0.198 A 
ATOM     93  F   UNL A   1      45.171  32.950  26.122  1.00  0.00    -0.203 F 
ATOM     94  F   UNL A   1      47.467  34.696  30.756  1.00  0.00    -0.200 F 
ATOM     95  C   UNL A   1      46.801  35.112  28.528  1.00  0.00     0.200 A 
ATOM     96  F   UNL A   1      46.105  35.483  26.303  1.00  0.00    -0.200 F 
ATOM     97  F   UNL A   1      47.239  36.374  28.617  1.00  0.00    -0.200 F 
ENDBRANCH  64  87
ENDBRANCH  38  39
ENDBRANCH  30  33
ENDBRANCH  28  29
ENDBRANCH  27  28
ENDBRANCH  26  27
ENDBRANCH  25  26
ENDBRANCH   1  25
TORSDOF 21
ENDMDL
MODEL 3
REMARK VINA RESULT:     -10.1      4.412      9.582
REMARK SMILES COCCN(C(=O)N1CC[C@H](C(=O)NCCCCCCNC(=O)c2ccc(-c3c4nc(c(-c5c(F)c(F)c(F)c(F)c5F)c5ccc([nH]5)c(-c5c(F)c(F)c(F)c(F)c5F)c5nc(c(-c6c(F)c(F)c(F)c(F)c6F)c6ccc3[nH]6)C=C5)C=C4)cc2)[C@H]1C)[C@@H](C)COC
REMARK SMILES IDX 16 1 15 2 14 3 12 4 13 5 11 7 8 8 9 9 87 10 10 11 88 12 6 13
REMARK SMILES IDX 7 14 5 15 4 16 3 17 2 18 1 19 89 20 90 21 91 22 92 23 93 24
REMARK SMILES IDX 17 25 18 26 19 27 20 28 21 29 22 30 23 32 24 33 25 34 86 35
REMARK SMILES IDX 26 36 85 37 27 38 28 39 29 40 79 41 30 42 84 43 78 44 80 45
REMARK SMILES IDX 31 46 83 47 77 48 76 49 32 51 64 52 44 53 63 54 45 55 48 56
REMARK SMILES IDX 62 57 81 58 46 59 47 60 61 62 82 63 49 64 33 65 34 66 42 67
REMARK SMILES IDX 35 68 36 69 40 70 43 71 37 72 38 73 41 74 39 75 65 76 66 77
REMARK SMILES IDX 74 78 67 79 68 80 72 81 75 82 69 83 70 84 73 85 71 86 50 87
REMARK SMILES IDX 51 88 59 89 52 90 53 91 57 92 60 93 54 94 55 95 58 96 56 97
REMARK H PARENT 14 6 21 31 80 50 48 61
REMARK Flexibility Score: inf
ROOT
ATOM      1  C   UNL A   1      30.079  27.930  23.147  1.00  0.00     0.021 C 
ENDROOT
BRANCH   1   2
ATOM      2  C   UNL A   1      28.974  27.055  23.744  1.00  0.00     0.116 C 
BRANCH   2   3
ATOM      3  N   UNL A   1      29.270  25.662  23.488  1.00  0.00    -0.356 N 
ATOM      4  C   UNL A   1      30.270  24.865  23.950  1.00  0.00     0.225 C 
ATOM      5  O   UNL A   1      30.404  23.769  23.403  1.00  0.00    -0.275 OA
ATOM      6  H   UNL A   1      28.643  25.217  22.874  1.00  0.00     0.163 HD
BRANCH   4   7
ATOM      7  C   UNL A   1      31.045  25.241  25.209  1.00  0.00     0.102 C 
ATOM      8  N   UNL A   1      32.402  23.433  26.043  1.00  0.00    -0.321 N 
ATOM      9  C   UNL A   1      31.028  23.284  26.546  1.00  0.00     0.122 C 
ATOM     10  C   UNL A   1      32.501  24.729  25.345  1.00  0.00     0.096 C 
ATOM     11  C   UNL A   1      30.398  24.661  26.470  1.00  0.00     0.037 C 
ATOM     12  C   UNL A   1      33.272  25.788  26.153  1.00  0.00     0.032 C 
BRANCH   8  13
ATOM     13  C   UNL A   1      32.967  22.257  25.563  1.00  0.00     0.320 C 
ATOM     14  O   UNL A   1      32.460  21.175  25.874  1.00  0.00    -0.248 OA
BRANCH  13  15
ATOM     15  N   UNL A   1      34.154  22.299  24.829  1.00  0.00    -0.317 N 
BRANCH  15  16
ATOM     16  C   UNL A   1      34.265  22.182  23.363  1.00  0.00     0.150 C 
BRANCH  16  17
ATOM     17  C   UNL A   1      33.655  23.304  22.507  1.00  0.00     0.181 C 
BRANCH  17  18
ATOM     18  O   UNL A   1      34.282  24.575  22.733  1.00  0.00    -0.383 OA
ATOM     19  C   UNL A   1      33.541  25.683  22.250  1.00  0.00     0.194 C 
ENDBRANCH  17  18
ENDBRANCH  16  17
ENDBRANCH  15  16
BRANCH  15  20
ATOM     20  C   UNL A   1      35.405  22.393  25.654  1.00  0.00     0.109 C 
ATOM     21  C   UNL A   1      36.436  21.302  25.329  1.00  0.00     0.033 C 
BRANCH  20  22
ATOM     22  C   UNL A   1      36.107  23.781  25.692  1.00  0.00     0.184 C 
BRANCH  22  23
ATOM     23  O   UNL A   1      37.497  23.814  25.382  1.00  0.00    -0.383 OA
ATOM     24  C   UNL A   1      38.333  24.234  26.446  1.00  0.00     0.194 C 
ENDBRANCH  22  23
ENDBRANCH  20  22
ENDBRANCH  15  20
ENDBRANCH  13  15
ENDBRANCH   8  13
ENDBRANCH   4   7
ENDBRANCH   2   3
ENDBRANCH   1   2
BRANCH   1  25
ATOM     25  C   UNL A   1      29.930  29.419  23.499  1.00  0.00     0.002 C 
BRANCH  25  26
ATOM     26  C   UNL A   1      30.850  29.906  24.625  1.00  0.00     0.002 C 
BRANCH  26  27
ATOM     27  C   UNL A   1      32.081  29.031  24.862  1.00  0.00     0.021 C 
BRANCH  27  28
ATOM     28  C   UNL A   1      32.950  29.484  26.032  1.00  0.00     0.116 C 
BRANCH  28  29
ATOM     29  N   UNL A   1      32.668  30.859  26.416  1.00  0.00    -0.352 N 
ATOM     30  C   UNL A   1      33.351  31.678  27.282  1.00  0.00     0.251 C 
ATOM     31  H   UNL A   1      31.874  31.260  25.995  1.00  0.00     0.163 HD
ATOM     32  O   UNL A   1      32.861  32.732  27.663  1.00  0.00    -0.269 OA
BRANCH  30  33
ATOM     33  C   UNL A   1      34.680  31.261  27.773  1.00  0.00     0.039 A 
ATOM     34  C   UNL A   1      35.682  32.222  27.917  1.00  0.00     0.014 A 
ATOM     35  C   UNL A   1      34.922  29.928  28.120  1.00  0.00     0.014 A 
ATOM     36  C   UNL A   1      36.900  31.865  28.498  1.00  0.00     0.010 A 
ATOM     37  C   UNL A   1      36.109  29.590  28.761  1.00  0.00     0.010 A 
ATOM     38  C   UNL A   1      37.101  30.559  28.974  1.00  0.00    -0.014 A 
BRANCH  38  39
ATOM     39  C   UNL A   1      38.310  30.200  29.756  1.00  0.00     0.031 A 
ATOM     40  C   UNL A   1      39.292  29.200  29.222  1.00  0.00     0.074 A 
ATOM     41  C   UNL A   1      38.469  30.713  30.993  1.00  0.00     0.049 A 
ATOM     42  N   UNL A   1      40.344  28.680  29.806  1.00  0.00    -0.248 NA
ATOM     43  C   UNL A   1      39.050  28.698  27.861  1.00  0.00     0.031 C 
ATOM     44  C   UNL A   1      37.560  31.664  31.635  1.00  0.00     0.029 A 
ATOM     45  N   UNL A   1      39.439  30.491  31.939  1.00  0.00    -0.354 N 
ATOM     46  C   UNL A   1      40.882  27.789  28.888  1.00  0.00     0.074 A 
ATOM     47  C   UNL A   1      40.014  27.799  27.730  1.00  0.00     0.031 C 
ATOM     48  C   UNL A   1      38.022  31.954  32.862  1.00  0.00     0.029 A 
ATOM     49  C   UNL A   1      39.228  31.173  33.113  1.00  0.00     0.049 A 
ATOM     50  H   UNL A   1      40.212  29.899  31.790  1.00  0.00     0.167 HD
ATOM     51  C   UNL A   1      42.008  27.044  29.000  1.00  0.00     0.037 A 
ATOM     52  C   UNL A   1      39.914  31.151  34.271  1.00  0.00     0.037 A 
ATOM     53  C   UNL A   1      42.870  27.047  30.152  1.00  0.00     0.049 A 
ATOM     54  C   UNL A   1      41.132  30.275  34.386  1.00  0.00     0.074 A 
ATOM     55  C   UNL A   1      44.069  26.380  30.334  1.00  0.00     0.029 A 
ATOM     56  N   UNL A   1      42.619  27.743  31.326  1.00  0.00    -0.354 N 
ATOM     57  N   UNL A   1      41.677  29.494  33.484  1.00  0.00    -0.248 NA
ATOM     58  C   UNL A   1      41.828  30.272  35.679  1.00  0.00     0.031 C 
ATOM     59  C   UNL A   1      44.511  26.619  31.640  1.00  0.00     0.029 A 
ATOM     60  C   UNL A   1      43.618  27.484  32.253  1.00  0.00     0.049 A 
ATOM     61  H   UNL A   1      41.846  28.333  31.480  1.00  0.00     0.167 HD
ATOM     62  C   UNL A   1      42.785  28.923  34.093  1.00  0.00     0.074 A 
ATOM     63  C   UNL A   1      42.850  29.464  35.434  1.00  0.00     0.031 C 
ATOM     64  C   UNL A   1      43.666  28.025  33.587  1.00  0.00     0.037 A 
BRANCH  51  65
ATOM     65  C   UNL A   1      42.373  26.154  27.845  1.00  0.00     0.064 A 
ATOM     66  C   UNL A   1      41.806  24.881  27.689  1.00  0.00     0.173 A 
ATOM     67  C   UNL A   1      43.263  26.601  26.857  1.00  0.00     0.173 A 
ATOM     68  F   UNL A   1      40.955  24.402  28.608  1.00  0.00    -0.203 F 
ATOM     69  C   UNL A   1      42.139  24.076  26.602  1.00  0.00     0.198 A 
ATOM     70  C   UNL A   1      43.569  25.808  25.755  1.00  0.00     0.198 A 
ATOM     71  F   UNL A   1      43.829  27.814  26.954  1.00  0.00    -0.203 F 
ATOM     72  F   UNL A   1      41.622  22.845  26.497  1.00  0.00    -0.200 F 
ATOM     73  C   UNL A   1      43.013  24.543  25.632  1.00  0.00     0.200 A 
ATOM     74  F   UNL A   1      44.402  26.267  24.811  1.00  0.00    -0.200 F 
ATOM     75  F   UNL A   1      43.324  23.773  24.581  1.00  0.00    -0.200 F 
ENDBRANCH  51  65
BRANCH  52  76
ATOM     76  C   UNL A   1      39.461  31.980  35.421  1.00  0.00     0.064 A 
ATOM     77  C   UNL A   1      38.551  31.474  36.359  1.00  0.00     0.173 A 
ATOM     78  C   UNL A   1      39.923  33.292  35.603  1.00  0.00     0.173 A 
ATOM     79  F   UNL A   1      38.064  30.231  36.217  1.00  0.00    -0.203 F 
ATOM     80  C   UNL A   1      38.103  32.255  37.423  1.00  0.00     0.198 A 
ATOM     81  C   UNL A   1      39.499  34.061  36.684  1.00  0.00     0.198 A 
ATOM     82  F   UNL A   1      40.797  33.823  34.736  1.00  0.00    -0.203 F 
ATOM     83  F   UNL A   1      37.196  31.764  38.276  1.00  0.00    -0.200 F 
ATOM     84  C   UNL A   1      38.583  33.546  37.588  1.00  0.00     0.200 A 
ATOM     85  F   UNL A   1      39.978  35.302  36.850  1.00  0.00    -0.200 F 
ATOM     86  F   UNL A   1      38.157  34.295  38.613  1.00  0.00    -0.200 F 
ENDBRANCH  52  76
BRANCH  64  87
ATOM     87  C   UNL A   1      44.783  27.574  34.484  1.00  0.00     0.064 A 
ATOM     88  C   UNL A   1      45.988  28.289  34.569  1.00  0.00     0.173 A 
ATOM     89  C   UNL A   1      44.629  26.449  35.307  1.00  0.00     0.173 A 
ATOM     90  F   UNL A   1      46.192  29.362  33.789  1.00  0.00    -0.203 F 
ATOM     91  C   UNL A   1      47.002  27.884  35.432  1.00  0.00     0.198 A 
ATOM     92  C   UNL A   1      45.632  26.064  36.193  1.00  0.00     0.198 A 
ATOM     93  F   UNL A   1      43.495  25.733  35.268  1.00  0.00    -0.203 F 
ATOM     94  F   UNL A   1      48.160  28.558  35.465  1.00  0.00    -0.200 F 
ATOM     95  C   UNL A   1      46.819  26.779  36.251  1.00  0.00     0.200 A 
ATOM     96  F   UNL A   1      45.448  25.007  36.993  1.00  0.00    -0.200 F 
ATOM     97  F   UNL A   1      47.790  26.399  37.091  1.00  0.00    -0.200 F 
ENDBRANCH  64  87
ENDBRANCH  38  39
ENDBRANCH  30  33
ENDBRANCH  28  29
ENDBRANCH  27  28
ENDBRANCH  26  27
ENDBRANCH  25  26
ENDBRANCH   1  25
TORSDOF 21
ENDMDL
