MODEL 1
REMARK VINA RESULT:     -12.6      0.000      0.000
REMARK SMILES O=C(NCCCCCCNC(=O)c1cc(-c2cccc(Cl)c2)oc1C(F)(F)F)c1ccc(-c2c3nc(c(-c4c(F)c(F)c(F)c(F)c4F)c4ccc([nH]4)c(-c4c(F)c(F)c(F)c(F)c4F)c4nc(c(-c5c(F)c(F)c(F)c(F)c5F)c5ccc2[nH]5)C=C4)C=C3)cc1
REMARK SMILES IDX 6 1 5 2 4 3 3 4 1 5 2 6 29 8 30 9 91 10 31 11 90 12 32 13
REMARK SMILES IDX 33 14 34 15 84 16 35 17 89 18 83 19 85 20 36 21 88 22 82 23
REMARK SMILES IDX 81 24 37 26 69 27 49 28 68 29 50 30 53 31 67 32 86 33 51 34
REMARK SMILES IDX 52 35 66 37 87 38 54 39 38 40 39 41 47 42 40 43 41 44 45 45
REMARK SMILES IDX 48 46 42 47 43 48 46 49 44 50 70 51 71 52 79 53 72 54 73 55
REMARK SMILES IDX 77 56 80 57 74 58 75 59 78 60 76 61 55 62 56 63 64 64 57 65
REMARK SMILES IDX 58 66 62 67 65 68 59 69 60 70 63 71 61 72 7 73 8 74 9 75
REMARK SMILES IDX 10 76 11 77 12 79 13 80 14 81 24 82 15 83 23 84 25 85 26 86
REMARK SMILES IDX 27 87 28 88 16 89 17 90 22 91 18 92 20 93 19 94 21 95
REMARK H PARENT 3 7 85 25 53 36 10 78
REMARK Flexibility Score: inf
ROOT
ATOM      1  C   UNL A   1      32.195  27.880  27.204  1.00  0.00     0.002 C 
ENDROOT
BRANCH   1   2
ATOM      2  C   UNL A   1      31.709  29.156  26.520  1.00  0.00     0.021 C 
BRANCH   2   3
ATOM      3  C   UNL A   1      32.807  30.100  26.046  1.00  0.00     0.116 C 
BRANCH   3   4
ATOM      4  N   UNL A   1      32.582  31.481  26.444  1.00  0.00    -0.352 N 
ATOM      5  O   UNL A   1      32.889  33.383  27.621  1.00  0.00    -0.269 OA
ATOM      6  C   UNL A   1      33.309  32.276  27.298  1.00  0.00     0.251 C 
ATOM      7  H   UNL A   1      31.792  31.909  26.043  1.00  0.00     0.163 HD
BRANCH   6   8
ATOM      8  C   UNL A   1      34.585  31.781  27.862  1.00  0.00     0.039 A 
ATOM      9  C   UNL A   1      34.738  30.442  28.225  1.00  0.00     0.014 A 
ATOM     10  C   UNL A   1      35.643  32.678  28.038  1.00  0.00     0.014 A 
ATOM     11  C   UNL A   1      35.875  30.039  28.915  1.00  0.00     0.010 A 
ATOM     12  C   UNL A   1      36.823  32.250  28.653  1.00  0.00     0.010 A 
ATOM     13  C   UNL A   1      36.931  30.939  29.141  1.00  0.00    -0.014 A 
BRANCH  13  14
ATOM     14  C   UNL A   1      38.137  30.474  29.876  1.00  0.00     0.031 A 
ATOM     15  C   UNL A   1      38.376  30.872  31.307  1.00  0.00     0.074 A 
ATOM     16  C   UNL A   1      39.000  29.646  29.256  1.00  0.00     0.049 A 
ATOM     17  N   UNL A   1      39.344  30.512  32.115  1.00  0.00    -0.248 NA
ATOM     18  C   UNL A   1      37.410  31.800  31.913  1.00  0.00     0.031 C 
ATOM     19  C   UNL A   1      38.885  29.201  27.866  1.00  0.00     0.029 A 
ATOM     20  N   UNL A   1      40.126  29.012  29.716  1.00  0.00    -0.354 N 
ATOM     21  C   UNL A   1      39.119  31.187  33.308  1.00  0.00     0.074 A 
ATOM     22  C   UNL A   1      37.936  31.997  33.114  1.00  0.00     0.031 C 
ATOM     23  C   UNL A   1      39.865  28.324  27.603  1.00  0.00     0.029 A 
ATOM     24  C   UNL A   1      40.708  28.187  28.786  1.00  0.00     0.049 A 
ATOM     25  H   UNL A   1      40.482  29.137  30.625  1.00  0.00     0.167 HD
ATOM     26  C   UNL A   1      39.829  31.128  34.461  1.00  0.00     0.037 A 
ATOM     27  C   UNL A   1      41.800  27.407  28.873  1.00  0.00     0.037 A 
ATOM     28  C   UNL A   1      40.991  30.298  34.660  1.00  0.00     0.049 A 
ATOM     29  C   UNL A   1      42.565  27.359  30.166  1.00  0.00     0.074 A 
ATOM     30  C   UNL A   1      41.750  30.137  35.807  1.00  0.00     0.029 A 
ATOM     31  N   UNL A   1      41.560  29.490  33.687  1.00  0.00    -0.354 N 
ATOM     32  N   UNL A   1      42.316  27.968  31.298  1.00  0.00    -0.248 NA
ATOM     33  C   UNL A   1      43.764  26.510  30.189  1.00  0.00     0.031 C 
ATOM     34  C   UNL A   1      42.804  29.265  35.515  1.00  0.00     0.029 A 
ATOM     35  C   UNL A   1      42.673  28.843  34.202  1.00  0.00     0.049 A 
ATOM     36  H   UNL A   1      41.224  29.391  32.767  1.00  0.00     0.167 HD
ATOM     37  C   UNL A   1      43.308  27.559  32.177  1.00  0.00     0.074 A 
ATOM     38  C   UNL A   1      44.154  26.636  31.450  1.00  0.00     0.031 C 
ATOM     39  C   UNL A   1      43.500  27.917  33.470  1.00  0.00     0.037 A 
BRANCH  26  40
ATOM     40  C   UNL A   1      39.383  31.999  35.600  1.00  0.00     0.064 A 
ATOM     41  C   UNL A   1      39.831  33.320  35.742  1.00  0.00     0.173 A 
ATOM     42  C   UNL A   1      38.456  31.518  36.538  1.00  0.00     0.173 A 
ATOM     43  F   UNL A   1      40.726  33.826  34.879  1.00  0.00    -0.203 F 
ATOM     44  C   UNL A   1      39.389  34.119  36.794  1.00  0.00     0.198 A 
ATOM     45  C   UNL A   1      37.994  32.328  37.573  1.00  0.00     0.198 A 
ATOM     46  F   UNL A   1      37.989  30.264  36.446  1.00  0.00    -0.203 F 
ATOM     47  F   UNL A   1      39.865  35.365  36.934  1.00  0.00    -0.200 F 
ATOM     48  C   UNL A   1      38.465  33.625  37.704  1.00  0.00     0.200 A 
ATOM     49  F   UNL A   1      37.093  31.853  38.444  1.00  0.00    -0.200 F 
ATOM     50  F   UNL A   1      38.036  34.398  38.711  1.00  0.00    -0.200 F 
ENDBRANCH  26  40
BRANCH  27  51
ATOM     51  C   UNL A   1      42.220  26.591  27.705  1.00  0.00     0.064 A 
ATOM     52  C   UNL A   1      43.198  27.058  26.816  1.00  0.00     0.173 A 
ATOM     53  C   UNL A   1      41.663  25.328  27.461  1.00  0.00     0.173 A 
ATOM     54  F   UNL A   1      43.745  28.269  26.998  1.00  0.00    -0.203 F 
ATOM     55  C   UNL A   1      43.589  26.299  25.716  1.00  0.00     0.198 A 
ATOM     56  C   UNL A   1      42.077  24.557  26.377  1.00  0.00     0.198 A 
ATOM     57  F   UNL A   1      40.729  24.835  28.287  1.00  0.00    -0.203 F 
ATOM     58  F   UNL A   1      44.496  26.785  24.858  1.00  0.00    -0.200 F 
ATOM     59  C   UNL A   1      43.035  25.045  25.502  1.00  0.00     0.200 A 
ATOM     60  F   UNL A   1      41.550  23.340  26.184  1.00  0.00    -0.200 F 
ATOM     61  F   UNL A   1      43.418  24.312  24.448  1.00  0.00    -0.200 F 
ENDBRANCH  27  51
BRANCH  39  62
ATOM     62  C   UNL A   1      44.648  27.275  34.192  1.00  0.00     0.064 A 
ATOM     63  C   UNL A   1      44.504  26.055  34.867  1.00  0.00     0.173 A 
ATOM     64  C   UNL A   1      45.912  27.884  34.194  1.00  0.00     0.173 A 
ATOM     65  F   UNL A   1      43.311  25.442  34.909  1.00  0.00    -0.203 F 
ATOM     66  C   UNL A   1      45.578  25.483  35.546  1.00  0.00     0.198 A 
ATOM     67  C   UNL A   1      46.990  27.295  34.848  1.00  0.00     0.198 A 
ATOM     68  F   UNL A   1      46.102  29.049  33.557  1.00  0.00    -0.203 F 
ATOM     69  F   UNL A   1      45.405  24.343  36.230  1.00  0.00    -0.200 F 
ATOM     70  C   UNL A   1      46.820  26.100  35.531  1.00  0.00     0.200 A 
ATOM     71  F   UNL A   1      48.192  27.886  34.823  1.00  0.00    -0.200 F 
ATOM     72  F   UNL A   1      47.852  25.547  36.183  1.00  0.00    -0.200 F 
ENDBRANCH  39  62
ENDBRANCH  13  14
ENDBRANCH   6   8
ENDBRANCH   3   4
ENDBRANCH   2   3
ENDBRANCH   1   2
BRANCH   1  73
ATOM     73  C   UNL A   1      33.308  27.118  26.475  1.00  0.00     0.002 C 
BRANCH  73  74
ATOM     74  C   UNL A   1      32.967  25.684  26.057  1.00  0.00     0.021 C 
BRANCH  74  75
ATOM     75  C   UNL A   1      31.477  25.354  26.019  1.00  0.00     0.116 C 
BRANCH  75  76
ATOM     76  N   UNL A   1      31.132  24.513  24.882  1.00  0.00    -0.352 N 
ATOM     77  C   UNL A   1      30.705  24.887  23.637  1.00  0.00     0.255 C 
ATOM     78  H   UNL A   1      31.218  23.543  25.030  1.00  0.00     0.163 HD
ATOM     79  O   UNL A   1      30.300  24.039  22.840  1.00  0.00    -0.269 OA
BRANCH  77  80
ATOM     80  C   UNL A   1      30.750  26.288  23.300  1.00  0.00     0.091 A 
ATOM     81  C   UNL A   1      29.787  27.297  23.579  1.00  0.00     0.065 A 
ATOM     82  C   UNL A   1      31.783  26.919  22.628  1.00  0.00     0.221 A 
ATOM     83  C   UNL A   1      30.233  28.447  22.970  1.00  0.00     0.135 A 
ATOM     84  O   UNL A   1      31.448  28.231  22.395  1.00  0.00    -0.451 OA
BRANCH  82  85
ATOM     85  C   UNL A   1      33.086  26.444  22.098  1.00  0.00     0.450 C 
ATOM     86  F   UNL A   1      33.910  27.480  21.786  1.00  0.00    -0.163 F 
ATOM     87  F   UNL A   1      33.752  25.672  22.994  1.00  0.00    -0.163 F 
ATOM     88  F   UNL A   1      32.958  25.715  20.960  1.00  0.00    -0.163 F 
ENDBRANCH  82  85
BRANCH  83  89
ATOM     89  C   UNL A   1      29.654  29.768  22.817  1.00  0.00     0.019 A 
ATOM     90  C   UNL A   1      29.559  30.625  23.923  1.00  0.00     0.012 A 
ATOM     91  C   UNL A   1      29.107  30.167  21.592  1.00  0.00     0.032 A 
ATOM     92  C   UNL A   1      28.918  31.860  23.809  1.00  0.00     0.002 A 
ATOM     93  C   UNL A   1      28.454  31.394  21.489  1.00  0.00     0.041 A 
ATOM     94  C   UNL A   1      28.356  32.241  22.591  1.00  0.00     0.020 A 
ATOM     95  Cl  UNL A   1      27.732  31.853  19.996  1.00  0.00    -0.084 Cl
ENDBRANCH  83  89
ENDBRANCH  77  80
ENDBRANCH  75  76
ENDBRANCH  74  75
ENDBRANCH  73  74
ENDBRANCH   1  73
TORSDOF 15
ENDMDL
MODEL 2
REMARK VINA RESULT:     -12.5      1.884      2.945
REMARK SMILES O=C(NCCCCCCNC(=O)c1cc(-c2cccc(Cl)c2)oc1C(F)(F)F)c1ccc(-c2c3nc(c(-c4c(F)c(F)c(F)c(F)c4F)c4ccc([nH]4)c(-c4c(F)c(F)c(F)c(F)c4F)c4nc(c(-c5c(F)c(F)c(F)c(F)c5F)c5ccc2[nH]5)C=C4)C=C3)cc1
REMARK SMILES IDX 6 1 5 2 4 3 3 4 1 5 2 6 29 8 30 9 91 10 31 11 90 12 32 13
REMARK SMILES IDX 33 14 34 15 84 16 35 17 89 18 83 19 85 20 36 21 88 22 82 23
REMARK SMILES IDX 81 24 37 26 69 27 49 28 68 29 50 30 53 31 67 32 86 33 51 34
REMARK SMILES IDX 52 35 66 37 87 38 54 39 38 40 39 41 47 42 40 43 41 44 45 45
REMARK SMILES IDX 48 46 42 47 43 48 46 49 44 50 70 51 71 52 79 53 72 54 73 55
REMARK SMILES IDX 77 56 80 57 74 58 75 59 78 60 76 61 55 62 56 63 64 64 57 65
REMARK SMILES IDX 58 66 62 67 65 68 59 69 60 70 63 71 61 72 7 73 8 74 9 75
REMARK SMILES IDX 10 76 11 77 12 79 13 80 14 81 24 82 15 83 23 84 25 85 26 86
REMARK SMILES IDX 27 87 28 88 16 89 17 90 22 91 18 92 20 93 19 94 21 95
REMARK H PARENT 3 7 85 25 53 36 10 78
REMARK Flexibility Score: inf
ROOT
ATOM      1  C   UNL A   1      31.660  30.433  26.098  1.00  0.00     0.002 C 
ENDROOT
BRANCH   1   2
ATOM      2  C   UNL A   1      31.405  31.844  26.624  1.00  0.00     0.021 C 
BRANCH   2   3
ATOM      3  C   UNL A   1      32.618  32.545  27.223  1.00  0.00     0.116 C 
BRANCH   3   4
ATOM      4  N   UNL A   1      32.355  33.930  27.582  1.00  0.00    -0.352 N 
ATOM      5  O   UNL A   1      32.534  35.839  28.774  1.00  0.00    -0.269 OA
ATOM      6  C   UNL A   1      32.983  34.728  28.510  1.00  0.00     0.251 C 
ATOM      7  H   UNL A   1      31.620  34.359  27.090  1.00  0.00     0.163 HD
BRANCH   6   8
ATOM      8  C   UNL A   1      34.182  34.230  29.221  1.00  0.00     0.039 A 
ATOM      9  C   UNL A   1      35.464  34.476  28.726  1.00  0.00     0.014 A 
ATOM     10  C   UNL A   1      34.017  33.495  30.399  1.00  0.00     0.014 A 
ATOM     11  C   UNL A   1      36.560  33.850  29.308  1.00  0.00     0.010 A 
ATOM     12  C   UNL A   1      35.131  32.940  31.035  1.00  0.00     0.010 A 
ATOM     13  C   UNL A   1      36.407  33.071  30.468  1.00  0.00    -0.014 A 
BRANCH  13  14
ATOM     14  C   UNL A   1      37.602  32.421  31.069  1.00  0.00     0.031 A 
ATOM     15  C   UNL A   1      38.057  32.771  32.460  1.00  0.00     0.074 A 
ATOM     16  C   UNL A   1      38.251  31.473  30.368  1.00  0.00     0.049 A 
ATOM     17  N   UNL A   1      39.042  32.262  33.160  1.00  0.00    -0.248 NA
ATOM     18  C   UNL A   1      37.320  33.835  33.158  1.00  0.00     0.031 C 
ATOM     19  C   UNL A   1      37.914  31.057  29.005  1.00  0.00     0.029 A 
ATOM     20  N   UNL A   1      39.310  30.669  30.709  1.00  0.00    -0.354 N 
ATOM     21  C   UNL A   1      39.059  32.958  34.362  1.00  0.00     0.074 A 
ATOM     22  C   UNL A   1      38.001  33.942  34.291  1.00  0.00     0.031 C 
ATOM     23  C   UNL A   1      38.712  30.041  28.646  1.00  0.00     0.029 A 
ATOM     24  C   UNL A   1      39.650  29.769  29.730  1.00  0.00     0.049 A 
ATOM     25  H   UNL A   1      39.780  30.733  31.570  1.00  0.00     0.167 HD
ATOM     26  C   UNL A   1      39.875  32.784  35.429  1.00  0.00     0.037 A 
ATOM     27  C   UNL A   1      40.612  28.829  29.705  1.00  0.00     0.037 A 
ATOM     28  C   UNL A   1      40.910  31.783  35.509  1.00  0.00     0.049 A 
ATOM     29  C   UNL A   1      41.499  28.656  30.905  1.00  0.00     0.074 A 
ATOM     30  C   UNL A   1      41.758  31.501  36.566  1.00  0.00     0.029 A 
ATOM     31  N   UNL A   1      41.235  30.901  34.489  1.00  0.00    -0.354 N 
ATOM     32  N   UNL A   1      41.475  29.291  32.051  1.00  0.00    -0.248 NA
ATOM     33  C   UNL A   1      42.548  27.632  30.807  1.00  0.00     0.031 C 
ATOM     34  C   UNL A   1      42.626  30.477  36.170  1.00  0.00     0.029 A 
ATOM     35  C   UNL A   1      42.285  30.087  34.886  1.00  0.00     0.049 A 
ATOM     36  H   UNL A   1      40.788  30.860  33.614  1.00  0.00     0.167 HD
ATOM     37  C   UNL A   1      42.484  28.730  32.819  1.00  0.00     0.074 A 
ATOM     38  C   UNL A   1      43.091  27.691  32.014  1.00  0.00     0.031 C 
ATOM     39  C   UNL A   1      42.873  29.048  34.078  1.00  0.00     0.037 A 
BRANCH  26  40
ATOM     40  C   UNL A   1      39.699  33.708  36.601  1.00  0.00     0.064 A 
ATOM     41  C   UNL A   1      38.904  33.363  37.703  1.00  0.00     0.173 A 
ATOM     42  C   UNL A   1      40.374  34.938  36.640  1.00  0.00     0.173 A 
ATOM     43  F   UNL A   1      38.228  32.204  37.712  1.00  0.00    -0.203 F 
ATOM     44  C   UNL A   1      38.771  34.225  38.789  1.00  0.00     0.198 A 
ATOM     45  C   UNL A   1      40.261  35.785  37.739  1.00  0.00     0.198 A 
ATOM     46  F   UNL A   1      41.154  35.315  35.614  1.00  0.00    -0.203 F 
ATOM     47  F   UNL A   1      37.970  33.893  39.812  1.00  0.00    -0.200 F 
ATOM     48  C   UNL A   1      39.455  35.431  38.809  1.00  0.00     0.200 A 
ATOM     49  F   UNL A   1      40.932  36.945  37.762  1.00  0.00    -0.200 F 
ATOM     50  F   UNL A   1      39.330  36.256  39.858  1.00  0.00    -0.200 F 
ENDBRANCH  26  40
BRANCH  27  51
ATOM     51  C   UNL A   1      40.768  27.963  28.508  1.00  0.00     0.064 A 
ATOM     52  C   UNL A   1      40.115  26.726  28.425  1.00  0.00     0.173 A 
ATOM     53  C   UNL A   1      41.561  28.359  27.422  1.00  0.00     0.173 A 
ATOM     54  F   UNL A   1      39.361  26.296  29.447  1.00  0.00    -0.203 F 
ATOM     55  C   UNL A   1      40.264  25.910  27.305  1.00  0.00     0.198 A 
ATOM     56  C   UNL A   1      41.685  27.556  26.291  1.00  0.00     0.198 A 
ATOM     57  F   UNL A   1      42.201  29.538  27.452  1.00  0.00    -0.203 F 
ATOM     58  F   UNL A   1      39.662  24.714  27.268  1.00  0.00    -0.200 F 
ATOM     59  C   UNL A   1      41.042  26.329  26.237  1.00  0.00     0.200 A 
ATOM     60  F   UNL A   1      42.425  27.972  25.254  1.00  0.00    -0.200 F 
ATOM     61  F   UNL A   1      41.178  25.546  25.158  1.00  0.00    -0.200 F 
ENDBRANCH  27  51
BRANCH  39  62
ATOM     62  C   UNL A   1      43.980  28.232  34.676  1.00  0.00     0.064 A 
ATOM     63  C   UNL A   1      43.727  27.042  35.373  1.00  0.00     0.173 A 
ATOM     64  C   UNL A   1      45.316  28.642  34.536  1.00  0.00     0.173 A 
ATOM     65  F   UNL A   1      42.466  26.617  35.548  1.00  0.00    -0.203 F 
ATOM     66  C   UNL A   1      44.769  26.307  35.935  1.00  0.00     0.198 A 
ATOM     67  C   UNL A   1      46.356  27.890  35.074  1.00  0.00     0.198 A 
ATOM     68  F   UNL A   1      45.611  29.771  33.873  1.00  0.00    -0.203 F 
ATOM     69  F   UNL A   1      44.499  25.201  36.642  1.00  0.00    -0.200 F 
ATOM     70  C   UNL A   1      46.081  26.729  35.781  1.00  0.00     0.200 A 
ATOM     71  F   UNL A   1      47.624  28.292  34.915  1.00  0.00    -0.200 F 
ATOM     72  F   UNL A   1      47.082  26.020  36.321  1.00  0.00    -0.200 F 
ENDBRANCH  39  62
ENDBRANCH  13  14
ENDBRANCH   6   8
ENDBRANCH   3   4
ENDBRANCH   2   3
ENDBRANCH   1   2
BRANCH   1  73
ATOM     73  C   UNL A   1      31.965  29.373  27.161  1.00  0.00     0.002 C 
BRANCH  73  74
ATOM     74  C   UNL A   1      33.096  28.397  26.821  1.00  0.00     0.021 C 
BRANCH  74  75
ATOM     75  C   UNL A   1      33.800  28.655  25.490  1.00  0.00     0.116 C 
BRANCH  75  76
ATOM     76  N   UNL A   1      33.919  27.445  24.690  1.00  0.00    -0.352 N 
ATOM     77  C   UNL A   1      32.976  26.843  23.901  1.00  0.00     0.255 C 
ATOM     78  H   UNL A   1      34.797  27.001  24.719  1.00  0.00     0.163 HD
ATOM     79  O   UNL A   1      33.193  25.732  23.417  1.00  0.00    -0.269 OA
BRANCH  77  80
ATOM     80  C   UNL A   1      31.743  27.551  23.663  1.00  0.00     0.091 A 
ATOM     81  C   UNL A   1      31.519  28.687  22.836  1.00  0.00     0.065 A 
ATOM     82  C   UNL A   1      30.514  27.228  24.213  1.00  0.00     0.221 A 
ATOM     83  C   UNL A   1      30.206  29.053  23.017  1.00  0.00     0.135 A 
ATOM     84  O   UNL A   1      29.583  28.170  23.845  1.00  0.00    -0.451 OA
BRANCH  82  85
ATOM     85  C   UNL A   1      30.063  26.142  25.119  1.00  0.00     0.450 C 
ATOM     86  F   UNL A   1      30.476  26.349  26.398  1.00  0.00    -0.163 F 
ATOM     87  F   UNL A   1      28.710  26.037  25.158  1.00  0.00    -0.163 F 
ATOM     88  F   UNL A   1      30.548  24.924  24.763  1.00  0.00    -0.163 F 
ENDBRANCH  82  85
BRANCH  83  89
ATOM     89  C   UNL A   1      29.419  30.169  22.528  1.00  0.00     0.019 A 
ATOM     90  C   UNL A   1      28.634  30.024  21.375  1.00  0.00     0.012 A 
ATOM     91  C   UNL A   1      29.502  31.422  23.147  1.00  0.00     0.032 A 
ATOM     92  C   UNL A   1      27.949  31.117  20.841  1.00  0.00     0.002 A 
ATOM     93  C   UNL A   1      28.829  32.513  22.600  1.00  0.00     0.041 A 
ATOM     94  C   UNL A   1      28.054  32.367  21.451  1.00  0.00     0.020 A 
ATOM     95  Cl  UNL A   1      28.982  34.064  23.331  1.00  0.00    -0.084 Cl
ENDBRANCH  83  89
ENDBRANCH  77  80
ENDBRANCH  75  76
ENDBRANCH  74  75
ENDBRANCH  73  74
ENDBRANCH   1  73
TORSDOF 15
ENDMDL
MODEL 3
REMARK VINA RESULT:     -12.4      5.815     10.629
REMARK SMILES O=C(NCCCCCCNC(=O)c1cc(-c2cccc(Cl)c2)oc1C(F)(F)F)c1ccc(-c2c3nc(c(-c4c(F)c(F)c(F)c(F)c4F)c4ccc([nH]4)c(-c4c(F)c(F)c(F)c(F)c4F)c4nc(c(-c5c(F)c(F)c(F)c(F)c5F)c5ccc2[nH]5)C=C4)C=C3)cc1
REMARK SMILES IDX 6 1 5 2 4 3 3 4 1 5 2 6 29 8 30 9 91 10 31 11 90 12 32 13
REMARK SMILES IDX 33 14 34 15 84 16 35 17 89 18 83 19 85 20 36 21 88 22 82 23
REMARK SMILES IDX 81 24 37 26 69 27 49 28 68 29 50 30 53 31 67 32 86 33 51 34
REMARK SMILES IDX 52 35 66 37 87 38 54 39 38 40 39 41 47 42 40 43 41 44 45 45
REMARK SMILES IDX 48 46 42 47 43 48 46 49 44 50 70 51 71 52 79 53 72 54 73 55
REMARK SMILES IDX 77 56 80 57 74 58 75 59 78 60 76 61 55 62 56 63 64 64 57 65
REMARK SMILES IDX 58 66 62 67 65 68 59 69 60 70 63 71 61 72 7 73 8 74 9 75
REMARK SMILES IDX 10 76 11 77 12 79 13 80 14 81 24 82 15 83 23 84 25 85 26 86
REMARK SMILES IDX 27 87 28 88 16 89 17 90 22 91 18 92 20 93 19 94 21 95
REMARK H PARENT 3 7 85 25 53 36 10 78
REMARK Flexibility Score: inf
ROOT
ATOM      1  C   UNL A   1      36.965  20.953  24.767  1.00  0.00     0.002 C 
ENDROOT
BRANCH   1   2
ATOM      2  C   UNL A   1      38.014  19.853  24.925  1.00  0.00     0.021 C 
BRANCH   2   3
ATOM      3  C   UNL A   1      39.189  20.199  25.831  1.00  0.00     0.116 C 
BRANCH   3   4
ATOM      4  N   UNL A   1      40.218  19.172  25.846  1.00  0.00    -0.352 N 
ATOM      5  O   UNL A   1      42.309  18.324  25.915  1.00  0.00    -0.269 OA
ATOM      6  C   UNL A   1      41.569  19.289  26.076  1.00  0.00     0.251 C 
ATOM      7  H   UNL A   1      39.901  18.258  25.664  1.00  0.00     0.163 HD
BRANCH   6   8
ATOM      8  C   UNL A   1      42.138  20.593  26.484  1.00  0.00     0.039 A 
ATOM      9  C   UNL A   1      42.253  20.937  27.831  1.00  0.00     0.014 A 
ATOM     10  C   UNL A   1      42.554  21.491  25.495  1.00  0.00     0.014 A 
ATOM     11  C   UNL A   1      42.621  22.230  28.185  1.00  0.00     0.010 A 
ATOM     12  C   UNL A   1      43.008  22.763  25.857  1.00  0.00     0.010 A 
ATOM     13  C   UNL A   1      42.999  23.161  27.203  1.00  0.00    -0.014 A 
BRANCH  13  14
ATOM     14  C   UNL A   1      43.394  24.533  27.615  1.00  0.00     0.031 A 
ATOM     15  C   UNL A   1      44.834  24.970  27.582  1.00  0.00     0.074 A 
ATOM     16  C   UNL A   1      42.436  25.406  27.979  1.00  0.00     0.049 A 
ATOM     17  N   UNL A   1      45.348  26.145  27.853  1.00  0.00    -0.248 NA
ATOM     18  C   UNL A   1      45.831  23.958  27.202  1.00  0.00     0.031 C 
ATOM     19  C   UNL A   1      41.007  25.098  28.066  1.00  0.00     0.029 A 
ATOM     20  N   UNL A   1      42.510  26.734  28.318  1.00  0.00    -0.354 N 
ATOM     21  C   UNL A   1      46.722  26.006  27.703  1.00  0.00     0.074 A 
ATOM     22  C   UNL A   1      46.967  24.628  27.340  1.00  0.00     0.031 C 
ATOM     23  C   UNL A   1      40.335  26.215  28.379  1.00  0.00     0.029 A 
ATOM     24  C   UNL A   1      41.286  27.304  28.568  1.00  0.00     0.049 A 
ATOM     25  H   UNL A   1      43.358  27.229  28.377  1.00  0.00     0.167 HD
ATOM     26  C   UNL A   1      47.688  26.946  27.847  1.00  0.00     0.037 A 
ATOM     27  C   UNL A   1      40.965  28.564  28.913  1.00  0.00     0.037 A 
ATOM     28  C   UNL A   1      47.439  28.326  28.180  1.00  0.00     0.049 A 
ATOM     29  C   UNL A   1      42.057  29.584  29.061  1.00  0.00     0.074 A 
ATOM     30  C   UNL A   1      48.348  29.363  28.304  1.00  0.00     0.029 A 
ATOM     31  N   UNL A   1      46.186  28.861  28.444  1.00  0.00    -0.354 N 
ATOM     32  N   UNL A   1      43.346  29.450  28.874  1.00  0.00    -0.248 NA
ATOM     33  C   UNL A   1      41.644  30.935  29.467  1.00  0.00     0.031 C 
ATOM     34  C   UNL A   1      47.651  30.515  28.685  1.00  0.00     0.029 A 
ATOM     35  C   UNL A   1      46.302  30.209  28.749  1.00  0.00     0.049 A 
ATOM     36  H   UNL A   1      45.340  28.358  28.419  1.00  0.00     0.167 HD
ATOM     37  C   UNL A   1      43.898  30.700  29.113  1.00  0.00     0.074 A 
ATOM     38  C   UNL A   1      42.800  31.584  29.443  1.00  0.00     0.031 C 
ATOM     39  C   UNL A   1      45.198  31.080  29.065  1.00  0.00     0.037 A 
BRANCH  26  40
ATOM     40  C   UNL A   1      49.115  26.514  27.661  1.00  0.00     0.064 A 
ATOM     41  C   UNL A   1      49.684  26.368  26.388  1.00  0.00     0.173 A 
ATOM     42  C   UNL A   1      49.937  26.289  28.776  1.00  0.00     0.173 A 
ATOM     43  F   UNL A   1      48.938  26.561  25.288  1.00  0.00    -0.203 F 
ATOM     44  C   UNL A   1      51.015  25.987  26.237  1.00  0.00     0.198 A 
ATOM     45  C   UNL A   1      51.275  25.936  28.622  1.00  0.00     0.198 A 
ATOM     46  F   UNL A   1      49.445  26.422  30.017  1.00  0.00    -0.203 F 
ATOM     47  F   UNL A   1      51.525  25.811  25.009  1.00  0.00    -0.200 F 
ATOM     48  C   UNL A   1      51.811  25.779  27.353  1.00  0.00     0.200 A 
ATOM     49  F   UNL A   1      52.046  25.746  29.702  1.00  0.00    -0.200 F 
ATOM     50  F   UNL A   1      53.094  25.419  27.205  1.00  0.00    -0.200 F 
ENDBRANCH  26  40
BRANCH  27  51
ATOM     51  C   UNL A   1      39.540  28.931  29.120  1.00  0.00     0.064 A 
ATOM     52  C   UNL A   1      38.748  29.371  28.051  1.00  0.00     0.173 A 
ATOM     53  C   UNL A   1      38.942  28.840  30.385  1.00  0.00     0.173 A 
ATOM     54  F   UNL A   1      39.282  29.493  26.827  1.00  0.00    -0.203 F 
ATOM     55  C   UNL A   1      37.414  29.722  28.244  1.00  0.00     0.198 A 
ATOM     56  C   UNL A   1      37.599  29.163  30.570  1.00  0.00     0.198 A 
ATOM     57  F   UNL A   1      39.657  28.418  31.438  1.00  0.00    -0.203 F 
ATOM     58  F   UNL A   1      36.689  30.179  27.213  1.00  0.00    -0.200 F 
ATOM     59  C   UNL A   1      36.838  29.610  29.501  1.00  0.00     0.200 A 
ATOM     60  F   UNL A   1      37.043  29.037  31.783  1.00  0.00    -0.200 F 
ATOM     61  F   UNL A   1      35.553  29.940  29.682  1.00  0.00    -0.200 F 
ENDBRANCH  27  51
BRANCH  39  62
ATOM     62  C   UNL A   1      45.497  32.525  29.333  1.00  0.00     0.064 A 
ATOM     63  C   UNL A   1      45.802  32.989  30.621  1.00  0.00     0.173 A 
ATOM     64  C   UNL A   1      45.492  33.456  28.282  1.00  0.00     0.173 A 
ATOM     65  F   UNL A   1      45.803  32.141  31.661  1.00  0.00    -0.203 F 
ATOM     66  C   UNL A   1      46.061  34.338  30.852  1.00  0.00     0.198 A 
ATOM     67  C   UNL A   1      45.780  34.798  28.512  1.00  0.00     0.198 A 
ATOM     68  F   UNL A   1      45.212  33.061  27.031  1.00  0.00    -0.203 F 
ATOM     69  F   UNL A   1      46.298  34.768  32.099  1.00  0.00    -0.200 F 
ATOM     70  C   UNL A   1      46.055  35.239  29.798  1.00  0.00     0.200 A 
ATOM     71  F   UNL A   1      45.785  35.666  27.491  1.00  0.00    -0.200 F 
ATOM     72  F   UNL A   1      46.306  36.537  30.022  1.00  0.00    -0.200 F 
ENDBRANCH  39  62
ENDBRANCH  13  14
ENDBRANCH   6   8
ENDBRANCH   3   4
ENDBRANCH   2   3
ENDBRANCH   1   2
BRANCH   1  73
ATOM     73  C   UNL A   1      37.094  22.137  25.731  1.00  0.00     0.002 C 
BRANCH  73  74
ATOM     74  C   UNL A   1      36.846  23.520  25.121  1.00  0.00     0.021 C 
BRANCH  74  75
ATOM     75  C   UNL A   1      35.531  23.669  24.359  1.00  0.00     0.116 C 
BRANCH  75  76
ATOM     76  N   UNL A   1      34.436  24.071  25.231  1.00  0.00    -0.352 N 
ATOM     77  C   UNL A   1      33.295  23.385  25.545  1.00  0.00     0.255 C 
ATOM     78  H   UNL A   1      34.531  24.957  25.651  1.00  0.00     0.163 HD
ATOM     79  O   UNL A   1      32.392  23.940  26.174  1.00  0.00    -0.269 OA
BRANCH  77  80
ATOM     80  C   UNL A   1      33.194  22.011  25.121  1.00  0.00     0.091 A 
ATOM     81  C   UNL A   1      33.566  20.835  25.831  1.00  0.00     0.065 A 
ATOM     82  C   UNL A   1      32.690  21.581  23.905  1.00  0.00     0.221 A 
ATOM     83  C   UNL A   1      33.373  19.779  24.973  1.00  0.00     0.135 A 
ATOM     84  O   UNL A   1      32.834  20.218  23.802  1.00  0.00    -0.451 OA
BRANCH  82  85
ATOM     85  C   UNL A   1      32.106  22.294  22.742  1.00  0.00     0.450 C 
ATOM     86  F   UNL A   1      31.004  23.010  23.091  1.00  0.00    -0.163 F 
ATOM     87  F   UNL A   1      32.981  23.171  22.187  1.00  0.00    -0.163 F 
ATOM     88  F   UNL A   1      31.705  21.452  21.755  1.00  0.00    -0.163 F 
ENDBRANCH  82  85
BRANCH  83  89
ATOM     89  C   UNL A   1      33.654  18.360  25.080  1.00  0.00     0.019 A 
ATOM     90  C   UNL A   1      34.841  17.836  24.547  1.00  0.00     0.012 A 
ATOM     91  C   UNL A   1      32.709  17.488  25.633  1.00  0.00     0.032 A 
ATOM     92  C   UNL A   1      35.077  16.461  24.558  1.00  0.00     0.002 A 
ATOM     93  C   UNL A   1      32.943  16.114  25.627  1.00  0.00     0.041 A 
ATOM     94  C   UNL A   1      34.121  15.597  25.092  1.00  0.00     0.020 A 
ATOM     95  Cl  UNL A   1      31.752  15.043  26.256  1.00  0.00    -0.084 Cl
ENDBRANCH  83  89
ENDBRANCH  77  80
ENDBRANCH  75  76
ENDBRANCH  74  75
ENDBRANCH  73  74
ENDBRANCH   1  73
TORSDOF 15
ENDMDL
