MODEL 1
REMARK VINA RESULT:     -14.0      0.000      0.000
REMARK SMILES Cc1cc(F)ccc1OC1(C(=O)NCCCCCCNC(=O)c2ccc(-c3c4nc(c(-c5c(F)c(F)c(F)c(F)c5F)c5ccc([nH]5)c(-c5c(F)c(F)c(F)c(F)c5F)c5nc(c(-c6c(F)c(F)c(F)c(F)c6F)c6ccc3[nH]6)C=C5)C=C4)cc2)CCN(C(=O)[C@H]2CCOC2)CC1
REMARK SMILES IDX 16 1 15 2 14 3 13 4 11 5 12 6 10 8 86 9 97 10 87 11 96 12
REMARK SMILES IDX 88 13 89 14 90 15 9 16 8 17 1 18 2 19 3 20 4 21 7 22 5 23
REMARK SMILES IDX 6 24 91 25 92 26 95 27 93 28 94 29 17 30 18 31 19 32 20 33
REMARK SMILES IDX 21 34 22 36 23 37 24 38 85 39 25 40 84 41 26 42 27 43 28 44
REMARK SMILES IDX 78 45 29 46 83 47 77 48 79 49 30 50 82 51 76 52 75 53 31 55
REMARK SMILES IDX 63 56 43 57 62 58 44 59 47 60 61 61 80 62 45 63 46 64 60 66
REMARK SMILES IDX 81 67 48 68 32 69 33 70 41 71 34 72 35 73 39 74 42 75 36 76
REMARK SMILES IDX 37 77 40 78 38 79 64 80 65 81 73 82 66 83 67 84 71 85 74 86
REMARK SMILES IDX 68 87 69 88 72 89 70 90 49 91 50 92 58 93 51 94 52 95 56 96
REMARK SMILES IDX 59 97 53 98 54 99 57 100 55 101
REMARK H PARENT 13 7 20 35 79 54 47 65
REMARK Flexibility Score: inf
ROOT
ATOM      1  C   UNL A   1      35.253  23.249  24.782  1.00  0.00     0.002 C 
ENDROOT
BRANCH   1   2
ATOM      2  C   UNL A   1      34.755  24.294  25.780  1.00  0.00     0.021 C 
BRANCH   2   3
ATOM      3  C   UNL A   1      34.170  25.520  25.092  1.00  0.00     0.116 C 
BRANCH   3   4
ATOM      4  N   UNL A   1      34.152  25.351  23.665  1.00  0.00    -0.353 N 
ATOM      5  C   UNL A   1      33.113  25.411  22.786  1.00  0.00     0.264 C 
ATOM      6  O   UNL A   1      33.417  25.206  21.606  1.00  0.00    -0.270 OA
ATOM      7  H   UNL A   1      35.028  25.163  23.258  1.00  0.00     0.163 HD
BRANCH   5   8
ATOM      8  C   UNL A   1      31.652  25.743  23.272  1.00  0.00     0.190 C 
ATOM      9  C   UNL A   1      31.751  26.397  24.644  1.00  0.00     0.080 C 
ATOM     10  C   UNL A   1      30.972  26.497  22.124  1.00  0.00     0.080 C 
ATOM     11  C   UNL A   1      31.273  27.839  24.770  1.00  0.00     0.124 C 
ATOM     12  C   UNL A   1      30.125  27.702  22.494  1.00  0.00     0.124 C 
ATOM     13  N   UNL A   1      30.540  28.465  23.667  1.00  0.00    -0.342 N 
ATOM     14  C   UNL A   1      30.125  29.779  23.917  1.00  0.00     0.228 C 
ATOM     15  O   UNL A   1      30.577  30.405  24.879  1.00  0.00    -0.274 OA
BRANCH   8  16
ATOM     16  O   UNL A   1      31.153  24.398  23.352  1.00  0.00    -0.477 OA
BRANCH  16  17
ATOM     17  C   UNL A   1      31.498  23.282  24.024  1.00  0.00     0.124 A 
ATOM     18  C   UNL A   1      30.933  23.739  26.515  1.00  0.00     0.048 C 
ATOM     19  C   UNL A   1      31.409  22.912  25.370  1.00  0.00    -0.006 A 
ATOM     20  C   UNL A   1      31.881  21.637  25.754  1.00  0.00     0.046 A 
ATOM     21  C   UNL A   1      32.425  20.756  24.832  1.00  0.00     0.123 A 
ATOM     22  C   UNL A   1      32.064  22.364  23.112  1.00  0.00     0.050 A 
ATOM     23  F   UNL A   1      32.863  19.559  25.241  1.00  0.00    -0.207 F 
ATOM     24  C   UNL A   1      32.527  21.111  23.505  1.00  0.00     0.043 A 
ENDBRANCH  16  17
ENDBRANCH   8  16
BRANCH  14  25
ATOM     25  C   UNL A   1      29.045  30.391  23.033  1.00  0.00     0.107 C 
ATOM     26  C   UNL A   1      28.666  31.784  23.501  1.00  0.00     0.044 C 
ATOM     27  C   UNL A   1      29.548  30.656  21.624  1.00  0.00     0.173 C 
ATOM     28  C   UNL A   1      28.282  32.510  22.229  1.00  0.00     0.161 C 
ATOM     29  O   UNL A   1      28.823  31.784  21.123  1.00  0.00    -0.381 OA
ENDBRANCH  14  25
ENDBRANCH   5   8
ENDBRANCH   3   4
ENDBRANCH   2   3
ENDBRANCH   1   2
BRANCH   1  30
ATOM     30  C   UNL A   1      36.354  22.332  25.339  1.00  0.00     0.002 C 
BRANCH  30  31
ATOM     31  C   UNL A   1      37.789  22.837  25.133  1.00  0.00     0.021 C 
BRANCH  31  32
ATOM     32  C   UNL A   1      38.194  23.787  26.224  1.00  0.00     0.116 C 
BRANCH  32  33
ATOM     33  N   UNL A   1      39.422  23.326  26.855  1.00  0.00    -0.352 N 
ATOM     34  C   UNL A   1      40.508  24.103  27.168  1.00  0.00     0.251 C 
ATOM     35  H   UNL A   1      39.478  22.369  27.079  1.00  0.00     0.163 HD
ATOM     36  O   UNL A   1      41.627  23.636  27.274  1.00  0.00    -0.269 OA
BRANCH  34  37
ATOM     37  C   UNL A   1      40.233  25.517  27.441  1.00  0.00     0.039 A 
ATOM     38  C   UNL A   1      40.401  26.514  26.479  1.00  0.00     0.014 A 
ATOM     39  C   UNL A   1      39.847  25.822  28.746  1.00  0.00     0.014 A 
ATOM     40  C   UNL A   1      40.252  27.837  26.874  1.00  0.00     0.010 A 
ATOM     41  C   UNL A   1      39.413  27.065  29.045  1.00  0.00     0.010 A 
ATOM     42  C   UNL A   1      39.804  28.075  28.174  1.00  0.00    -0.014 A 
BRANCH  42  43
ATOM     43  C   UNL A   1      39.950  29.317  28.895  1.00  0.00     0.031 A 
ATOM     44  C   UNL A   1      38.871  30.287  28.867  1.00  0.00     0.074 A 
ATOM     45  C   UNL A   1      40.959  29.286  29.798  1.00  0.00     0.049 A 
ATOM     46  N   UNL A   1      39.012  31.521  29.178  1.00  0.00    -0.248 NA
ATOM     47  C   UNL A   1      37.510  29.925  28.479  1.00  0.00     0.031 C 
ATOM     48  C   UNL A   1      41.225  30.080  30.982  1.00  0.00     0.029 A 
ATOM     49  N   UNL A   1      42.076  28.428  29.723  1.00  0.00    -0.354 N 
ATOM     50  C   UNL A   1      37.746  32.002  29.411  1.00  0.00     0.074 A 
ATOM     51  C   UNL A   1      36.850  31.037  28.815  1.00  0.00     0.031 C 
ATOM     52  C   UNL A   1      42.531  29.939  31.296  1.00  0.00     0.029 A 
ATOM     53  C   UNL A   1      43.155  29.168  30.226  1.00  0.00     0.049 A 
ATOM     54  H   UNL A   1      42.095  27.504  29.386  1.00  0.00     0.167 HD
ATOM     55  C   UNL A   1      37.604  33.046  30.278  1.00  0.00     0.037 A 
ATOM     56  C   UNL A   1      44.038  29.638  29.292  1.00  0.00     0.037 A 
ATOM     57  C   UNL A   1      38.916  33.450  30.804  1.00  0.00     0.049 A 
ATOM     58  C   UNL A   1      43.920  31.139  29.094  1.00  0.00     0.074 A 
ATOM     59  C   UNL A   1      39.603  33.183  31.979  1.00  0.00     0.029 A 
ATOM     60  N   UNL A   1      39.880  33.884  29.909  1.00  0.00    -0.354 N 
ATOM     61  N   UNL A   1      42.979  31.885  29.608  1.00  0.00    -0.248 NA
ATOM     62  C   UNL A   1      44.815  31.898  28.228  1.00  0.00     0.031 C 
ATOM     63  C   UNL A   1      40.996  33.422  31.749  1.00  0.00     0.029 A 
ATOM     64  C   UNL A   1      41.155  33.843  30.442  1.00  0.00     0.049 A 
ATOM     65  H   UNL A   1      39.679  34.188  28.995  1.00  0.00     0.167 HD
ATOM     66  C   UNL A   1      43.112  33.171  29.178  1.00  0.00     0.074 A 
ATOM     67  C   UNL A   1      44.256  33.120  28.279  1.00  0.00     0.031 C 
ATOM     68  C   UNL A   1      42.280  34.182  29.577  1.00  0.00     0.037 A 
BRANCH  55  69
ATOM     69  C   UNL A   1      36.275  33.457  30.862  1.00  0.00     0.064 A 
ATOM     70  C   UNL A   1      35.368  34.234  30.113  1.00  0.00     0.173 A 
ATOM     71  C   UNL A   1      35.843  33.132  32.164  1.00  0.00     0.173 A 
ATOM     72  F   UNL A   1      35.603  34.540  28.831  1.00  0.00    -0.203 F 
ATOM     73  C   UNL A   1      34.178  34.727  30.654  1.00  0.00     0.198 A 
ATOM     74  C   UNL A   1      34.678  33.670  32.723  1.00  0.00     0.198 A 
ATOM     75  F   UNL A   1      36.507  32.244  32.916  1.00  0.00    -0.203 F 
ATOM     76  F   UNL A   1      33.358  35.460  29.889  1.00  0.00    -0.200 F 
ATOM     77  C   UNL A   1      33.848  34.473  31.969  1.00  0.00     0.200 A 
ATOM     78  F   UNL A   1      34.362  33.396  33.998  1.00  0.00    -0.200 F 
ATOM     79  F   UNL A   1      32.723  34.975  32.495  1.00  0.00    -0.200 F 
ENDBRANCH  55  69
BRANCH  56  80
ATOM     80  C   UNL A   1      44.267  28.641  28.183  1.00  0.00     0.064 A 
ATOM     81  C   UNL A   1      44.794  27.368  28.508  1.00  0.00     0.173 A 
ATOM     82  C   UNL A   1      43.662  28.767  26.925  1.00  0.00     0.173 A 
ATOM     83  F   UNL A   1      45.376  27.167  29.703  1.00  0.00    -0.203 F 
ATOM     84  C   UNL A   1      44.629  26.265  27.668  1.00  0.00     0.198 A 
ATOM     85  C   UNL A   1      43.528  27.667  26.072  1.00  0.00     0.198 A 
ATOM     86  F   UNL A   1      43.114  29.930  26.545  1.00  0.00    -0.203 F 
ATOM     87  F   UNL A   1      45.032  25.051  28.070  1.00  0.00    -0.200 F 
ATOM     88  C   UNL A   1      43.987  26.415  26.452  1.00  0.00     0.200 A 
ATOM     89  F   UNL A   1      42.878  27.806  24.907  1.00  0.00    -0.200 F 
ATOM     90  F   UNL A   1      43.793  25.357  25.655  1.00  0.00    -0.200 F 
ENDBRANCH  56  80
BRANCH  68  91
ATOM     91  C   UNL A   1      42.477  35.613  29.153  1.00  0.00     0.064 A 
ATOM     92  C   UNL A   1      41.927  36.122  27.967  1.00  0.00     0.173 A 
ATOM     93  C   UNL A   1      43.314  36.499  29.869  1.00  0.00     0.173 A 
ATOM     94  F   UNL A   1      41.234  35.334  27.132  1.00  0.00    -0.203 F 
ATOM     95  C   UNL A   1      42.098  37.454  27.591  1.00  0.00     0.198 A 
ATOM     96  C   UNL A   1      43.544  37.806  29.451  1.00  0.00     0.198 A 
ATOM     97  F   UNL A   1      43.920  36.148  31.010  1.00  0.00    -0.203 F 
ATOM     98  F   UNL A   1      41.473  37.920  26.501  1.00  0.00    -0.200 F 
ATOM     99  C   UNL A   1      42.910  38.294  28.330  1.00  0.00     0.200 A 
ATOM    100  F   UNL A   1      44.376  38.588  30.154  1.00  0.00    -0.200 F 
ATOM    101  F   UNL A   1      43.086  39.569  27.960  1.00  0.00    -0.200 F 
ENDBRANCH  68  91
ENDBRANCH  42  43
ENDBRANCH  34  37
ENDBRANCH  32  33
ENDBRANCH  31  32
ENDBRANCH  30  31
ENDBRANCH   1  30
TORSDOF 16
ENDMDL
MODEL 2
REMARK VINA RESULT:     -13.8      1.625      2.527
REMARK SMILES Cc1cc(F)ccc1OC1(C(=O)NCCCCCCNC(=O)c2ccc(-c3c4nc(c(-c5c(F)c(F)c(F)c(F)c5F)c5ccc([nH]5)c(-c5c(F)c(F)c(F)c(F)c5F)c5nc(c(-c6c(F)c(F)c(F)c(F)c6F)c6ccc3[nH]6)C=C5)C=C4)cc2)CCN(C(=O)[C@H]2CCOC2)CC1
REMARK SMILES IDX 16 1 15 2 14 3 13 4 11 5 12 6 10 8 86 9 97 10 87 11 96 12
REMARK SMILES IDX 88 13 89 14 90 15 9 16 8 17 1 18 2 19 3 20 4 21 7 22 5 23
REMARK SMILES IDX 6 24 91 25 92 26 95 27 93 28 94 29 17 30 18 31 19 32 20 33
REMARK SMILES IDX 21 34 22 36 23 37 24 38 85 39 25 40 84 41 26 42 27 43 28 44
REMARK SMILES IDX 78 45 29 46 83 47 77 48 79 49 30 50 82 51 76 52 75 53 31 55
REMARK SMILES IDX 63 56 43 57 62 58 44 59 47 60 61 61 80 62 45 63 46 64 60 66
REMARK SMILES IDX 81 67 48 68 32 69 33 70 41 71 34 72 35 73 39 74 42 75 36 76
REMARK SMILES IDX 37 77 40 78 38 79 64 80 65 81 73 82 66 83 67 84 71 85 74 86
REMARK SMILES IDX 68 87 69 88 72 89 70 90 49 91 50 92 58 93 51 94 52 95 56 96
REMARK SMILES IDX 59 97 53 98 54 99 57 100 55 101
REMARK H PARENT 13 7 20 35 79 54 47 65
REMARK Flexibility Score: inf
ROOT
ATOM      1  C   UNL A   1      35.377  22.330  23.844  1.00  0.00     0.002 C 
ENDROOT
BRANCH   1   2
ATOM      2  C   UNL A   1      34.544  22.869  22.681  1.00  0.00     0.021 C 
BRANCH   2   3
ATOM      3  C   UNL A   1      34.008  24.267  22.951  1.00  0.00     0.116 C 
BRANCH   3   4
ATOM      4  N   UNL A   1      32.580  24.311  22.796  1.00  0.00    -0.353 N 
ATOM      5  C   UNL A   1      31.609  24.650  23.689  1.00  0.00     0.264 C 
ATOM      6  O   UNL A   1      30.454  24.575  23.256  1.00  0.00    -0.270 OA
ATOM      7  H   UNL A   1      32.251  24.057  21.904  1.00  0.00     0.163 HD
BRANCH   5   8
ATOM      8  C   UNL A   1      31.970  25.121  25.148  1.00  0.00     0.190 C 
ATOM      9  C   UNL A   1      33.459  25.444  25.181  1.00  0.00     0.080 C 
ATOM     10  C   UNL A   1      30.954  26.205  25.521  1.00  0.00     0.080 C 
ATOM     11  C   UNL A   1      33.857  26.887  25.466  1.00  0.00     0.124 C 
ATOM     12  C   UNL A   1      31.486  27.433  26.238  1.00  0.00     0.124 C 
ATOM     13  N   UNL A   1      32.848  27.848  25.916  1.00  0.00    -0.342 N 
ATOM     14  C   UNL A   1      33.343  29.132  26.177  1.00  0.00     0.228 C 
ATOM     15  O   UNL A   1      34.474  29.454  25.803  1.00  0.00    -0.274 OA
BRANCH   8  16
ATOM     16  O   UNL A   1      31.670  23.896  25.837  1.00  0.00    -0.477 OA
BRANCH  16  17
ATOM     17  C   UNL A   1      32.245  22.681  25.935  1.00  0.00     0.124 A 
ATOM     18  C   UNL A   1      34.051  22.886  27.788  1.00  0.00     0.048 C 
ATOM     19  C   UNL A   1      33.248  22.162  26.762  1.00  0.00    -0.006 A 
ATOM     20  C   UNL A   1      33.631  20.813  26.594  1.00  0.00     0.046 A 
ATOM     21  C   UNL A   1      33.040  20.003  25.637  1.00  0.00     0.123 A 
ATOM     22  C   UNL A   1      31.669  21.831  24.965  1.00  0.00     0.050 A 
ATOM     23  F   UNL A   1      33.437  18.731  25.511  1.00  0.00    -0.207 F 
ATOM     24  C   UNL A   1      32.058  20.504  24.810  1.00  0.00     0.043 A 
ENDBRANCH  16  17
ENDBRANCH   8  16
BRANCH  14  25
ATOM     25  C   UNL A   1      32.498  30.094  27.003  1.00  0.00     0.107 C 
ATOM     26  C   UNL A   1      33.339  31.213  27.587  1.00  0.00     0.044 C 
ATOM     27  C   UNL A   1      31.506  30.859  26.143  1.00  0.00     0.173 C 
ATOM     28  C   UNL A   1      32.394  32.395  27.645  1.00  0.00     0.161 C 
ATOM     29  O   UNL A   1      31.296  32.129  26.770  1.00  0.00    -0.381 OA
ENDBRANCH  14  25
ENDBRANCH   5   8
ENDBRANCH   3   4
ENDBRANCH   2   3
ENDBRANCH   1   2
BRANCH   1  30
ATOM     30  C   UNL A   1      36.410  23.331  24.386  1.00  0.00     0.002 C 
BRANCH  30  31
ATOM     31  C   UNL A   1      37.255  22.821  25.563  1.00  0.00     0.021 C 
BRANCH  31  32
ATOM     32  C   UNL A   1      37.929  23.956  26.280  1.00  0.00     0.116 C 
BRANCH  32  33
ATOM     33  N   UNL A   1      38.962  23.440  27.167  1.00  0.00    -0.352 N 
ATOM     34  C   UNL A   1      40.024  24.151  27.665  1.00  0.00     0.251 C 
ATOM     35  H   UNL A   1      38.891  22.496  27.435  1.00  0.00     0.163 HD
ATOM     36  O   UNL A   1      41.055  23.608  28.018  1.00  0.00    -0.269 OA
BRANCH  34  37
ATOM     37  C   UNL A   1      39.820  25.594  27.821  1.00  0.00     0.039 A 
ATOM     38  C   UNL A   1      40.233  26.518  26.859  1.00  0.00     0.014 A 
ATOM     39  C   UNL A   1      39.238  26.002  29.020  1.00  0.00     0.014 A 
ATOM     40  C   UNL A   1      40.124  27.869  27.161  1.00  0.00     0.010 A 
ATOM     41  C   UNL A   1      38.859  27.288  29.181  1.00  0.00     0.010 A 
ATOM     42  C   UNL A   1      39.476  28.215  28.348  1.00  0.00    -0.014 A 
BRANCH  42  43
ATOM     43  C   UNL A   1      39.593  29.484  29.027  1.00  0.00     0.031 A 
ATOM     44  C   UNL A   1      38.596  30.511  28.790  1.00  0.00     0.074 A 
ATOM     45  C   UNL A   1      40.451  29.444  30.074  1.00  0.00     0.049 A 
ATOM     46  N   UNL A   1      38.770  31.750  29.063  1.00  0.00    -0.248 NA
ATOM     47  C   UNL A   1      37.289  30.208  28.214  1.00  0.00     0.031 C 
ATOM     48  C   UNL A   1      40.586  30.284  31.248  1.00  0.00     0.029 A 
ATOM     49  N   UNL A   1      41.507  28.520  30.210  1.00  0.00    -0.354 N 
ATOM     50  C   UNL A   1      37.516  32.316  29.077  1.00  0.00     0.074 A 
ATOM     51  C   UNL A   1      36.659  31.374  28.394  1.00  0.00     0.031 C 
ATOM     52  C   UNL A   1      41.819  30.085  31.764  1.00  0.00     0.029 A 
ATOM     53  C   UNL A   1      42.545  29.222  30.839  1.00  0.00     0.049 A 
ATOM     54  H   UNL A   1      41.516  27.579  29.922  1.00  0.00     0.167 HD
ATOM     55  C   UNL A   1      37.315  33.412  29.864  1.00  0.00     0.037 A 
ATOM     56  C   UNL A   1      43.587  29.588  30.031  1.00  0.00     0.037 A 
ATOM     57  C   UNL A   1      38.556  33.767  30.567  1.00  0.00     0.049 A 
ATOM     58  C   UNL A   1      43.598  31.081  29.750  1.00  0.00     0.074 A 
ATOM     59  C   UNL A   1      39.040  33.525  31.844  1.00  0.00     0.029 A 
ATOM     60  N   UNL A   1      39.670  34.096  29.811  1.00  0.00    -0.354 N 
ATOM     61  N   UNL A   1      42.642  31.907  30.080  1.00  0.00    -0.248 NA
ATOM     62  C   UNL A   1      44.661  31.739  28.999  1.00  0.00     0.031 C 
ATOM     63  C   UNL A   1      40.464  33.670  31.820  1.00  0.00     0.029 A 
ATOM     64  C   UNL A   1      40.845  34.010  30.534  1.00  0.00     0.049 A 
ATOM     65  H   UNL A   1      39.629  34.361  28.864  1.00  0.00     0.167 HD
ATOM     66  C   UNL A   1      42.922  33.158  29.617  1.00  0.00     0.074 A 
ATOM     67  C   UNL A   1      44.182  32.992  28.909  1.00  0.00     0.031 C 
ATOM     68  C   UNL A   1      42.107  34.236  29.839  1.00  0.00     0.037 A 
BRANCH  55  69
ATOM     69  C   UNL A   1      35.943  33.931  30.218  1.00  0.00     0.064 A 
ATOM     70  C   UNL A   1      35.099  34.472  29.227  1.00  0.00     0.173 A 
ATOM     71  C   UNL A   1      35.407  33.939  31.522  1.00  0.00     0.173 A 
ATOM     72  F   UNL A   1      35.437  34.446  27.932  1.00  0.00    -0.203 F 
ATOM     73  C   UNL A   1      33.870  35.061  29.529  1.00  0.00     0.198 A 
ATOM     74  C   UNL A   1      34.200  34.577  31.832  1.00  0.00     0.198 A 
ATOM     75  F   UNL A   1      36.008  33.286  32.526  1.00  0.00    -0.203 F 
ATOM     76  F   UNL A   1      33.113  35.558  28.541  1.00  0.00    -0.200 F 
ATOM     77  C   UNL A   1      33.434  35.144  30.836  1.00  0.00     0.200 A 
ATOM     78  F   UNL A   1      33.783  34.630  33.106  1.00  0.00    -0.200 F 
ATOM     79  F   UNL A   1      32.270  35.739  31.126  1.00  0.00    -0.200 F 
ENDBRANCH  55  69
BRANCH  56  80
ATOM     80  C   UNL A   1      43.914  28.521  29.017  1.00  0.00     0.064 A 
ATOM     81  C   UNL A   1      43.490  28.699  27.678  1.00  0.00     0.173 A 
ATOM     82  C   UNL A   1      44.907  27.557  29.238  1.00  0.00     0.173 A 
ATOM     83  F   UNL A   1      42.552  29.617  27.387  1.00  0.00    -0.203 F 
ATOM     84  C   UNL A   1      44.100  28.029  26.616  1.00  0.00     0.198 A 
ATOM     85  C   UNL A   1      45.493  26.863  28.173  1.00  0.00     0.198 A 
ATOM     86  F   UNL A   1      45.386  27.340  30.470  1.00  0.00    -0.203 F 
ATOM     87  F   UNL A   1      43.753  28.320  25.353  1.00  0.00    -0.200 F 
ATOM     88  C   UNL A   1      45.108  27.115  26.865  1.00  0.00     0.200 A 
ATOM     89  F   UNL A   1      46.492  26.001  28.413  1.00  0.00    -0.200 F 
ATOM     90  F   UNL A   1      45.722  26.493  25.851  1.00  0.00    -0.200 F 
ENDBRANCH  56  80
BRANCH  68  91
ATOM     91  C   UNL A   1      42.459  35.628  29.386  1.00  0.00     0.064 A 
ATOM     92  C   UNL A   1      43.219  36.501  30.179  1.00  0.00     0.173 A 
ATOM     93  C   UNL A   1      41.960  36.174  28.182  1.00  0.00     0.173 A 
ATOM     94  F   UNL A   1      43.627  36.143  31.405  1.00  0.00    -0.203 F 
ATOM     95  C   UNL A   1      43.557  37.781  29.744  1.00  0.00     0.198 A 
ATOM     96  C   UNL A   1      42.236  37.478  27.785  1.00  0.00     0.198 A 
ATOM     97  F   UNL A   1      41.207  35.464  27.331  1.00  0.00    -0.203 F 
ATOM     98  F   UNL A   1      44.366  38.543  30.493  1.00  0.00    -0.200 F 
ATOM     99  C   UNL A   1      43.063  38.271  28.550  1.00  0.00     0.200 A 
ATOM    100  F   UNL A   1      41.704  37.951  26.649  1.00  0.00    -0.200 F 
ATOM    101  F   UNL A   1      43.376  39.507  28.139  1.00  0.00    -0.200 F 
ENDBRANCH  68  91
ENDBRANCH  42  43
ENDBRANCH  34  37
ENDBRANCH  32  33
ENDBRANCH  31  32
ENDBRANCH  30  31
ENDBRANCH   1  30
TORSDOF 16
ENDMDL
MODEL 3
REMARK VINA RESULT:     -13.7      3.833      9.949
REMARK SMILES Cc1cc(F)ccc1OC1(C(=O)NCCCCCCNC(=O)c2ccc(-c3c4nc(c(-c5c(F)c(F)c(F)c(F)c5F)c5ccc([nH]5)c(-c5c(F)c(F)c(F)c(F)c5F)c5nc(c(-c6c(F)c(F)c(F)c(F)c6F)c6ccc3[nH]6)C=C5)C=C4)cc2)CCN(C(=O)[C@H]2CCOC2)CC1
REMARK SMILES IDX 16 1 15 2 14 3 13 4 11 5 12 6 10 8 86 9 97 10 87 11 96 12
REMARK SMILES IDX 88 13 89 14 90 15 9 16 8 17 1 18 2 19 3 20 4 21 7 22 5 23
REMARK SMILES IDX 6 24 91 25 92 26 95 27 93 28 94 29 17 30 18 31 19 32 20 33
REMARK SMILES IDX 21 34 22 36 23 37 24 38 85 39 25 40 84 41 26 42 27 43 28 44
REMARK SMILES IDX 78 45 29 46 83 47 77 48 79 49 30 50 82 51 76 52 75 53 31 55
REMARK SMILES IDX 63 56 43 57 62 58 44 59 47 60 61 61 80 62 45 63 46 64 60 66
REMARK SMILES IDX 81 67 48 68 32 69 33 70 41 71 34 72 35 73 39 74 42 75 36 76
REMARK SMILES IDX 37 77 40 78 38 79 64 80 65 81 73 82 66 83 67 84 71 85 74 86
REMARK SMILES IDX 68 87 69 88 72 89 70 90 49 91 50 92 58 93 51 94 52 95 56 96
REMARK SMILES IDX 59 97 53 98 54 99 57 100 55 101
REMARK H PARENT 13 7 20 35 79 54 47 65
REMARK Flexibility Score: inf
ROOT
ATOM      1  C   UNL A   1      34.835  31.705  28.795  1.00  0.00     0.002 C 
ENDROOT
BRANCH   1   2
ATOM      2  C   UNL A   1      34.976  30.524  27.837  1.00  0.00     0.021 C 
BRANCH   2   3
ATOM      3  C   UNL A   1      33.757  30.353  26.943  1.00  0.00     0.116 C 
BRANCH   3   4
ATOM      4  N   UNL A   1      32.709  29.648  27.628  1.00  0.00    -0.353 N 
ATOM      5  C   UNL A   1      31.967  28.576  27.234  1.00  0.00     0.264 C 
ATOM      6  O   UNL A   1      31.119  28.201  28.051  1.00  0.00    -0.270 OA
ATOM      7  H   UNL A   1      32.493  29.994  28.524  1.00  0.00     0.163 HD
BRANCH   5   8
ATOM      8  C   UNL A   1      32.215  27.879  25.844  1.00  0.00     0.190 C 
ATOM      9  C   UNL A   1      33.686  27.487  25.772  1.00  0.00     0.080 C 
ATOM     10  C   UNL A   1      31.138  26.799  25.700  1.00  0.00     0.080 C 
ATOM     11  C   UNL A   1      34.012  26.000  25.685  1.00  0.00     0.124 C 
ATOM     12  C   UNL A   1      31.577  25.455  25.145  1.00  0.00     0.124 C 
ATOM     13  N   UNL A   1      32.941  25.030  25.446  1.00  0.00    -0.342 N 
ATOM     14  C   UNL A   1      33.372  23.700  25.353  1.00  0.00     0.228 C 
ATOM     15  O   UNL A   1      34.512  23.387  25.704  1.00  0.00    -0.274 OA
BRANCH   8  16
ATOM     16  O   UNL A   1      31.915  29.000  24.996  1.00  0.00    -0.477 OA
BRANCH  16  17
ATOM     17  C   UNL A   1      30.936  29.313  24.125  1.00  0.00     0.124 A 
ATOM     18  C   UNL A   1      31.045  27.525  22.248  1.00  0.00     0.048 C 
ATOM     19  C   UNL A   1      30.482  28.717  22.944  1.00  0.00    -0.006 A 
ATOM     20  C   UNL A   1      29.410  29.321  22.250  1.00  0.00     0.046 A 
ATOM     21  C   UNL A   1      28.806  30.480  22.712  1.00  0.00     0.123 A 
ATOM     22  C   UNL A   1      30.304  30.498  24.565  1.00  0.00     0.050 A 
ATOM     23  F   UNL A   1      27.795  31.019  22.021  1.00  0.00    -0.207 F 
ATOM     24  C   UNL A   1      29.249  31.083  23.870  1.00  0.00     0.043 A 
ENDBRANCH  16  17
ENDBRANCH   8  16
BRANCH  14  25
ATOM     25  C   UNL A   1      32.440  22.666  24.733  1.00  0.00     0.107 C 
ATOM     26  C   UNL A   1      33.152  21.834  23.684  1.00  0.00     0.044 C 
ATOM     27  C   UNL A   1      32.014  21.610  25.739  1.00  0.00     0.173 C 
ATOM     28  C   UNL A   1      32.473  20.482  23.759  1.00  0.00     0.161 C 
ATOM     29  O   UNL A   1      31.787  20.400  25.009  1.00  0.00    -0.381 OA
ENDBRANCH  14  25
ENDBRANCH   5   8
ENDBRANCH   3   4
ENDBRANCH   2   3
ENDBRANCH   1   2
BRANCH   1  30
ATOM     30  C   UNL A   1      34.925  33.078  28.109  1.00  0.00     0.002 C 
BRANCH  30  31
ATOM     31  C   UNL A   1      34.368  34.253  28.927  1.00  0.00     0.021 C 
BRANCH  31  32
ATOM     32  C   UNL A   1      34.146  33.861  30.360  1.00  0.00     0.116 C 
BRANCH  32  33
ATOM     33  N   UNL A   1      34.747  34.851  31.244  1.00  0.00    -0.352 N 
ATOM     34  C   UNL A   1      35.661  34.596  32.234  1.00  0.00     0.251 C 
ATOM     35  H   UNL A   1      34.471  35.788  31.120  1.00  0.00     0.163 HD
ATOM     36  O   UNL A   1      35.795  35.333  33.194  1.00  0.00    -0.269 OA
BRANCH  34  37
ATOM     37  C   UNL A   1      36.523  33.427  32.032  1.00  0.00     0.039 A 
ATOM     38  C   UNL A   1      36.375  32.250  32.769  1.00  0.00     0.014 A 
ATOM     39  C   UNL A   1      37.546  33.577  31.097  1.00  0.00     0.014 A 
ATOM     40  C   UNL A   1      37.327  31.253  32.605  1.00  0.00     0.010 A 
ATOM     41  C   UNL A   1      38.279  32.507  30.725  1.00  0.00     0.010 A 
ATOM     42  C   UNL A   1      38.289  31.435  31.611  1.00  0.00    -0.014 A 
BRANCH  42  43
ATOM     43  C   UNL A   1      39.554  30.744  31.533  1.00  0.00     0.031 A 
ATOM     44  C   UNL A   1      39.646  29.514  30.769  1.00  0.00     0.074 A 
ATOM     45  C   UNL A   1      40.599  31.516  31.915  1.00  0.00     0.049 A 
ATOM     46  N   UNL A   1      40.595  28.664  30.898  1.00  0.00    -0.248 NA
ATOM     47  C   UNL A   1      38.649  29.142  29.770  1.00  0.00     0.031 C 
ATOM     48  C   UNL A   1      42.020  31.429  31.638  1.00  0.00     0.029 A 
ATOM     49  N   UNL A   1      40.502  32.626  32.780  1.00  0.00    -0.354 N 
ATOM     50  C   UNL A   1      40.553  27.874  29.774  1.00  0.00     0.074 A 
ATOM     51  C   UNL A   1      39.250  28.098  29.191  1.00  0.00     0.031 C 
ATOM     52  C   UNL A   1      42.672  32.169  32.560  1.00  0.00     0.029 A 
ATOM     53  C   UNL A   1      41.683  32.622  33.534  1.00  0.00     0.049 A 
ATOM     54  H   UNL A   1      39.759  33.269  32.842  1.00  0.00     0.167 HD
ATOM     55  C   UNL A   1      41.715  27.297  29.351  1.00  0.00     0.037 A 
ATOM     56  C   UNL A   1      41.559  32.192  34.827  1.00  0.00     0.037 A 
ATOM     57  C   UNL A   1      42.822  27.671  30.243  1.00  0.00     0.049 A 
ATOM     58  C   UNL A   1      42.168  30.816  35.037  1.00  0.00     0.074 A 
ATOM     59  C   UNL A   1      43.826  28.625  30.180  1.00  0.00     0.029 A 
ATOM     60  N   UNL A   1      42.738  27.317  31.580  1.00  0.00    -0.354 N 
ATOM     61  N   UNL A   1      42.603  30.043  34.079  1.00  0.00    -0.248 NA
ATOM     62  C   UNL A   1      42.255  30.178  36.345  1.00  0.00     0.031 C 
ATOM     63  C   UNL A   1      44.303  28.864  31.509  1.00  0.00     0.029 A 
ATOM     64  C   UNL A   1      43.598  28.050  32.377  1.00  0.00     0.049 A 
ATOM     65  H   UNL A   1      42.134  26.621  31.924  1.00  0.00     0.167 HD
ATOM     66  C   UNL A   1      43.016  28.849  34.591  1.00  0.00     0.074 A 
ATOM     67  C   UNL A   1      42.738  28.968  36.015  1.00  0.00     0.031 C 
ATOM     68  C   UNL A   1      43.547  27.849  33.821  1.00  0.00     0.037 A 
BRANCH  55  69
ATOM     69  C   UNL A   1      41.879  26.682  27.982  1.00  0.00     0.064 A 
ATOM     70  C   UNL A   1      41.640  25.308  27.776  1.00  0.00     0.173 A 
ATOM     71  C   UNL A   1      42.287  27.391  26.834  1.00  0.00     0.173 A 
ATOM     72  F   UNL A   1      41.159  24.529  28.753  1.00  0.00    -0.203 F 
ATOM     73  C   UNL A   1      41.885  24.679  26.554  1.00  0.00     0.198 A 
ATOM     74  C   UNL A   1      42.584  26.752  25.625  1.00  0.00     0.198 A 
ATOM     75  F   UNL A   1      42.361  28.729  26.832  1.00  0.00    -0.203 F 
ATOM     76  F   UNL A   1      41.638  23.369  26.422  1.00  0.00    -0.200 F 
ATOM     77  C   UNL A   1      42.389  25.394  25.487  1.00  0.00     0.200 A 
ATOM     78  F   UNL A   1      43.053  27.467  24.591  1.00  0.00    -0.200 F 
ATOM     79  F   UNL A   1      42.655  24.782  24.325  1.00  0.00    -0.200 F 
ENDBRANCH  55  69
BRANCH  56  80
ATOM     80  C   UNL A   1      40.273  32.666  35.456  1.00  0.00     0.064 A 
ATOM     81  C   UNL A   1      39.260  31.718  35.735  1.00  0.00     0.173 A 
ATOM     82  C   UNL A   1      40.166  33.907  36.099  1.00  0.00     0.173 A 
ATOM     83  F   UNL A   1      39.304  30.501  35.167  1.00  0.00    -0.203 F 
ATOM     84  C   UNL A   1      38.264  31.960  36.683  1.00  0.00     0.198 A 
ATOM     85  C   UNL A   1      39.146  34.158  37.024  1.00  0.00     0.198 A 
ATOM     86  F   UNL A   1      41.094  34.855  35.913  1.00  0.00    -0.203 F 
ATOM     87  F   UNL A   1      37.399  30.988  37.009  1.00  0.00    -0.200 F 
ATOM     88  C   UNL A   1      38.213  33.180  37.333  1.00  0.00     0.200 A 
ATOM     89  F   UNL A   1      39.116  35.329  37.677  1.00  0.00    -0.200 F 
ATOM     90  F   UNL A   1      37.282  33.409  38.268  1.00  0.00    -0.200 F 
ENDBRANCH  56  80
BRANCH  68  91
ATOM     91  C   UNL A   1      44.065  26.562  34.404  1.00  0.00     0.064 A 
ATOM     92  C   UNL A   1      45.438  26.289  34.508  1.00  0.00     0.173 A 
ATOM     93  C   UNL A   1      43.202  25.510  34.786  1.00  0.00     0.173 A 
ATOM     94  F   UNL A   1      46.352  27.154  34.045  1.00  0.00    -0.203 F 
ATOM     95  C   UNL A   1      45.910  25.103  35.068  1.00  0.00     0.198 A 
ATOM     96  C   UNL A   1      43.678  24.297  35.273  1.00  0.00     0.198 A 
ATOM     97  F   UNL A   1      41.869  25.620  34.726  1.00  0.00    -0.203 F 
ATOM     98  F   UNL A   1      47.228  24.929  35.236  1.00  0.00    -0.200 F 
ATOM     99  C   UNL A   1      45.030  24.106  35.446  1.00  0.00     0.200 A 
ATOM    100  F   UNL A   1      42.810  23.324  35.585  1.00  0.00    -0.200 F 
ATOM    101  F   UNL A   1      45.485  22.960  35.970  1.00  0.00    -0.200 F 
ENDBRANCH  68  91
ENDBRANCH  42  43
ENDBRANCH  34  37
ENDBRANCH  32  33
ENDBRANCH  31  32
ENDBRANCH  30  31
ENDBRANCH   1  30
TORSDOF 16
ENDMDL
