MODEL 1
REMARK VINA RESULT:     -11.2      0.000      0.000
REMARK SMILES CCCOc1cncc(N[C@@](C)(C(=O)NCCCCCCNC(=O)c2ccc(-c3c4nc(c(-c5c(F)c(F)c(F)c(F)c5F)c5ccc([nH]5)c(-c5c(F)c(F)c(F)c(F)c5F)c5nc(c(-c6c(F)c(F)c(F)c(F)c6F)c6ccc3[nH]6)C=C5)C=C4)cc2)C(F)(F)F)n1
REMARK SMILES IDX 17 1 16 2 15 3 13 4 14 5 11 7 12 8 10 9 9 11 5 12 6 13 92 14
REMARK SMILES IDX 7 15 8 16 4 17 3 18 2 19 1 20 88 21 89 22 90 23 91 24 18 25
REMARK SMILES IDX 19 26 20 27 21 28 22 29 23 30 24 32 25 33 26 34 87 35 27 36
REMARK SMILES IDX 86 37 28 38 29 39 30 40 80 41 31 42 85 43 79 44 81 45 32 46
REMARK SMILES IDX 84 47 78 48 77 49 33 51 65 52 45 53 64 54 46 55 49 56 63 57
REMARK SMILES IDX 82 58 47 59 48 60 62 62 83 63 50 64 34 65 35 66 43 67 36 68
REMARK SMILES IDX 37 69 41 70 44 71 38 72 39 73 42 74 40 75 66 76 67 77 75 78
REMARK SMILES IDX 68 79 69 80 73 81 76 82 70 83 71 84 74 85 72 86 51 87 52 88
REMARK SMILES IDX 60 89 53 90 54 91 58 92 61 93 55 94 56 95 59 96 57 97
REMARK H PARENT 15 6 10 10 22 31 81 50 49 61
REMARK Flexibility Score: inf
ROOT
ATOM      1  C   UNL A   1      31.711  28.327  27.288  1.00  0.00     0.021 C 
ENDROOT
BRANCH   1   2
ATOM      2  C   UNL A   1      31.994  27.065  26.476  1.00  0.00     0.116 C 
BRANCH   2   3
ATOM      3  N   UNL A   1      31.048  26.013  26.790  1.00  0.00    -0.354 N 
ATOM      4  C   UNL A   1      30.993  24.685  26.490  1.00  0.00     0.254 C 
ATOM      5  O   UNL A   1      29.939  24.134  26.824  1.00  0.00    -0.272 OA
ATOM      6  H   UNL A   1      30.287  26.323  27.334  1.00  0.00     0.163 HD
BRANCH   4   7
ATOM      7  C   UNL A   1      32.127  23.943  25.733  1.00  0.00     0.211 C 
ATOM      8  C   UNL A   1      33.500  24.579  26.025  1.00  0.00     0.055 C 
BRANCH   7   9
ATOM      9  N   UNL A   1      31.814  24.018  24.268  1.00  0.00    -0.347 N 
ATOM     10  H   UNL A   1      31.259  23.270  23.949  1.00  0.00     0.163 HD
BRANCH   9  11
ATOM     11  C   UNL A   1      32.142  24.910  23.286  1.00  0.00     0.149 A 
ATOM     12  C   UNL A   1      31.552  26.849  22.179  1.00  0.00     0.234 A 
ATOM     13  C   UNL A   1      32.762  26.869  21.511  1.00  0.00     0.179 A 
ATOM     14  N   UNL A   1      31.234  25.899  23.097  1.00  0.00    -0.193 NA
ATOM     15  N   UNL A   1      33.646  25.866  21.616  1.00  0.00    -0.255 NA
ATOM     16  C   UNL A   1      33.290  24.892  22.493  1.00  0.00     0.158 A 
BRANCH  12  17
ATOM     17  O   UNL A   1      30.653  27.863  21.953  1.00  0.00    -0.477 OA
BRANCH  17  18
ATOM     18  C   UNL A   1      29.687  27.971  23.016  1.00  0.00     0.231 C 
BRANCH  18  19
ATOM     19  C   UNL A   1      29.084  29.377  23.164  1.00  0.00     0.038 C 
ATOM     20  C   UNL A   1      28.283  29.812  21.941  1.00  0.00     0.007 C 
ENDBRANCH  18  19
ENDBRANCH  17  18
ENDBRANCH  12  17
ENDBRANCH   9  11
ENDBRANCH   7   9
BRANCH   7  21
ATOM     21  C   UNL A   1      32.152  22.537  26.392  1.00  0.00     0.420 C 
ATOM     22  F   UNL A   1      32.132  22.581  27.741  1.00  0.00    -0.168 F 
ATOM     23  F   UNL A   1      31.069  21.806  26.006  1.00  0.00    -0.168 F 
ATOM     24  F   UNL A   1      33.214  21.789  26.002  1.00  0.00    -0.168 F 
ENDBRANCH   7  21
ENDBRANCH   4   7
ENDBRANCH   2   3
ENDBRANCH   1   2
BRANCH   1  25
ATOM     25  C   UNL A   1      32.357  29.608  26.747  1.00  0.00     0.002 C 
BRANCH  25  26
ATOM     26  C   UNL A   1      31.435  30.517  25.930  1.00  0.00     0.002 C 
BRANCH  26  27
ATOM     27  C   UNL A   1      31.331  31.958  26.430  1.00  0.00     0.021 C 
BRANCH  27  28
ATOM     28  C   UNL A   1      32.590  32.495  27.098  1.00  0.00     0.116 C 
BRANCH  28  29
ATOM     29  N   UNL A   1      32.447  33.879  27.519  1.00  0.00    -0.352 N 
ATOM     30  C   UNL A   1      33.127  34.558  28.497  1.00  0.00     0.251 C 
ATOM     31  H   UNL A   1      31.766  34.401  27.036  1.00  0.00     0.163 HD
ATOM     32  O   UNL A   1      32.757  35.679  28.845  1.00  0.00    -0.269 OA
BRANCH  30  33
ATOM     33  C   UNL A   1      34.296  33.935  29.151  1.00  0.00     0.039 A 
ATOM     34  C   UNL A   1      34.083  32.979  30.147  1.00  0.00     0.014 A 
ATOM     35  C   UNL A   1      35.598  34.293  28.787  1.00  0.00     0.014 A 
ATOM     36  C   UNL A   1      35.175  32.348  30.744  1.00  0.00     0.010 A 
ATOM     37  C   UNL A   1      36.681  33.602  29.324  1.00  0.00     0.010 A 
ATOM     38  C   UNL A   1      36.482  32.632  30.318  1.00  0.00    -0.014 A 
BRANCH  38  39
ATOM     39  C   UNL A   1      37.653  31.945  30.919  1.00  0.00     0.031 A 
ATOM     40  C   UNL A   1      38.115  32.317  32.303  1.00  0.00     0.074 A 
ATOM     41  C   UNL A   1      38.327  31.022  30.207  1.00  0.00     0.049 A 
ATOM     42  N   UNL A   1      39.143  31.873  32.982  1.00  0.00    -0.248 NA
ATOM     43  C   UNL A   1      37.331  33.343  33.008  1.00  0.00     0.031 C 
ATOM     44  C   UNL A   1      38.002  30.603  28.842  1.00  0.00     0.029 A 
ATOM     45  N   UNL A   1      39.430  30.271  30.531  1.00  0.00    -0.354 N 
ATOM     46  C   UNL A   1      39.130  32.568  34.184  1.00  0.00     0.074 A 
ATOM     47  C   UNL A   1      38.036  33.511  34.116  1.00  0.00     0.031 C 
ATOM     48  C   UNL A   1      38.867  29.651  28.458  1.00  0.00     0.029 A 
ATOM     49  C   UNL A   1      39.833  29.422  29.528  1.00  0.00     0.049 A 
ATOM     50  H   UNL A   1      39.889  30.336  31.399  1.00  0.00     0.167 HD
ATOM     51  C   UNL A   1      39.937  32.412  35.261  1.00  0.00     0.037 A 
ATOM     52  C   UNL A   1      40.866  28.562  29.479  1.00  0.00     0.037 A 
ATOM     53  C   UNL A   1      41.017  31.463  35.329  1.00  0.00     0.049 A 
ATOM     54  C   UNL A   1      41.769  28.432  30.678  1.00  0.00     0.074 A 
ATOM     55  C   UNL A   1      41.875  31.205  36.385  1.00  0.00     0.029 A 
ATOM     56  N   UNL A   1      41.390  30.616  34.296  1.00  0.00    -0.354 N 
ATOM     57  N   UNL A   1      41.710  29.051  31.832  1.00  0.00    -0.248 NA
ATOM     58  C   UNL A   1      42.878  27.473  30.569  1.00  0.00     0.031 C 
ATOM     59  C   UNL A   1      42.797  30.238  35.972  1.00  0.00     0.029 A 
ATOM     60  C   UNL A   1      42.476  29.846  34.683  1.00  0.00     0.049 A 
ATOM     61  H   UNL A   1      40.948  30.567  33.418  1.00  0.00     0.167 HD
ATOM     62  C   UNL A   1      42.743  28.529  32.600  1.00  0.00     0.074 A 
ATOM     63  C   UNL A   1      43.405  27.532  31.784  1.00  0.00     0.031 C 
ATOM     64  C   UNL A   1      43.110  28.843  33.866  1.00  0.00     0.037 A 
BRANCH  51  65
ATOM     65  C   UNL A   1      39.677  33.287  36.455  1.00  0.00     0.064 A 
ATOM     66  C   UNL A   1      38.756  32.919  37.448  1.00  0.00     0.173 A 
ATOM     67  C   UNL A   1      40.379  34.489  36.628  1.00  0.00     0.173 A 
ATOM     68  F   UNL A   1      38.049  31.785  37.328  1.00  0.00    -0.203 F 
ATOM     69  C   UNL A   1      38.523  33.738  38.551  1.00  0.00     0.198 A 
ATOM     70  C   UNL A   1      40.170  35.288  37.749  1.00  0.00     0.198 A 
ATOM     71  F   UNL A   1      41.276  34.887  35.712  1.00  0.00    -0.203 F 
ATOM     72  F   UNL A   1      37.597  33.393  39.456  1.00  0.00    -0.200 F 
ATOM     73  C   UNL A   1      39.236  34.918  38.704  1.00  0.00     0.200 A 
ATOM     74  F   UNL A   1      40.871  36.420  37.903  1.00  0.00    -0.200 F 
ATOM     75  F   UNL A   1      39.017  35.700  39.769  1.00  0.00    -0.200 F 
ENDBRANCH  51  65
BRANCH  52  76
ATOM     76  C   UNL A   1      41.096  27.733  28.265  1.00  0.00     0.064 A 
ATOM     77  C   UNL A   1      40.544  26.448  28.154  1.00  0.00     0.173 A 
ATOM     78  C   UNL A   1      41.895  28.191  27.207  1.00  0.00     0.173 A 
ATOM     79  F   UNL A   1      39.789  25.956  29.147  1.00  0.00    -0.203 F 
ATOM     80  C   UNL A   1      40.809  25.643  27.049  1.00  0.00     0.198 A 
ATOM     81  C   UNL A   1      42.131  27.397  26.086  1.00  0.00     0.198 A 
ATOM     82  F   UNL A   1      42.443  29.414  27.258  1.00  0.00    -0.203 F 
ATOM     83  F   UNL A   1      40.319  24.397  26.999  1.00  0.00    -0.200 F 
ATOM     84  C   UNL A   1      41.599  26.119  26.014  1.00  0.00     0.200 A 
ATOM     85  F   UNL A   1      42.882  27.868  25.081  1.00  0.00    -0.200 F 
ATOM     86  F   UNL A   1      41.856  25.342  24.953  1.00  0.00    -0.200 F 
ENDBRANCH  52  76
BRANCH  64  87
ATOM     87  C   UNL A   1      44.241  28.060  34.472  1.00  0.00     0.064 A 
ATOM     88  C   UNL A   1      44.031  26.845  35.140  1.00  0.00     0.173 A 
ATOM     89  C   UNL A   1      45.561  28.524  34.355  1.00  0.00     0.173 A 
ATOM     90  F   UNL A   1      42.788  26.364  35.292  1.00  0.00    -0.203 F 
ATOM     91  C   UNL A   1      45.095  26.142  35.699  1.00  0.00     0.198 A 
ATOM     92  C   UNL A   1      46.626  27.800  34.882  1.00  0.00     0.198 A 
ATOM     93  F   UNL A   1      45.820  29.677  33.718  1.00  0.00    -0.203 F 
ATOM     94  F   UNL A   1      44.864  25.013  36.384  1.00  0.00    -0.200 F 
ATOM     95  C   UNL A   1      46.392  26.615  35.563  1.00  0.00     0.200 A 
ATOM     96  F   UNL A   1      47.880  28.251  34.734  1.00  0.00    -0.200 F 
ATOM     97  F   UNL A   1      47.415  25.933  36.096  1.00  0.00    -0.200 F 
ENDBRANCH  64  87
ENDBRANCH  38  39
ENDBRANCH  30  33
ENDBRANCH  28  29
ENDBRANCH  27  28
ENDBRANCH  26  27
ENDBRANCH  25  26
ENDBRANCH   1  25
TORSDOF 19
ENDMDL
MODEL 2
REMARK VINA RESULT:     -11.2      5.123      9.066
REMARK SMILES CCCOc1cncc(N[C@@](C)(C(=O)NCCCCCCNC(=O)c2ccc(-c3c4nc(c(-c5c(F)c(F)c(F)c(F)c5F)c5ccc([nH]5)c(-c5c(F)c(F)c(F)c(F)c5F)c5nc(c(-c6c(F)c(F)c(F)c(F)c6F)c6ccc3[nH]6)C=C5)C=C4)cc2)C(F)(F)F)n1
REMARK SMILES IDX 17 1 16 2 15 3 13 4 14 5 11 7 12 8 10 9 9 11 5 12 6 13 92 14
REMARK SMILES IDX 7 15 8 16 4 17 3 18 2 19 1 20 88 21 89 22 90 23 91 24 18 25
REMARK SMILES IDX 19 26 20 27 21 28 22 29 23 30 24 32 25 33 26 34 87 35 27 36
REMARK SMILES IDX 86 37 28 38 29 39 30 40 80 41 31 42 85 43 79 44 81 45 32 46
REMARK SMILES IDX 84 47 78 48 77 49 33 51 65 52 45 53 64 54 46 55 49 56 63 57
REMARK SMILES IDX 82 58 47 59 48 60 62 62 83 63 50 64 34 65 35 66 43 67 36 68
REMARK SMILES IDX 37 69 41 70 44 71 38 72 39 73 42 74 40 75 66 76 67 77 75 78
REMARK SMILES IDX 68 79 69 80 73 81 76 82 70 83 71 84 74 85 72 86 51 87 52 88
REMARK SMILES IDX 60 89 53 90 54 91 58 92 61 93 55 94 56 95 59 96 57 97
REMARK H PARENT 15 6 10 10 22 31 81 50 49 61
REMARK Flexibility Score: inf
ROOT
ATOM      1  C   UNL A   1      35.122  21.843  26.238  1.00  0.00     0.021 C 
ENDROOT
BRANCH   1   2
ATOM      2  C   UNL A   1      34.792  23.317  26.454  1.00  0.00     0.116 C 
BRANCH   2   3
ATOM      3  N   UNL A   1      33.448  23.487  26.969  1.00  0.00    -0.354 N 
ATOM      4  C   UNL A   1      32.274  23.885  26.403  1.00  0.00     0.254 C 
ATOM      5  O   UNL A   1      31.351  24.040  27.209  1.00  0.00    -0.272 OA
ATOM      6  H   UNL A   1      33.366  23.269  27.926  1.00  0.00     0.163 HD
BRANCH   4   7
ATOM      7  C   UNL A   1      32.126  24.181  24.886  1.00  0.00     0.211 C 
ATOM      8  C   UNL A   1      33.437  24.733  24.295  1.00  0.00     0.055 C 
BRANCH   7   9
ATOM      9  N   UNL A   1      31.017  25.179  24.729  1.00  0.00    -0.347 N 
ATOM     10  H   UNL A   1      30.120  24.779  24.794  1.00  0.00     0.163 HD
BRANCH   9  11
ATOM     11  C   UNL A   1      30.998  26.528  24.514  1.00  0.00     0.149 A 
ATOM     12  C   UNL A   1      30.121  28.260  23.263  1.00  0.00     0.234 A 
ATOM     13  C   UNL A   1      30.703  29.196  24.099  1.00  0.00     0.179 A 
ATOM     14  N   UNL A   1      30.226  26.922  23.470  1.00  0.00    -0.193 NA
ATOM     15  N   UNL A   1      31.535  28.840  25.089  1.00  0.00    -0.255 NA
ATOM     16  C   UNL A   1      31.678  27.499  25.250  1.00  0.00     0.158 A 
BRANCH  12  17
ATOM     17  O   UNL A   1      29.354  28.698  22.210  1.00  0.00    -0.477 OA
BRANCH  17  18
ATOM     18  C   UNL A   1      29.484  30.118  22.006  1.00  0.00     0.231 C 
BRANCH  18  19
ATOM     19  C   UNL A   1      28.139  30.860  21.939  1.00  0.00     0.038 C 
ATOM     20  C   UNL A   1      27.652  31.328  23.307  1.00  0.00     0.007 C 
ENDBRANCH  18  19
ENDBRANCH  17  18
ENDBRANCH  12  17
ENDBRANCH   9  11
ENDBRANCH   7   9
BRANCH   7  21
ATOM     21  C   UNL A   1      31.923  22.776  24.254  1.00  0.00     0.420 C 
ATOM     22  F   UNL A   1      31.035  22.774  23.237  1.00  0.00    -0.168 F 
ATOM     23  F   UNL A   1      33.097  22.301  23.752  1.00  0.00    -0.168 F 
ATOM     24  F   UNL A   1      31.544  21.840  25.157  1.00  0.00    -0.168 F 
ENDBRANCH   7  21
ENDBRANCH   4   7
ENDBRANCH   2   3
ENDBRANCH   1   2
BRANCH   1  25
ATOM     25  C   UNL A   1      36.477  21.567  25.575  1.00  0.00     0.002 C 
BRANCH  25  26
ATOM     26  C   UNL A   1      36.649  20.167  24.982  1.00  0.00     0.002 C 
BRANCH  26  27
ATOM     27  C   UNL A   1      38.092  19.758  24.685  1.00  0.00     0.021 C 
BRANCH  27  28
ATOM     28  C   UNL A   1      39.100  20.146  25.759  1.00  0.00     0.116 C 
BRANCH  28  29
ATOM     29  N   UNL A   1      40.128  19.136  25.944  1.00  0.00    -0.352 N 
ATOM     30  C   UNL A   1      41.472  19.302  26.165  1.00  0.00     0.251 C 
ATOM     31  H   UNL A   1      39.818  18.202  25.905  1.00  0.00     0.163 HD
ATOM     32  O   UNL A   1      42.231  18.335  26.123  1.00  0.00    -0.269 OA
BRANCH  30  33
ATOM     33  C   UNL A   1      42.014  20.651  26.432  1.00  0.00     0.039 A 
ATOM     34  C   UNL A   1      42.159  21.543  25.368  1.00  0.00     0.014 A 
ATOM     35  C   UNL A   1      42.381  21.033  27.725  1.00  0.00     0.014 A 
ATOM     36  C   UNL A   1      42.628  22.836  25.609  1.00  0.00     0.010 A 
ATOM     37  C   UNL A   1      42.768  22.347  27.976  1.00  0.00     0.010 A 
ATOM     38  C   UNL A   1      42.909  23.258  26.918  1.00  0.00    -0.014 A 
BRANCH  38  39
ATOM     39  C   UNL A   1      43.377  24.640  27.196  1.00  0.00     0.031 A 
ATOM     40  C   UNL A   1      42.418  25.663  27.743  1.00  0.00     0.074 A 
ATOM     41  C   UNL A   1      44.647  24.986  26.915  1.00  0.00     0.049 A 
ATOM     42  N   UNL A   1      42.617  26.931  28.002  1.00  0.00    -0.248 NA
ATOM     43  C   UNL A   1      41.045  25.205  28.010  1.00  0.00     0.031 C 
ATOM     44  C   UNL A   1      45.661  24.096  26.346  1.00  0.00     0.029 A 
ATOM     45  N   UNL A   1      45.304  26.183  27.066  1.00  0.00    -0.354 N 
ATOM     46  C   UNL A   1      41.398  27.419  28.455  1.00  0.00     0.074 A 
ATOM     47  C   UNL A   1      40.449  26.332  28.371  1.00  0.00     0.031 C 
ATOM     48  C   UNL A   1      46.817  24.769  26.223  1.00  0.00     0.029 A 
ATOM     49  C   UNL A   1      46.617  26.146  26.663  1.00  0.00     0.049 A 
ATOM     50  H   UNL A   1      44.873  26.991  27.427  1.00  0.00     0.167 HD
ATOM     51  C   UNL A   1      41.104  28.654  28.929  1.00  0.00     0.037 A 
ATOM     52  C   UNL A   1      47.550  27.116  26.647  1.00  0.00     0.037 A 
ATOM     53  C   UNL A   1      42.055  29.730  29.024  1.00  0.00     0.049 A 
ATOM     54  C   UNL A   1      47.187  28.489  27.149  1.00  0.00     0.074 A 
ATOM     55  C   UNL A   1      41.867  31.009  29.518  1.00  0.00     0.029 A 
ATOM     56  N   UNL A   1      43.378  29.652  28.613  1.00  0.00    -0.354 N 
ATOM     57  N   UNL A   1      46.048  28.922  27.632  1.00  0.00    -0.248 NA
ATOM     58  C   UNL A   1      48.247  29.507  27.112  1.00  0.00     0.031 C 
ATOM     59  C   UNL A   1      43.060  31.720  29.358  1.00  0.00     0.029 A 
ATOM     60  C   UNL A   1      44.012  30.866  28.826  1.00  0.00     0.049 A 
ATOM     61  H   UNL A   1      43.804  28.853  28.227  1.00  0.00     0.167 HD
ATOM     62  C   UNL A   1      46.264  30.246  27.994  1.00  0.00     0.074 A 
ATOM     63  C   UNL A   1      47.648  30.540  27.688  1.00  0.00     0.031 C 
ATOM     64  C   UNL A   1      45.397  31.137  28.535  1.00  0.00     0.037 A 
BRANCH  51  65
ATOM     65  C   UNL A   1      39.695  28.903  29.387  1.00  0.00     0.064 A 
ATOM     66  C   UNL A   1      38.715  29.401  28.512  1.00  0.00     0.173 A 
ATOM     67  C   UNL A   1      39.307  28.610  30.703  1.00  0.00     0.173 A 
ATOM     68  F   UNL A   1      39.033  29.708  27.246  1.00  0.00    -0.203 F 
ATOM     69  C   UNL A   1      37.411  29.627  28.949  1.00  0.00     0.198 A 
ATOM     70  C   UNL A   1      37.995  28.804  31.125  1.00  0.00     0.198 A 
ATOM     71  F   UNL A   1      40.201  28.126  31.580  1.00  0.00    -0.203 F 
ATOM     72  F   UNL A   1      36.510  30.157  28.111  1.00  0.00    -0.200 F 
ATOM     73  C   UNL A   1      37.051  29.322  30.252  1.00  0.00     0.200 A 
ATOM     74  F   UNL A   1      37.644  28.494  32.381  1.00  0.00    -0.200 F 
ATOM     75  F   UNL A   1      35.794  29.533  30.667  1.00  0.00    -0.200 F 
ENDBRANCH  51  65
BRANCH  52  76
ATOM     76  C   UNL A   1      48.926  26.826  26.163  1.00  0.00     0.064 A 
ATOM     77  C   UNL A   1      49.277  27.036  24.821  1.00  0.00     0.173 A 
ATOM     78  C   UNL A   1      49.908  26.304  27.017  1.00  0.00     0.173 A 
ATOM     79  F   UNL A   1      48.368  27.515  23.959  1.00  0.00    -0.203 F 
ATOM     80  C   UNL A   1      50.544  26.705  24.347  1.00  0.00     0.198 A 
ATOM     81  C   UNL A   1      51.186  26.006  26.549  1.00  0.00     0.198 A 
ATOM     82  F   UNL A   1      49.628  26.089  28.311  1.00  0.00    -0.203 F 
ATOM     83  F   UNL A   1      50.831  26.859  23.047  1.00  0.00    -0.200 F 
ATOM     84  C   UNL A   1      51.499  26.194  25.212  1.00  0.00     0.200 A 
ATOM     85  F   UNL A   1      52.111  25.527  27.392  1.00  0.00    -0.200 F 
ATOM     86  F   UNL A   1      52.717  25.873  24.755  1.00  0.00    -0.200 F 
ENDBRANCH  52  76
BRANCH  64  87
ATOM     87  C   UNL A   1      45.933  32.496  28.887  1.00  0.00     0.064 A 
ATOM     88  C   UNL A   1      46.509  32.768  30.137  1.00  0.00     0.173 A 
ATOM     89  C   UNL A   1      45.893  33.535  27.944  1.00  0.00     0.173 A 
ATOM     90  F   UNL A   1      46.560  31.813  31.078  1.00  0.00    -0.203 F 
ATOM     91  C   UNL A   1      46.993  34.037  30.441  1.00  0.00     0.198 A 
ATOM     92  C   UNL A   1      46.411  34.792  28.239  1.00  0.00     0.198 A 
ATOM     93  F   UNL A   1      45.361  33.328  26.730  1.00  0.00    -0.203 F 
ATOM     94  F   UNL A   1      47.485  34.290  31.662  1.00  0.00    -0.200 F 
ATOM     95  C   UNL A   1      46.952  35.047  29.490  1.00  0.00     0.200 A 
ATOM     96  F   UNL A   1      46.385  35.761  27.312  1.00  0.00    -0.200 F 
ATOM     97  F   UNL A   1      47.423  36.265  29.783  1.00  0.00    -0.200 F 
ENDBRANCH  64  87
ENDBRANCH  38  39
ENDBRANCH  30  33
ENDBRANCH  28  29
ENDBRANCH  27  28
ENDBRANCH  26  27
ENDBRANCH  25  26
ENDBRANCH   1  25
TORSDOF 19
ENDMDL
MODEL 3
REMARK VINA RESULT:     -11.2      0.982      7.440
REMARK SMILES CCCOc1cncc(N[C@@](C)(C(=O)NCCCCCCNC(=O)c2ccc(-c3c4nc(c(-c5c(F)c(F)c(F)c(F)c5F)c5ccc([nH]5)c(-c5c(F)c(F)c(F)c(F)c5F)c5nc(c(-c6c(F)c(F)c(F)c(F)c6F)c6ccc3[nH]6)C=C5)C=C4)cc2)C(F)(F)F)n1
REMARK SMILES IDX 17 1 16 2 15 3 13 4 14 5 11 7 12 8 10 9 9 11 5 12 6 13 92 14
REMARK SMILES IDX 7 15 8 16 4 17 3 18 2 19 1 20 88 21 89 22 90 23 91 24 18 25
REMARK SMILES IDX 19 26 20 27 21 28 22 29 23 30 24 32 25 33 26 34 87 35 27 36
REMARK SMILES IDX 86 37 28 38 29 39 30 40 80 41 31 42 85 43 79 44 81 45 32 46
REMARK SMILES IDX 84 47 78 48 77 49 33 51 65 52 45 53 64 54 46 55 49 56 63 57
REMARK SMILES IDX 82 58 47 59 48 60 62 62 83 63 50 64 34 65 35 66 43 67 36 68
REMARK SMILES IDX 37 69 41 70 44 71 38 72 39 73 42 74 40 75 66 76 67 77 75 78
REMARK SMILES IDX 68 79 69 80 73 81 76 82 70 83 71 84 74 85 72 86 51 87 52 88
REMARK SMILES IDX 60 89 53 90 54 91 58 92 61 93 55 94 56 95 59 96 57 97
REMARK H PARENT 15 6 10 10 22 31 81 50 49 61
REMARK Flexibility Score: inf
ROOT
ATOM      1  C   UNL A   1      31.843  28.782  27.296  1.00  0.00     0.021 C 
ENDROOT
BRANCH   1   2
ATOM      2  C   UNL A   1      32.409  27.415  26.919  1.00  0.00     0.116 C 
BRANCH   2   3
ATOM      3  N   UNL A   1      31.379  26.395  26.937  1.00  0.00    -0.354 N 
ATOM      4  C   UNL A   1      31.232  25.205  26.290  1.00  0.00     0.254 C 
ATOM      5  O   UNL A   1      30.132  24.669  26.462  1.00  0.00    -0.272 OA
ATOM      6  H   UNL A   1      30.632  26.606  27.543  1.00  0.00     0.163 HD
BRANCH   4   7
ATOM      7  C   UNL A   1      32.324  24.607  25.364  1.00  0.00     0.211 C 
ATOM      8  C   UNL A   1      33.736  24.961  25.866  1.00  0.00     0.055 C 
BRANCH   7   9
ATOM      9  N   UNL A   1      32.100  25.162  23.988  1.00  0.00    -0.347 N 
ATOM     10  H   UNL A   1      31.917  24.470  23.313  1.00  0.00     0.163 HD
BRANCH   9  11
ATOM     11  C   UNL A   1      32.100  26.431  23.481  1.00  0.00     0.149 A 
ATOM     12  C   UNL A   1      30.835  28.129  22.559  1.00  0.00     0.234 A 
ATOM     13  C   UNL A   1      31.905  29.004  22.634  1.00  0.00     0.179 A 
ATOM     14  N   UNL A   1      30.899  26.849  23.009  1.00  0.00    -0.193 NA
ATOM     15  N   UNL A   1      33.124  28.600  23.020  1.00  0.00    -0.255 NA
ATOM     16  C   UNL A   1      33.189  27.301  23.412  1.00  0.00     0.158 A 
BRANCH  12  17
ATOM     17  O   UNL A   1      29.637  28.588  22.066  1.00  0.00    -0.477 OA
BRANCH  17  18
ATOM     18  C   UNL A   1      29.342  29.921  22.525  1.00  0.00     0.231 C 
BRANCH  18  19
ATOM     19  C   UNL A   1      27.874  30.126  22.928  1.00  0.00     0.038 C 
ATOM     20  C   UNL A   1      27.126  28.812  23.137  1.00  0.00     0.007 C 
ENDBRANCH  18  19
ENDBRANCH  17  18
ENDBRANCH  12  17
ENDBRANCH   9  11
ENDBRANCH   7   9
BRANCH   7  21
ATOM     21  C   UNL A   1      32.169  23.073  25.553  1.00  0.00     0.420 C 
ATOM     22  F   UNL A   1      31.172  22.543  24.813  1.00  0.00    -0.168 F 
ATOM     23  F   UNL A   1      33.312  22.426  25.192  1.00  0.00    -0.168 F 
ATOM     24  F   UNL A   1      31.980  22.716  26.847  1.00  0.00    -0.168 F 
ENDBRANCH   7  21
ENDBRANCH   4   7
ENDBRANCH   2   3
ENDBRANCH   1   2
BRANCH   1  25
ATOM     25  C   UNL A   1      32.472  29.973  26.564  1.00  0.00     0.002 C 
BRANCH  25  26
ATOM     26  C   UNL A   1      31.488  30.904  25.852  1.00  0.00     0.002 C 
BRANCH  26  27
ATOM     27  C   UNL A   1      31.243  32.245  26.545  1.00  0.00     0.021 C 
BRANCH  27  28
ATOM     28  C   UNL A   1      32.446  32.809  27.289  1.00  0.00     0.116 C 
BRANCH  28  29
ATOM     29  N   UNL A   1      32.294  34.221  27.601  1.00  0.00    -0.352 N 
ATOM     30  C   UNL A   1      32.956  34.974  28.536  1.00  0.00     0.251 C 
ATOM     31  H   UNL A   1      31.620  34.702  27.068  1.00  0.00     0.163 HD
ATOM     32  O   UNL A   1      32.578  36.117  28.791  1.00  0.00    -0.269 OA
BRANCH  30  33
ATOM     33  C   UNL A   1      34.114  34.405  29.256  1.00  0.00     0.039 A 
ATOM     34  C   UNL A   1      33.891  33.684  30.430  1.00  0.00     0.014 A 
ATOM     35  C   UNL A   1      35.415  34.586  28.778  1.00  0.00     0.014 A 
ATOM     36  C   UNL A   1      34.969  33.102  31.100  1.00  0.00     0.010 A 
ATOM     37  C   UNL A   1      36.478  33.935  29.399  1.00  0.00     0.010 A 
ATOM     38  C   UNL A   1      36.268  33.198  30.574  1.00  0.00    -0.014 A 
BRANCH  38  39
ATOM     39  C   UNL A   1      37.421  32.557  31.256  1.00  0.00     0.031 A 
ATOM     40  C   UNL A   1      38.158  31.428  30.586  1.00  0.00     0.074 A 
ATOM     41  C   UNL A   1      37.778  32.958  32.491  1.00  0.00     0.049 A 
ATOM     42  N   UNL A   1      39.153  30.705  31.036  1.00  0.00    -0.248 NA
ATOM     43  C   UNL A   1      37.697  31.043  29.243  1.00  0.00     0.031 C 
ATOM     44  C   UNL A   1      37.118  34.015  33.261  1.00  0.00     0.029 A 
ATOM     45  N   UNL A   1      38.781  32.520  33.320  1.00  0.00    -0.354 N 
ATOM     46  C   UNL A   1      39.430  29.782  30.036  1.00  0.00     0.074 A 
ATOM     47  C   UNL A   1      38.457  29.988  28.987  1.00  0.00     0.031 C 
ATOM     48  C   UNL A   1      37.752  34.163  34.435  1.00  0.00     0.029 A 
ATOM     49  C   UNL A   1      38.832  33.186  34.521  1.00  0.00     0.049 A 
ATOM     50  H   UNL A   1      39.403  31.798  33.077  1.00  0.00     0.167 HD
ATOM     51  C   UNL A   1      40.426  28.865  29.982  1.00  0.00     0.037 A 
ATOM     52  C   UNL A   1      39.657  33.021  35.572  1.00  0.00     0.037 A 
ATOM     53  C   UNL A   1      41.402  28.671  31.023  1.00  0.00     0.049 A 
ATOM     54  C   UNL A   1      40.735  31.972  35.500  1.00  0.00     0.074 A 
ATOM     55  C   UNL A   1      42.470  27.791  31.053  1.00  0.00     0.029 A 
ATOM     56  N   UNL A   1      41.426  29.369  32.221  1.00  0.00    -0.354 N 
ATOM     57  N   UNL A   1      41.026  31.146  34.524  1.00  0.00    -0.248 NA
ATOM     58  C   UNL A   1      41.608  31.840  36.675  1.00  0.00     0.031 C 
ATOM     59  C   UNL A   1      43.109  27.921  32.290  1.00  0.00     0.029 A 
ATOM     60  C   UNL A   1      42.481  28.927  33.005  1.00  0.00     0.049 A 
ATOM     61  H   UNL A   1      40.789  30.075  32.477  1.00  0.00     0.167 HD
ATOM     62  C   UNL A   1      42.137  30.428  34.949  1.00  0.00     0.074 A 
ATOM     63  C   UNL A   1      42.476  30.926  36.265  1.00  0.00     0.031 C 
ATOM     64  C   UNL A   1      42.817  29.448  34.306  1.00  0.00     0.037 A 
BRANCH  51  65
ATOM     65  C   UNL A   1      40.512  28.006  28.752  1.00  0.00     0.064 A 
ATOM     66  C   UNL A   1      41.270  28.394  27.636  1.00  0.00     0.173 A 
ATOM     67  C   UNL A   1      39.860  26.765  28.699  1.00  0.00     0.173 A 
ATOM     68  F   UNL A   1      41.906  29.575  27.628  1.00  0.00    -0.203 F 
ATOM     69  C   UNL A   1      41.342  27.589  26.501  1.00  0.00     0.198 A 
ATOM     70  C   UNL A   1      39.963  25.947  27.578  1.00  0.00     0.198 A 
ATOM     71  F   UNL A   1      39.127  26.341  29.740  1.00  0.00    -0.203 F 
ATOM     72  F   UNL A   1      42.025  28.008  25.428  1.00  0.00    -0.200 F 
ATOM     73  C   UNL A   1      40.696  26.363  26.477  1.00  0.00     0.200 A 
ATOM     74  F   UNL A   1      39.350  24.755  27.561  1.00  0.00    -0.200 F 
ATOM     75  F   UNL A   1      40.773  25.586  25.388  1.00  0.00    -0.200 F 
ENDBRANCH  51  65
BRANCH  52  76
ATOM     76  C   UNL A   1      39.517  33.882  36.778  1.00  0.00     0.064 A 
ATOM     77  C   UNL A   1      40.141  35.137  36.843  1.00  0.00     0.173 A 
ATOM     78  C   UNL A   1      38.788  33.460  37.899  1.00  0.00     0.173 A 
ATOM     79  F   UNL A   1      40.866  35.579  35.805  1.00  0.00    -0.203 F 
ATOM     80  C   UNL A   1      40.068  35.920  37.993  1.00  0.00     0.198 A 
ATOM     81  C   UNL A   1      38.688  34.259  39.036  1.00  0.00     0.198 A 
ATOM     82  F   UNL A   1      38.168  32.271  37.888  1.00  0.00    -0.203 F 
ATOM     83  F   UNL A   1      40.725  37.086  38.049  1.00  0.00    -0.200 F 
ATOM     84  C   UNL A   1      39.338  35.482  39.087  1.00  0.00     0.200 A 
ATOM     85  F   UNL A   1      37.968  33.838  40.085  1.00  0.00    -0.200 F 
ATOM     86  F   UNL A   1      39.271  36.233  40.195  1.00  0.00    -0.200 F 
ENDBRANCH  52  76
BRANCH  64  87
ATOM     87  C   UNL A   1      44.034  28.889  34.989  1.00  0.00     0.064 A 
ATOM     88  C   UNL A   1      45.307  29.453  34.821  1.00  0.00     0.173 A 
ATOM     89  C   UNL A   1      43.914  27.786  35.850  1.00  0.00     0.173 A 
ATOM     90  F   UNL A   1      45.478  30.499  33.999  1.00  0.00    -0.203 F 
ATOM     91  C   UNL A   1      46.419  28.912  35.460  1.00  0.00     0.198 A 
ATOM     92  C   UNL A   1      45.022  27.272  36.516  1.00  0.00     0.198 A 
ATOM     93  F   UNL A   1      42.718  27.213  36.054  1.00  0.00    -0.203 F 
ATOM     94  F   UNL A   1      47.635  29.431  35.238  1.00  0.00    -0.200 F 
ATOM     95  C   UNL A   1      46.276  27.828  36.314  1.00  0.00     0.200 A 
ATOM     96  F   UNL A   1      44.877  26.235  37.353  1.00  0.00    -0.200 F 
ATOM     97  F   UNL A   1      47.347  27.314  36.932  1.00  0.00    -0.200 F 
ENDBRANCH  64  87
ENDBRANCH  38  39
ENDBRANCH  30  33
ENDBRANCH  28  29
ENDBRANCH  27  28
ENDBRANCH  26  27
ENDBRANCH  25  26
ENDBRANCH   1  25
TORSDOF 19
ENDMDL
