MODEL 1
REMARK VINA RESULT:      -9.4      0.000      0.000
REMARK SMILES CC(C)c1ccc2c(c1)c(SC(C)(C)C)c(CC(C)(C)C(=O)NCCCCCCNC(=O)c1ccc(-c3c4nc(c(-c5c(F)c(F)c(F)c(F)c5F)c5ccc([nH]5)c(-c5c(F)c(F)c(F)c(F)c5F)c5nc(c(-c6c(F)c(F)c(F)c(F)c6F)c6ccc3[nH]6)C=C5)C=C4)cc1)n2Cc1ccc(Cl)cc1
REMARK SMILES IDX 25 1 24 2 23 3 21 4 22 5 18 7 19 8 20 9 17 10 16 11 4 12
REMARK SMILES IDX 5 13 9 14 6 15 8 16 7 17 10 18 96 19 2 20 1 21 3 22 11 23
REMARK SMILES IDX 12 24 13 25 14 26 15 27 97 28 98 29 99 30 104 31 100 32
REMARK SMILES IDX 103 33 101 34 102 35 26 36 27 37 28 38 29 39 30 40 31 41
REMARK SMILES IDX 32 43 33 44 34 45 95 46 35 47 94 48 36 49 37 50 38 51 88 52
REMARK SMILES IDX 39 53 93 54 87 55 89 56 40 57 92 58 86 59 85 60 41 62 73 63
REMARK SMILES IDX 53 64 72 65 54 66 57 67 71 68 90 69 55 70 56 71 70 73 91 74
REMARK SMILES IDX 58 75 42 76 43 77 51 78 44 79 45 80 49 81 52 82 46 83 47 84
REMARK SMILES IDX 50 85 48 86 74 87 75 88 83 89 76 90 77 91 81 92 84 93 78 94
REMARK SMILES IDX 79 95 82 96 80 97 59 98 60 99 68 100 61 101 62 102 66 103
REMARK SMILES IDX 69 104 63 105 64 106 67 107 65 108
REMARK H PARENT 23 6 30 42 89 61 57 72
REMARK Flexibility Score: inf
ROOT
ATOM      1  C   UNL A   1      37.349  30.563  33.429  1.00  0.00     0.021 C 
ENDROOT
BRANCH   1   2
ATOM      2  C   UNL A   1      38.335  30.975  34.495  1.00  0.00     0.116 C 
BRANCH   2   3
ATOM      3  N   UNL A   1      37.967  30.463  35.799  1.00  0.00    -0.356 N 
ATOM      4  C   UNL A   1      37.971  31.114  37.006  1.00  0.00     0.226 C 
ATOM      5  O   UNL A   1      37.257  30.644  37.883  1.00  0.00    -0.275 OA
ATOM      6  H   UNL A   1      37.676  29.522  35.822  1.00  0.00     0.163 HD
BRANCH   4   7
ATOM      7  C   UNL A   1      38.650  32.484  37.106  1.00  0.00     0.049 C 
ATOM      8  C   UNL A   1      38.245  32.821  38.563  1.00  0.00     0.022 C 
ATOM      9  C   UNL A   1      38.138  33.390  35.947  1.00  0.00     0.022 C 
BRANCH   7  10
ATOM     10  C   UNL A   1      40.197  32.540  36.901  1.00  0.00     0.071 C 
BRANCH  10  11
ATOM     11  C   UNL A   1      40.745  33.738  36.248  1.00  0.00     0.034 A 
ATOM     12  C   UNL A   1      43.529  37.261  35.091  1.00  0.00    -0.045 A 
ATOM     13  C   UNL A   1      43.742  36.406  34.002  1.00  0.00     0.006 A 
ATOM     14  C   UNL A   1      42.507  36.915  35.998  1.00  0.00     0.015 A 
ATOM     15  C   UNL A   1      43.062  35.190  33.862  1.00  0.00     0.027 A 
ATOM     16  C   UNL A   1      41.799  35.685  35.898  1.00  0.00     0.014 A 
ATOM     17  C   UNL A   1      42.131  34.824  34.846  1.00  0.00     0.050 A 
ATOM     18  C   UNL A   1      40.778  35.049  36.701  1.00  0.00     0.037 A 
ATOM     19  N   UNL A   1      41.387  33.665  35.012  1.00  0.00    -0.339 N 
BRANCH  12  20
ATOM     20  C   UNL A   1      44.375  38.528  35.249  1.00  0.00     0.013 C 
ATOM     21  C   UNL A   1      44.795  38.847  36.692  1.00  0.00     0.012 C 
ATOM     22  C   UNL A   1      45.657  38.492  34.396  1.00  0.00     0.012 C 
ENDBRANCH  12  20
BRANCH  18  23
ATOM     23  S   UNL A   1      40.093  35.878  38.120  1.00  0.00    -0.118 SA
BRANCH  23  24
ATOM     24  C   UNL A   1      41.051  35.939  39.721  1.00  0.00     0.012 C 
ATOM     25  C   UNL A   1      41.777  37.276  39.881  1.00  0.00     0.023 C 
ATOM     26  C   UNL A   1      40.421  35.558  41.079  1.00  0.00     0.023 C 
ATOM     27  C   UNL A   1      42.095  34.803  39.528  1.00  0.00     0.023 C 
ENDBRANCH  23  24
ENDBRANCH  18  23
BRANCH  19  28
ATOM     28  C   UNL A   1      41.177  32.655  33.939  1.00  0.00     0.158 C 
BRANCH  28  29
ATOM     29  C   UNL A   1      40.771  33.145  32.558  1.00  0.00    -0.028 A 
ATOM     30  C   UNL A   1      41.581  32.890  31.433  1.00  0.00     0.007 A 
ATOM     31  C   UNL A   1      39.596  33.889  32.359  1.00  0.00     0.007 A 
ATOM     32  C   UNL A   1      41.339  33.516  30.206  1.00  0.00     0.021 A 
ATOM     33  C   UNL A   1      39.321  34.475  31.113  1.00  0.00     0.021 A 
ATOM     34  C   UNL A   1      40.221  34.328  30.059  1.00  0.00     0.041 A 
ATOM     35  Cl  UNL A   1      39.977  35.181  28.583  1.00  0.00    -0.084 Cl
ENDBRANCH  28  29
ENDBRANCH  19  28
ENDBRANCH  10  11
ENDBRANCH   7  10
ENDBRANCH   4   7
ENDBRANCH   2   3
ENDBRANCH   1   2
BRANCH   1  36
ATOM     36  C   UNL A   1      36.887  31.757  32.609  1.00  0.00     0.002 C 
BRANCH  36  37
ATOM     37  C   UNL A   1      35.764  32.570  33.267  1.00  0.00     0.002 C 
BRANCH  37  38
ATOM     38  C   UNL A   1      34.638  33.003  32.319  1.00  0.00     0.021 C 
BRANCH  38  39
ATOM     39  C   UNL A   1      35.131  33.458  30.944  1.00  0.00     0.116 C 
BRANCH  39  40
ATOM     40  N   UNL A   1      34.514  32.733  29.855  1.00  0.00    -0.352 N 
ATOM     41  C   UNL A   1      34.912  31.715  29.040  1.00  0.00     0.251 C 
ATOM     42  H   UNL A   1      33.602  33.045  29.658  1.00  0.00     0.163 HD
ATOM     43  O   UNL A   1      34.131  31.394  28.143  1.00  0.00    -0.269 OA
BRANCH  41  44
ATOM     44  C   UNL A   1      36.216  31.008  29.146  1.00  0.00     0.039 A 
ATOM     45  C   UNL A   1      36.384  29.639  29.352  1.00  0.00     0.014 A 
ATOM     46  C   UNL A   1      37.361  31.813  29.016  1.00  0.00     0.014 A 
ATOM     47  C   UNL A   1      37.652  29.095  29.507  1.00  0.00     0.010 A 
ATOM     48  C   UNL A   1      38.634  31.268  29.124  1.00  0.00     0.010 A 
ATOM     49  C   UNL A   1      38.776  29.913  29.408  1.00  0.00    -0.014 A 
BRANCH  49  50
ATOM     50  C   UNL A   1      40.083  29.270  29.520  1.00  0.00     0.031 A 
ATOM     51  C   UNL A   1      40.616  29.114  30.907  1.00  0.00     0.074 A 
ATOM     52  C   UNL A   1      40.723  28.736  28.464  1.00  0.00     0.049 A 
ATOM     53  N   UNL A   1      41.764  29.486  31.382  1.00  0.00    -0.248 NA
ATOM     54  C   UNL A   1      39.724  28.512  31.911  1.00  0.00     0.031 C 
ATOM     55  C   UNL A   1      40.209  28.556  27.103  1.00  0.00     0.029 A 
ATOM     56  N   UNL A   1      41.944  28.129  28.421  1.00  0.00    -0.354 N 
ATOM     57  C   UNL A   1      41.798  29.042  32.702  1.00  0.00     0.074 A 
ATOM     58  C   UNL A   1      40.486  28.529  33.003  1.00  0.00     0.031 C 
ATOM     59  C   UNL A   1      41.007  27.691  26.441  1.00  0.00     0.029 A 
ATOM     60  C   UNL A   1      42.148  27.370  27.282  1.00  0.00     0.049 A 
ATOM     61  H   UNL A   1      42.616  28.222  29.135  1.00  0.00     0.167 HD
ATOM     62  C   UNL A   1      42.951  28.960  33.419  1.00  0.00     0.037 A 
ATOM     63  C   UNL A   1      43.144  26.479  27.077  1.00  0.00     0.037 A 
ATOM     64  C   UNL A   1      44.004  29.753  32.858  1.00  0.00     0.049 A 
ATOM     65  C   UNL A   1      44.240  26.791  28.023  1.00  0.00     0.074 A 
ATOM     66  C   UNL A   1      44.242  31.101  32.700  1.00  0.00     0.029 A 
ATOM     67  N   UNL A   1      44.925  29.109  32.074  1.00  0.00    -0.354 N 
ATOM     68  N   UNL A   1      44.989  27.856  27.961  1.00  0.00    -0.248 NA
ATOM     69  C   UNL A   1      44.315  26.049  29.273  1.00  0.00     0.031 C 
ATOM     70  C   UNL A   1      45.019  31.213  31.511  1.00  0.00     0.029 A 
ATOM     71  C   UNL A   1      45.225  29.925  31.016  1.00  0.00     0.049 A 
ATOM     72  H   UNL A   1      45.304  28.217  32.244  1.00  0.00     0.167 HD
ATOM     73  C   UNL A   1      45.295  28.144  29.281  1.00  0.00     0.074 A 
ATOM     74  C   UNL A   1      44.993  26.925  30.015  1.00  0.00     0.031 C 
ATOM     75  C   UNL A   1      45.494  29.432  29.684  1.00  0.00     0.037 A 
BRANCH  62  76
ATOM     76  C   UNL A   1      43.220  27.900  34.455  1.00  0.00     0.064 A 
ATOM     77  C   UNL A   1      43.487  28.262  35.790  1.00  0.00     0.173 A 
ATOM     78  C   UNL A   1      43.508  26.563  34.111  1.00  0.00     0.173 A 
ATOM     79  F   UNL A   1      43.292  29.521  36.207  1.00  0.00    -0.203 F 
ATOM     80  C   UNL A   1      44.038  27.355  36.701  1.00  0.00     0.198 A 
ATOM     81  C   UNL A   1      44.010  25.648  35.035  1.00  0.00     0.198 A 
ATOM     82  F   UNL A   1      43.418  26.129  32.847  1.00  0.00    -0.203 F 
ATOM     83  F   UNL A   1      44.374  27.767  37.931  1.00  0.00    -0.200 F 
ATOM     84  C   UNL A   1      44.297  26.050  36.323  1.00  0.00     0.200 A 
ATOM     85  F   UNL A   1      44.282  24.396  34.642  1.00  0.00    -0.200 F 
ATOM     86  F   UNL A   1      44.869  25.193  37.180  1.00  0.00    -0.200 F 
ENDBRANCH  62  76
BRANCH  63  87
ATOM     87  C   UNL A   1      43.082  25.201  26.332  1.00  0.00     0.064 A 
ATOM     88  C   UNL A   1      43.989  24.930  25.294  1.00  0.00     0.173 A 
ATOM     89  C   UNL A   1      42.324  24.112  26.805  1.00  0.00     0.173 A 
ATOM     90  F   UNL A   1      44.777  25.903  24.817  1.00  0.00    -0.203 F 
ATOM     91  C   UNL A   1      44.152  23.638  24.786  1.00  0.00     0.198 A 
ATOM     92  C   UNL A   1      42.479  22.827  26.288  1.00  0.00     0.198 A 
ATOM     93  F   UNL A   1      41.491  24.252  27.846  1.00  0.00    -0.203 F 
ATOM     94  F   UNL A   1      45.079  23.403  23.848  1.00  0.00    -0.200 F 
ATOM     95  C   UNL A   1      43.405  22.586  25.291  1.00  0.00     0.200 A 
ATOM     96  F   UNL A   1      41.774  21.813  26.809  1.00  0.00    -0.200 F 
ATOM     97  F   UNL A   1      43.608  21.337  24.850  1.00  0.00    -0.200 F 
ENDBRANCH  63  87
BRANCH  75  98
ATOM     98  C   UNL A   1      45.757  30.457  28.618  1.00  0.00     0.064 A 
ATOM     99  C   UNL A   1      44.749  31.173  27.951  1.00  0.00     0.173 A 
ATOM    100  C   UNL A   1      47.086  30.809  28.352  1.00  0.00     0.173 A 
ATOM    101  F   UNL A   1      43.455  30.964  28.227  1.00  0.00    -0.203 F 
ATOM    102  C   UNL A   1      45.064  32.162  27.020  1.00  0.00     0.198 A 
ATOM    103  C   UNL A   1      47.397  31.823  27.451  1.00  0.00     0.198 A 
ATOM    104  F   UNL A   1      48.089  30.198  29.004  1.00  0.00    -0.203 F 
ATOM    105  F   UNL A   1      44.086  32.820  26.381  1.00  0.00    -0.200 F 
ATOM    106  C   UNL A   1      46.388  32.490  26.777  1.00  0.00     0.200 A 
ATOM    107  F   UNL A   1      48.677  32.173  27.258  1.00  0.00    -0.200 F 
ATOM    108  F   UNL A   1      46.690  33.469  25.913  1.00  0.00    -0.200 F 
ENDBRANCH  75  98
ENDBRANCH  49  50
ENDBRANCH  41  44
ENDBRANCH  39  40
ENDBRANCH  38  39
ENDBRANCH  37  38
ENDBRANCH  36  37
ENDBRANCH   1  36
TORSDOF 20
ENDMDL
MODEL 2
REMARK VINA RESULT:      -9.1      3.471     10.014
REMARK SMILES CC(C)c1ccc2c(c1)c(SC(C)(C)C)c(CC(C)(C)C(=O)NCCCCCCNC(=O)c1ccc(-c3c4nc(c(-c5c(F)c(F)c(F)c(F)c5F)c5ccc([nH]5)c(-c5c(F)c(F)c(F)c(F)c5F)c5nc(c(-c6c(F)c(F)c(F)c(F)c6F)c6ccc3[nH]6)C=C5)C=C4)cc1)n2Cc1ccc(Cl)cc1
REMARK SMILES IDX 25 1 24 2 23 3 21 4 22 5 18 7 19 8 20 9 17 10 16 11 4 12
REMARK SMILES IDX 5 13 9 14 6 15 8 16 7 17 10 18 96 19 2 20 1 21 3 22 11 23
REMARK SMILES IDX 12 24 13 25 14 26 15 27 97 28 98 29 99 30 104 31 100 32
REMARK SMILES IDX 103 33 101 34 102 35 26 36 27 37 28 38 29 39 30 40 31 41
REMARK SMILES IDX 32 43 33 44 34 45 95 46 35 47 94 48 36 49 37 50 38 51 88 52
REMARK SMILES IDX 39 53 93 54 87 55 89 56 40 57 92 58 86 59 85 60 41 62 73 63
REMARK SMILES IDX 53 64 72 65 54 66 57 67 71 68 90 69 55 70 56 71 70 73 91 74
REMARK SMILES IDX 58 75 42 76 43 77 51 78 44 79 45 80 49 81 52 82 46 83 47 84
REMARK SMILES IDX 50 85 48 86 74 87 75 88 83 89 76 90 77 91 81 92 84 93 78 94
REMARK SMILES IDX 79 95 82 96 80 97 59 98 60 99 68 100 61 101 62 102 66 103
REMARK SMILES IDX 69 104 63 105 64 106 67 107 65 108
REMARK H PARENT 23 6 30 42 89 61 57 72
REMARK Flexibility Score: inf
ROOT
ATOM      1  C   UNL A   1      38.867  29.886  28.750  1.00  0.00     0.021 C 
ENDROOT
BRANCH   1   2
ATOM      2  C   UNL A   1      39.537  29.044  27.691  1.00  0.00     0.116 C 
BRANCH   2   3
ATOM      3  N   UNL A   1      40.970  28.964  27.891  1.00  0.00    -0.356 N 
ATOM      4  C   UNL A   1      41.784  27.863  27.809  1.00  0.00     0.226 C 
ATOM      5  O   UNL A   1      42.973  28.077  27.610  1.00  0.00    -0.275 OA
ATOM      6  H   UNL A   1      41.418  29.812  28.114  1.00  0.00     0.163 HD
BRANCH   4   7
ATOM      7  C   UNL A   1      41.144  26.473  27.726  1.00  0.00     0.049 C 
ATOM      8  C   UNL A   1      40.929  26.426  26.192  1.00  0.00     0.022 C 
ATOM      9  C   UNL A   1      39.903  26.430  28.667  1.00  0.00     0.022 C 
BRANCH   7  10
ATOM     10  C   UNL A   1      41.982  25.260  28.237  1.00  0.00     0.071 C 
BRANCH  10  11
ATOM     11  C   UNL A   1      42.331  24.223  27.254  1.00  0.00     0.034 A 
ATOM     12  C   UNL A   1      44.435  20.690  25.112  1.00  0.00    -0.045 A 
ATOM     13  C   UNL A   1      43.281  20.048  25.578  1.00  0.00     0.006 A 
ATOM     14  C   UNL A   1      44.501  22.091  25.253  1.00  0.00     0.015 A 
ATOM     15  C   UNL A   1      42.272  20.732  26.268  1.00  0.00     0.027 A 
ATOM     16  C   UNL A   1      43.502  22.823  25.954  1.00  0.00     0.014 A 
ATOM     17  C   UNL A   1      42.423  22.109  26.489  1.00  0.00     0.050 A 
ATOM     18  C   UNL A   1      43.344  24.217  26.306  1.00  0.00     0.037 A 
ATOM     19  N   UNL A   1      41.644  23.010  27.198  1.00  0.00    -0.339 N 
BRANCH  12  20
ATOM     20  C   UNL A   1      45.555  19.875  24.458  1.00  0.00     0.013 C 
ATOM     21  C   UNL A   1      46.277  18.899  25.400  1.00  0.00     0.012 C 
ATOM     22  C   UNL A   1      45.063  19.062  23.245  1.00  0.00     0.012 C 
ENDBRANCH  12  20
BRANCH  18  23
ATOM     23  S   UNL A   1      44.530  25.429  25.764  1.00  0.00    -0.118 SA
BRANCH  23  24
ATOM     24  C   UNL A   1      46.204  25.532  26.581  1.00  0.00     0.012 C 
ATOM     25  C   UNL A   1      46.418  26.897  27.239  1.00  0.00     0.023 C 
ATOM     26  C   UNL A   1      46.726  24.439  27.542  1.00  0.00     0.023 C 
ATOM     27  C   UNL A   1      47.175  25.381  25.376  1.00  0.00     0.023 C 
ENDBRANCH  23  24
ENDBRANCH  18  23
BRANCH  19  28
ATOM     28  C   UNL A   1      40.242  22.743  27.618  1.00  0.00     0.158 C 
BRANCH  28  29
ATOM     29  C   UNL A   1      39.158  22.750  26.553  1.00  0.00    -0.028 A 
ATOM     30  C   UNL A   1      38.383  23.905  26.317  1.00  0.00     0.007 A 
ATOM     31  C   UNL A   1      38.870  21.607  25.788  1.00  0.00     0.007 A 
ATOM     32  C   UNL A   1      37.246  23.864  25.504  1.00  0.00     0.021 A 
ATOM     33  C   UNL A   1      37.760  21.580  24.929  1.00  0.00     0.021 A 
ATOM     34  C   UNL A   1      36.924  22.691  24.833  1.00  0.00     0.041 A 
ATOM     35  Cl  UNL A   1      35.471  22.607  23.914  1.00  0.00    -0.084 Cl
ENDBRANCH  28  29
ENDBRANCH  19  28
ENDBRANCH  10  11
ENDBRANCH   7  10
ENDBRANCH   4   7
ENDBRANCH   2   3
ENDBRANCH   1   2
BRANCH   1  36
ATOM     36  C   UNL A   1      37.357  29.708  28.727  1.00  0.00     0.002 C 
BRANCH  36  37
ATOM     37  C   UNL A   1      36.675  30.319  27.496  1.00  0.00     0.002 C 
BRANCH  37  38
ATOM     38  C   UNL A   1      35.689  31.456  27.800  1.00  0.00     0.021 C 
BRANCH  38  39
ATOM     39  C   UNL A   1      34.568  31.057  28.761  1.00  0.00     0.116 C 
BRANCH  39  40
ATOM     40  N   UNL A   1      34.173  32.132  29.644  1.00  0.00    -0.352 N 
ATOM     41  C   UNL A   1      34.773  32.787  30.679  1.00  0.00     0.251 C 
ATOM     42  H   UNL A   1      33.267  32.467  29.457  1.00  0.00     0.163 HD
ATOM     43  O   UNL A   1      34.087  33.621  31.271  1.00  0.00    -0.269 OA
BRANCH  41  44
ATOM     44  C   UNL A   1      36.162  32.534  31.146  1.00  0.00     0.039 A 
ATOM     45  C   UNL A   1      37.308  33.175  30.674  1.00  0.00     0.014 A 
ATOM     46  C   UNL A   1      36.303  31.566  32.155  1.00  0.00     0.014 A 
ATOM     47  C   UNL A   1      38.566  32.809  31.132  1.00  0.00     0.010 A 
ATOM     48  C   UNL A   1      37.555  31.227  32.651  1.00  0.00     0.010 A 
ATOM     49  C   UNL A   1      38.691  31.823  32.110  1.00  0.00    -0.014 A 
BRANCH  49  50
ATOM     50  C   UNL A   1      40.036  31.527  32.593  1.00  0.00     0.031 A 
ATOM     51  C   UNL A   1      40.637  32.537  33.514  1.00  0.00     0.074 A 
ATOM     52  C   UNL A   1      40.662  30.364  32.331  1.00  0.00     0.049 A 
ATOM     53  N   UNL A   1      41.779  33.143  33.422  1.00  0.00    -0.248 NA
ATOM     54  C   UNL A   1      39.825  32.970  34.664  1.00  0.00     0.031 C 
ATOM     55  C   UNL A   1      40.103  29.171  31.690  1.00  0.00     0.029 A 
ATOM     56  N   UNL A   1      41.914  29.966  32.698  1.00  0.00    -0.354 N 
ATOM     57  C   UNL A   1      41.896  33.925  34.569  1.00  0.00     0.074 A 
ATOM     58  C   UNL A   1      40.630  33.851  35.254  1.00  0.00     0.031 C 
ATOM     59  C   UNL A   1      40.923  28.122  31.919  1.00  0.00     0.029 A 
ATOM     60  C   UNL A   1      42.115  28.600  32.597  1.00  0.00     0.049 A 
ATOM     61  H   UNL A   1      42.609  30.592  33.006  1.00  0.00     0.167 HD
ATOM     62  C   UNL A   1      43.080  34.449  34.983  1.00  0.00     0.037 A 
ATOM     63  C   UNL A   1      43.153  27.899  33.108  1.00  0.00     0.037 A 
ATOM     64  C   UNL A   1      44.060  34.485  33.938  1.00  0.00     0.049 A 
ATOM     65  C   UNL A   1      44.267  28.844  33.352  1.00  0.00     0.074 A 
ATOM     66  C   UNL A   1      44.209  35.176  32.755  1.00  0.00     0.029 A 
ATOM     67  N   UNL A   1      44.983  33.474  33.908  1.00  0.00    -0.354 N 
ATOM     68  N   UNL A   1      44.948  29.442  32.414  1.00  0.00    -0.248 NA
ATOM     69  C   UNL A   1      44.439  29.390  34.690  1.00  0.00     0.031 C 
ATOM     70  C   UNL A   1      44.928  34.300  31.891  1.00  0.00     0.029 A 
ATOM     71  C   UNL A   1      45.189  33.126  32.600  1.00  0.00     0.049 A 
ATOM     72  H   UNL A   1      45.422  33.069  34.691  1.00  0.00     0.167 HD
ATOM     73  C   UNL A   1      45.292  30.667  32.960  1.00  0.00     0.074 A 
ATOM     74  C   UNL A   1      45.095  30.513  34.393  1.00  0.00     0.031 C 
ATOM     75  C   UNL A   1      45.431  31.769  32.167  1.00  0.00     0.037 A 
BRANCH  62  76
ATOM     76  C   UNL A   1      43.455  34.632  36.430  1.00  0.00     0.064 A 
ATOM     77  C   UNL A   1      43.642  33.512  37.264  1.00  0.00     0.173 A 
ATOM     78  C   UNL A   1      43.350  35.876  37.087  1.00  0.00     0.173 A 
ATOM     79  F   UNL A   1      43.707  32.279  36.742  1.00  0.00    -0.203 F 
ATOM     80  C   UNL A   1      43.683  33.630  38.656  1.00  0.00     0.198 A 
ATOM     81  C   UNL A   1      43.442  35.997  38.473  1.00  0.00     0.198 A 
ATOM     82  F   UNL A   1      43.046  36.997  36.420  1.00  0.00    -0.203 F 
ATOM     83  F   UNL A   1      43.758  32.530  39.417  1.00  0.00    -0.200 F 
ATOM     84  C   UNL A   1      43.584  34.872  39.259  1.00  0.00     0.200 A 
ATOM     85  F   UNL A   1      43.315  37.204  39.040  1.00  0.00    -0.200 F 
ATOM     86  F   UNL A   1      43.575  34.982  40.594  1.00  0.00    -0.200 F 
ENDBRANCH  62  76
BRANCH  63  87
ATOM     87  C   UNL A   1      43.136  26.533  33.677  1.00  0.00     0.064 A 
ATOM     88  C   UNL A   1      44.044  25.559  33.232  1.00  0.00     0.173 A 
ATOM     89  C   UNL A   1      42.425  26.239  34.857  1.00  0.00     0.173 A 
ATOM     90  F   UNL A   1      44.789  25.781  32.141  1.00  0.00    -0.203 F 
ATOM     91  C   UNL A   1      44.254  24.376  33.947  1.00  0.00     0.198 A 
ATOM     92  C   UNL A   1      42.626  25.053  35.561  1.00  0.00     0.198 A 
ATOM     93  F   UNL A   1      41.595  27.137  35.405  1.00  0.00    -0.203 F 
ATOM     94  F   UNL A   1      45.183  23.503  33.533  1.00  0.00    -0.200 F 
ATOM     95  C   UNL A   1      43.553  24.129  35.117  1.00  0.00     0.200 A 
ATOM     96  F   UNL A   1      41.967  24.842  36.709  1.00  0.00    -0.200 F 
ATOM     97  F   UNL A   1      43.803  23.027  35.837  1.00  0.00    -0.200 F 
ENDBRANCH  63  87
BRANCH  75  98
ATOM     98  C   UNL A   1      45.586  31.541  30.691  1.00  0.00     0.064 A 
ATOM     99  C   UNL A   1      46.807  31.234  30.067  1.00  0.00     0.173 A 
ATOM    100  C   UNL A   1      44.431  31.519  29.899  1.00  0.00     0.173 A 
ATOM    101  F   UNL A   1      47.939  31.135  30.777  1.00  0.00    -0.203 F 
ATOM    102  C   UNL A   1      46.870  30.966  28.700  1.00  0.00     0.198 A 
ATOM    103  C   UNL A   1      44.492  31.212  28.543  1.00  0.00     0.198 A 
ATOM    104  F   UNL A   1      43.230  31.749  30.453  1.00  0.00    -0.203 F 
ATOM    105  F   UNL A   1      48.049  30.691  28.123  1.00  0.00    -0.200 F 
ATOM    106  C   UNL A   1      45.712  30.948  27.942  1.00  0.00     0.200 A 
ATOM    107  F   UNL A   1      43.362  31.146  27.823  1.00  0.00    -0.200 F 
ATOM    108  F   UNL A   1      45.767  30.650  26.637  1.00  0.00    -0.200 F 
ENDBRANCH  75  98
ENDBRANCH  49  50
ENDBRANCH  41  44
ENDBRANCH  39  40
ENDBRANCH  38  39
ENDBRANCH  37  38
ENDBRANCH  36  37
ENDBRANCH   1  36
TORSDOF 20
ENDMDL
MODEL 3
REMARK VINA RESULT:      -8.8      4.023     10.694
REMARK SMILES CC(C)c1ccc2c(c1)c(SC(C)(C)C)c(CC(C)(C)C(=O)NCCCCCCNC(=O)c1ccc(-c3c4nc(c(-c5c(F)c(F)c(F)c(F)c5F)c5ccc([nH]5)c(-c5c(F)c(F)c(F)c(F)c5F)c5nc(c(-c6c(F)c(F)c(F)c(F)c6F)c6ccc3[nH]6)C=C5)C=C4)cc1)n2Cc1ccc(Cl)cc1
REMARK SMILES IDX 25 1 24 2 23 3 21 4 22 5 18 7 19 8 20 9 17 10 16 11 4 12
REMARK SMILES IDX 5 13 9 14 6 15 8 16 7 17 10 18 96 19 2 20 1 21 3 22 11 23
REMARK SMILES IDX 12 24 13 25 14 26 15 27 97 28 98 29 99 30 104 31 100 32
REMARK SMILES IDX 103 33 101 34 102 35 26 36 27 37 28 38 29 39 30 40 31 41
REMARK SMILES IDX 32 43 33 44 34 45 95 46 35 47 94 48 36 49 37 50 38 51 88 52
REMARK SMILES IDX 39 53 93 54 87 55 89 56 40 57 92 58 86 59 85 60 41 62 73 63
REMARK SMILES IDX 53 64 72 65 54 66 57 67 71 68 90 69 55 70 56 71 70 73 91 74
REMARK SMILES IDX 58 75 42 76 43 77 51 78 44 79 45 80 49 81 52 82 46 83 47 84
REMARK SMILES IDX 50 85 48 86 74 87 75 88 83 89 76 90 77 91 81 92 84 93 78 94
REMARK SMILES IDX 79 95 82 96 80 97 59 98 60 99 68 100 61 101 62 102 66 103
REMARK SMILES IDX 69 104 63 105 64 106 67 107 65 108
REMARK H PARENT 23 6 30 42 89 61 57 72
REMARK Flexibility Score: inf
ROOT
ATOM      1  C   UNL A   1      38.613  28.039  28.430  1.00  0.00     0.021 C 
ENDROOT
BRANCH   1   2
ATOM      2  C   UNL A   1      40.057  27.889  28.019  1.00  0.00     0.116 C 
BRANCH   2   3
ATOM      3  N   UNL A   1      40.925  27.677  29.159  1.00  0.00    -0.356 N 
ATOM      4  C   UNL A   1      42.117  27.000  29.212  1.00  0.00     0.226 C 
ATOM      5  O   UNL A   1      42.865  27.282  30.139  1.00  0.00    -0.275 OA
ATOM      6  H   UNL A   1      40.619  28.071  30.007  1.00  0.00     0.163 HD
BRANCH   4   7
ATOM      7  C   UNL A   1      42.535  26.143  28.013  1.00  0.00     0.049 C 
ATOM      8  C   UNL A   1      43.083  24.925  28.799  1.00  0.00     0.022 C 
ATOM      9  C   UNL A   1      43.507  26.965  27.115  1.00  0.00     0.022 C 
BRANCH   7  10
ATOM     10  C   UNL A   1      41.425  25.731  26.996  1.00  0.00     0.071 C 
BRANCH  10  11
ATOM     11  C   UNL A   1      41.452  24.349  26.495  1.00  0.00     0.034 A 
ATOM     12  C   UNL A   1      42.442  19.847  25.987  1.00  0.00    -0.045 A 
ATOM     13  C   UNL A   1      41.163  19.760  26.550  1.00  0.00     0.006 A 
ATOM     14  C   UNL A   1      42.901  21.127  25.612  1.00  0.00     0.015 A 
ATOM     15  C   UNL A   1      40.398  20.894  26.849  1.00  0.00     0.027 A 
ATOM     16  C   UNL A   1      42.159  22.305  25.905  1.00  0.00     0.014 A 
ATOM     17  C   UNL A   1      40.934  22.159  26.565  1.00  0.00     0.050 A 
ATOM     18  C   UNL A   1      42.405  23.717  25.709  1.00  0.00     0.037 A 
ATOM     19  N   UNL A   1      40.452  23.434  26.825  1.00  0.00    -0.339 N 
BRANCH  12  20
ATOM     20  C   UNL A   1      43.277  18.581  25.778  1.00  0.00     0.013 C 
ATOM     21  C   UNL A   1      44.729  18.831  25.342  1.00  0.00     0.012 C 
ATOM     22  C   UNL A   1      43.323  17.689  27.034  1.00  0.00     0.012 C 
ENDBRANCH  12  20
BRANCH  18  23
ATOM     23  S   UNL A   1      43.873  24.275  24.870  1.00  0.00    -0.118 SA
BRANCH  23  24
ATOM     24  C   UNL A   1      45.540  23.576  25.336  1.00  0.00     0.012 C 
ATOM     25  C   UNL A   1      45.622  23.293  26.838  1.00  0.00     0.023 C 
ATOM     26  C   UNL A   1      46.184  22.393  24.579  1.00  0.00     0.023 C 
ATOM     27  C   UNL A   1      46.503  24.742  24.977  1.00  0.00     0.023 C 
ENDBRANCH  23  24
ENDBRANCH  18  23
BRANCH  19  28
ATOM     28  C   UNL A   1      39.038  23.727  27.186  1.00  0.00     0.158 C 
BRANCH  28  29
ATOM     29  C   UNL A   1      37.971  23.554  26.117  1.00  0.00    -0.028 A 
ATOM     30  C   UNL A   1      36.862  24.423  26.054  1.00  0.00     0.007 A 
ATOM     31  C   UNL A   1      38.035  22.512  25.177  1.00  0.00     0.007 A 
ATOM     32  C   UNL A   1      35.769  24.148  25.226  1.00  0.00     0.021 A 
ATOM     33  C   UNL A   1      36.961  22.265  24.306  1.00  0.00     0.021 A 
ATOM     34  C   UNL A   1      35.813  23.053  24.373  1.00  0.00     0.041 A 
ATOM     35  Cl  UNL A   1      34.431  22.653  23.428  1.00  0.00    -0.084 Cl
ENDBRANCH  28  29
ENDBRANCH  19  28
ENDBRANCH  10  11
ENDBRANCH   7  10
ENDBRANCH   4   7
ENDBRANCH   2   3
ENDBRANCH   1   2
BRANCH   1  36
ATOM     36  C   UNL A   1      38.108  29.452  28.180  1.00  0.00     0.002 C 
BRANCH  36  37
ATOM     37  C   UNL A   1      36.583  29.594  28.265  1.00  0.00     0.002 C 
BRANCH  37  38
ATOM     38  C   UNL A   1      36.025  30.917  27.723  1.00  0.00     0.021 C 
BRANCH  38  39
ATOM     39  C   UNL A   1      34.497  30.965  27.669  1.00  0.00     0.116 C 
BRANCH  39  40
ATOM     40  N   UNL A   1      33.955  32.216  28.150  1.00  0.00    -0.352 N 
ATOM     41  C   UNL A   1      34.250  33.048  29.190  1.00  0.00     0.251 C 
ATOM     42  H   UNL A   1      33.203  32.541  27.606  1.00  0.00     0.163 HD
ATOM     43  O   UNL A   1      33.504  34.015  29.348  1.00  0.00    -0.269 OA
BRANCH  41  44
ATOM     44  C   UNL A   1      35.374  32.842  30.143  1.00  0.00     0.039 A 
ATOM     45  C   UNL A   1      35.417  31.881  31.154  1.00  0.00     0.014 A 
ATOM     46  C   UNL A   1      36.478  33.697  29.982  1.00  0.00     0.014 A 
ATOM     47  C   UNL A   1      36.489  31.825  32.033  1.00  0.00     0.010 A 
ATOM     48  C   UNL A   1      37.574  33.616  30.831  1.00  0.00     0.010 A 
ATOM     49  C   UNL A   1      37.561  32.703  31.881  1.00  0.00    -0.014 A 
BRANCH  49  50
ATOM     50  C   UNL A   1      38.685  32.552  32.802  1.00  0.00     0.031 A 
ATOM     51  C   UNL A   1      38.570  33.287  34.096  1.00  0.00     0.074 A 
ATOM     52  C   UNL A   1      39.708  31.711  32.566  1.00  0.00     0.049 A 
ATOM     53  N   UNL A   1      39.409  34.117  34.636  1.00  0.00    -0.248 NA
ATOM     54  C   UNL A   1      37.326  33.115  34.864  1.00  0.00     0.031 C 
ATOM     55  C   UNL A   1      39.826  30.721  31.492  1.00  0.00     0.029 A 
ATOM     56  N   UNL A   1      40.822  31.487  33.322  1.00  0.00    -0.354 N 
ATOM     57  C   UNL A   1      38.868  34.462  35.873  1.00  0.00     0.074 A 
ATOM     58  C   UNL A   1      37.547  33.891  35.924  1.00  0.00     0.031 C 
ATOM     59  C   UNL A   1      40.819  29.858  31.794  1.00  0.00     0.029 A 
ATOM     60  C   UNL A   1      41.486  30.315  33.001  1.00  0.00     0.049 A 
ATOM     61  H   UNL A   1      41.124  32.102  34.029  1.00  0.00     0.167 HD
ATOM     62  C   UNL A   1      39.600  35.052  36.855  1.00  0.00     0.037 A 
ATOM     63  C   UNL A   1      42.461  29.720  33.724  1.00  0.00     0.037 A 
ATOM     64  C   UNL A   1      40.803  35.652  36.358  1.00  0.00     0.049 A 
ATOM     65  C   UNL A   1      43.050  30.738  34.625  1.00  0.00     0.074 A 
ATOM     66  C   UNL A   1      41.103  36.723  35.543  1.00  0.00     0.029 A 
ATOM     67  N   UNL A   1      41.962  34.934  36.486  1.00  0.00    -0.354 N 
ATOM     68  N   UNL A   1      43.767  31.751  34.226  1.00  0.00    -0.248 NA
ATOM     69  C   UNL A   1      42.572  30.814  35.997  1.00  0.00     0.031 C 
ATOM     70  C   UNL A   1      42.316  36.370  34.885  1.00  0.00     0.029 A 
ATOM     71  C   UNL A   1      42.698  35.109  35.344  1.00  0.00     0.049 A 
ATOM     72  H   UNL A   1      42.221  34.388  37.264  1.00  0.00     0.167 HD
ATOM     73  C   UNL A   1      43.482  32.758  35.134  1.00  0.00     0.074 A 
ATOM     74  C   UNL A   1      42.878  32.082  36.273  1.00  0.00     0.031 C 
ATOM     75  C   UNL A   1      43.505  34.067  34.752  1.00  0.00     0.037 A 
BRANCH  62  76
ATOM     76  C   UNL A   1      39.386  34.802  38.325  1.00  0.00     0.064 A 
ATOM     77  C   UNL A   1      39.189  35.882  39.208  1.00  0.00     0.173 A 
ATOM     78  C   UNL A   1      39.658  33.557  38.928  1.00  0.00     0.173 A 
ATOM     79  F   UNL A   1      38.970  37.118  38.736  1.00  0.00    -0.203 F 
ATOM     80  C   UNL A   1      39.294  35.727  40.594  1.00  0.00     0.198 A 
ATOM     81  C   UNL A   1      39.713  33.395  40.312  1.00  0.00     0.198 A 
ATOM     82  F   UNL A   1      39.988  32.482  38.199  1.00  0.00    -0.203 F 
ATOM     83  F   UNL A   1      39.203  36.797  41.394  1.00  0.00    -0.200 F 
ATOM     84  C   UNL A   1      39.555  34.484  41.143  1.00  0.00     0.200 A 
ATOM     85  F   UNL A   1      39.994  32.189  40.824  1.00  0.00    -0.200 F 
ATOM     86  F   UNL A   1      39.703  34.342  42.467  1.00  0.00    -0.200 F 
ENDBRANCH  62  76
BRANCH  63  87
ATOM     87  C   UNL A   1      42.708  28.271  33.899  1.00  0.00     0.064 A 
ATOM     88  C   UNL A   1      43.857  27.668  33.362  1.00  0.00     0.173 A 
ATOM     89  C   UNL A   1      41.975  27.510  34.831  1.00  0.00     0.173 A 
ATOM     90  F   UNL A   1      44.632  28.342  32.500  1.00  0.00    -0.203 F 
ATOM     91  C   UNL A   1      44.267  26.393  33.760  1.00  0.00     0.198 A 
ATOM     92  C   UNL A   1      42.378  26.233  35.217  1.00  0.00     0.198 A 
ATOM     93  F   UNL A   1      40.910  28.027  35.459  1.00  0.00    -0.203 F 
ATOM     94  F   UNL A   1      45.408  25.879  33.282  1.00  0.00    -0.200 F 
ATOM     95  C   UNL A   1      43.533  25.681  34.696  1.00  0.00     0.200 A 
ATOM     96  F   UNL A   1      41.679  25.569  36.149  1.00  0.00    -0.200 F 
ATOM     97  F   UNL A   1      43.962  24.487  35.127  1.00  0.00    -0.200 F 
ENDBRANCH  63  87
BRANCH  75  98
ATOM     98  C   UNL A   1      44.212  34.400  33.469  1.00  0.00     0.064 A 
ATOM     99  C   UNL A   1      43.598  34.388  32.206  1.00  0.00     0.173 A 
ATOM    100  C   UNL A   1      45.533  34.862  33.542  1.00  0.00     0.173 A 
ATOM    101  F   UNL A   1      42.307  34.056  32.070  1.00  0.00    -0.203 F 
ATOM    102  C   UNL A   1      44.294  34.775  31.062  1.00  0.00     0.198 A 
ATOM    103  C   UNL A   1      46.213  35.285  32.404  1.00  0.00     0.198 A 
ATOM    104  F   UNL A   1      46.151  34.949  34.731  1.00  0.00    -0.203 F 
ATOM    105  F   UNL A   1      43.692  34.740  29.864  1.00  0.00    -0.200 F 
ATOM    106  C   UNL A   1      45.598  35.229  31.164  1.00  0.00     0.200 A 
ATOM    107  F   UNL A   1      47.457  35.773  32.514  1.00  0.00    -0.200 F 
ATOM    108  F   UNL A   1      46.254  35.641  30.070  1.00  0.00    -0.200 F 
ENDBRANCH  75  98
ENDBRANCH  49  50
ENDBRANCH  41  44
ENDBRANCH  39  40
ENDBRANCH  38  39
ENDBRANCH  37  38
ENDBRANCH  36  37
ENDBRANCH   1  36
TORSDOF 20
ENDMDL
