MODEL 1
REMARK VINA RESULT:     -12.0      0.000      0.000
REMARK SMILES CC(C)c1cc(=O)[nH]c(SCC(=O)NCCCCCCNC(=O)c2ccc(-c3c4nc(c(-c5c(F)c(F)c(F)c(F)c5F)c5ccc([nH]5)c(-c5c(F)c(F)c(F)c(F)c5F)c5nc(c(-c6c(F)c(F)c(F)c(F)c6F)c6ccc3[nH]6)C=C5)C=C4)cc2)n1
REMARK SMILES IDX 17 1 16 2 15 3 14 4 12 5 13 6 11 8 10 9 9 10 4 11 5 12 87 13
REMARK SMILES IDX 6 14 7 15 8 16 2 18 1 19 3 20 18 21 19 22 20 23 21 24 22 25
REMARK SMILES IDX 23 27 24 28 25 29 86 30 26 31 85 32 27 33 28 34 29 35 79 36
REMARK SMILES IDX 30 37 84 38 78 39 80 40 31 41 83 42 77 43 76 44 32 46 64 47
REMARK SMILES IDX 44 48 63 49 45 50 48 51 62 52 81 53 46 54 47 55 61 57 82 58
REMARK SMILES IDX 49 59 33 60 34 61 42 62 35 63 36 64 40 65 43 66 37 67 38 68
REMARK SMILES IDX 41 69 39 70 65 71 66 72 74 73 67 74 68 75 72 76 75 77 69 78
REMARK SMILES IDX 70 79 73 80 71 81 50 82 51 83 59 84 52 85 53 86 57 87 60 88
REMARK SMILES IDX 54 89 55 90 58 91 56 92
REMARK H PARENT 14 7 8 17 21 26 80 45 48 56
REMARK Flexibility Score: inf
ROOT
ATOM      1  C   UNL A   1      32.151  29.836  27.081  1.00  0.00     0.002 C 
ENDROOT
BRANCH   1   2
ATOM      2  C   UNL A   1      33.669  29.619  26.988  1.00  0.00     0.021 C 
BRANCH   2   3
ATOM      3  C   UNL A   1      34.079  28.457  26.080  1.00  0.00     0.116 C 
BRANCH   3   4
ATOM      4  N   UNL A   1      34.086  28.862  24.690  1.00  0.00    -0.355 N 
ATOM      5  C   UNL A   1      33.205  28.600  23.684  1.00  0.00     0.230 C 
ATOM      6  O   UNL A   1      33.432  29.132  22.594  1.00  0.00    -0.274 OA
ATOM      7  H   UNL A   1      34.855  29.419  24.428  1.00  0.00     0.163 HD
BRANCH   5   8
ATOM      8  C   UNL A   1      31.921  27.826  23.928  1.00  0.00     0.178 C 
BRANCH   8   9
ATOM      9  S   UNL A   1      30.946  27.438  22.456  1.00  0.00    -0.078 SA
BRANCH   9  10
ATOM     10  C   UNL A   1      29.687  28.621  22.518  1.00  0.00     0.168 A 
ATOM     11  C   UNL A   1      28.730  30.666  22.262  1.00  0.00     0.051 A 
ATOM     12  C   UNL A   1      27.544  30.248  22.732  1.00  0.00     0.095 A 
ATOM     13  N   UNL A   1      29.831  29.844  22.151  1.00  0.00    -0.229 NA
ATOM     14  C   UNL A   1      27.413  28.847  23.150  1.00  0.00     0.251 A 
ATOM     15  O   UNL A   1      26.359  28.401  23.591  1.00  0.00    -0.269 OA
ATOM     16  N   UNL A   1      28.535  28.096  23.010  1.00  0.00    -0.301 N 
ATOM     17  H   UNL A   1      28.514  27.148  23.273  1.00  0.00     0.172 HD
BRANCH  11  18
ATOM     18  C   UNL A   1      28.921  32.112  21.829  1.00  0.00     0.032 C 
ATOM     19  C   UNL A   1      27.879  32.515  20.784  1.00  0.00     0.014 C 
ATOM     20  C   UNL A   1      28.892  33.068  23.023  1.00  0.00     0.014 C 
ENDBRANCH  11  18
ENDBRANCH   9  10
ENDBRANCH   8   9
ENDBRANCH   5   8
ENDBRANCH   3   4
ENDBRANCH   2   3
ENDBRANCH   1   2
BRANCH   1  21
ATOM     21  C   UNL A   1      31.576  30.867  26.103  1.00  0.00     0.002 C 
BRANCH  21  22
ATOM     22  C   UNL A   1      31.344  32.260  26.691  1.00  0.00     0.021 C 
BRANCH  22  23
ATOM     23  C   UNL A   1      32.579  32.899  27.318  1.00  0.00     0.116 C 
BRANCH  23  24
ATOM     24  N   UNL A   1      32.363  34.293  27.669  1.00  0.00    -0.352 N 
ATOM     25  C   UNL A   1      32.973  35.052  28.638  1.00  0.00     0.251 C 
ATOM     26  H   UNL A   1      31.681  34.760  27.136  1.00  0.00     0.163 HD
ATOM     27  O   UNL A   1      32.538  36.165  28.916  1.00  0.00    -0.269 OA
BRANCH  25  28
ATOM     28  C   UNL A   1      34.144  34.518  29.365  1.00  0.00     0.039 A 
ATOM     29  C   UNL A   1      33.946  33.902  30.604  1.00  0.00     0.014 A 
ATOM     30  C   UNL A   1      35.432  34.629  28.836  1.00  0.00     0.014 A 
ATOM     31  C   UNL A   1      35.031  33.341  31.280  1.00  0.00     0.010 A 
ATOM     32  C   UNL A   1      36.500  34.004  29.474  1.00  0.00     0.010 A 
ATOM     33  C   UNL A   1      36.312  33.356  30.704  1.00  0.00    -0.014 A 
BRANCH  33  34
ATOM     34  C   UNL A   1      37.463  32.697  31.372  1.00  0.00     0.031 A 
ATOM     35  C   UNL A   1      38.161  31.540  30.711  1.00  0.00     0.074 A 
ATOM     36  C   UNL A   1      37.843  33.102  32.599  1.00  0.00     0.049 A 
ATOM     37  N   UNL A   1      39.137  30.793  31.164  1.00  0.00    -0.248 NA
ATOM     38  C   UNL A   1      37.679  31.153  29.377  1.00  0.00     0.031 C 
ATOM     39  C   UNL A   1      37.219  34.184  33.363  1.00  0.00     0.029 A 
ATOM     40  N   UNL A   1      38.838  32.644  33.426  1.00  0.00    -0.354 N 
ATOM     41  C   UNL A   1      39.379  29.848  30.175  1.00  0.00     0.074 A 
ATOM     42  C   UNL A   1      38.409  30.075  29.127  1.00  0.00     0.031 C 
ATOM     43  C   UNL A   1      37.859  34.321  34.535  1.00  0.00     0.029 A 
ATOM     44  C   UNL A   1      38.910  33.311  34.625  1.00  0.00     0.049 A 
ATOM     45  H   UNL A   1      39.444  31.907  33.183  1.00  0.00     0.167 HD
ATOM     46  C   UNL A   1      40.339  28.894  30.135  1.00  0.00     0.037 A 
ATOM     47  C   UNL A   1      39.723  33.123  35.681  1.00  0.00     0.037 A 
ATOM     48  C   UNL A   1      41.314  28.680  31.174  1.00  0.00     0.049 A 
ATOM     49  C   UNL A   1      40.768  32.040  35.620  1.00  0.00     0.074 A 
ATOM     50  C   UNL A   1      42.356  27.771  31.205  1.00  0.00     0.029 A 
ATOM     51  N   UNL A   1      41.361  29.383  32.368  1.00  0.00    -0.354 N 
ATOM     52  N   UNL A   1      41.030  31.195  34.652  1.00  0.00    -0.248 NA
ATOM     53  C   UNL A   1      41.634  31.889  36.797  1.00  0.00     0.031 C 
ATOM     54  C   UNL A   1      43.003  27.889  32.440  1.00  0.00     0.029 A 
ATOM     55  C   UNL A   1      42.400  28.913  33.154  1.00  0.00     0.049 A 
ATOM     56  H   UNL A   1      40.746  30.110  32.621  1.00  0.00     0.167 HD
ATOM     57  C   UNL A   1      42.108  30.437  35.088  1.00  0.00     0.074 A 
ATOM     58  C   UNL A   1      42.461  30.931  36.402  1.00  0.00     0.031 C 
ATOM     59  C   UNL A   1      42.748  29.422  34.457  1.00  0.00     0.037 A 
BRANCH  46  60
ATOM     60  C   UNL A   1      40.387  28.007  28.923  1.00  0.00     0.064 A 
ATOM     61  C   UNL A   1      41.145  28.349  27.791  1.00  0.00     0.173 A 
ATOM     62  C   UNL A   1      39.699  26.785  28.904  1.00  0.00     0.173 A 
ATOM     63  F   UNL A   1      41.814  29.511  27.752  1.00  0.00    -0.203 F 
ATOM     64  C   UNL A   1      41.185  27.515  26.675  1.00  0.00     0.198 A 
ATOM     65  C   UNL A   1      39.768  25.938  27.800  1.00  0.00     0.198 A 
ATOM     66  F   UNL A   1      38.965  26.405  29.960  1.00  0.00    -0.203 F 
ATOM     67  F   UNL A   1      41.873  27.888  25.588  1.00  0.00    -0.200 F 
ATOM     68  C   UNL A   1      40.504  26.308  26.684  1.00  0.00     0.200 A 
ATOM     69  F   UNL A   1      39.121  24.764  27.816  1.00  0.00    -0.200 F 
ATOM     70  F   UNL A   1      40.550  25.503  25.613  1.00  0.00    -0.200 F 
ENDBRANCH  46  60
BRANCH  47  71
ATOM     71  C   UNL A   1      39.598  33.990  36.883  1.00  0.00     0.064 A 
ATOM     72  C   UNL A   1      40.259  35.225  36.952  1.00  0.00     0.173 A 
ATOM     73  C   UNL A   1      38.830  33.599  37.989  1.00  0.00     0.173 A 
ATOM     74  F   UNL A   1      41.022  35.634  35.928  1.00  0.00    -0.203 F 
ATOM     75  C   UNL A   1      40.178  36.022  38.092  1.00  0.00     0.198 A 
ATOM     76  C   UNL A   1      38.724  34.412  39.116  1.00  0.00     0.198 A 
ATOM     77  F   UNL A   1      38.174  32.430  37.972  1.00  0.00    -0.203 F 
ATOM     78  F   UNL A   1      40.863  37.173  38.152  1.00  0.00    -0.200 F 
ATOM     79  C   UNL A   1      39.407  35.618  39.171  1.00  0.00     0.200 A 
ATOM     80  F   UNL A   1      37.965  34.025  40.150  1.00  0.00    -0.200 F 
ATOM     81  F   UNL A   1      39.327  36.386  40.266  1.00  0.00    -0.200 F 
ENDBRANCH  47  71
BRANCH  59  82
ATOM     82  C   UNL A   1      43.922  28.804  35.159  1.00  0.00     0.064 A 
ATOM     83  C   UNL A   1      45.226  29.290  34.986  1.00  0.00     0.173 A 
ATOM     84  C   UNL A   1      43.734  27.733  36.046  1.00  0.00     0.173 A 
ATOM     85  F   UNL A   1      45.463  30.302  34.138  1.00  0.00    -0.203 F 
ATOM     86  C   UNL A   1      46.301  28.710  35.655  1.00  0.00     0.198 A 
ATOM     87  C   UNL A   1      44.806  27.177  36.738  1.00  0.00     0.198 A 
ATOM     88  F   UNL A   1      42.506  27.234  36.254  1.00  0.00    -0.203 F 
ATOM     89  F   UNL A   1      47.546  29.157  35.434  1.00  0.00    -0.200 F 
ATOM     90  C   UNL A   1      46.089  27.659  36.535  1.00  0.00     0.200 A 
ATOM     91  F   UNL A   1      44.597  26.173  37.602  1.00  0.00    -0.200 F 
ATOM     92  F   UNL A   1      47.124  27.107  37.184  1.00  0.00    -0.200 F 
ENDBRANCH  59  82
ENDBRANCH  33  34
ENDBRANCH  25  28
ENDBRANCH  23  24
ENDBRANCH  22  23
ENDBRANCH  21  22
ENDBRANCH   1  21
TORSDOF 16
ENDMDL
MODEL 2
REMARK VINA RESULT:     -11.8      0.660      2.094
REMARK SMILES CC(C)c1cc(=O)[nH]c(SCC(=O)NCCCCCCNC(=O)c2ccc(-c3c4nc(c(-c5c(F)c(F)c(F)c(F)c5F)c5ccc([nH]5)c(-c5c(F)c(F)c(F)c(F)c5F)c5nc(c(-c6c(F)c(F)c(F)c(F)c6F)c6ccc3[nH]6)C=C5)C=C4)cc2)n1
REMARK SMILES IDX 17 1 16 2 15 3 14 4 12 5 13 6 11 8 10 9 9 10 4 11 5 12 87 13
REMARK SMILES IDX 6 14 7 15 8 16 2 18 1 19 3 20 18 21 19 22 20 23 21 24 22 25
REMARK SMILES IDX 23 27 24 28 25 29 86 30 26 31 85 32 27 33 28 34 29 35 79 36
REMARK SMILES IDX 30 37 84 38 78 39 80 40 31 41 83 42 77 43 76 44 32 46 64 47
REMARK SMILES IDX 44 48 63 49 45 50 48 51 62 52 81 53 46 54 47 55 61 57 82 58
REMARK SMILES IDX 49 59 33 60 34 61 42 62 35 63 36 64 40 65 43 66 37 67 38 68
REMARK SMILES IDX 41 69 39 70 65 71 66 72 74 73 67 74 68 75 72 76 75 77 69 78
REMARK SMILES IDX 70 79 73 80 71 81 50 82 51 83 59 84 52 85 53 86 57 87 60 88
REMARK SMILES IDX 54 89 55 90 58 91 56 92
REMARK H PARENT 14 7 8 17 21 26 80 45 48 56
REMARK Flexibility Score: inf
ROOT
ATOM      1  C   UNL A   1      32.739  30.034  27.137  1.00  0.00     0.002 C 
ENDROOT
BRANCH   1   2
ATOM      2  C   UNL A   1      33.637  29.189  26.222  1.00  0.00     0.021 C 
BRANCH   2   3
ATOM      3  C   UNL A   1      33.565  27.685  26.493  1.00  0.00     0.116 C 
BRANCH   3   4
ATOM      4  N   UNL A   1      32.223  27.183  26.281  1.00  0.00    -0.355 N 
ATOM      5  C   UNL A   1      31.436  27.194  25.168  1.00  0.00     0.230 C 
ATOM      6  O   UNL A   1      30.341  26.634  25.258  1.00  0.00    -0.274 OA
ATOM      7  H   UNL A   1      31.811  26.767  27.072  1.00  0.00     0.163 HD
BRANCH   5   8
ATOM      8  C   UNL A   1      31.942  27.724  23.838  1.00  0.00     0.178 C 
BRANCH   8   9
ATOM      9  S   UNL A   1      30.937  27.306  22.394  1.00  0.00    -0.078 SA
BRANCH   9  10
ATOM     10  C   UNL A   1      29.686  28.499  22.450  1.00  0.00     0.168 A 
ATOM     11  C   UNL A   1      28.730  30.537  22.136  1.00  0.00     0.051 A 
ATOM     12  C   UNL A   1      27.562  30.149  22.672  1.00  0.00     0.095 A 
ATOM     13  N   UNL A   1      29.821  29.703  22.020  1.00  0.00    -0.229 NA
ATOM     14  C   UNL A   1      27.442  28.770  23.162  1.00  0.00     0.251 A 
ATOM     15  O   UNL A   1      26.404  28.352  23.665  1.00  0.00    -0.269 OA
ATOM     16  N   UNL A   1      28.553  28.006  23.013  1.00  0.00    -0.301 N 
ATOM     17  H   UNL A   1      28.538  27.071  23.321  1.00  0.00     0.172 HD
BRANCH  11  18
ATOM     18  C   UNL A   1      28.910  31.959  21.627  1.00  0.00     0.032 C 
ATOM     19  C   UNL A   1      27.961  32.251  20.463  1.00  0.00     0.014 C 
ATOM     20  C   UNL A   1      28.730  32.986  22.746  1.00  0.00     0.014 C 
ENDBRANCH  11  18
ENDBRANCH   9  10
ENDBRANCH   8   9
ENDBRANCH   5   8
ENDBRANCH   3   4
ENDBRANCH   2   3
ENDBRANCH   1   2
BRANCH   1  21
ATOM     21  C   UNL A   1      31.537  30.693  26.449  1.00  0.00     0.002 C 
BRANCH  21  22
ATOM     22  C   UNL A   1      31.410  32.201  26.671  1.00  0.00     0.021 C 
BRANCH  22  23
ATOM     23  C   UNL A   1      32.648  32.864  27.266  1.00  0.00     0.116 C 
BRANCH  23  24
ATOM     24  N   UNL A   1      32.412  34.250  27.633  1.00  0.00    -0.352 N 
ATOM     25  C   UNL A   1      33.002  35.003  28.618  1.00  0.00     0.251 C 
ATOM     26  H   UNL A   1      31.728  34.715  27.100  1.00  0.00     0.163 HD
ATOM     27  O   UNL A   1      32.551  36.107  28.906  1.00  0.00    -0.269 OA
BRANCH  25  28
ATOM     28  C   UNL A   1      34.173  34.474  29.349  1.00  0.00     0.039 A 
ATOM     29  C   UNL A   1      33.969  33.824  30.568  1.00  0.00     0.014 A 
ATOM     30  C   UNL A   1      35.467  34.624  28.842  1.00  0.00     0.014 A 
ATOM     31  C   UNL A   1      35.055  33.266  31.247  1.00  0.00     0.010 A 
ATOM     32  C   UNL A   1      36.537  34.004  29.481  1.00  0.00     0.010 A 
ATOM     33  C   UNL A   1      36.343  33.321  30.691  1.00  0.00    -0.014 A 
BRANCH  33  34
ATOM     34  C   UNL A   1      37.498  32.668  31.360  1.00  0.00     0.031 A 
ATOM     35  C   UNL A   1      38.215  31.529  30.690  1.00  0.00     0.074 A 
ATOM     36  C   UNL A   1      37.863  33.062  32.596  1.00  0.00     0.049 A 
ATOM     37  N   UNL A   1      39.197  30.789  31.141  1.00  0.00    -0.248 NA
ATOM     38  C   UNL A   1      37.749  31.153  29.347  1.00  0.00     0.031 C 
ATOM     39  C   UNL A   1      37.219  34.126  33.368  1.00  0.00     0.029 A 
ATOM     40  N   UNL A   1      38.857  32.606  33.425  1.00  0.00    -0.354 N 
ATOM     41  C   UNL A   1      39.459  29.859  30.143  1.00  0.00     0.074 A 
ATOM     42  C   UNL A   1      38.495  30.088  29.089  1.00  0.00     0.031 C 
ATOM     43  C   UNL A   1      37.847  34.255  34.548  1.00  0.00     0.029 A 
ATOM     44  C   UNL A   1      38.910  33.257  34.633  1.00  0.00     0.049 A 
ATOM     45  H   UNL A   1      39.473  31.879  33.178  1.00  0.00     0.167 HD
ATOM     46  C   UNL A   1      40.432  28.918  30.098  1.00  0.00     0.037 A 
ATOM     47  C   UNL A   1      39.717  33.067  35.693  1.00  0.00     0.037 A 
ATOM     48  C   UNL A   1      41.401  28.703  31.142  1.00  0.00     0.049 A 
ATOM     49  C   UNL A   1      40.776  31.997  35.627  1.00  0.00     0.074 A 
ATOM     50  C   UNL A   1      42.455  27.807  31.170  1.00  0.00     0.029 A 
ATOM     51  N   UNL A   1      41.429  29.391  32.346  1.00  0.00    -0.354 N 
ATOM     52  N   UNL A   1      41.057  31.169  34.650  1.00  0.00    -0.248 NA
ATOM     53  C   UNL A   1      41.635  31.842  36.809  1.00  0.00     0.031 C 
ATOM     54  C   UNL A   1      43.089  27.917  32.411  1.00  0.00     0.029 A 
ATOM     55  C   UNL A   1      42.468  28.924  33.134  1.00  0.00     0.049 A 
ATOM     56  H   UNL A   1      40.803  30.107  32.602  1.00  0.00     0.167 HD
ATOM     57  C   UNL A   1      42.140  30.419  35.085  1.00  0.00     0.074 A 
ATOM     58  C   UNL A   1      42.476  30.900  36.408  1.00  0.00     0.031 C 
ATOM     59  C   UNL A   1      42.798  29.420  34.446  1.00  0.00     0.037 A 
BRANCH  46  60
ATOM     60  C   UNL A   1      40.501  28.048  28.875  1.00  0.00     0.064 A 
ATOM     61  C   UNL A   1      39.794  26.838  28.793  1.00  0.00     0.173 A 
ATOM     62  C   UNL A   1      41.251  28.444  27.757  1.00  0.00     0.173 A 
ATOM     63  F   UNL A   1      39.069  26.408  29.836  1.00  0.00    -0.203 F 
ATOM     64  C   UNL A   1      39.861  26.043  27.651  1.00  0.00     0.198 A 
ATOM     65  C   UNL A   1      41.290  27.663  26.604  1.00  0.00     0.198 A 
ATOM     66  F   UNL A   1      41.941  29.594  27.778  1.00  0.00    -0.203 F 
ATOM     67  F   UNL A   1      39.220  24.867  27.617  1.00  0.00    -0.200 F 
ATOM     68  C   UNL A   1      40.603  26.459  26.556  1.00  0.00     0.200 A 
ATOM     69  F   UNL A   1      41.995  28.074  25.541  1.00  0.00    -0.200 F 
ATOM     70  F   UNL A   1      40.661  25.697  25.455  1.00  0.00    -0.200 F 
ENDBRANCH  46  60
BRANCH  47  71
ATOM     71  C   UNL A   1      39.571  33.916  36.905  1.00  0.00     0.064 A 
ATOM     72  C   UNL A   1      38.804  33.485  37.998  1.00  0.00     0.173 A 
ATOM     73  C   UNL A   1      40.178  35.177  36.991  1.00  0.00     0.173 A 
ATOM     74  F   UNL A   1      38.187  32.296  37.955  1.00  0.00    -0.203 F 
ATOM     75  C   UNL A   1      38.630  34.295  39.119  1.00  0.00     0.198 A 
ATOM     76  C   UNL A   1      40.028  35.972  38.126  1.00  0.00     0.198 A 
ATOM     77  F   UNL A   1      40.925  35.634  35.975  1.00  0.00    -0.203 F 
ATOM     78  F   UNL A   1      37.849  33.881  40.126  1.00  0.00    -0.200 F 
ATOM     79  C   UNL A   1      39.246  35.535  39.184  1.00  0.00     0.200 A 
ATOM     80  F   UNL A   1      40.639  37.164  38.191  1.00  0.00    -0.200 F 
ATOM     81  F   UNL A   1      39.080  36.312  40.263  1.00  0.00    -0.200 F 
ENDBRANCH  47  71
BRANCH  59  82
ATOM     82  C   UNL A   1      43.975  28.808  35.150  1.00  0.00     0.064 A 
ATOM     83  C   UNL A   1      43.839  27.680  35.972  1.00  0.00     0.173 A 
ATOM     84  C   UNL A   1      45.262  29.336  34.970  1.00  0.00     0.173 A 
ATOM     85  F   UNL A   1      42.628  27.145  36.190  1.00  0.00    -0.203 F 
ATOM     86  C   UNL A   1      44.944  27.120  36.609  1.00  0.00     0.198 A 
ATOM     87  C   UNL A   1      46.369  28.755  35.581  1.00  0.00     0.198 A 
ATOM     88  F   UNL A   1      45.449  30.411  34.188  1.00  0.00    -0.203 F 
ATOM     89  F   UNL A   1      44.783  26.074  37.431  1.00  0.00    -0.200 F 
ATOM     90  C   UNL A   1      46.208  27.654  36.406  1.00  0.00     0.200 A 
ATOM     91  F   UNL A   1      47.592  29.261  35.370  1.00  0.00    -0.200 F 
ATOM     92  F   UNL A   1      47.272  27.109  37.013  1.00  0.00    -0.200 F 
ENDBRANCH  59  82
ENDBRANCH  33  34
ENDBRANCH  25  28
ENDBRANCH  23  24
ENDBRANCH  22  23
ENDBRANCH  21  22
ENDBRANCH   1  21
TORSDOF 16
ENDMDL
MODEL 3
REMARK VINA RESULT:     -11.5      6.948     11.042
REMARK SMILES CC(C)c1cc(=O)[nH]c(SCC(=O)NCCCCCCNC(=O)c2ccc(-c3c4nc(c(-c5c(F)c(F)c(F)c(F)c5F)c5ccc([nH]5)c(-c5c(F)c(F)c(F)c(F)c5F)c5nc(c(-c6c(F)c(F)c(F)c(F)c6F)c6ccc3[nH]6)C=C5)C=C4)cc2)n1
REMARK SMILES IDX 17 1 16 2 15 3 14 4 12 5 13 6 11 8 10 9 9 10 4 11 5 12 87 13
REMARK SMILES IDX 6 14 7 15 8 16 2 18 1 19 3 20 18 21 19 22 20 23 21 24 22 25
REMARK SMILES IDX 23 27 24 28 25 29 86 30 26 31 85 32 27 33 28 34 29 35 79 36
REMARK SMILES IDX 30 37 84 38 78 39 80 40 31 41 83 42 77 43 76 44 32 46 64 47
REMARK SMILES IDX 44 48 63 49 45 50 48 51 62 52 81 53 46 54 47 55 61 57 82 58
REMARK SMILES IDX 49 59 33 60 34 61 42 62 35 63 36 64 40 65 43 66 37 67 38 68
REMARK SMILES IDX 41 69 39 70 65 71 66 72 74 73 67 74 68 75 72 76 75 77 69 78
REMARK SMILES IDX 70 79 73 80 71 81 50 82 51 83 59 84 52 85 53 86 57 87 60 88
REMARK SMILES IDX 54 89 55 90 58 91 56 92
REMARK H PARENT 14 7 8 17 21 26 80 45 48 56
REMARK Flexibility Score: inf
ROOT
ATOM      1  C   UNL A   1      37.722  21.981  25.328  1.00  0.00     0.002 C 
ENDROOT
BRANCH   1   2
ATOM      2  C   UNL A   1      36.964  23.146  24.677  1.00  0.00     0.021 C 
BRANCH   2   3
ATOM      3  C   UNL A   1      36.043  23.905  25.635  1.00  0.00     0.116 C 
BRANCH   3   4
ATOM      4  N   UNL A   1      35.449  23.008  26.604  1.00  0.00    -0.355 N 
ATOM      5  C   UNL A   1      34.409  22.135  26.485  1.00  0.00     0.230 C 
ATOM      6  O   UNL A   1      34.150  21.441  27.471  1.00  0.00    -0.274 OA
ATOM      7  H   UNL A   1      35.865  23.032  27.496  1.00  0.00     0.163 HD
BRANCH   5   8
ATOM      8  C   UNL A   1      33.704  21.909  25.159  1.00  0.00     0.178 C 
BRANCH   8   9
ATOM      9  S   UNL A   1      32.104  21.072  25.253  1.00  0.00    -0.078 SA
BRANCH   9  10
ATOM     10  C   UNL A   1      32.469  19.496  24.643  1.00  0.00     0.168 A 
ATOM     11  C   UNL A   1      33.136  17.325  24.735  1.00  0.00     0.051 A 
ATOM     12  C   UNL A   1      32.964  17.143  23.416  1.00  0.00     0.095 A 
ATOM     13  N   UNL A   1      32.889  18.523  25.371  1.00  0.00    -0.229 NA
ATOM     14  C   UNL A   1      32.491  18.276  22.611  1.00  0.00     0.251 A 
ATOM     15  O   UNL A   1      32.316  18.178  21.400  1.00  0.00    -0.269 OA
ATOM     16  N   UNL A   1      32.265  19.421  23.303  1.00  0.00    -0.301 N 
ATOM     17  H   UNL A   1      31.947  20.218  22.820  1.00  0.00     0.172 HD
BRANCH  11  18
ATOM     18  C   UNL A   1      33.638  16.187  25.612  1.00  0.00     0.032 C 
ATOM     19  C   UNL A   1      32.712  14.973  25.519  1.00  0.00     0.014 C 
ATOM     20  C   UNL A   1      35.077  15.802  25.268  1.00  0.00     0.014 C 
ENDBRANCH  11  18
ENDBRANCH   9  10
ENDBRANCH   8   9
ENDBRANCH   5   8
ENDBRANCH   3   4
ENDBRANCH   2   3
ENDBRANCH   1   2
BRANCH   1  21
ATOM     21  C   UNL A   1      37.364  20.588  24.798  1.00  0.00     0.002 C 
BRANCH  21  22
ATOM     22  C   UNL A   1      38.481  19.548  24.901  1.00  0.00     0.021 C 
BRANCH  22  23
ATOM     23  C   UNL A   1      39.476  19.793  26.031  1.00  0.00     0.116 C 
BRANCH  23  24
ATOM     24  N   UNL A   1      40.608  18.882  25.979  1.00  0.00    -0.352 N 
ATOM     25  C   UNL A   1      41.952  19.158  26.035  1.00  0.00     0.251 C 
ATOM     26  H   UNL A   1      40.377  17.930  25.889  1.00  0.00     0.163 HD
ATOM     27  O   UNL A   1      42.774  18.280  25.795  1.00  0.00    -0.269 OA
BRANCH  25  28
ATOM     28  C   UNL A   1      42.411  20.524  26.364  1.00  0.00     0.039 A 
ATOM     29  C   UNL A   1      42.754  21.390  25.323  1.00  0.00     0.014 A 
ATOM     30  C   UNL A   1      42.510  20.951  27.691  1.00  0.00     0.014 A 
ATOM     31  C   UNL A   1      43.135  22.703  25.610  1.00  0.00     0.010 A 
ATOM     32  C   UNL A   1      42.818  22.279  27.972  1.00  0.00     0.010 A 
ATOM     33  C   UNL A   1      43.136  23.169  26.934  1.00  0.00    -0.014 A 
BRANCH  33  34
ATOM     34  C   UNL A   1      43.464  24.582  27.252  1.00  0.00     0.031 A 
ATOM     35  C   UNL A   1      44.877  25.079  27.120  1.00  0.00     0.074 A 
ATOM     36  C   UNL A   1      42.501  25.402  27.717  1.00  0.00     0.049 A 
ATOM     37  N   UNL A   1      45.372  26.255  27.415  1.00  0.00    -0.248 NA
ATOM     38  C   UNL A   1      45.870  24.119  26.616  1.00  0.00     0.031 C 
ATOM     39  C   UNL A   1      41.102  25.027  27.930  1.00  0.00     0.029 A 
ATOM     40  N   UNL A   1      42.554  26.717  28.105  1.00  0.00    -0.354 N 
ATOM     41  C   UNL A   1      46.731  26.172  27.139  1.00  0.00     0.074 A 
ATOM     42  C   UNL A   1      46.994  24.816  26.713  1.00  0.00     0.031 C 
ATOM     43  C   UNL A   1      40.426  26.092  28.389  1.00  0.00     0.029 A 
ATOM     44  C   UNL A   1      41.350  27.212  28.542  1.00  0.00     0.049 A 
ATOM     45  H   UNL A   1      43.378  27.255  28.074  1.00  0.00     0.167 HD
ATOM     46  C   UNL A   1      47.669  27.147  27.211  1.00  0.00     0.037 A 
ATOM     47  C   UNL A   1      41.028  28.429  29.022  1.00  0.00     0.037 A 
ATOM     48  C   UNL A   1      47.401  28.501  27.622  1.00  0.00     0.049 A 
ATOM     49  C   UNL A   1      42.095  29.488  29.113  1.00  0.00     0.074 A 
ATOM     50  C   UNL A   1      48.274  29.573  27.681  1.00  0.00     0.029 A 
ATOM     51  N   UNL A   1      46.166  28.967  28.046  1.00  0.00    -0.354 N 
ATOM     52  N   UNL A   1      43.363  29.416  28.787  1.00  0.00    -0.248 NA
ATOM     53  C   UNL A   1      41.684  30.799  29.634  1.00  0.00     0.031 C 
ATOM     54  C   UNL A   1      47.579  30.675  28.191  1.00  0.00     0.029 A 
ATOM     55  C   UNL A   1      46.258  30.306  28.392  1.00  0.00     0.049 A 
ATOM     56  H   UNL A   1      45.344  28.427  28.094  1.00  0.00     0.167 HD
ATOM     57  C   UNL A   1      43.891  30.676  29.031  1.00  0.00     0.074 A 
ATOM     58  C   UNL A   1      42.804  31.497  29.519  1.00  0.00     0.031 C 
ATOM     59  C   UNL A   1      45.164  31.114  28.867  1.00  0.00     0.037 A 
BRANCH  46  60
ATOM     60  C   UNL A   1      49.077  26.784  26.833  1.00  0.00     0.064 A 
ATOM     61  C   UNL A   1      49.542  26.915  25.515  1.00  0.00     0.173 A 
ATOM     62  C   UNL A   1      49.985  26.335  27.804  1.00  0.00     0.173 A 
ATOM     63  F   UNL A   1      48.713  27.331  24.545  1.00  0.00    -0.203 F 
ATOM     64  C   UNL A   1      50.852  26.581  25.178  1.00  0.00     0.198 A 
ATOM     65  C   UNL A   1      51.303  26.034  27.471  1.00  0.00     0.198 A 
ATOM     66  F   UNL A   1      49.597  26.198  29.081  1.00  0.00    -0.203 F 
ATOM     67  F   UNL A   1      51.256  26.665  23.903  1.00  0.00    -0.200 F 
ATOM     68  C   UNL A   1      51.732  26.148  26.158  1.00  0.00     0.200 A 
ATOM     69  F   UNL A   1      52.158  25.630  28.422  1.00  0.00    -0.200 F 
ATOM     70  F   UNL A   1      52.995  25.835  25.834  1.00  0.00    -0.200 F 
ENDBRANCH  46  60
BRANCH  47  71
ATOM     71  C   UNL A   1      39.631  28.721  29.438  1.00  0.00     0.064 A 
ATOM     72  C   UNL A   1      38.695  29.222  28.521  1.00  0.00     0.173 A 
ATOM     73  C   UNL A   1      39.205  28.521  30.760  1.00  0.00     0.173 A 
ATOM     74  F   UNL A   1      39.060  29.449  27.250  1.00  0.00    -0.203 F 
ATOM     75  C   UNL A   1      37.397  29.536  28.915  1.00  0.00     0.198 A 
ATOM     76  C   UNL A   1      37.896  28.806  31.145  1.00  0.00     0.198 A 
ATOM     77  F   UNL A   1      40.058  28.039  31.675  1.00  0.00    -0.203 F 
ATOM     78  F   UNL A   1      36.539  30.063  28.030  1.00  0.00    -0.200 F 
ATOM     79  C   UNL A   1      36.996  29.323  30.225  1.00  0.00     0.200 A 
ATOM     80  F   UNL A   1      37.509  28.583  32.409  1.00  0.00    -0.200 F 
ATOM     81  F   UNL A   1      35.746  29.623  30.604  1.00  0.00    -0.200 F 
ENDBRANCH  47  71
BRANCH  59  82
ATOM     82  C   UNL A   1      45.442  32.557  29.176  1.00  0.00     0.064 A 
ATOM     83  C   UNL A   1      45.855  32.973  30.450  1.00  0.00     0.173 A 
ATOM     84  C   UNL A   1      45.330  33.531  28.173  1.00  0.00     0.173 A 
ATOM     85  F   UNL A   1      45.963  32.084  31.449  1.00  0.00    -0.203 F 
ATOM     86  C   UNL A   1      46.118  34.315  30.715  1.00  0.00     0.198 A 
ATOM     87  C   UNL A   1      45.627  34.867  28.432  1.00  0.00     0.198 A 
ATOM     88  F   UNL A   1      44.946  33.186  26.934  1.00  0.00    -0.203 F 
ATOM     89  F   UNL A   1      46.461  34.697  31.953  1.00  0.00    -0.200 F 
ATOM     90  C   UNL A   1      46.012  35.258  29.704  1.00  0.00     0.200 A 
ATOM     91  F   UNL A   1      45.539  35.774  27.449  1.00  0.00    -0.200 F 
ATOM     92  F   UNL A   1      46.273  36.548  29.959  1.00  0.00    -0.200 F 
ENDBRANCH  59  82
ENDBRANCH  33  34
ENDBRANCH  25  28
ENDBRANCH  23  24
ENDBRANCH  22  23
ENDBRANCH  21  22
ENDBRANCH   1  21
TORSDOF 16
ENDMDL
