MODEL 1
REMARK VINA RESULT:      -9.5      0.000      0.000
REMARK SMILES N#Cc1ccccc1S(=O)(=O)N1CCC(C(=O)NCCCCCCNC(=O)c2ccc(-c3c4nc(c(-c5c(F)c(F)c(F)c(F)c5F)c5ccc([nH]5)c(-c5c(F)c(F)c(F)c(F)c5F)c5nc(c(-c6c(F)c(F)c(F)c(F)c6F)c6ccc3[nH]6)C=C5)C=C4)cc2)CC1
REMARK SMILES IDX 21 1 20 2 19 3 18 4 16 5 17 6 15 8 12 9 13 10 92 11 14 12
REMARK SMILES IDX 91 13 9 14 10 15 11 16 8 17 3 18 4 19 5 20 7 21 6 22 2 23
REMARK SMILES IDX 1 24 22 25 23 26 24 27 25 28 26 29 27 31 28 32 29 33 90 34
REMARK SMILES IDX 30 35 89 36 31 37 32 38 33 39 83 40 34 41 88 42 82 43 84 44
REMARK SMILES IDX 35 45 87 46 81 47 80 48 36 50 68 51 48 52 67 53 49 54 52 55
REMARK SMILES IDX 66 56 85 57 50 58 51 59 65 61 86 62 53 63 37 64 38 65 46 66
REMARK SMILES IDX 39 67 40 68 44 69 47 70 41 71 42 72 45 73 43 74 69 75 70 76
REMARK SMILES IDX 78 77 71 78 72 79 76 80 79 81 73 82 74 83 77 84 75 85 54 86
REMARK SMILES IDX 55 87 63 88 56 89 57 90 61 91 64 92 58 93 59 94 62 95 60 96
REMARK H PARENT 18 7 25 30 84 49 52 60
REMARK Flexibility Score: inf
ROOT
ATOM      1  C   UNL A   1      36.085  32.463  31.486  1.00  0.00     0.002 C 
ENDROOT
BRANCH   1   2
ATOM      2  C   UNL A   1      37.135  33.214  32.309  1.00  0.00     0.021 C 
BRANCH   2   3
ATOM      3  C   UNL A   1      37.949  32.302  33.218  1.00  0.00     0.116 C 
BRANCH   3   4
ATOM      4  N   UNL A   1      37.331  30.993  33.319  1.00  0.00    -0.356 N 
ATOM      5  C   UNL A   1      37.885  29.751  33.308  1.00  0.00     0.223 C 
ATOM      6  O   UNL A   1      37.128  28.779  33.314  1.00  0.00    -0.275 OA
ATOM      7  H   UNL A   1      36.351  31.006  33.412  1.00  0.00     0.163 HD
BRANCH   5   8
ATOM      8  C   UNL A   1      39.393  29.572  33.319  1.00  0.00     0.081 C 
ATOM      9  N   UNL A   1      41.803  28.149  34.130  1.00  0.00    -0.198 NA
ATOM     10  C   UNL A   1      41.365  29.279  34.968  1.00  0.00     0.103 C 
ATOM     11  C   UNL A   1      41.220  27.876  32.807  1.00  0.00     0.103 C 
ATOM     12  C   UNL A   1      39.975  29.820  34.705  1.00  0.00     0.030 C 
ATOM     13  C   UNL A   1      39.761  28.237  32.685  1.00  0.00     0.030 C 
BRANCH   9  14
ATOM     14  S   UNL A   1      43.385  27.604  34.388  1.00  0.00     0.244 S 
ATOM     15  O   UNL A   1      43.693  27.859  35.781  1.00  0.00    -0.207 OA
ATOM     16  O   UNL A   1      44.213  28.157  33.335  1.00  0.00    -0.207 OA
BRANCH  14  17
ATOM     17  C   UNL A   1      43.496  25.831  34.201  1.00  0.00     0.100 A 
ATOM     18  C   UNL A   1      42.756  24.842  34.852  1.00  0.00     0.072 A 
ATOM     19  C   UNL A   1      43.038  23.485  34.589  1.00  0.00     0.021 A 
ATOM     20  C   UNL A   1      44.018  23.110  33.678  1.00  0.00     0.001 A 
ATOM     21  C   UNL A   1      44.483  25.436  33.272  1.00  0.00     0.023 A 
ATOM     22  C   UNL A   1      44.737  24.090  33.009  1.00  0.00     0.001 A 
BRANCH  18  23
ATOM     23  C   UNL A   1      41.683  25.033  35.775  1.00  0.00     0.101 C 
ATOM     24  N   UNL A   1      40.800  25.286  36.476  1.00  0.00    -0.192 NA
ENDBRANCH  18  23
ENDBRANCH  14  17
ENDBRANCH   9  14
ENDBRANCH   5   8
ENDBRANCH   3   4
ENDBRANCH   2   3
ENDBRANCH   1   2
BRANCH   1  25
ATOM     25  C   UNL A   1      35.893  33.003  30.066  1.00  0.00     0.002 C 
BRANCH  25  26
ATOM     26  C   UNL A   1      34.456  32.920  29.545  1.00  0.00     0.021 C 
BRANCH  26  27
ATOM     27  C   UNL A   1      34.354  32.515  28.081  1.00  0.00     0.116 C 
BRANCH  27  28
ATOM     28  N   UNL A   1      33.724  31.215  27.928  1.00  0.00    -0.352 N 
ATOM     29  C   UNL A   1      34.311  29.979  27.847  1.00  0.00     0.251 C 
ATOM     30  H   UNL A   1      32.741  31.222  27.875  1.00  0.00     0.163 HD
ATOM     31  O   UNL A   1      33.663  29.003  27.487  1.00  0.00    -0.269 OA
BRANCH  29  32
ATOM     32  C   UNL A   1      35.741  29.839  28.182  1.00  0.00     0.039 A 
ATOM     33  C   UNL A   1      36.097  29.406  29.459  1.00  0.00     0.014 A 
ATOM     34  C   UNL A   1      36.725  30.128  27.231  1.00  0.00     0.014 A 
ATOM     35  C   UNL A   1      37.443  29.213  29.768  1.00  0.00     0.010 A 
ATOM     36  C   UNL A   1      38.058  29.854  27.513  1.00  0.00     0.010 A 
ATOM     37  C   UNL A   1      38.430  29.404  28.788  1.00  0.00    -0.014 A 
BRANCH  37  38
ATOM     38  C   UNL A   1      39.862  29.143  29.082  1.00  0.00     0.031 A 
ATOM     39  C   UNL A   1      40.684  30.175  29.800  1.00  0.00     0.074 A 
ATOM     40  C   UNL A   1      40.430  28.002  28.649  1.00  0.00     0.049 A 
ATOM     41  N   UNL A   1      41.957  30.154  30.103  1.00  0.00    -0.248 NA
ATOM     42  C   UNL A   1      39.992  31.407  30.206  1.00  0.00     0.031 C 
ATOM     43  C   UNL A   1      39.745  26.949  27.899  1.00  0.00     0.029 A 
ATOM     44  N   UNL A   1      41.716  27.542  28.770  1.00  0.00    -0.354 N 
ATOM     45  C   UNL A   1      42.217  31.369  30.724  1.00  0.00     0.074 A 
ATOM     46  C   UNL A   1      40.988  32.130  30.695  1.00  0.00     0.031 C 
ATOM     47  C   UNL A   1      40.610  25.954  27.651  1.00  0.00     0.029 A 
ATOM     48  C   UNL A   1      41.919  26.317  28.183  1.00  0.00     0.049 A 
ATOM     49  H   UNL A   1      42.427  28.041  29.235  1.00  0.00     0.167 HD
ATOM     50  C   UNL A   1      43.371  31.800  31.286  1.00  0.00     0.037 A 
ATOM     51  C   UNL A   1      43.039  25.576  28.078  1.00  0.00     0.037 A 
ATOM     52  C   UNL A   1      44.588  31.031  31.318  1.00  0.00     0.049 A 
ATOM     53  C   UNL A   1      44.315  26.086  28.692  1.00  0.00     0.074 A 
ATOM     54  C   UNL A   1      45.796  31.351  31.913  1.00  0.00     0.029 A 
ATOM     55  N   UNL A   1      44.756  29.791  30.717  1.00  0.00    -0.354 N 
ATOM     56  N   UNL A   1      44.531  27.203  29.344  1.00  0.00    -0.248 NA
ATOM     57  C   UNL A   1      45.499  25.228  28.561  1.00  0.00     0.031 C 
ATOM     58  C   UNL A   1      46.711  30.337  31.617  1.00  0.00     0.029 A 
ATOM     59  C   UNL A   1      46.057  29.348  30.899  1.00  0.00     0.049 A 
ATOM     60  H   UNL A   1      44.054  29.299  30.232  1.00  0.00     0.167 HD
ATOM     61  C   UNL A   1      45.865  27.168  29.728  1.00  0.00     0.074 A 
ATOM     62  C   UNL A   1      46.404  25.912  29.248  1.00  0.00     0.031 C 
ATOM     63  C   UNL A   1      46.578  28.093  30.417  1.00  0.00     0.037 A 
BRANCH  50  64
ATOM     64  C   UNL A   1      43.372  33.171  31.904  1.00  0.00     0.064 A 
ATOM     65  C   UNL A   1      43.669  34.321  31.155  1.00  0.00     0.173 A 
ATOM     66  C   UNL A   1      43.052  33.339  33.260  1.00  0.00     0.173 A 
ATOM     67  F   UNL A   1      43.991  34.217  29.856  1.00  0.00    -0.203 F 
ATOM     68  C   UNL A   1      43.688  35.580  31.749  1.00  0.00     0.198 A 
ATOM     69  C   UNL A   1      43.034  34.605  33.842  1.00  0.00     0.198 A 
ATOM     70  F   UNL A   1      42.753  32.278  34.024  1.00  0.00    -0.203 F 
ATOM     71  F   UNL A   1      44.038  36.653  31.028  1.00  0.00    -0.200 F 
ATOM     72  C   UNL A   1      43.364  35.722  33.090  1.00  0.00     0.200 A 
ATOM     73  F   UNL A   1      42.705  34.742  35.133  1.00  0.00    -0.200 F 
ATOM     74  F   UNL A   1      43.377  36.935  33.660  1.00  0.00    -0.200 F 
ENDBRANCH  50  64
BRANCH  51  75
ATOM     75  C   UNL A   1      42.993  24.264  27.380  1.00  0.00     0.064 A 
ATOM     76  C   UNL A   1      42.616  23.099  28.060  1.00  0.00     0.173 A 
ATOM     77  C   UNL A   1      43.315  24.150  26.019  1.00  0.00     0.173 A 
ATOM     78  F   UNL A   1      42.317  23.153  29.367  1.00  0.00    -0.203 F 
ATOM     79  C   UNL A   1      42.582  21.865  27.412  1.00  0.00     0.198 A 
ATOM     80  C   UNL A   1      43.248  22.921  25.364  1.00  0.00     0.198 A 
ATOM     81  F   UNL A   1      43.674  25.236  25.321  1.00  0.00    -0.203 F 
ATOM     82  F   UNL A   1      42.262  20.759  28.098  1.00  0.00    -0.200 F 
ATOM     83  C   UNL A   1      42.890  21.779  26.064  1.00  0.00     0.200 A 
ATOM     84  F   UNL A   1      43.529  22.846  24.057  1.00  0.00    -0.200 F 
ATOM     85  F   UNL A   1      42.849  20.595  25.438  1.00  0.00    -0.200 F 
ENDBRANCH  51  75
BRANCH  63  86
ATOM     86  C   UNL A   1      48.011  27.766  30.731  1.00  0.00     0.064 A 
ATOM     87  C   UNL A   1      49.060  28.125  29.871  1.00  0.00     0.173 A 
ATOM     88  C   UNL A   1      48.342  27.121  31.933  1.00  0.00     0.173 A 
ATOM     89  F   UNL A   1      48.798  28.732  28.703  1.00  0.00    -0.203 F 
ATOM     90  C   UNL A   1      50.382  27.824  30.189  1.00  0.00     0.198 A 
ATOM     91  C   UNL A   1      49.667  26.854  32.264  1.00  0.00     0.198 A 
ATOM     92  F   UNL A   1      47.380  26.762  32.797  1.00  0.00    -0.203 F 
ATOM     93  F   UNL A   1      51.362  28.127  29.326  1.00  0.00    -0.200 F 
ATOM     94  C   UNL A   1      50.685  27.197  31.388  1.00  0.00     0.200 A 
ATOM     95  F   UNL A   1      49.959  26.265  33.432  1.00  0.00    -0.200 F 
ATOM     96  F   UNL A   1      51.959  26.917  31.695  1.00  0.00    -0.200 F 
ENDBRANCH  63  86
ENDBRANCH  37  38
ENDBRANCH  29  32
ENDBRANCH  27  28
ENDBRANCH  26  27
ENDBRANCH  25  26
ENDBRANCH   1  25
TORSDOF 16
ENDMDL
MODEL 2
REMARK VINA RESULT:      -9.5      3.688      9.865
REMARK SMILES N#Cc1ccccc1S(=O)(=O)N1CCC(C(=O)NCCCCCCNC(=O)c2ccc(-c3c4nc(c(-c5c(F)c(F)c(F)c(F)c5F)c5ccc([nH]5)c(-c5c(F)c(F)c(F)c(F)c5F)c5nc(c(-c6c(F)c(F)c(F)c(F)c6F)c6ccc3[nH]6)C=C5)C=C4)cc2)CC1
REMARK SMILES IDX 21 1 20 2 19 3 18 4 16 5 17 6 15 8 12 9 13 10 92 11 14 12
REMARK SMILES IDX 91 13 9 14 10 15 11 16 8 17 3 18 4 19 5 20 7 21 6 22 2 23
REMARK SMILES IDX 1 24 22 25 23 26 24 27 25 28 26 29 27 31 28 32 29 33 90 34
REMARK SMILES IDX 30 35 89 36 31 37 32 38 33 39 83 40 34 41 88 42 82 43 84 44
REMARK SMILES IDX 35 45 87 46 81 47 80 48 36 50 68 51 48 52 67 53 49 54 52 55
REMARK SMILES IDX 66 56 85 57 50 58 51 59 65 61 86 62 53 63 37 64 38 65 46 66
REMARK SMILES IDX 39 67 40 68 44 69 47 70 41 71 42 72 45 73 43 74 69 75 70 76
REMARK SMILES IDX 78 77 71 78 72 79 76 80 79 81 73 82 74 83 77 84 75 85 54 86
REMARK SMILES IDX 55 87 63 88 56 89 57 90 61 91 64 92 58 93 59 94 62 95 60 96
REMARK H PARENT 18 7 25 30 84 49 52 60
REMARK Flexibility Score: inf
ROOT
ATOM      1  C   UNL A   1      43.839  23.487  27.947  1.00  0.00     0.002 C 
ENDROOT
BRANCH   1   2
ATOM      2  C   UNL A   1      43.805  24.984  27.633  1.00  0.00     0.021 C 
BRANCH   2   3
ATOM      3  C   UNL A   1      44.699  25.373  26.463  1.00  0.00     0.116 C 
BRANCH   3   4
ATOM      4  N   UNL A   1      43.934  26.058  25.438  1.00  0.00    -0.356 N 
ATOM      5  C   UNL A   1      43.499  27.345  25.372  1.00  0.00     0.223 C 
ATOM      6  O   UNL A   1      42.777  27.665  24.427  1.00  0.00    -0.275 OA
ATOM      7  H   UNL A   1      43.691  25.502  24.663  1.00  0.00     0.163 HD
BRANCH   5   8
ATOM      8  C   UNL A   1      43.919  28.362  26.419  1.00  0.00     0.081 C 
ATOM      9  N   UNL A   1      44.577  31.080  27.239  1.00  0.00    -0.198 NA
ATOM     10  C   UNL A   1      45.688  30.205  26.827  1.00  0.00     0.103 C 
ATOM     11  C   UNL A   1      43.217  30.570  27.472  1.00  0.00     0.103 C 
ATOM     12  C   UNL A   1      45.313  28.909  26.140  1.00  0.00     0.030 C 
ATOM     13  C   UNL A   1      42.828  29.411  26.589  1.00  0.00     0.030 C 
BRANCH   9  14
ATOM     14  S   UNL A   1      45.011  32.489  28.071  1.00  0.00     0.244 S 
ATOM     15  O   UNL A   1      46.322  32.874  27.586  1.00  0.00    -0.207 OA
ATOM     16  O   UNL A   1      44.786  32.249  29.481  1.00  0.00    -0.207 OA
BRANCH  14  17
ATOM     17  C   UNL A   1      43.936  33.850  27.642  1.00  0.00     0.100 A 
ATOM     18  C   UNL A   1      43.628  34.346  26.372  1.00  0.00     0.072 A 
ATOM     19  C   UNL A   1      42.784  35.469  26.258  1.00  0.00     0.021 A 
ATOM     20  C   UNL A   1      42.230  36.079  27.378  1.00  0.00     0.001 A 
ATOM     21  C   UNL A   1      43.360  34.474  28.769  1.00  0.00     0.023 A 
ATOM     22  C   UNL A   1      42.512  35.573  28.638  1.00  0.00     0.001 A 
BRANCH  18  23
ATOM     23  C   UNL A   1      44.057  33.825  25.114  1.00  0.00     0.101 C 
ATOM     24  N   UNL A   1      44.479  33.343  24.152  1.00  0.00    -0.192 NA
ENDBRANCH  18  23
ENDBRANCH  14  17
ENDBRANCH   9  14
ENDBRANCH   5   8
ENDBRANCH   3   4
ENDBRANCH   2   3
ENDBRANCH   1   2
BRANCH   1  25
ATOM     25  C   UNL A   1      42.651  22.990  28.775  1.00  0.00     0.002 C 
BRANCH  25  26
ATOM     26  C   UNL A   1      41.622  22.179  27.985  1.00  0.00     0.021 C 
BRANCH  26  27
ATOM     27  C   UNL A   1      41.564  22.532  26.505  1.00  0.00     0.116 C 
BRANCH  27  28
ATOM     28  N   UNL A   1      40.200  22.516  26.004  1.00  0.00    -0.352 N 
ATOM     29  C   UNL A   1      39.163  23.360  26.304  1.00  0.00     0.251 C 
ATOM     30  H   UNL A   1      39.992  21.801  25.360  1.00  0.00     0.163 HD
ATOM     31  O   UNL A   1      38.015  23.079  25.979  1.00  0.00    -0.269 OA
BRANCH  29  32
ATOM     32  C   UNL A   1      39.442  24.607  27.042  1.00  0.00     0.039 A 
ATOM     33  C   UNL A   1      39.014  24.719  28.366  1.00  0.00     0.014 A 
ATOM     34  C   UNL A   1      40.131  25.657  26.427  1.00  0.00     0.014 A 
ATOM     35  C   UNL A   1      39.324  25.869  29.091  1.00  0.00     0.010 A 
ATOM     36  C   UNL A   1      40.512  26.763  27.177  1.00  0.00     0.010 A 
ATOM     37  C   UNL A   1      40.103  26.885  28.513  1.00  0.00    -0.014 A 
BRANCH  37  38
ATOM     38  C   UNL A   1      40.495  28.086  29.292  1.00  0.00     0.031 A 
ATOM     39  C   UNL A   1      41.859  28.169  29.915  1.00  0.00     0.074 A 
ATOM     40  C   UNL A   1      39.600  29.073  29.483  1.00  0.00     0.049 A 
ATOM     41  N   UNL A   1      42.368  29.109  30.670  1.00  0.00    -0.248 NA
ATOM     42  C   UNL A   1      42.762  27.031  29.684  1.00  0.00     0.031 C 
ATOM     43  C   UNL A   1      38.229  29.082  28.968  1.00  0.00     0.029 A 
ATOM     44  N   UNL A   1      39.706  30.256  30.169  1.00  0.00    -0.354 N 
ATOM     45  C   UNL A   1      43.641  28.671  31.011  1.00  0.00     0.074 A 
ATOM     46  C   UNL A   1      43.803  27.353  30.436  1.00  0.00     0.031 C 
ATOM     47  C   UNL A   1      37.632  30.226  29.334  1.00  0.00     0.029 A 
ATOM     48  C   UNL A   1      38.558  31.010  30.145  1.00  0.00     0.049 A 
ATOM     49  H   UNL A   1      40.526  30.538  30.635  1.00  0.00     0.167 HD
ATOM     50  C   UNL A   1      44.597  29.318  31.719  1.00  0.00     0.037 A 
ATOM     51  C   UNL A   1      38.282  32.196  30.721  1.00  0.00     0.037 A 
ATOM     52  C   UNL A   1      44.430  30.635  32.280  1.00  0.00     0.049 A 
ATOM     53  C   UNL A   1      39.352  32.887  31.521  1.00  0.00     0.074 A 
ATOM     54  C   UNL A   1      45.354  31.404  32.964  1.00  0.00     0.029 A 
ATOM     55  N   UNL A   1      43.254  31.372  32.231  1.00  0.00    -0.354 N 
ATOM     56  N   UNL A   1      40.579  32.499  31.774  1.00  0.00    -0.248 NA
ATOM     57  C   UNL A   1      39.001  34.185  32.111  1.00  0.00     0.031 C 
ATOM     58  C   UNL A   1      44.719  32.577  33.385  1.00  0.00     0.029 A 
ATOM     59  C   UNL A   1      43.420  32.574  32.901  1.00  0.00     0.049 A 
ATOM     60  H   UNL A   1      42.425  31.083  31.785  1.00  0.00     0.167 HD
ATOM     61  C   UNL A   1      41.156  33.516  32.523  1.00  0.00     0.074 A 
ATOM     62  C   UNL A   1      40.148  34.545  32.672  1.00  0.00     0.031 C 
ATOM     63  C   UNL A   1      42.407  33.590  33.039  1.00  0.00     0.037 A 
BRANCH  50  64
ATOM     64  C   UNL A   1      45.903  28.607  31.935  1.00  0.00     0.064 A 
ATOM     65  C   UNL A   1      46.974  28.735  31.035  1.00  0.00     0.173 A 
ATOM     66  C   UNL A   1      46.095  27.800  33.067  1.00  0.00     0.173 A 
ATOM     67  F   UNL A   1      46.843  29.487  29.931  1.00  0.00    -0.203 F 
ATOM     68  C   UNL A   1      48.170  28.050  31.239  1.00  0.00     0.198 A 
ATOM     69  C   UNL A   1      47.305  27.147  33.287  1.00  0.00     0.198 A 
ATOM     70  F   UNL A   1      45.109  27.646  33.964  1.00  0.00    -0.203 F 
ATOM     71  F   UNL A   1      49.152  28.138  30.332  1.00  0.00    -0.200 F 
ATOM     72  C   UNL A   1      48.336  27.263  32.368  1.00  0.00     0.200 A 
ATOM     73  F   UNL A   1      47.471  26.400  34.387  1.00  0.00    -0.200 F 
ATOM     74  F   UNL A   1      49.489  26.607  32.565  1.00  0.00    -0.200 F 
ENDBRANCH  50  64
BRANCH  51  75
ATOM     75  C   UNL A   1      36.941  32.810  30.540  1.00  0.00     0.064 A 
ATOM     76  C   UNL A   1      36.621  33.512  29.370  1.00  0.00     0.173 A 
ATOM     77  C   UNL A   1      35.949  32.700  31.526  1.00  0.00     0.173 A 
ATOM     78  F   UNL A   1      37.542  33.660  28.406  1.00  0.00    -0.203 F 
ATOM     79  C   UNL A   1      35.368  34.098  29.201  1.00  0.00     0.198 A 
ATOM     80  C   UNL A   1      34.685  33.258  31.341  1.00  0.00     0.198 A 
ATOM     81  F   UNL A   1      36.201  32.032  32.661  1.00  0.00    -0.203 F 
ATOM     82  F   UNL A   1      35.105  34.803  28.092  1.00  0.00    -0.200 F 
ATOM     83  C   UNL A   1      34.399  33.964  30.183  1.00  0.00     0.200 A 
ATOM     84  F   UNL A   1      33.747  33.111  32.285  1.00  0.00    -0.200 F 
ATOM     85  F   UNL A   1      33.191  34.520  30.017  1.00  0.00    -0.200 F 
ENDBRANCH  51  75
BRANCH  63  86
ATOM     86  C   UNL A   1      42.774  34.845  33.781  1.00  0.00     0.064 A 
ATOM     87  C   UNL A   1      42.662  34.941  35.176  1.00  0.00     0.173 A 
ATOM     88  C   UNL A   1      43.286  35.953  33.087  1.00  0.00     0.173 A 
ATOM     89  F   UNL A   1      42.167  33.917  35.887  1.00  0.00    -0.203 F 
ATOM     90  C   UNL A   1      43.021  36.109  35.845  1.00  0.00     0.198 A 
ATOM     91  C   UNL A   1      43.678  37.105  33.762  1.00  0.00     0.198 A 
ATOM     92  F   UNL A   1      43.422  35.912  31.753  1.00  0.00    -0.203 F 
ATOM     93  F   UNL A   1      42.853  36.198  37.172  1.00  0.00    -0.200 F 
ATOM     94  C   UNL A   1      43.536  37.186  35.139  1.00  0.00     0.200 A 
ATOM     95  F   UNL A   1      44.193  38.137  33.080  1.00  0.00    -0.200 F 
ATOM     96  F   UNL A   1      43.889  38.306  35.786  1.00  0.00    -0.200 F 
ENDBRANCH  63  86
ENDBRANCH  37  38
ENDBRANCH  29  32
ENDBRANCH  27  28
ENDBRANCH  26  27
ENDBRANCH  25  26
ENDBRANCH   1  25
TORSDOF 16
ENDMDL
MODEL 3
REMARK VINA RESULT:      -9.4      3.687      9.820
REMARK SMILES N#Cc1ccccc1S(=O)(=O)N1CCC(C(=O)NCCCCCCNC(=O)c2ccc(-c3c4nc(c(-c5c(F)c(F)c(F)c(F)c5F)c5ccc([nH]5)c(-c5c(F)c(F)c(F)c(F)c5F)c5nc(c(-c6c(F)c(F)c(F)c(F)c6F)c6ccc3[nH]6)C=C5)C=C4)cc2)CC1
REMARK SMILES IDX 21 1 20 2 19 3 18 4 16 5 17 6 15 8 12 9 13 10 92 11 14 12
REMARK SMILES IDX 91 13 9 14 10 15 11 16 8 17 3 18 4 19 5 20 7 21 6 22 2 23
REMARK SMILES IDX 1 24 22 25 23 26 24 27 25 28 26 29 27 31 28 32 29 33 90 34
REMARK SMILES IDX 30 35 89 36 31 37 32 38 33 39 83 40 34 41 88 42 82 43 84 44
REMARK SMILES IDX 35 45 87 46 81 47 80 48 36 50 68 51 48 52 67 53 49 54 52 55
REMARK SMILES IDX 66 56 85 57 50 58 51 59 65 61 86 62 53 63 37 64 38 65 46 66
REMARK SMILES IDX 39 67 40 68 44 69 47 70 41 71 42 72 45 73 43 74 69 75 70 76
REMARK SMILES IDX 78 77 71 78 72 79 76 80 79 81 73 82 74 83 77 84 75 85 54 86
REMARK SMILES IDX 55 87 63 88 56 89 57 90 61 91 64 92 58 93 59 94 62 95 60 96
REMARK H PARENT 18 7 25 30 84 49 52 60
REMARK Flexibility Score: inf
ROOT
ATOM      1  C   UNL A   1      43.404  23.036  27.612  1.00  0.00     0.002 C 
ENDROOT
BRANCH   1   2
ATOM      2  C   UNL A   1      43.394  24.565  27.673  1.00  0.00     0.021 C 
BRANCH   2   3
ATOM      3  C   UNL A   1      44.444  25.208  26.775  1.00  0.00     0.116 C 
BRANCH   3   4
ATOM      4  N   UNL A   1      43.817  25.877  25.651  1.00  0.00    -0.356 N 
ATOM      5  C   UNL A   1      43.527  27.191  25.454  1.00  0.00     0.223 C 
ATOM      6  O   UNL A   1      42.900  27.500  24.440  1.00  0.00    -0.275 OA
ATOM      7  H   UNL A   1      43.562  25.284  24.908  1.00  0.00     0.163 HD
BRANCH   5   8
ATOM      8  C   UNL A   1      43.992  28.246  26.442  1.00  0.00     0.081 C 
ATOM      9  N   UNL A   1      44.726  30.984  27.117  1.00  0.00    -0.198 NA
ATOM     10  C   UNL A   1      45.809  30.067  26.725  1.00  0.00     0.103 C 
ATOM     11  C   UNL A   1      43.361  30.516  27.404  1.00  0.00     0.103 C 
ATOM     12  C   UNL A   1      45.391  28.748  26.107  1.00  0.00     0.030 C 
ATOM     13  C   UNL A   1      42.928  29.326  26.585  1.00  0.00     0.030 C 
BRANCH   9  14
ATOM     14  S   UNL A   1      45.208  32.421  27.872  1.00  0.00     0.244 S 
ATOM     15  O   UNL A   1      46.467  32.809  27.266  1.00  0.00    -0.207 OA
ATOM     16  O   UNL A   1      45.109  32.216  29.303  1.00  0.00    -0.207 OA
BRANCH  14  17
ATOM     17  C   UNL A   1      44.080  33.756  27.503  1.00  0.00     0.100 A 
ATOM     18  C   UNL A   1      43.696  34.247  26.252  1.00  0.00     0.072 A 
ATOM     19  C   UNL A   1      42.820  35.349  26.184  1.00  0.00     0.021 A 
ATOM     20  C   UNL A   1      42.309  35.943  27.333  1.00  0.00     0.001 A 
ATOM     21  C   UNL A   1      43.547  34.363  28.660  1.00  0.00     0.023 A 
ATOM     22  C   UNL A   1      42.666  35.441  28.575  1.00  0.00     0.001 A 
BRANCH  18  23
ATOM     23  C   UNL A   1      44.074  33.739  24.972  1.00  0.00     0.101 C 
ATOM     24  N   UNL A   1      44.343  33.422  23.894  1.00  0.00    -0.192 NA
ENDBRANCH  18  23
ENDBRANCH  14  17
ENDBRANCH   9  14
ENDBRANCH   5   8
ENDBRANCH   3   4
ENDBRANCH   2   3
ENDBRANCH   1   2
BRANCH   1  25
ATOM     25  C   UNL A   1      42.355  22.363  28.502  1.00  0.00     0.002 C 
BRANCH  25  26
ATOM     26  C   UNL A   1      41.144  21.811  27.749  1.00  0.00     0.021 C 
BRANCH  26  27
ATOM     27  C   UNL A   1      41.056  22.271  26.300  1.00  0.00     0.116 C 
BRANCH  27  28
ATOM     28  N   UNL A   1      39.679  22.486  25.888  1.00  0.00    -0.352 N 
ATOM     29  C   UNL A   1      38.798  23.451  26.301  1.00  0.00     0.251 C 
ATOM     30  H   UNL A   1      39.331  21.851  25.221  1.00  0.00     0.163 HD
ATOM     31  O   UNL A   1      37.605  23.360  26.036  1.00  0.00    -0.269 OA
BRANCH  29  32
ATOM     32  C   UNL A   1      39.300  24.594  27.086  1.00  0.00     0.039 A 
ATOM     33  C   UNL A   1      40.014  25.601  26.434  1.00  0.00     0.014 A 
ATOM     34  C   UNL A   1      39.059  24.673  28.462  1.00  0.00     0.014 A 
ATOM     35  C   UNL A   1      40.442  26.715  27.155  1.00  0.00     0.010 A 
ATOM     36  C   UNL A   1      39.411  25.822  29.159  1.00  0.00     0.010 A 
ATOM     37  C   UNL A   1      40.116  26.850  28.514  1.00  0.00    -0.014 A 
BRANCH  37  38
ATOM     38  C   UNL A   1      40.510  28.058  29.280  1.00  0.00     0.031 A 
ATOM     39  C   UNL A   1      41.879  28.150  29.892  1.00  0.00     0.074 A 
ATOM     40  C   UNL A   1      39.613  29.044  29.471  1.00  0.00     0.049 A 
ATOM     41  N   UNL A   1      42.391  29.098  30.635  1.00  0.00    -0.248 NA
ATOM     42  C   UNL A   1      42.783  27.013  29.663  1.00  0.00     0.031 C 
ATOM     43  C   UNL A   1      38.239  29.045  28.967  1.00  0.00     0.029 A 
ATOM     44  N   UNL A   1      39.721  30.232  30.147  1.00  0.00    -0.354 N 
ATOM     45  C   UNL A   1      43.668  28.666  30.969  1.00  0.00     0.074 A 
ATOM     46  C   UNL A   1      43.830  27.345  30.403  1.00  0.00     0.031 C 
ATOM     47  C   UNL A   1      37.640  30.190  29.329  1.00  0.00     0.029 A 
ATOM     48  C   UNL A   1      38.570  30.983  30.126  1.00  0.00     0.049 A 
ATOM     49  H   UNL A   1      40.544  30.521  30.604  1.00  0.00     0.167 HD
ATOM     50  C   UNL A   1      44.627  29.323  31.664  1.00  0.00     0.037 A 
ATOM     51  C   UNL A   1      38.295  32.172  30.695  1.00  0.00     0.037 A 
ATOM     52  C   UNL A   1      44.460  30.643  32.216  1.00  0.00     0.049 A 
ATOM     53  C   UNL A   1      39.370  32.873  31.482  1.00  0.00     0.074 A 
ATOM     54  C   UNL A   1      45.387  31.420  32.887  1.00  0.00     0.029 A 
ATOM     55  N   UNL A   1      43.282  31.376  32.171  1.00  0.00    -0.354 N 
ATOM     56  N   UNL A   1      40.600  32.490  31.727  1.00  0.00    -0.248 NA
ATOM     57  C   UNL A   1      39.019  34.174  32.065  1.00  0.00     0.031 C 
ATOM     58  C   UNL A   1      44.752  32.594  33.304  1.00  0.00     0.029 A 
ATOM     59  C   UNL A   1      43.449  32.583  32.831  1.00  0.00     0.049 A 
ATOM     60  H   UNL A   1      42.450  31.081  31.734  1.00  0.00     0.167 HD
ATOM     61  C   UNL A   1      41.179  33.515  32.464  1.00  0.00     0.074 A 
ATOM     62  C   UNL A   1      40.169  34.542  32.613  1.00  0.00     0.031 C 
ATOM     63  C   UNL A   1      42.435  33.597  32.970  1.00  0.00     0.037 A 
BRANCH  50  64
ATOM     64  C   UNL A   1      45.937  28.617  31.875  1.00  0.00     0.064 A 
ATOM     65  C   UNL A   1      46.173  27.812  33.001  1.00  0.00     0.173 A 
ATOM     66  C   UNL A   1      46.967  28.732  30.928  1.00  0.00     0.173 A 
ATOM     67  F   UNL A   1      45.226  27.674  33.943  1.00  0.00    -0.203 F 
ATOM     68  C   UNL A   1      47.401  27.184  33.192  1.00  0.00     0.198 A 
ATOM     69  C   UNL A   1      48.181  28.072  31.103  1.00  0.00     0.198 A 
ATOM     70  F   UNL A   1      46.797  29.482  29.829  1.00  0.00    -0.203 F 
ATOM     71  F   UNL A   1      47.622  26.474  34.307  1.00  0.00    -0.200 F 
ATOM     72  C   UNL A   1      48.401  27.309  32.240  1.00  0.00     0.200 A 
ATOM     73  F   UNL A   1      49.140  28.179  30.175  1.00  0.00    -0.200 F 
ATOM     74  F   UNL A   1      49.582  26.700  32.422  1.00  0.00    -0.200 F 
ENDBRANCH  50  64
BRANCH  51  75
ATOM     75  C   UNL A   1      36.950  32.781  30.520  1.00  0.00     0.064 A 
ATOM     76  C   UNL A   1      35.971  32.664  31.515  1.00  0.00     0.173 A 
ATOM     77  C   UNL A   1      36.621  33.499  29.361  1.00  0.00     0.173 A 
ATOM     78  F   UNL A   1      36.232  31.971  32.634  1.00  0.00    -0.203 F 
ATOM     79  C   UNL A   1      34.705  33.225  31.350  1.00  0.00     0.198 A 
ATOM     80  C   UNL A   1      35.366  34.087  29.212  1.00  0.00     0.198 A 
ATOM     81  F   UNL A   1      37.525  33.647  28.382  1.00  0.00    -0.203 F 
ATOM     82  F   UNL A   1      33.773  33.059  32.298  1.00  0.00    -0.200 F 
ATOM     83  C   UNL A   1      34.407  33.942  30.202  1.00  0.00     0.200 A 
ATOM     84  F   UNL A   1      35.088  34.795  28.109  1.00  0.00    -0.200 F 
ATOM     85  F   UNL A   1      33.193  34.489  30.047  1.00  0.00    -0.200 F 
ENDBRANCH  51  75
BRANCH  63  86
ATOM     86  C   UNL A   1      42.803  34.859  33.699  1.00  0.00     0.064 A 
ATOM     87  C   UNL A   1      43.260  36.000  33.023  1.00  0.00     0.173 A 
ATOM     88  C   UNL A   1      42.657  34.939  35.093  1.00  0.00     0.173 A 
ATOM     89  F   UNL A   1      43.431  35.974  31.692  1.00  0.00    -0.203 F 
ATOM     90  C   UNL A   1      43.583  37.163  33.717  1.00  0.00     0.198 A 
ATOM     91  C   UNL A   1      42.946  36.114  35.779  1.00  0.00     0.198 A 
ATOM     92  F   UNL A   1      42.216  33.880  35.789  1.00  0.00    -0.203 F 
ATOM     93  F   UNL A   1      44.069  38.222  33.056  1.00  0.00    -0.200 F 
ATOM     94  C   UNL A   1      43.418  37.222  35.092  1.00  0.00     0.200 A 
ATOM     95  F   UNL A   1      42.768  36.174  37.106  1.00  0.00    -0.200 F 
ATOM     96  F   UNL A   1      43.721  38.346  35.757  1.00  0.00    -0.200 F 
ENDBRANCH  63  86
ENDBRANCH  37  38
ENDBRANCH  29  32
ENDBRANCH  27  28
ENDBRANCH  26  27
ENDBRANCH  25  26
ENDBRANCH   1  25
TORSDOF 16
ENDMDL
