MODEL 1
REMARK VINA RESULT:     -12.2      0.000      0.000
REMARK SMILES CCCC[C@H](C(=O)NCCCCCCNC(=O)c1ccc(-c2c3nc(c(-c4c(F)c(F)c(F)c(F)c4F)c4ccc([nH]4)c(-c4c(F)c(F)c(F)c(F)c4F)c4nc(c(-c5c(F)c(F)c(F)c(F)c5F)c5ccc2[nH]5)C=C4)C=C3)cc1)N1C(=O)[C@H]2[C@@H]3C=C[C@@H]([C@@H]4C[C@H]34)[C@@H]2C1=O
REMARK SMILES IDX 11 1 10 2 9 3 8 4 6 5 7 6 5 8 4 9 3 10 2 11 1 12 81 13 82 14
REMARK SMILES IDX 93 15 83 16 84 17 92 18 94 19 85 20 88 21 86 22 91 23 87 24
REMARK SMILES IDX 89 25 90 26 12 27 13 28 14 29 15 30 16 31 17 33 18 34 19 35
REMARK SMILES IDX 80 36 20 37 79 38 21 39 22 40 23 41 73 42 24 43 78 44 72 45
REMARK SMILES IDX 74 46 25 47 77 48 71 49 70 50 26 52 58 53 38 54 57 55 39 56
REMARK SMILES IDX 42 57 56 58 75 59 40 60 41 61 55 63 76 64 43 65 27 66 28 67
REMARK SMILES IDX 36 68 29 69 30 70 34 71 37 72 31 73 32 74 35 75 33 76 59 77
REMARK SMILES IDX 60 78 68 79 61 80 62 81 66 82 69 83 63 84 64 85 67 86 65 87
REMARK SMILES IDX 44 88 45 89 53 90 46 91 47 92 51 93 54 94 48 95 49 96 52 97
REMARK SMILES IDX 50 98
REMARK H PARENT 8 7 15 32 74 51 42 62
REMARK Flexibility Score: inf
ROOT
ATOM      1  C   UNL A   1      35.895  20.353  24.973  1.00  0.00     0.002 C 
ENDROOT
BRANCH   1   2
ATOM      2  C   UNL A   1      35.018  21.113  25.980  1.00  0.00     0.021 C 
BRANCH   2   3
ATOM      3  C   UNL A   1      33.536  21.149  25.623  1.00  0.00     0.116 C 
BRANCH   3   4
ATOM      4  N   UNL A   1      32.742  21.742  26.678  1.00  0.00    -0.354 N 
ATOM      5  C   UNL A   1      31.977  22.871  26.667  1.00  0.00     0.243 C 
ATOM      6  O   UNL A   1      31.329  23.104  27.692  1.00  0.00    -0.273 OA
ATOM      7  H   UNL A   1      32.756  21.256  27.534  1.00  0.00     0.163 HD
BRANCH   5   8
ATOM      8  C   UNL A   1      31.947  23.799  25.431  1.00  0.00     0.182 C 
BRANCH   8   9
ATOM      9  C   UNL A   1      30.676  23.755  24.553  1.00  0.00     0.036 C 
BRANCH   9  10
ATOM     10  C   UNL A   1      30.698  24.173  23.075  1.00  0.00     0.002 C 
BRANCH  10  11
ATOM     11  C   UNL A   1      31.534  25.383  22.639  1.00  0.00    -0.003 C 
ATOM     12  C   UNL A   1      32.927  25.056  22.136  1.00  0.00     0.004 C 
ENDBRANCH  10  11
ENDBRANCH   9  10
ENDBRANCH   8   9
BRANCH   8  13
ATOM     13  N   UNL A   1      32.239  25.140  25.972  1.00  0.00    -0.269 N 
ATOM     14  C   UNL A   1      33.482  25.772  25.877  1.00  0.00     0.234 C 
ATOM     15  C   UNL A   1      31.215  26.070  26.245  1.00  0.00     0.234 C 
ATOM     16  O   UNL A   1      34.561  25.344  25.523  1.00  0.00    -0.274 OA
ATOM     17  C   UNL A   1      33.246  27.134  26.410  1.00  0.00     0.099 C 
ATOM     18  C   UNL A   1      31.847  27.370  25.846  1.00  0.00     0.099 C 
ATOM     19  O   UNL A   1      30.047  25.854  26.506  1.00  0.00    -0.274 OA
ATOM     20  C   UNL A   1      34.138  28.362  26.189  1.00  0.00     0.028 C 
ATOM     21  C   UNL A   1      31.588  28.873  25.828  1.00  0.00     0.028 C 
ATOM     22  C   UNL A   1      33.530  29.329  27.229  1.00  0.00    -0.026 C 
ATOM     23  C   UNL A   1      33.945  29.064  24.840  1.00  0.00     0.001 C 
ATOM     24  C   UNL A   1      32.203  29.545  27.069  1.00  0.00    -0.026 C 
ATOM     25  C   UNL A   1      32.462  29.392  24.610  1.00  0.00     0.001 C 
ATOM     26  C   UNL A   1      33.255  28.536  23.617  1.00  0.00     0.009 C 
ENDBRANCH   8  13
ENDBRANCH   5   8
ENDBRANCH   3   4
ENDBRANCH   2   3
ENDBRANCH   1   2
BRANCH   1  27
ATOM     27  C   UNL A   1      37.359  20.800  24.895  1.00  0.00     0.002 C 
BRANCH  27  28
ATOM     28  C   UNL A   1      38.397  19.682  25.022  1.00  0.00     0.021 C 
BRANCH  28  29
ATOM     29  C   UNL A   1      39.508  19.943  26.033  1.00  0.00     0.116 C 
BRANCH  29  30
ATOM     30  N   UNL A   1      40.606  18.999  25.916  1.00  0.00    -0.352 N 
ATOM     31  C   UNL A   1      41.957  19.212  26.022  1.00  0.00     0.251 C 
ATOM     32  H   UNL A   1      40.341  18.067  25.735  1.00  0.00     0.163 HD
ATOM     33  O   UNL A   1      42.746  18.315  25.742  1.00  0.00    -0.269 OA
BRANCH  31  34
ATOM     34  C   UNL A   1      42.468  20.536  26.442  1.00  0.00     0.039 A 
ATOM     35  C   UNL A   1      42.936  21.410  25.459  1.00  0.00     0.014 A 
ATOM     36  C   UNL A   1      42.489  20.916  27.786  1.00  0.00     0.014 A 
ATOM     37  C   UNL A   1      43.365  22.689  25.817  1.00  0.00     0.010 A 
ATOM     38  C   UNL A   1      42.842  22.220  28.134  1.00  0.00     0.010 A 
ATOM     39  C   UNL A   1      43.282  23.120  27.153  1.00  0.00    -0.014 A 
BRANCH  39  40
ATOM     40  C   UNL A   1      43.623  24.520  27.516  1.00  0.00     0.031 A 
ATOM     41  C   UNL A   1      45.052  24.983  27.540  1.00  0.00     0.074 A 
ATOM     42  C   UNL A   1      42.633  25.368  27.863  1.00  0.00     0.049 A 
ATOM     43  N   UNL A   1      45.533  26.167  27.828  1.00  0.00    -0.248 NA
ATOM     44  C   UNL A   1      46.080  23.982  27.222  1.00  0.00     0.031 C 
ATOM     45  C   UNL A   1      41.213  25.022  27.935  1.00  0.00     0.029 A 
ATOM     46  N   UNL A   1      42.670  26.693  28.218  1.00  0.00    -0.354 N 
ATOM     47  C   UNL A   1      46.912  26.053  27.727  1.00  0.00     0.074 A 
ATOM     48  C   UNL A   1      47.198  24.669  27.413  1.00  0.00     0.031 C 
ATOM     49  C   UNL A   1      40.510  26.113  28.272  1.00  0.00     0.029 A 
ATOM     50  C   UNL A   1      41.432  27.225  28.483  1.00  0.00     0.049 A 
ATOM     51  H   UNL A   1      43.504  27.213  28.276  1.00  0.00     0.167 HD
ATOM     52  C   UNL A   1      47.855  27.018  27.859  1.00  0.00     0.037 A 
ATOM     53  C   UNL A   1      41.077  28.469  28.857  1.00  0.00     0.037 A 
ATOM     54  C   UNL A   1      47.564  28.396  28.166  1.00  0.00     0.049 A 
ATOM     55  C   UNL A   1      42.146  29.518  29.014  1.00  0.00     0.074 A 
ATOM     56  C   UNL A   1      48.443  29.461  28.267  1.00  0.00     0.029 A 
ATOM     57  N   UNL A   1      46.299  28.899  28.434  1.00  0.00    -0.354 N 
ATOM     58  N   UNL A   1      43.440  29.416  28.834  1.00  0.00    -0.248 NA
ATOM     59  C   UNL A   1      41.700  30.858  29.416  1.00  0.00     0.031 C 
ATOM     60  C   UNL A   1      47.719  30.592  28.657  1.00  0.00     0.029 A 
ATOM     61  C   UNL A   1      46.378  30.250  28.733  1.00  0.00     0.049 A 
ATOM     62  H   UNL A   1      45.467  28.373  28.415  1.00  0.00     0.167 HD
ATOM     63  C   UNL A   1      43.960  30.680  29.078  1.00  0.00     0.074 A 
ATOM     64  C   UNL A   1      42.835  31.538  29.388  1.00  0.00     0.031 C 
ATOM     65  C   UNL A   1      45.252  31.092  29.051  1.00  0.00     0.037 A 
BRANCH  52  66
ATOM     66  C   UNL A   1      49.293  26.619  27.675  1.00  0.00     0.064 A 
ATOM     67  C   UNL A   1      50.141  26.392  28.771  1.00  0.00     0.173 A 
ATOM     68  C   UNL A   1      49.818  26.420  26.390  1.00  0.00     0.173 A 
ATOM     69  F   UNL A   1      49.694  26.576  30.022  1.00  0.00    -0.203 F 
ATOM     70  C   UNL A   1      51.468  26.013  28.584  1.00  0.00     0.198 A 
ATOM     71  C   UNL A   1      51.136  26.006  26.208  1.00  0.00     0.198 A 
ATOM     72  F   UNL A   1      49.051  26.616  25.307  1.00  0.00    -0.203 F 
ATOM     73  F   UNL A   1      52.273  25.853  29.644  1.00  0.00    -0.200 F 
ATOM     74  C   UNL A   1      51.962  25.812  27.304  1.00  0.00     0.200 A 
ATOM     75  F   UNL A   1      51.606  25.798  24.971  1.00  0.00    -0.200 F 
ATOM     76  F   UNL A   1      53.236  25.438  27.126  1.00  0.00    -0.200 F 
ENDBRANCH  52  66
BRANCH  53  77
ATOM     77  C   UNL A   1      39.647  28.798  29.093  1.00  0.00     0.064 A 
ATOM     78  C   UNL A   1      38.836  29.283  28.056  1.00  0.00     0.173 A 
ATOM     79  C   UNL A   1      39.062  28.645  30.358  1.00  0.00     0.173 A 
ATOM     80  F   UNL A   1      39.352  29.465  26.832  1.00  0.00    -0.203 F 
ATOM     81  C   UNL A   1      37.505  29.628  28.283  1.00  0.00     0.198 A 
ATOM     82  C   UNL A   1      37.722  28.958  30.576  1.00  0.00     0.198 A 
ATOM     83  F   UNL A   1      39.790  28.179  31.383  1.00  0.00    -0.203 F 
ATOM     84  F   UNL A   1      36.770  30.142  27.288  1.00  0.00    -0.200 F 
ATOM     85  C   UNL A   1      36.947  29.460  29.542  1.00  0.00     0.200 A 
ATOM     86  F   UNL A   1      37.183  28.776  31.789  1.00  0.00    -0.200 F 
ATOM     87  F   UNL A   1      35.666  29.788  29.758  1.00  0.00    -0.200 F 
ENDBRANCH  53  77
BRANCH  65  88
ATOM     88  C   UNL A   1      45.511  32.544  29.345  1.00  0.00     0.064 A 
ATOM     89  C   UNL A   1      45.486  33.519  28.336  1.00  0.00     0.173 A 
ATOM     90  C   UNL A   1      45.781  32.968  30.655  1.00  0.00     0.173 A 
ATOM     91  F   UNL A   1      45.246  33.168  27.063  1.00  0.00    -0.203 F 
ATOM     92  C   UNL A   1      45.768  34.853  28.619  1.00  0.00     0.198 A 
ATOM     93  C   UNL A   1      46.024  34.309  30.942  1.00  0.00     0.198 A 
ATOM     94  F   UNL A   1      45.808  32.082  31.662  1.00  0.00    -0.203 F 
ATOM     95  F   UNL A   1      45.810  35.753  27.626  1.00  0.00    -0.200 F 
ATOM     96  C   UNL A   1      46.031  35.248  29.922  1.00  0.00     0.200 A 
ATOM     97  F   UNL A   1      46.260  34.691  32.205  1.00  0.00    -0.200 F 
ATOM     98  F   UNL A   1      46.303  36.532  30.193  1.00  0.00    -0.200 F 
ENDBRANCH  65  88
ENDBRANCH  39  40
ENDBRANCH  31  34
ENDBRANCH  29  30
ENDBRANCH  28  29
ENDBRANCH  27  28
ENDBRANCH   1  27
TORSDOF 17
ENDMDL
MODEL 2
REMARK VINA RESULT:     -12.1      5.414     10.025
REMARK SMILES CCCC[C@H](C(=O)NCCCCCCNC(=O)c1ccc(-c2c3nc(c(-c4c(F)c(F)c(F)c(F)c4F)c4ccc([nH]4)c(-c4c(F)c(F)c(F)c(F)c4F)c4nc(c(-c5c(F)c(F)c(F)c(F)c5F)c5ccc2[nH]5)C=C4)C=C3)cc1)N1C(=O)[C@H]2[C@@H]3C=C[C@@H]([C@@H]4C[C@H]34)[C@@H]2C1=O
REMARK SMILES IDX 11 1 10 2 9 3 8 4 6 5 7 6 5 8 4 9 3 10 2 11 1 12 81 13 82 14
REMARK SMILES IDX 93 15 83 16 84 17 92 18 94 19 85 20 88 21 86 22 91 23 87 24
REMARK SMILES IDX 89 25 90 26 12 27 13 28 14 29 15 30 16 31 17 33 18 34 19 35
REMARK SMILES IDX 80 36 20 37 79 38 21 39 22 40 23 41 73 42 24 43 78 44 72 45
REMARK SMILES IDX 74 46 25 47 77 48 71 49 70 50 26 52 58 53 38 54 57 55 39 56
REMARK SMILES IDX 42 57 56 58 75 59 40 60 41 61 55 63 76 64 43 65 27 66 28 67
REMARK SMILES IDX 36 68 29 69 30 70 34 71 37 72 31 73 32 74 35 75 33 76 59 77
REMARK SMILES IDX 60 78 68 79 61 80 62 81 66 82 69 83 63 84 64 85 67 86 65 87
REMARK SMILES IDX 44 88 45 89 53 90 46 91 47 92 51 93 54 94 48 95 49 96 52 97
REMARK SMILES IDX 50 98
REMARK H PARENT 8 7 15 32 74 51 42 62
REMARK Flexibility Score: inf
ROOT
ATOM      1  C   UNL A   1      34.095  29.968  27.166  1.00  0.00     0.002 C 
ENDROOT
BRANCH   1   2
ATOM      2  C   UNL A   1      32.649  29.456  27.094  1.00  0.00     0.021 C 
BRANCH   2   3
ATOM      3  C   UNL A   1      31.920  29.810  25.802  1.00  0.00     0.116 C 
BRANCH   3   4
ATOM      4  N   UNL A   1      32.807  29.791  24.659  1.00  0.00    -0.354 N 
ATOM      5  C   UNL A   1      33.000  28.824  23.717  1.00  0.00     0.243 C 
ATOM      6  O   UNL A   1      33.766  29.105  22.791  1.00  0.00    -0.273 OA
ATOM      7  H   UNL A   1      33.355  30.601  24.543  1.00  0.00     0.163 HD
BRANCH   5   8
ATOM      8  C   UNL A   1      32.295  27.453  23.830  1.00  0.00     0.182 C 
BRANCH   8   9
ATOM      9  C   UNL A   1      31.256  27.107  22.739  1.00  0.00     0.036 C 
BRANCH   9  10
ATOM     10  C   UNL A   1      29.772  27.471  22.889  1.00  0.00     0.002 C 
BRANCH  10  11
ATOM     11  C   UNL A   1      29.364  28.938  23.076  1.00  0.00    -0.003 C 
ATOM     12  C   UNL A   1      29.880  29.891  22.015  1.00  0.00     0.004 C 
ENDBRANCH  10  11
ENDBRANCH   9  10
ENDBRANCH   8   9
BRANCH   8  13
ATOM     13  N   UNL A   1      33.399  26.478  23.919  1.00  0.00    -0.269 N 
ATOM     14  C   UNL A   1      33.850  25.909  25.112  1.00  0.00     0.234 C 
ATOM     15  C   UNL A   1      33.808  25.718  22.804  1.00  0.00     0.234 C 
ATOM     16  O   UNL A   1      33.592  26.183  26.265  1.00  0.00    -0.274 OA
ATOM     17  C   UNL A   1      34.843  24.894  24.685  1.00  0.00     0.099 C 
ATOM     18  C   UNL A   1      34.141  24.394  23.424  1.00  0.00     0.099 C 
ATOM     19  O   UNL A   1      33.695  25.985  21.623  1.00  0.00    -0.274 OA
ATOM     20  C   UNL A   1      35.358  23.719  25.525  1.00  0.00     0.028 C 
ATOM     21  C   UNL A   1      34.702  23.018  23.082  1.00  0.00     0.028 C 
ATOM     22  C   UNL A   1      36.549  23.265  24.654  1.00  0.00    -0.026 C 
ATOM     23  C   UNL A   1      34.424  22.505  25.578  1.00  0.00     0.001 C 
ATOM     24  C   UNL A   1      36.212  22.956  23.379  1.00  0.00    -0.026 C 
ATOM     25  C   UNL A   1      34.037  22.061  24.159  1.00  0.00     0.001 C 
ATOM     26  C   UNL A   1      32.974  22.441  25.195  1.00  0.00     0.009 C 
ENDBRANCH   8  13
ENDBRANCH   5   8
ENDBRANCH   3   4
ENDBRANCH   2   3
ENDBRANCH   1   2
BRANCH   1  27
ATOM     27  C   UNL A   1      34.318  31.216  28.028  1.00  0.00     0.002 C 
BRANCH  27  28
ATOM     28  C   UNL A   1      33.929  32.545  27.377  1.00  0.00     0.021 C 
BRANCH  28  29
ATOM     29  C   UNL A   1      32.509  33.019  27.672  1.00  0.00     0.116 C 
BRANCH  29  30
ATOM     30  N   UNL A   1      32.430  34.453  27.887  1.00  0.00    -0.352 N 
ATOM     31  C   UNL A   1      33.156  35.250  28.735  1.00  0.00     0.251 C 
ATOM     32  H   UNL A   1      31.755  34.922  27.344  1.00  0.00     0.163 HD
ATOM     33  O   UNL A   1      32.844  36.427  28.892  1.00  0.00    -0.269 OA
BRANCH  31  34
ATOM     34  C   UNL A   1      34.298  34.686  29.487  1.00  0.00     0.039 A 
ATOM     35  C   UNL A   1      34.042  34.043  30.701  1.00  0.00     0.014 A 
ATOM     36  C   UNL A   1      35.607  34.787  29.010  1.00  0.00     0.014 A 
ATOM     37  C   UNL A   1      35.091  33.446  31.402  1.00  0.00     0.010 A 
ATOM     38  C   UNL A   1      36.641  34.123  29.670  1.00  0.00     0.010 A 
ATOM     39  C   UNL A   1      36.393  33.444  30.871  1.00  0.00    -0.014 A 
BRANCH  39  40
ATOM     40  C   UNL A   1      37.485  32.704  31.556  1.00  0.00     0.031 A 
ATOM     41  C   UNL A   1      38.137  31.517  30.904  1.00  0.00     0.074 A 
ATOM     42  C   UNL A   1      37.863  33.087  32.791  1.00  0.00     0.049 A 
ATOM     43  N   UNL A   1      39.105  30.756  31.351  1.00  0.00    -0.248 NA
ATOM     44  C   UNL A   1      37.621  31.115  29.587  1.00  0.00     0.031 C 
ATOM     45  C   UNL A   1      37.267  34.185  33.552  1.00  0.00     0.029 A 
ATOM     46  N   UNL A   1      38.838  32.597  33.624  1.00  0.00    -0.354 N 
ATOM     47  C   UNL A   1      39.313  29.790  30.376  1.00  0.00     0.074 A 
ATOM     48  C   UNL A   1      38.327  30.021  29.340  1.00  0.00     0.031 C 
ATOM     49  C   UNL A   1      37.912  34.312  34.722  1.00  0.00     0.029 A 
ATOM     50  C   UNL A   1      38.938  33.277  34.813  1.00  0.00     0.049 A 
ATOM     51  H   UNL A   1      39.411  31.831  33.391  1.00  0.00     0.167 HD
ATOM     52  C   UNL A   1      40.253  28.816  30.335  1.00  0.00     0.037 A 
ATOM     53  C   UNL A   1      39.761  33.088  35.861  1.00  0.00     0.037 A 
ATOM     54  C   UNL A   1      41.235  28.595  31.366  1.00  0.00     0.049 A 
ATOM     55  C   UNL A   1      40.785  31.987  35.797  1.00  0.00     0.074 A 
ATOM     56  C   UNL A   1      42.265  27.670  31.394  1.00  0.00     0.029 A 
ATOM     57  N   UNL A   1      41.304  29.300  32.560  1.00  0.00    -0.354 N 
ATOM     58  N   UNL A   1      41.025  31.132  34.832  1.00  0.00    -0.248 NA
ATOM     59  C   UNL A   1      41.660  31.832  36.966  1.00  0.00     0.031 C 
ATOM     60  C   UNL A   1      42.915  27.773  32.628  1.00  0.00     0.029 A 
ATOM     61  C   UNL A   1      42.336  28.808  33.344  1.00  0.00     0.049 A 
ATOM     62  H   UNL A   1      40.706  30.041  32.813  1.00  0.00     0.167 HD
ATOM     63  C   UNL A   1      42.090  30.356  35.266  1.00  0.00     0.074 A 
ATOM     64  C   UNL A   1      42.470  30.862  36.569  1.00  0.00     0.031 C 
ATOM     65  C   UNL A   1      42.697  29.314  34.645  1.00  0.00     0.037 A 
BRANCH  52  66
ATOM     66  C   UNL A   1      40.266  27.909  29.136  1.00  0.00     0.064 A 
ATOM     67  C   UNL A   1      41.022  28.209  27.992  1.00  0.00     0.173 A 
ATOM     68  C   UNL A   1      39.547  26.705  29.146  1.00  0.00     0.173 A 
ATOM     69  F   UNL A   1      41.722  29.352  27.925  1.00  0.00    -0.203 F 
ATOM     70  C   UNL A   1      41.031  27.354  26.893  1.00  0.00     0.198 A 
ATOM     71  C   UNL A   1      39.586  25.834  28.059  1.00  0.00     0.198 A 
ATOM     72  F   UNL A   1      38.811  26.363  30.215  1.00  0.00    -0.203 F 
ATOM     73  F   UNL A   1      41.719  27.688  25.792  1.00  0.00    -0.200 F 
ATOM     74  C   UNL A   1      40.321  26.164  26.930  1.00  0.00     0.200 A 
ATOM     75  F   UNL A   1      38.911  24.677  28.103  1.00  0.00    -0.200 F 
ATOM     76  F   UNL A   1      40.339  25.337  25.875  1.00  0.00    -0.200 F 
ENDBRANCH  52  66
BRANCH  53  77
ATOM     77  C   UNL A   1      39.664  33.971  37.054  1.00  0.00     0.064 A 
ATOM     78  C   UNL A   1      38.890  33.604  38.164  1.00  0.00     0.173 A 
ATOM     79  C   UNL A   1      40.333  35.202  37.105  1.00  0.00     0.173 A 
ATOM     80  F   UNL A   1      38.215  32.446  38.157  1.00  0.00    -0.203 F 
ATOM     81  C   UNL A   1      38.767  34.447  39.268  1.00  0.00     0.198 A 
ATOM     82  C   UNL A   1      40.237  36.029  38.222  1.00  0.00     0.198 A 
ATOM     83  F   UNL A   1      41.092  35.598  36.073  1.00  0.00    -0.203 F 
ATOM     84  F   UNL A   1      37.976  34.097  40.290  1.00  0.00    -0.200 F 
ATOM     85  C   UNL A   1      39.446  35.657  39.298  1.00  0.00     0.200 A 
ATOM     86  F   UNL A   1      40.910  37.187  38.255  1.00  0.00    -0.200 F 
ATOM     87  F   UNL A   1      39.332  36.465  40.360  1.00  0.00    -0.200 F 
ENDBRANCH  53  77
BRANCH  65  88
ATOM     88  C   UNL A   1      43.852  28.670  35.362  1.00  0.00     0.064 A 
ATOM     89  C   UNL A   1      45.178  29.071  35.138  1.00  0.00     0.173 A 
ATOM     90  C   UNL A   1      43.628  27.642  36.291  1.00  0.00     0.173 A 
ATOM     91  F   UNL A   1      45.450  30.040  34.251  1.00  0.00    -0.203 F 
ATOM     92  C   UNL A   1      46.238  28.436  35.781  1.00  0.00     0.198 A 
ATOM     93  C   UNL A   1      44.687  27.036  36.962  1.00  0.00     0.198 A 
ATOM     94  F   UNL A   1      42.380  27.225  36.553  1.00  0.00    -0.203 F 
ATOM     95  F   UNL A   1      47.500  28.788  35.496  1.00  0.00    -0.200 F 
ATOM     96  C   UNL A   1      45.992  27.424  36.696  1.00  0.00     0.200 A 
ATOM     97  F   UNL A   1      44.446  26.071  37.859  1.00  0.00    -0.200 F 
ATOM     98  F   UNL A   1      47.013  26.813  37.314  1.00  0.00    -0.200 F 
ENDBRANCH  65  88
ENDBRANCH  39  40
ENDBRANCH  31  34
ENDBRANCH  29  30
ENDBRANCH  28  29
ENDBRANCH  27  28
ENDBRANCH   1  27
TORSDOF 17
ENDMDL
MODEL 3
REMARK VINA RESULT:     -12.0      5.181     10.530
REMARK SMILES CCCC[C@H](C(=O)NCCCCCCNC(=O)c1ccc(-c2c3nc(c(-c4c(F)c(F)c(F)c(F)c4F)c4ccc([nH]4)c(-c4c(F)c(F)c(F)c(F)c4F)c4nc(c(-c5c(F)c(F)c(F)c(F)c5F)c5ccc2[nH]5)C=C4)C=C3)cc1)N1C(=O)[C@H]2[C@@H]3C=C[C@@H]([C@@H]4C[C@H]34)[C@@H]2C1=O
REMARK SMILES IDX 11 1 10 2 9 3 8 4 6 5 7 6 5 8 4 9 3 10 2 11 1 12 81 13 82 14
REMARK SMILES IDX 93 15 83 16 84 17 92 18 94 19 85 20 88 21 86 22 91 23 87 24
REMARK SMILES IDX 89 25 90 26 12 27 13 28 14 29 15 30 16 31 17 33 18 34 19 35
REMARK SMILES IDX 80 36 20 37 79 38 21 39 22 40 23 41 73 42 24 43 78 44 72 45
REMARK SMILES IDX 74 46 25 47 77 48 71 49 70 50 26 52 58 53 38 54 57 55 39 56
REMARK SMILES IDX 42 57 56 58 75 59 40 60 41 61 55 63 76 64 43 65 27 66 28 67
REMARK SMILES IDX 36 68 29 69 30 70 34 71 37 72 31 73 32 74 35 75 33 76 59 77
REMARK SMILES IDX 60 78 68 79 61 80 62 81 66 82 69 83 63 84 64 85 67 86 65 87
REMARK SMILES IDX 44 88 45 89 53 90 46 91 47 92 51 93 54 94 48 95 49 96 52 97
REMARK SMILES IDX 50 98
REMARK H PARENT 8 7 15 32 74 51 42 62
REMARK Flexibility Score: inf
ROOT
ATOM      1  C   UNL A   1      32.093  29.766  27.112  1.00  0.00     0.002 C 
ENDROOT
BRANCH   1   2
ATOM      2  C   UNL A   1      33.534  29.284  26.890  1.00  0.00     0.021 C 
BRANCH   2   3
ATOM      3  C   UNL A   1      33.645  27.925  26.206  1.00  0.00     0.116 C 
BRANCH   3   4
ATOM      4  N   UNL A   1      33.625  28.044  24.764  1.00  0.00    -0.354 N 
ATOM      5  C   UNL A   1      32.602  27.848  23.884  1.00  0.00     0.243 C 
ATOM      6  O   UNL A   1      32.840  28.103  22.700  1.00  0.00    -0.273 OA
ATOM      7  H   UNL A   1      34.482  28.306  24.355  1.00  0.00     0.163 HD
BRANCH   5   8
ATOM      8  C   UNL A   1      31.230  27.324  24.366  1.00  0.00     0.182 C 
BRANCH   8   9
ATOM      9  C   UNL A   1      29.985  27.799  23.583  1.00  0.00     0.036 C 
BRANCH   9  10
ATOM     10  C   UNL A   1      29.755  29.279  23.247  1.00  0.00     0.002 C 
BRANCH  10  11
ATOM     11  C   UNL A   1      28.348  29.765  22.876  1.00  0.00    -0.003 C 
ATOM     12  C   UNL A   1      27.904  31.042  23.563  1.00  0.00     0.004 C 
ENDBRANCH  10  11
ENDBRANCH   9  10
ENDBRANCH   8   9
BRANCH   8  13
ATOM     13  N   UNL A   1      31.384  25.856  24.386  1.00  0.00    -0.269 N 
ATOM     14  C   UNL A   1      31.708  25.085  23.267  1.00  0.00     0.234 C 
ATOM     15  C   UNL A   1      31.642  25.154  25.582  1.00  0.00     0.234 C 
ATOM     16  O   UNL A   1      31.759  25.380  22.092  1.00  0.00    -0.274 OA
ATOM     17  C   UNL A   1      31.905  23.718  23.806  1.00  0.00     0.099 C 
ATOM     18  C   UNL A   1      32.583  24.080  25.126  1.00  0.00     0.099 C 
ATOM     19  O   UNL A   1      31.368  25.476  26.722  1.00  0.00    -0.274 OA
ATOM     20  C   UNL A   1      32.643  22.567  23.111  1.00  0.00     0.028 C 
ATOM     21  C   UNL A   1      33.332  22.850  25.628  1.00  0.00     0.028 C 
ATOM     22  C   UNL A   1      32.226  21.390  24.019  1.00  0.00    -0.026 C 
ATOM     23  C   UNL A   1      34.171  22.623  23.217  1.00  0.00     0.001 C 
ATOM     24  C   UNL A   1      32.537  21.567  25.325  1.00  0.00    -0.026 C 
ATOM     25  C   UNL A   1      34.605  22.771  24.683  1.00  0.00     0.001 C 
ATOM     26  C   UNL A   1      35.025  23.790  23.619  1.00  0.00     0.009 C 
ENDBRANCH   8  13
ENDBRANCH   5   8
ENDBRANCH   3   4
ENDBRANCH   2   3
ENDBRANCH   1   2
BRANCH   1  27
ATOM     27  C   UNL A   1      31.564  30.776  26.087  1.00  0.00     0.002 C 
BRANCH  27  28
ATOM     28  C   UNL A   1      31.357  32.199  26.610  1.00  0.00     0.021 C 
BRANCH  28  29
ATOM     29  C   UNL A   1      32.590  32.845  27.234  1.00  0.00     0.116 C 
BRANCH  29  30
ATOM     30  N   UNL A   1      32.352  34.213  27.658  1.00  0.00    -0.352 N 
ATOM     31  C   UNL A   1      32.985  34.950  28.627  1.00  0.00     0.251 C 
ATOM     32  H   UNL A   1      31.630  34.682  27.179  1.00  0.00     0.163 HD
ATOM     33  O   UNL A   1      32.545  36.049  28.951  1.00  0.00    -0.269 OA
BRANCH  31  34
ATOM     34  C   UNL A   1      34.181  34.407  29.308  1.00  0.00     0.039 A 
ATOM     35  C   UNL A   1      34.004  33.695  30.496  1.00  0.00     0.014 A 
ATOM     36  C   UNL A   1      35.465  34.596  28.788  1.00  0.00     0.014 A 
ATOM     37  C   UNL A   1      35.107  33.117  31.127  1.00  0.00     0.010 A 
ATOM     38  C   UNL A   1      36.554  33.953  29.375  1.00  0.00     0.010 A 
ATOM     39  C   UNL A   1      36.386  33.205  30.549  1.00  0.00    -0.014 A 
BRANCH  39  40
ATOM     40  C   UNL A   1      37.538  32.488  31.155  1.00  0.00     0.031 A 
ATOM     41  C   UNL A   1      38.048  32.863  32.518  1.00  0.00     0.074 A 
ATOM     42  C   UNL A   1      38.150  31.515  30.451  1.00  0.00     0.049 A 
ATOM     43  N   UNL A   1      39.037  32.344  33.203  1.00  0.00    -0.248 NA
ATOM     44  C   UNL A   1      37.375  33.982  33.195  1.00  0.00     0.031 C 
ATOM     45  C   UNL A   1      37.786  31.100  29.095  1.00  0.00     0.029 A 
ATOM     46  N   UNL A   1      39.205  30.699  30.775  1.00  0.00    -0.354 N 
ATOM     47  C   UNL A   1      39.105  33.070  34.384  1.00  0.00     0.074 A 
ATOM     48  C   UNL A   1      38.099  34.108  34.298  1.00  0.00     0.031 C 
ATOM     49  C   UNL A   1      38.576  30.083  28.719  1.00  0.00     0.029 A 
ATOM     50  C   UNL A   1      39.531  29.803  29.787  1.00  0.00     0.049 A 
ATOM     51  H   UNL A   1      39.682  30.751  31.635  1.00  0.00     0.167 HD
ATOM     52  C   UNL A   1      39.915  32.875  35.453  1.00  0.00     0.037 A 
ATOM     53  C   UNL A   1      40.493  28.863  29.743  1.00  0.00     0.037 A 
ATOM     54  C   UNL A   1      40.910  31.836  35.535  1.00  0.00     0.049 A 
ATOM     55  C   UNL A   1      41.390  28.679  30.938  1.00  0.00     0.074 A 
ATOM     56  C   UNL A   1      41.743  31.521  36.595  1.00  0.00     0.029 A 
ATOM     57  N   UNL A   1      41.217  30.950  34.513  1.00  0.00    -0.354 N 
ATOM     58  N   UNL A   1      41.389  29.319  32.082  1.00  0.00    -0.248 NA
ATOM     59  C   UNL A   1      42.416  27.633  30.836  1.00  0.00     0.031 C 
ATOM     60  C   UNL A   1      42.595  30.488  36.193  1.00  0.00     0.029 A 
ATOM     61  C   UNL A   1      42.249  30.111  34.905  1.00  0.00     0.049 A 
ATOM     62  H   UNL A   1      40.768  30.921  33.637  1.00  0.00     0.167 HD
ATOM     63  C   UNL A   1      42.395  28.740  32.843  1.00  0.00     0.074 A 
ATOM     64  C   UNL A   1      42.963  27.676  32.041  1.00  0.00     0.031 C 
ATOM     65  C   UNL A   1      42.814  29.062  34.093  1.00  0.00     0.037 A 
BRANCH  52  66
ATOM     66  C   UNL A   1      39.762  33.807  36.622  1.00  0.00     0.064 A 
ATOM     67  C   UNL A   1      38.946  33.486  37.719  1.00  0.00     0.173 A 
ATOM     68  C   UNL A   1      40.470  35.017  36.667  1.00  0.00     0.173 A 
ATOM     69  F   UNL A   1      38.239  32.346  37.726  1.00  0.00    -0.203 F 
ATOM     70  C   UNL A   1      38.823  34.356  38.800  1.00  0.00     0.198 A 
ATOM     71  C   UNL A   1      40.372  35.868  37.766  1.00  0.00     0.198 A 
ATOM     72  F   UNL A   1      41.269  35.372  35.650  1.00  0.00    -0.203 F 
ATOM     73  F   UNL A   1      37.997  34.051  39.812  1.00  0.00    -0.200 F 
ATOM     74  C   UNL A   1      39.541  35.541  38.827  1.00  0.00     0.200 A 
ATOM     75  F   UNL A   1      41.079  37.005  37.797  1.00  0.00    -0.200 F 
ATOM     76  F   UNL A   1      39.429  36.372  39.872  1.00  0.00    -0.200 F 
ENDBRANCH  52  66
BRANCH  53  77
ATOM     77  C   UNL A   1      40.647  28.009  28.535  1.00  0.00     0.064 A 
ATOM     78  C   UNL A   1      41.429  28.428  27.449  1.00  0.00     0.173 A 
ATOM     79  C   UNL A   1      40.010  26.765  28.436  1.00  0.00     0.173 A 
ATOM     80  F   UNL A   1      42.043  29.620  27.486  1.00  0.00    -0.203 F 
ATOM     81  C   UNL A   1      41.544  27.648  26.300  1.00  0.00     0.198 A 
ATOM     82  C   UNL A   1      40.153  25.969  27.301  1.00  0.00     0.198 A 
ATOM     83  F   UNL A   1      39.256  26.312  29.449  1.00  0.00    -0.203 F 
ATOM     84  F   UNL A   1      42.251  28.098  25.255  1.00  0.00    -0.200 F 
ATOM     85  C   UNL A   1      40.911  26.416  26.229  1.00  0.00     0.200 A 
ATOM     86  F   UNL A   1      39.555  24.771  27.245  1.00  0.00    -0.200 F 
ATOM     87  F   UNL A   1      41.025  25.663  25.127  1.00  0.00    -0.200 F 
ENDBRANCH  53  77
BRANCH  65  88
ATOM     88  C   UNL A   1      43.928  28.235  34.674  1.00  0.00     0.064 A 
ATOM     89  C   UNL A   1      45.273  28.611  34.542  1.00  0.00     0.173 A 
ATOM     90  C   UNL A   1      43.645  27.053  35.376  1.00  0.00     0.173 A 
ATOM     91  F   UNL A   1      45.601  29.724  33.868  1.00  0.00    -0.203 F 
ATOM     92  C   UNL A   1      46.295  27.812  35.050  1.00  0.00     0.198 A 
ATOM     93  C   UNL A   1      44.667  26.277  35.918  1.00  0.00     0.198 A 
ATOM     94  F   UNL A   1      42.377  26.650  35.542  1.00  0.00    -0.203 F 
ATOM     95  F   UNL A   1      47.575  28.155  34.848  1.00  0.00    -0.200 F 
ATOM     96  C   UNL A   1      45.991  26.649  35.742  1.00  0.00     0.200 A 
ATOM     97  F   UNL A   1      44.370  25.164  36.602  1.00  0.00    -0.200 F 
ATOM     98  F   UNL A   1      46.975  25.882  36.231  1.00  0.00    -0.200 F 
ENDBRANCH  65  88
ENDBRANCH  39  40
ENDBRANCH  31  34
ENDBRANCH  29  30
ENDBRANCH  28  29
ENDBRANCH  27  28
ENDBRANCH   1  27
TORSDOF 17
ENDMDL
