MODEL 1
REMARK VINA RESULT:     -12.5      0.000      0.000
REMARK SMILES Cc1cccc(Nc2ccccc2C(=O)NCCCCCCNC(=O)c2ccc(-c3c4nc(c(-c5c(F)c(F)c(F)c(F)c5F)c5ccc([nH]5)c(-c5c(F)c(F)c(F)c(F)c5F)c5nc(c(-c6c(F)c(F)c(F)c(F)c6F)c6ccc3[nH]6)C=C5)C=C4)cc2)c1C
REMARK SMILES IDX 19 1 18 2 17 3 16 4 14 5 15 6 13 8 8 9 9 10 10 11 12 12
REMARK SMILES IDX 11 13 7 14 6 16 1 17 2 18 3 19 89 20 4 21 90 22 5 23 20 24
REMARK SMILES IDX 21 25 22 26 23 27 24 28 25 30 26 31 27 32 88 33 28 34 87 35
REMARK SMILES IDX 29 36 30 37 31 38 81 39 32 40 86 41 80 42 82 43 33 44 85 45
REMARK SMILES IDX 79 46 78 47 34 49 66 50 46 51 65 52 47 53 50 54 64 55 83 56
REMARK SMILES IDX 48 57 49 58 63 60 84 61 51 62 35 63 36 64 44 65 37 66 38 67
REMARK SMILES IDX 42 68 45 69 39 70 40 71 43 72 41 73 67 74 68 75 76 76 69 77
REMARK SMILES IDX 70 78 74 79 77 80 71 81 72 82 75 83 73 84 52 85 53 86 61 87
REMARK SMILES IDX 54 88 55 89 59 90 62 91 56 92 57 93 60 94 58 95
REMARK H PARENT 16 7 7 15 23 29 82 48 50 59
REMARK Flexibility Score: inf
ROOT
ATOM      1  C   UNL A   1      32.357  29.947  26.506  1.00  0.00     0.002 C 
ENDROOT
BRANCH   1   2
ATOM      2  C   UNL A   1      31.763  28.667  27.114  1.00  0.00     0.021 C 
BRANCH   2   3
ATOM      3  C   UNL A   1      32.370  27.345  26.649  1.00  0.00     0.116 C 
BRANCH   3   4
ATOM      4  N   UNL A   1      31.590  26.179  26.976  1.00  0.00    -0.352 N 
ATOM      5  C   UNL A   1      31.746  24.871  26.586  1.00  0.00     0.253 C 
ATOM      6  O   UNL A   1      30.994  24.042  27.106  1.00  0.00    -0.269 OA
ATOM      7  H   UNL A   1      30.826  26.345  27.573  1.00  0.00     0.163 HD
BRANCH   5   8
ATOM      8  C   UNL A   1      32.662  24.411  25.494  1.00  0.00     0.063 A 
ATOM      9  C   UNL A   1      32.491  24.512  24.097  1.00  0.00     0.051 A 
ATOM     10  C   UNL A   1      33.489  23.946  23.262  1.00  0.00     0.027 A 
ATOM     11  C   UNL A   1      34.651  23.368  23.770  1.00  0.00     0.002 A 
ATOM     12  C   UNL A   1      33.860  23.838  25.987  1.00  0.00     0.016 A 
ATOM     13  C   UNL A   1      34.848  23.333  25.140  1.00  0.00     0.001 A 
BRANCH   9  14
ATOM     14  N   UNL A   1      31.500  25.232  23.400  1.00  0.00    -0.355 N 
ATOM     15  H   UNL A   1      30.900  24.651  22.878  1.00  0.00     0.167 HD
BRANCH  14  16
ATOM     16  C   UNL A   1      31.176  26.600  23.281  1.00  0.00     0.042 A 
ATOM     17  C   UNL A   1      28.288  29.091  22.922  1.00  0.00     0.044 C 
ATOM     18  C   UNL A   1      29.669  28.491  22.960  1.00  0.00    -0.046 A 
ATOM     19  C   UNL A   1      30.757  29.297  22.596  1.00  0.00     0.004 A 
ATOM     20  C   UNL A   1      29.883  27.150  23.374  1.00  0.00    -0.025 A 
ATOM     21  C   UNL A   1      32.047  28.792  22.624  1.00  0.00     0.002 A 
ATOM     22  C   UNL A   1      28.725  26.381  23.961  1.00  0.00     0.047 C 
ATOM     23  C   UNL A   1      32.248  27.456  22.953  1.00  0.00     0.026 A 
ENDBRANCH  14  16
ENDBRANCH   9  14
ENDBRANCH   5   8
ENDBRANCH   3   4
ENDBRANCH   2   3
ENDBRANCH   1   2
BRANCH   1  24
ATOM     24  C   UNL A   1      31.389  30.936  25.842  1.00  0.00     0.002 C 
BRANCH  24  25
ATOM     25  C   UNL A   1      31.213  32.295  26.521  1.00  0.00     0.021 C 
BRANCH  25  26
ATOM     26  C   UNL A   1      32.431  32.852  27.245  1.00  0.00     0.116 C 
BRANCH  26  27
ATOM     27  N   UNL A   1      32.268  34.236  27.655  1.00  0.00    -0.352 N 
ATOM     28  C   UNL A   1      32.960  34.975  28.585  1.00  0.00     0.251 C 
ATOM     29  H   UNL A   1      31.548  34.723  27.192  1.00  0.00     0.163 HD
ATOM     30  O   UNL A   1      32.572  36.103  28.875  1.00  0.00    -0.269 OA
BRANCH  28  31
ATOM     31  C   UNL A   1      34.157  34.422  29.263  1.00  0.00     0.039 A 
ATOM     32  C   UNL A   1      33.985  33.726  30.465  1.00  0.00     0.014 A 
ATOM     33  C   UNL A   1      35.444  34.615  28.755  1.00  0.00     0.014 A 
ATOM     34  C   UNL A   1      35.090  33.174  31.122  1.00  0.00     0.010 A 
ATOM     35  C   UNL A   1      36.535  34.001  29.368  1.00  0.00     0.010 A 
ATOM     36  C   UNL A   1      36.372  33.281  30.563  1.00  0.00    -0.014 A 
BRANCH  36  37
ATOM     37  C   UNL A   1      37.562  32.676  31.215  1.00  0.00     0.031 A 
ATOM     38  C   UNL A   1      38.291  31.544  30.543  1.00  0.00     0.074 A 
ATOM     39  C   UNL A   1      37.936  33.078  32.446  1.00  0.00     0.049 A 
ATOM     40  N   UNL A   1      39.259  30.790  31.000  1.00  0.00    -0.248 NA
ATOM     41  C   UNL A   1      37.848  31.192  29.186  1.00  0.00     0.031 C 
ATOM     42  C   UNL A   1      37.289  34.136  33.221  1.00  0.00     0.029 A 
ATOM     43  N   UNL A   1      38.938  32.627  33.269  1.00  0.00    -0.354 N 
ATOM     44  C   UNL A   1      39.515  29.858  30.004  1.00  0.00     0.074 A 
ATOM     45  C   UNL A   1      38.573  30.113  28.934  1.00  0.00     0.031 C 
ATOM     46  C   UNL A   1      37.914  34.259  34.404  1.00  0.00     0.029 A 
ATOM     47  C   UNL A   1      38.978  33.261  34.486  1.00  0.00     0.049 A 
ATOM     48  H   UNL A   1      39.568  31.915  33.011  1.00  0.00     0.167 HD
ATOM     49  C   UNL A   1      40.460  28.888  29.975  1.00  0.00     0.037 A 
ATOM     50  C   UNL A   1      39.772  33.054  35.554  1.00  0.00     0.037 A 
ATOM     51  C   UNL A   1      41.425  28.668  31.019  1.00  0.00     0.049 A 
ATOM     52  C   UNL A   1      40.827  31.983  35.493  1.00  0.00     0.074 A 
ATOM     53  C   UNL A   1      42.475  27.767  31.049  1.00  0.00     0.029 A 
ATOM     54  N   UNL A   1      41.457  29.360  32.221  1.00  0.00    -0.354 N 
ATOM     55  N   UNL A   1      41.100  31.147  34.521  1.00  0.00    -0.248 NA
ATOM     56  C   UNL A   1      41.687  31.828  36.676  1.00  0.00     0.031 C 
ATOM     57  C   UNL A   1      43.116  27.883  32.285  1.00  0.00     0.029 A 
ATOM     58  C   UNL A   1      42.497  28.890  33.008  1.00  0.00     0.049 A 
ATOM     59  H   UNL A   1      40.835  30.079  32.477  1.00  0.00     0.167 HD
ATOM     60  C   UNL A   1      42.175  30.387  34.960  1.00  0.00     0.074 A 
ATOM     61  C   UNL A   1      42.512  30.866  36.284  1.00  0.00     0.031 C 
ATOM     62  C   UNL A   1      42.825  29.384  34.321  1.00  0.00     0.037 A 
BRANCH  49  63
ATOM     63  C   UNL A   1      40.495  27.986  28.774  1.00  0.00     0.064 A 
ATOM     64  C   UNL A   1      41.246  28.304  27.633  1.00  0.00     0.173 A 
ATOM     65  C   UNL A   1      39.787  26.774  28.777  1.00  0.00     0.173 A 
ATOM     66  F   UNL A   1      41.932  29.455  27.576  1.00  0.00    -0.203 F 
ATOM     67  C   UNL A   1      41.259  27.460  26.525  1.00  0.00     0.198 A 
ATOM     68  C   UNL A   1      39.828  25.917  27.680  1.00  0.00     0.198 A 
ATOM     69  F   UNL A   1      39.059  26.418  29.846  1.00  0.00    -0.203 F 
ATOM     70  F   UNL A   1      41.939  27.811  25.426  1.00  0.00    -0.200 F 
ATOM     71  C   UNL A   1      40.556  26.265  26.552  1.00  0.00     0.200 A 
ATOM     72  F   UNL A   1      39.158  24.757  27.712  1.00  0.00    -0.200 F 
ATOM     73  F   UNL A   1      40.572  25.452  25.486  1.00  0.00    -0.200 F 
ENDBRANCH  49  63
BRANCH  50  74
ATOM     74  C   UNL A   1      39.607  33.895  36.768  1.00  0.00     0.064 A 
ATOM     75  C   UNL A   1      40.227  35.148  36.863  1.00  0.00     0.173 A 
ATOM     76  C   UNL A   1      38.815  33.474  37.846  1.00  0.00     0.173 A 
ATOM     77  F   UNL A   1      41.010  35.585  35.866  1.00  0.00    -0.203 F 
ATOM     78  C   UNL A   1      40.070  35.945  37.996  1.00  0.00     0.198 A 
ATOM     79  C   UNL A   1      38.639  34.282  38.967  1.00  0.00     0.198 A 
ATOM     80  F   UNL A   1      38.198  32.284  37.802  1.00  0.00    -0.203 F 
ATOM     81  F   UNL A   1      40.701  37.124  38.076  1.00  0.00    -0.200 F 
ATOM     82  C   UNL A   1      39.270  35.514  39.044  1.00  0.00     0.200 A 
ATOM     83  F   UNL A   1      37.854  33.868  39.972  1.00  0.00    -0.200 F 
ATOM     84  F   UNL A   1      39.112  36.284  40.130  1.00  0.00    -0.200 F 
ENDBRANCH  50  74
BRANCH  62  85
ATOM     85  C   UNL A   1      43.991  28.755  35.025  1.00  0.00     0.064 A 
ATOM     86  C   UNL A   1      43.832  27.635  35.852  1.00  0.00     0.173 A 
ATOM     87  C   UNL A   1      45.291  29.239  34.813  1.00  0.00     0.173 A 
ATOM     88  F   UNL A   1      42.607  27.144  36.097  1.00  0.00    -0.203 F 
ATOM     89  C   UNL A   1      44.932  27.029  36.453  1.00  0.00     0.198 A 
ATOM     90  C   UNL A   1      46.392  28.616  35.394  1.00  0.00     0.198 A 
ATOM     91  F   UNL A   1      45.495  30.306  34.026  1.00  0.00    -0.203 F 
ATOM     92  F   UNL A   1      44.755  25.978  37.266  1.00  0.00    -0.200 F 
ATOM     93  C   UNL A   1      46.211  27.514  36.216  1.00  0.00     0.200 A 
ATOM     94  F   UNL A   1      47.626  29.077  35.155  1.00  0.00    -0.200 F 
ATOM     95  F   UNL A   1      47.270  26.920  36.784  1.00  0.00    -0.200 F 
ENDBRANCH  62  85
ENDBRANCH  36  37
ENDBRANCH  28  31
ENDBRANCH  26  27
ENDBRANCH  25  26
ENDBRANCH  24  25
ENDBRANCH   1  24
TORSDOF 15
ENDMDL
MODEL 2
REMARK VINA RESULT:     -12.5      0.472      2.000
REMARK SMILES Cc1cccc(Nc2ccccc2C(=O)NCCCCCCNC(=O)c2ccc(-c3c4nc(c(-c5c(F)c(F)c(F)c(F)c5F)c5ccc([nH]5)c(-c5c(F)c(F)c(F)c(F)c5F)c5nc(c(-c6c(F)c(F)c(F)c(F)c6F)c6ccc3[nH]6)C=C5)C=C4)cc2)c1C
REMARK SMILES IDX 19 1 18 2 17 3 16 4 14 5 15 6 13 8 8 9 9 10 10 11 12 12
REMARK SMILES IDX 11 13 7 14 6 16 1 17 2 18 3 19 89 20 4 21 90 22 5 23 20 24
REMARK SMILES IDX 21 25 22 26 23 27 24 28 25 30 26 31 27 32 88 33 28 34 87 35
REMARK SMILES IDX 29 36 30 37 31 38 81 39 32 40 86 41 80 42 82 43 33 44 85 45
REMARK SMILES IDX 79 46 78 47 34 49 66 50 46 51 65 52 47 53 50 54 64 55 83 56
REMARK SMILES IDX 48 57 49 58 63 60 84 61 51 62 35 63 36 64 44 65 37 66 38 67
REMARK SMILES IDX 42 68 45 69 39 70 40 71 43 72 41 73 67 74 68 75 76 76 69 77
REMARK SMILES IDX 70 78 74 79 77 80 71 81 72 82 75 83 73 84 52 85 53 86 61 87
REMARK SMILES IDX 54 88 55 89 59 90 62 91 56 92 57 93 60 94 58 95
REMARK H PARENT 16 7 7 15 23 29 82 48 50 59
REMARK Flexibility Score: inf
ROOT
ATOM      1  C   UNL A   1      32.540  29.954  27.230  1.00  0.00     0.002 C 
ENDROOT
BRANCH   1   2
ATOM      2  C   UNL A   1      32.399  28.432  27.389  1.00  0.00     0.021 C 
BRANCH   2   3
ATOM      3  C   UNL A   1      31.432  27.734  26.437  1.00  0.00     0.116 C 
BRANCH   3   4
ATOM      4  N   UNL A   1      31.020  26.418  26.858  1.00  0.00    -0.352 N 
ATOM      5  C   UNL A   1      31.504  25.183  26.502  1.00  0.00     0.253 C 
ATOM      6  O   UNL A   1      31.039  24.209  27.103  1.00  0.00    -0.269 OA
ATOM      7  H   UNL A   1      30.277  26.403  27.503  1.00  0.00     0.163 HD
BRANCH   5   8
ATOM      8  C   UNL A   1      32.443  24.932  25.363  1.00  0.00     0.063 A 
ATOM      9  C   UNL A   1      32.201  25.040  23.977  1.00  0.00     0.051 A 
ATOM     10  C   UNL A   1      33.250  24.692  23.089  1.00  0.00     0.027 A 
ATOM     11  C   UNL A   1      34.518  24.323  23.535  1.00  0.00     0.002 A 
ATOM     12  C   UNL A   1      33.745  24.573  25.793  1.00  0.00     0.016 A 
ATOM     13  C   UNL A   1      34.774  24.284  24.894  1.00  0.00     0.001 A 
BRANCH   9  14
ATOM     14  N   UNL A   1      31.067  25.587  23.342  1.00  0.00    -0.355 N 
ATOM     15  H   UNL A   1      30.529  24.910  22.870  1.00  0.00     0.167 HD
BRANCH  14  16
ATOM     16  C   UNL A   1      30.531  26.887  23.229  1.00  0.00     0.042 A 
ATOM     17  C   UNL A   1      27.283  28.915  23.152  1.00  0.00     0.044 C 
ATOM     18  C   UNL A   1      28.733  28.524  23.042  1.00  0.00    -0.046 A 
ATOM     19  C   UNL A   1      29.641  29.464  22.533  1.00  0.00     0.004 A 
ATOM     20  C   UNL A   1      29.190  27.247  23.460  1.00  0.00    -0.025 A 
ATOM     21  C   UNL A   1      30.987  29.154  22.421  1.00  0.00     0.002 A 
ATOM     22  C   UNL A   1      28.233  26.342  24.198  1.00  0.00     0.047 C 
ATOM     23  C   UNL A   1      31.421  27.875  22.756  1.00  0.00     0.026 A 
ENDBRANCH  14  16
ENDBRANCH   9  14
ENDBRANCH   5   8
ENDBRANCH   3   4
ENDBRANCH   2   3
ENDBRANCH   1   2
BRANCH   1  24
ATOM     24  C   UNL A   1      31.467  30.689  26.416  1.00  0.00     0.002 C 
BRANCH  24  25
ATOM     25  C   UNL A   1      31.404  32.209  26.564  1.00  0.00     0.021 C 
BRANCH  25  26
ATOM     26  C   UNL A   1      32.650  32.888  27.118  1.00  0.00     0.116 C 
BRANCH  26  27
ATOM     27  N   UNL A   1      32.394  34.224  27.626  1.00  0.00    -0.352 N 
ATOM     28  C   UNL A   1      32.990  34.912  28.656  1.00  0.00     0.251 C 
ATOM     29  H   UNL A   1      31.680  34.715  27.159  1.00  0.00     0.163 HD
ATOM     30  O   UNL A   1      32.530  35.993  29.011  1.00  0.00    -0.269 OA
BRANCH  28  31
ATOM     31  C   UNL A   1      34.169  34.357  29.364  1.00  0.00     0.039 A 
ATOM     32  C   UNL A   1      33.964  33.633  30.544  1.00  0.00     0.014 A 
ATOM     33  C   UNL A   1      35.471  34.575  28.905  1.00  0.00     0.014 A 
ATOM     34  C   UNL A   1      35.052  33.080  31.227  1.00  0.00     0.010 A 
ATOM     35  C   UNL A   1      36.547  33.960  29.543  1.00  0.00     0.010 A 
ATOM     36  C   UNL A   1      36.351  33.213  30.715  1.00  0.00    -0.014 A 
BRANCH  36  37
ATOM     37  C   UNL A   1      37.525  32.606  31.395  1.00  0.00     0.031 A 
ATOM     38  C   UNL A   1      38.254  31.459  30.751  1.00  0.00     0.074 A 
ATOM     39  C   UNL A   1      37.883  33.024  32.626  1.00  0.00     0.049 A 
ATOM     40  N   UNL A   1      39.208  30.703  31.236  1.00  0.00    -0.248 NA
ATOM     41  C   UNL A   1      37.829  31.090  29.393  1.00  0.00     0.031 C 
ATOM     42  C   UNL A   1      37.234  34.099  33.375  1.00  0.00     0.029 A 
ATOM     43  N   UNL A   1      38.868  32.576  33.471  1.00  0.00    -0.354 N 
ATOM     44  C   UNL A   1      39.471  29.753  30.257  1.00  0.00     0.074 A 
ATOM     45  C   UNL A   1      38.549  30.000  29.169  1.00  0.00     0.031 C 
ATOM     46  C   UNL A   1      37.841  34.234  34.565  1.00  0.00     0.029 A 
ATOM     47  C   UNL A   1      38.895  33.228  34.680  1.00  0.00     0.049 A 
ATOM     48  H   UNL A   1      39.495  31.854  33.235  1.00  0.00     0.167 HD
ATOM     49  C   UNL A   1      40.407  28.774  30.258  1.00  0.00     0.037 A 
ATOM     50  C   UNL A   1      39.669  33.029  35.764  1.00  0.00     0.037 A 
ATOM     51  C   UNL A   1      41.353  28.561  31.321  1.00  0.00     0.049 A 
ATOM     52  C   UNL A   1      40.715  31.948  35.735  1.00  0.00     0.074 A 
ATOM     53  C   UNL A   1      42.394  27.651  31.381  1.00  0.00     0.029 A 
ATOM     54  N   UNL A   1      41.373  29.270  32.513  1.00  0.00    -0.354 N 
ATOM     55  N   UNL A   1      40.996  31.095  34.780  1.00  0.00    -0.248 NA
ATOM     56  C   UNL A   1      41.554  31.803  36.933  1.00  0.00     0.031 C 
ATOM     57  C   UNL A   1      43.017  27.780  32.625  1.00  0.00     0.029 A 
ATOM     58  C   UNL A   1      42.396  28.803  33.323  1.00  0.00     0.049 A 
ATOM     59  H   UNL A   1      40.753  29.999  32.748  1.00  0.00     0.167 HD
ATOM     60  C   UNL A   1      42.057  30.332  35.247  1.00  0.00     0.074 A 
ATOM     61  C   UNL A   1      42.376  30.827  36.569  1.00  0.00     0.031 C 
ATOM     62  C   UNL A   1      42.707  29.314  34.633  1.00  0.00     0.037 A 
BRANCH  49  63
ATOM     63  C   UNL A   1      40.452  27.855  29.071  1.00  0.00     0.064 A 
ATOM     64  C   UNL A   1      39.685  26.682  29.016  1.00  0.00     0.173 A 
ATOM     65  C   UNL A   1      41.254  28.167  27.962  1.00  0.00     0.173 A 
ATOM     66  F   UNL A   1      38.910  26.333  30.053  1.00  0.00    -0.203 F 
ATOM     67  C   UNL A   1      39.747  25.836  27.910  1.00  0.00     0.198 A 
ATOM     68  C   UNL A   1      41.289  27.336  26.846  1.00  0.00     0.198 A 
ATOM     69  F   UNL A   1      42.002  29.281  27.960  1.00  0.00    -0.203 F 
ATOM     70  F   UNL A   1      39.048  24.693  27.904  1.00  0.00    -0.200 F 
ATOM     71  C   UNL A   1      40.543  26.167  26.825  1.00  0.00     0.200 A 
ATOM     72  F   UNL A   1      42.050  27.663  25.792  1.00  0.00    -0.200 F 
ATOM     73  F   UNL A   1      40.600  25.354  25.761  1.00  0.00    -0.200 F 
ENDBRANCH  49  63
BRANCH  50  74
ATOM     74  C   UNL A   1      39.492  33.890  36.961  1.00  0.00     0.064 A 
ATOM     75  C   UNL A   1      38.721  33.458  38.049  1.00  0.00     0.173 A 
ATOM     76  C   UNL A   1      40.101  35.150  37.052  1.00  0.00     0.173 A 
ATOM     77  F   UNL A   1      38.103  32.269  38.001  1.00  0.00    -0.203 F 
ATOM     78  C   UNL A   1      38.556  34.259  39.178  1.00  0.00     0.198 A 
ATOM     79  C   UNL A   1      39.956  35.939  38.190  1.00  0.00     0.198 A 
ATOM     80  F   UNL A   1      40.852  35.608  36.039  1.00  0.00    -0.203 F 
ATOM     81  F   UNL A   1      37.786  33.837  40.190  1.00  0.00    -0.200 F 
ATOM     82  C   UNL A   1      39.180  35.496  39.251  1.00  0.00     0.200 A 
ATOM     83  F   UNL A   1      40.572  37.127  38.262  1.00  0.00    -0.200 F 
ATOM     84  F   UNL A   1      39.030  36.262  40.340  1.00  0.00    -0.200 F 
ENDBRANCH  50  74
BRANCH  62  85
ATOM     85  C   UNL A   1      43.855  28.685  35.365  1.00  0.00     0.064 A 
ATOM     86  C   UNL A   1      45.171  29.137  35.198  1.00  0.00     0.173 A 
ATOM     87  C   UNL A   1      43.625  27.659  36.296  1.00  0.00     0.173 A 
ATOM     88  F   UNL A   1      45.444  30.105  34.309  1.00  0.00    -0.203 F 
ATOM     89  C   UNL A   1      46.217  28.579  35.928  1.00  0.00     0.198 A 
ATOM     90  C   UNL A   1      44.669  27.121  37.043  1.00  0.00     0.198 A 
ATOM     91  F   UNL A   1      42.382  27.195  36.495  1.00  0.00    -0.203 F 
ATOM     92  F   UNL A   1      47.473  29.006  35.730  1.00  0.00    -0.200 F 
ATOM     93  C   UNL A   1      45.964  27.579  36.856  1.00  0.00     0.200 A 
ATOM     94  F   UNL A   1      44.421  26.165  37.947  1.00  0.00    -0.200 F 
ATOM     95  F   UNL A   1      46.971  27.053  37.567  1.00  0.00    -0.200 F 
ENDBRANCH  62  85
ENDBRANCH  36  37
ENDBRANCH  28  31
ENDBRANCH  26  27
ENDBRANCH  25  26
ENDBRANCH  24  25
ENDBRANCH   1  24
TORSDOF 15
ENDMDL
MODEL 3
REMARK VINA RESULT:     -12.1      5.650     11.160
REMARK SMILES Cc1cccc(Nc2ccccc2C(=O)NCCCCCCNC(=O)c2ccc(-c3c4nc(c(-c5c(F)c(F)c(F)c(F)c5F)c5ccc([nH]5)c(-c5c(F)c(F)c(F)c(F)c5F)c5nc(c(-c6c(F)c(F)c(F)c(F)c6F)c6ccc3[nH]6)C=C5)C=C4)cc2)c1C
REMARK SMILES IDX 19 1 18 2 17 3 16 4 14 5 15 6 13 8 8 9 9 10 10 11 12 12
REMARK SMILES IDX 11 13 7 14 6 16 1 17 2 18 3 19 89 20 4 21 90 22 5 23 20 24
REMARK SMILES IDX 21 25 22 26 23 27 24 28 25 30 26 31 27 32 88 33 28 34 87 35
REMARK SMILES IDX 29 36 30 37 31 38 81 39 32 40 86 41 80 42 82 43 33 44 85 45
REMARK SMILES IDX 79 46 78 47 34 49 66 50 46 51 65 52 47 53 50 54 64 55 83 56
REMARK SMILES IDX 48 57 49 58 63 60 84 61 51 62 35 63 36 64 44 65 37 66 38 67
REMARK SMILES IDX 42 68 45 69 39 70 40 71 43 72 41 73 67 74 68 75 76 76 69 77
REMARK SMILES IDX 70 78 74 79 77 80 71 81 72 82 75 83 73 84 52 85 53 86 61 87
REMARK SMILES IDX 54 88 55 89 59 90 62 91 56 92 57 93 60 94 58 95
REMARK H PARENT 16 7 7 15 23 29 82 48 50 59
REMARK Flexibility Score: inf
ROOT
ATOM      1  C   UNL A   1      37.342  21.841  24.719  1.00  0.00     0.002 C 
ENDROOT
BRANCH   1   2
ATOM      2  C   UNL A   1      36.653  22.642  23.604  1.00  0.00     0.021 C 
BRANCH   2   3
ATOM      3  C   UNL A   1      35.581  23.638  24.041  1.00  0.00     0.116 C 
BRANCH   3   4
ATOM      4  N   UNL A   1      34.766  24.150  22.969  1.00  0.00    -0.352 N 
ATOM      5  C   UNL A   1      33.823  25.149  22.973  1.00  0.00     0.253 C 
ATOM      6  O   UNL A   1      33.345  25.467  21.880  1.00  0.00    -0.269 OA
ATOM      7  H   UNL A   1      34.908  23.717  22.097  1.00  0.00     0.163 HD
BRANCH   5   8
ATOM      8  C   UNL A   1      33.250  25.775  24.208  1.00  0.00     0.063 A 
ATOM      9  C   UNL A   1      32.310  25.241  25.114  1.00  0.00     0.051 A 
ATOM     10  C   UNL A   1      31.882  26.062  26.189  1.00  0.00     0.027 A 
ATOM     11  C   UNL A   1      32.409  27.332  26.417  1.00  0.00     0.002 A 
ATOM     12  C   UNL A   1      33.786  27.060  24.471  1.00  0.00     0.016 A 
ATOM     13  C   UNL A   1      33.382  27.826  25.566  1.00  0.00     0.001 A 
BRANCH   9  14
ATOM     14  N   UNL A   1      31.822  23.920  25.170  1.00  0.00    -0.355 N 
ATOM     15  H   UNL A   1      30.838  23.874  25.167  1.00  0.00     0.167 HD
BRANCH  14  16
ATOM     16  C   UNL A   1      32.428  22.647  25.232  1.00  0.00     0.042 A 
ATOM     17  C   UNL A   1      32.602  19.203  23.565  1.00  0.00     0.044 C 
ATOM     18  C   UNL A   1      32.771  20.331  24.548  1.00  0.00    -0.046 A 
ATOM     19  C   UNL A   1      33.376  20.055  25.783  1.00  0.00     0.004 A 
ATOM     20  C   UNL A   1      32.355  21.653  24.238  1.00  0.00    -0.025 A 
ATOM     21  C   UNL A   1      33.562  21.063  26.716  1.00  0.00     0.002 A 
ATOM     22  C   UNL A   1      31.908  21.958  22.829  1.00  0.00     0.047 C 
ATOM     23  C   UNL A   1      33.082  22.340  26.444  1.00  0.00     0.026 A 
ENDBRANCH  14  16
ENDBRANCH   9  14
ENDBRANCH   5   8
ENDBRANCH   3   4
ENDBRANCH   2   3
ENDBRANCH   1   2
BRANCH   1  24
ATOM     24  C   UNL A   1      36.997  20.351  24.845  1.00  0.00     0.002 C 
BRANCH  24  25
ATOM     25  C   UNL A   1      38.168  19.377  24.982  1.00  0.00     0.021 C 
BRANCH  25  26
ATOM     26  C   UNL A   1      39.327  19.831  25.860  1.00  0.00     0.116 C 
BRANCH  26  27
ATOM     27  N   UNL A   1      40.434  18.891  25.875  1.00  0.00    -0.352 N 
ATOM     28  C   UNL A   1      41.780  19.107  26.047  1.00  0.00     0.251 C 
ATOM     29  H   UNL A   1      40.179  17.949  25.742  1.00  0.00     0.163 HD
ATOM     30  O   UNL A   1      42.569  18.179  25.892  1.00  0.00    -0.269 OA
BRANCH  28  31
ATOM     31  C   UNL A   1      42.301  20.452  26.393  1.00  0.00     0.039 A 
ATOM     32  C   UNL A   1      42.828  21.250  25.371  1.00  0.00     0.014 A 
ATOM     33  C   UNL A   1      42.314  20.918  27.710  1.00  0.00     0.014 A 
ATOM     34  C   UNL A   1      43.310  22.531  25.658  1.00  0.00     0.010 A 
ATOM     35  C   UNL A   1      42.723  22.222  27.983  1.00  0.00     0.010 A 
ATOM     36  C   UNL A   1      43.234  23.040  26.963  1.00  0.00    -0.014 A 
BRANCH  36  37
ATOM     37  C   UNL A   1      43.702  24.411  27.297  1.00  0.00     0.031 A 
ATOM     38  C   UNL A   1      42.724  25.436  27.802  1.00  0.00     0.074 A 
ATOM     39  C   UNL A   1      44.982  24.762  27.063  1.00  0.00     0.049 A 
ATOM     40  N   UNL A   1      42.897  26.716  28.017  1.00  0.00    -0.248 NA
ATOM     41  C   UNL A   1      41.357  24.963  28.069  1.00  0.00     0.031 C 
ATOM     42  C   UNL A   1      46.019  23.875  26.538  1.00  0.00     0.029 A 
ATOM     43  N   UNL A   1      45.622  25.967  27.217  1.00  0.00    -0.354 N 
ATOM     44  C   UNL A   1      41.658  27.204  28.410  1.00  0.00     0.074 A 
ATOM     45  C   UNL A   1      40.731  26.093  28.363  1.00  0.00     0.031 C 
ATOM     46  C   UNL A   1      47.167  24.562  26.420  1.00  0.00     0.029 A 
ATOM     47  C   UNL A   1      46.937  25.948  26.822  1.00  0.00     0.049 A 
ATOM     48  H   UNL A   1      45.179  26.771  27.576  1.00  0.00     0.167 HD
ATOM     49  C   UNL A   1      41.326  28.460  28.791  1.00  0.00     0.037 A 
ATOM     50  C   UNL A   1      47.850  26.937  26.774  1.00  0.00     0.037 A 
ATOM     51  C   UNL A   1      42.259  29.551  28.882  1.00  0.00     0.049 A 
ATOM     52  C   UNL A   1      47.464  28.320  27.220  1.00  0.00     0.074 A 
ATOM     53  C   UNL A   1      42.040  30.840  29.337  1.00  0.00     0.029 A 
ATOM     54  N   UNL A   1      43.594  29.480  28.510  1.00  0.00    -0.354 N 
ATOM     55  N   UNL A   1      46.305  28.757  27.648  1.00  0.00    -0.248 NA
ATOM     56  C   UNL A   1      48.513  29.349  27.180  1.00  0.00     0.031 C 
ATOM     57  C   UNL A   1      43.231  31.560  29.200  1.00  0.00     0.029 A 
ATOM     58  C   UNL A   1      44.205  30.709  28.706  1.00  0.00     0.049 A 
ATOM     59  H   UNL A   1      44.042  28.675  28.161  1.00  0.00     0.167 HD
ATOM     60  C   UNL A   1      46.489  30.098  27.953  1.00  0.00     0.074 A 
ATOM     61  C   UNL A   1      47.875  30.404  27.668  1.00  0.00     0.031 C 
ATOM     62  C   UNL A   1      45.589  30.994  28.427  1.00  0.00     0.037 A 
BRANCH  49  63
ATOM     63  C   UNL A   1      39.888  28.725  29.138  1.00  0.00     0.064 A 
ATOM     64  C   UNL A   1      39.398  28.551  30.440  1.00  0.00     0.173 A 
ATOM     65  C   UNL A   1      38.996  29.186  28.157  1.00  0.00     0.173 A 
ATOM     66  F   UNL A   1      40.206  28.103  31.411  1.00  0.00    -0.203 F 
ATOM     67  C   UNL A   1      38.059  28.792  30.740  1.00  0.00     0.198 A 
ATOM     68  C   UNL A   1      37.666  29.458  28.468  1.00  0.00     0.198 A 
ATOM     69  F   UNL A   1      39.416  29.377  26.897  1.00  0.00    -0.203 F 
ATOM     70  F   UNL A   1      37.601  28.565  31.979  1.00  0.00    -0.200 F 
ATOM     71  C   UNL A   1      37.197  29.251  29.757  1.00  0.00     0.200 A 
ATOM     72  F   UNL A   1      36.837  29.912  27.519  1.00  0.00    -0.200 F 
ATOM     73  F   UNL A   1      35.910  29.486  30.048  1.00  0.00    -0.200 F 
ENDBRANCH  49  63
BRANCH  50  74
ATOM     74  C   UNL A   1      49.227  26.643  26.300  1.00  0.00     0.064 A 
ATOM     75  C   UNL A   1      49.593  26.874  24.967  1.00  0.00     0.173 A 
ATOM     76  C   UNL A   1      50.208  26.142  27.169  1.00  0.00     0.173 A 
ATOM     77  F   UNL A   1      48.685  27.333  24.094  1.00  0.00    -0.203 F 
ATOM     78  C   UNL A   1      50.885  26.606  24.518  1.00  0.00     0.198 A 
ATOM     79  C   UNL A   1      51.505  25.898  26.725  1.00  0.00     0.198 A 
ATOM     80  F   UNL A   1      49.909  25.907  28.455  1.00  0.00    -0.203 F 
ATOM     81  F   UNL A   1      51.199  26.804  23.231  1.00  0.00    -0.200 F 
ATOM     82  C   UNL A   1      51.842  26.125  25.399  1.00  0.00     0.200 A 
ATOM     83  F   UNL A   1      52.431  25.447  27.583  1.00  0.00    -0.200 F 
ATOM     84  F   UNL A   1      53.087  25.876  24.970  1.00  0.00    -0.200 F 
ENDBRANCH  50  74
BRANCH  62  85
ATOM     85  C   UNL A   1      46.077  32.385  28.705  1.00  0.00     0.064 A 
ATOM     86  C   UNL A   1      46.005  33.396  27.737  1.00  0.00     0.173 A 
ATOM     87  C   UNL A   1      46.560  32.725  29.978  1.00  0.00     0.173 A 
ATOM     88  F   UNL A   1      45.564  33.117  26.501  1.00  0.00    -0.203 F 
ATOM     89  C   UNL A   1      46.410  34.696  28.030  1.00  0.00     0.198 A 
ATOM     90  C   UNL A   1      46.940  34.030  30.276  1.00  0.00     0.198 A 
ATOM     91  F   UNL A   1      46.644  31.793  30.940  1.00  0.00    -0.203 F 
ATOM     92  F   UNL A   1      46.363  35.641  27.080  1.00  0.00    -0.200 F 
ATOM     93  C   UNL A   1      46.868  35.013  29.301  1.00  0.00     0.200 A 
ATOM     94  F   UNL A   1      47.370  34.338  31.507  1.00  0.00    -0.200 F 
ATOM     95  F   UNL A   1      47.244  36.268  29.585  1.00  0.00    -0.200 F 
ENDBRANCH  62  85
ENDBRANCH  36  37
ENDBRANCH  28  31
ENDBRANCH  26  27
ENDBRANCH  25  26
ENDBRANCH  24  25
ENDBRANCH   1  24
TORSDOF 15
ENDMDL
