MODEL 1
REMARK VINA RESULT:     -12.3      0.000      0.000
REMARK SMILES CCC[N@@H+]1CC2(CCN(c3nccnc3C)CC2)C[C@H]1C(=O)NCCCCCCNC(=O)c1ccc(-c2c3nc(c(-c4c(F)c(F)c(F)c(F)c4F)c4ccc([nH]4)c(-c4c(F)c(F)c(F)c(F)c4F)c4nc(c(-c5c(F)c(F)c(F)c(F)c5F)c5ccc2[nH]5)C=C4)C=C3)cc1
REMARK SMILES IDX 26 1 25 2 24 3 23 4 21 5 22 6 20 8 4 9 5 10 6 12 19 13 7 14
REMARK SMILES IDX 18 15 8 16 17 17 9 18 3 19 2 20 1 21 10 22 11 23 15 24 12 25
REMARK SMILES IDX 14 26 16 27 13 28 27 29 28 30 29 31 30 32 31 33 32 35 33 36
REMARK SMILES IDX 34 37 95 38 35 39 94 40 36 41 37 42 38 43 88 44 39 45 93 46
REMARK SMILES IDX 87 47 89 48 40 49 92 50 86 51 85 52 41 54 73 55 53 56 72 57
REMARK SMILES IDX 54 58 57 59 71 60 90 61 55 62 56 63 70 65 91 66 58 67 42 68
REMARK SMILES IDX 43 69 51 70 44 71 45 72 49 73 52 74 46 75 47 76 50 77 48 78
REMARK SMILES IDX 74 79 75 80 83 81 76 82 77 83 81 84 84 85 78 86 79 87 82 88
REMARK SMILES IDX 80 89 59 90 60 91 68 92 61 93 62 94 66 95 69 96 63 97 64 98
REMARK SMILES IDX 67 99 65 100
REMARK H PARENT 23 7 4 11 30 34 89 53 57 64
REMARK Flexibility Score: inf
ROOT
ATOM      1  C   UNL A   1      36.195  21.574  25.820  1.00  0.00     0.002 C 
ENDROOT
BRANCH   1   2
ATOM      2  C   UNL A   1      34.860  21.749  26.552  1.00  0.00     0.021 C 
BRANCH   2   3
ATOM      3  C   UNL A   1      33.710  20.944  25.949  1.00  0.00     0.116 C 
BRANCH   3   4
ATOM      4  N   UNL A   1      32.389  21.343  26.355  1.00  0.00    -0.351 N 
ATOM      5  C   UNL A   1      31.598  22.355  25.883  1.00  0.00     0.278 C 
ATOM      6  O   UNL A   1      30.415  22.333  26.250  1.00  0.00    -0.268 OA
ATOM      7  H   UNL A   1      31.994  20.808  27.080  1.00  0.00     0.163 HD
BRANCH   5   8
ATOM      8  C   UNL A   1      32.095  23.508  24.954  1.00  0.00     0.274 C 
ATOM      9  N   UNL A   1      31.619  23.309  23.582  1.00  0.00    -0.324 N 
ATOM     10  C   UNL A   1      30.722  24.392  23.188  1.00  0.00     0.270 C 
ATOM     11  H   UNL A   1      31.030  22.478  23.554  1.00  0.00     0.348 HD
ATOM     12  C   UNL A   1      30.943  25.567  24.167  1.00  0.00     0.029 C 
ATOM     13  C   UNL A   1      31.746  24.942  25.339  1.00  0.00     0.088 C 
ATOM     14  C   UNL A   1      29.652  26.211  24.760  1.00  0.00     0.034 C 
ATOM     15  C   UNL A   1      31.722  26.702  23.438  1.00  0.00     0.034 C 
ATOM     16  C   UNL A   1      28.826  27.004  23.756  1.00  0.00     0.119 C 
ATOM     17  C   UNL A   1      30.843  27.448  22.418  1.00  0.00     0.119 C 
ATOM     18  N   UNL A   1      29.711  27.975  23.154  1.00  0.00    -0.355 N 
BRANCH   9  19
ATOM     19  C   UNL A   1      32.650  22.876  22.634  1.00  0.00     0.262 C 
BRANCH  19  20
ATOM     20  C   UNL A   1      34.137  22.916  23.034  1.00  0.00     0.058 C 
ATOM     21  C   UNL A   1      34.726  24.294  23.297  1.00  0.00     0.010 C 
ENDBRANCH  19  20
ENDBRANCH   9  19
BRANCH  18  22
ATOM     22  C   UNL A   1      29.223  29.216  22.816  1.00  0.00     0.150 A 
ATOM     23  N   UNL A   1      28.430  29.303  21.722  1.00  0.00    -0.236 NA
ATOM     24  C   UNL A   1      29.584  30.378  23.531  1.00  0.00     0.080 A 
ATOM     25  C   UNL A   1      28.017  30.542  21.372  1.00  0.00     0.133 A 
ATOM     26  N   UNL A   1      29.158  31.621  23.168  1.00  0.00    -0.256 NA
ATOM     27  C   UNL A   1      30.563  30.363  24.668  1.00  0.00     0.071 C 
ATOM     28  C   UNL A   1      28.375  31.674  22.074  1.00  0.00     0.131 A 
ENDBRANCH  18  22
ENDBRANCH   5   8
ENDBRANCH   3   4
ENDBRANCH   2   3
ENDBRANCH   1   2
BRANCH   1  29
ATOM     29  C   UNL A   1      36.328  20.329  24.930  1.00  0.00     0.002 C 
BRANCH  29  30
ATOM     30  C   UNL A   1      37.741  19.772  24.731  1.00  0.00     0.021 C 
BRANCH  30  31
ATOM     31  C   UNL A   1      38.791  20.234  25.741  1.00  0.00     0.116 C 
BRANCH  31  32
ATOM     32  N   UNL A   1      39.888  19.289  25.884  1.00  0.00    -0.352 N 
ATOM     33  C   UNL A   1      41.221  19.488  26.117  1.00  0.00     0.251 C 
ATOM     34  H   UNL A   1      39.626  18.344  25.800  1.00  0.00     0.163 HD
ATOM     35  O   UNL A   1      41.996  18.530  26.032  1.00  0.00    -0.269 OA
BRANCH  33  36
ATOM     36  C   UNL A   1      41.762  20.823  26.454  1.00  0.00     0.039 A 
ATOM     37  C   UNL A   1      42.003  21.726  25.411  1.00  0.00     0.014 A 
ATOM     38  C   UNL A   1      42.097  21.174  27.764  1.00  0.00     0.014 A 
ATOM     39  C   UNL A   1      42.527  22.990  25.687  1.00  0.00     0.010 A 
ATOM     40  C   UNL A   1      42.564  22.460  28.046  1.00  0.00     0.010 A 
ATOM     41  C   UNL A   1      42.785  23.380  27.010  1.00  0.00    -0.014 A 
BRANCH  41  42
ATOM     42  C   UNL A   1      43.271  24.751  27.315  1.00  0.00     0.031 A 
ATOM     43  C   UNL A   1      42.348  25.781  27.903  1.00  0.00     0.074 A 
ATOM     44  C   UNL A   1      44.549  25.075  27.031  1.00  0.00     0.049 A 
ATOM     45  N   UNL A   1      42.594  27.029  28.220  1.00  0.00    -0.248 NA
ATOM     46  C   UNL A   1      40.959  25.365  28.149  1.00  0.00     0.031 C 
ATOM     47  C   UNL A   1      45.528  24.178  26.414  1.00  0.00     0.029 A 
ATOM     48  N   UNL A   1      45.241  26.244  27.218  1.00  0.00    -0.354 N 
ATOM     49  C   UNL A   1      41.395  27.542  28.699  1.00  0.00     0.074 A 
ATOM     50  C   UNL A   1      40.409  26.490  28.583  1.00  0.00     0.031 C 
ATOM     51  C   UNL A   1      46.701  24.821  26.298  1.00  0.00     0.029 A 
ATOM     52  C   UNL A   1      46.549  26.183  26.800  1.00  0.00     0.049 A 
ATOM     53  H   UNL A   1      44.839  27.051  27.613  1.00  0.00     0.167 HD
ATOM     54  C   UNL A   1      41.147  28.773  29.211  1.00  0.00     0.037 A 
ATOM     55  C   UNL A   1      47.514  27.120  26.819  1.00  0.00     0.037 A 
ATOM     56  C   UNL A   1      42.134  29.813  29.341  1.00  0.00     0.049 A 
ATOM     57  C   UNL A   1      47.208  28.478  27.393  1.00  0.00     0.074 A 
ATOM     58  C   UNL A   1      41.990  31.079  29.886  1.00  0.00     0.029 A 
ATOM     59  N   UNL A   1      43.452  29.710  28.920  1.00  0.00    -0.354 N 
ATOM     60  N   UNL A   1      46.088  28.929  27.902  1.00  0.00    -0.248 NA
ATOM     61  C   UNL A   1      48.308  29.453  27.403  1.00  0.00     0.031 C 
ATOM     62  C   UNL A   1      43.210  31.753  29.759  1.00  0.00     0.029 A 
ATOM     63  C   UNL A   1      44.126  30.892  29.178  1.00  0.00     0.049 A 
ATOM     64  H   UNL A   1      43.850  28.912  28.500  1.00  0.00     0.167 HD
ATOM     65  C   UNL A   1      46.352  30.227  28.313  1.00  0.00     0.074 A 
ATOM     66  C   UNL A   1      47.746  30.484  28.018  1.00  0.00     0.031 C 
ATOM     67  C   UNL A   1      45.514  31.130  28.880  1.00  0.00     0.037 A 
BRANCH  54  68
ATOM     68  C   UNL A   1      39.753  29.062  29.687  1.00  0.00     0.064 A 
ATOM     69  C   UNL A   1      38.752  29.488  28.801  1.00  0.00     0.173 A 
ATOM     70  C   UNL A   1      39.396  28.851  31.027  1.00  0.00     0.173 A 
ATOM     71  F   UNL A   1      39.043  29.715  27.511  1.00  0.00    -0.203 F 
ATOM     72  C   UNL A   1      37.451  29.711  29.243  1.00  0.00     0.198 A 
ATOM     73  C   UNL A   1      38.087  29.049  31.461  1.00  0.00     0.198 A 
ATOM     74  F   UNL A   1      40.313  28.437  31.915  1.00  0.00    -0.203 F 
ATOM     75  F   UNL A   1      36.520  30.153  28.386  1.00  0.00    -0.200 F 
ATOM     76  C   UNL A   1      37.117  29.483  30.569  1.00  0.00     0.200 A 
ATOM     77  F   UNL A   1      37.762  28.815  32.740  1.00  0.00    -0.200 F 
ATOM     78  F   UNL A   1      35.861  29.684  30.991  1.00  0.00    -0.200 F 
ENDBRANCH  54  68
BRANCH  55  79
ATOM     79  C   UNL A   1      48.870  26.807  26.299  1.00  0.00     0.064 A 
ATOM     80  C   UNL A   1      49.217  27.094  24.971  1.00  0.00     0.173 A 
ATOM     81  C   UNL A   1      49.837  26.189  27.106  1.00  0.00     0.173 A 
ATOM     82  F   UNL A   1      48.319  27.664  24.154  1.00  0.00    -0.203 F 
ATOM     83  C   UNL A   1      50.467  26.749  24.461  1.00  0.00     0.198 A 
ATOM     84  C   UNL A   1      51.097  25.871  26.604  1.00  0.00     0.198 A 
ATOM     85  F   UNL A   1      49.557  25.894  28.384  1.00  0.00    -0.203 F 
ATOM     86  F   UNL A   1      50.750  26.981  23.172  1.00  0.00    -0.200 F 
ATOM     87  C   UNL A   1      51.407  26.140  25.279  1.00  0.00     0.200 A 
ATOM     88  F   UNL A   1      52.006  25.293  27.401  1.00  0.00    -0.200 F 
ATOM     89  F   UNL A   1      52.607  25.803  24.788  1.00  0.00    -0.200 F 
ENDBRANCH  55  79
BRANCH  67  90
ATOM     90  C   UNL A   1      46.095  32.467  29.239  1.00  0.00     0.064 A 
ATOM     91  C   UNL A   1      46.692  32.699  30.487  1.00  0.00     0.173 A 
ATOM     92  C   UNL A   1      46.066  33.525  28.318  1.00  0.00     0.173 A 
ATOM     93  F   UNL A   1      46.729  31.723  31.408  1.00  0.00    -0.203 F 
ATOM     94  C   UNL A   1      47.206  33.950  30.814  1.00  0.00     0.198 A 
ATOM     95  C   UNL A   1      46.610  34.767  28.636  1.00  0.00     0.198 A 
ATOM     96  F   UNL A   1      45.515  33.355  27.108  1.00  0.00    -0.203 F 
ATOM     97  F   UNL A   1      47.718  34.163  32.034  1.00  0.00    -0.200 F 
ATOM     98  C   UNL A   1      47.171  34.980  29.887  1.00  0.00     0.200 A 
ATOM     99  F   UNL A   1      46.586  35.759  27.735  1.00  0.00    -0.200 F 
ATOM    100  F   UNL A   1      47.666  36.185  30.203  1.00  0.00    -0.200 F 
ENDBRANCH  67  90
ENDBRANCH  41  42
ENDBRANCH  33  36
ENDBRANCH  31  32
ENDBRANCH  30  31
ENDBRANCH  29  30
ENDBRANCH   1  29
TORSDOF 16
ENDMDL
MODEL 2
REMARK VINA RESULT:     -12.3      0.544      7.094
REMARK SMILES CCC[N@@H+]1CC2(CCN(c3nccnc3C)CC2)C[C@H]1C(=O)NCCCCCCNC(=O)c1ccc(-c2c3nc(c(-c4c(F)c(F)c(F)c(F)c4F)c4ccc([nH]4)c(-c4c(F)c(F)c(F)c(F)c4F)c4nc(c(-c5c(F)c(F)c(F)c(F)c5F)c5ccc2[nH]5)C=C4)C=C3)cc1
REMARK SMILES IDX 26 1 25 2 24 3 23 4 21 5 22 6 20 8 4 9 5 10 6 12 19 13 7 14
REMARK SMILES IDX 18 15 8 16 17 17 9 18 3 19 2 20 1 21 10 22 11 23 15 24 12 25
REMARK SMILES IDX 14 26 16 27 13 28 27 29 28 30 29 31 30 32 31 33 32 35 33 36
REMARK SMILES IDX 34 37 95 38 35 39 94 40 36 41 37 42 38 43 88 44 39 45 93 46
REMARK SMILES IDX 87 47 89 48 40 49 92 50 86 51 85 52 41 54 73 55 53 56 72 57
REMARK SMILES IDX 54 58 57 59 71 60 90 61 55 62 56 63 70 65 91 66 58 67 42 68
REMARK SMILES IDX 43 69 51 70 44 71 45 72 49 73 52 74 46 75 47 76 50 77 48 78
REMARK SMILES IDX 74 79 75 80 83 81 76 82 77 83 81 84 84 85 78 86 79 87 82 88
REMARK SMILES IDX 80 89 59 90 60 91 68 92 61 93 62 94 66 95 69 96 63 97 64 98
REMARK SMILES IDX 67 99 65 100
REMARK H PARENT 23 7 4 11 30 34 89 53 57 64
REMARK Flexibility Score: inf
ROOT
ATOM      1  C   UNL A   1      36.074  21.413  25.924  1.00  0.00     0.002 C 
ENDROOT
BRANCH   1   2
ATOM      2  C   UNL A   1      34.685  21.823  26.425  1.00  0.00     0.021 C 
BRANCH   2   3
ATOM      3  C   UNL A   1      33.537  21.052  25.777  1.00  0.00     0.116 C 
BRANCH   3   4
ATOM      4  N   UNL A   1      32.214  21.444  26.183  1.00  0.00    -0.351 N 
ATOM      5  C   UNL A   1      31.473  22.533  25.812  1.00  0.00     0.278 C 
ATOM      6  O   UNL A   1      30.276  22.508  26.133  1.00  0.00    -0.268 OA
ATOM      7  H   UNL A   1      31.776  20.839  26.824  1.00  0.00     0.163 HD
BRANCH   5   8
ATOM      8  C   UNL A   1      32.039  23.772  25.048  1.00  0.00     0.274 C 
ATOM      9  N   UNL A   1      31.815  23.637  23.605  1.00  0.00    -0.324 N 
ATOM     10  C   UNL A   1      30.925  24.690  23.124  1.00  0.00     0.270 C 
ATOM     11  H   UNL A   1      31.297  22.776  23.430  1.00  0.00     0.348 HD
ATOM     12  C   UNL A   1      30.897  25.808  24.190  1.00  0.00     0.029 C 
ATOM     13  C   UNL A   1      31.532  25.154  25.446  1.00  0.00     0.088 C 
ATOM     14  C   UNL A   1      29.483  26.335  24.586  1.00  0.00     0.034 C 
ATOM     15  C   UNL A   1      31.708  27.032  23.670  1.00  0.00     0.034 C 
ATOM     16  C   UNL A   1      28.786  27.144  23.501  1.00  0.00     0.119 C 
ATOM     17  C   UNL A   1      30.964  27.792  22.557  1.00  0.00     0.119 C 
ATOM     18  N   UNL A   1      29.691  28.202  23.115  1.00  0.00    -0.355 N 
BRANCH   9  19
ATOM     19  C   UNL A   1      33.018  23.328  22.826  1.00  0.00     0.262 C 
BRANCH  19  20
ATOM     20  C   UNL A   1      34.340  24.063  23.118  1.00  0.00     0.058 C 
ATOM     21  C   UNL A   1      35.611  23.233  23.004  1.00  0.00     0.010 C 
ENDBRANCH  19  20
ENDBRANCH   9  19
BRANCH  18  22
ATOM     22  C   UNL A   1      29.182  29.432  22.767  1.00  0.00     0.150 A 
ATOM     23  N   UNL A   1      28.460  29.514  21.626  1.00  0.00    -0.236 NA
ATOM     24  C   UNL A   1      29.455  30.592  23.525  1.00  0.00     0.080 A 
ATOM     25  C   UNL A   1      28.028  30.745  21.270  1.00  0.00     0.133 A 
ATOM     26  N   UNL A   1      29.011  31.826  23.156  1.00  0.00    -0.256 NA
ATOM     27  C   UNL A   1      30.359  30.588  24.723  1.00  0.00     0.071 C 
ATOM     28  C   UNL A   1      28.300  31.875  22.014  1.00  0.00     0.131 A 
ENDBRANCH  18  22
ENDBRANCH   5   8
ENDBRANCH   3   4
ENDBRANCH   2   3
ENDBRANCH   1   2
BRANCH   1  29
ATOM     29  C   UNL A   1      36.132  20.185  25.001  1.00  0.00     0.002 C 
BRANCH  29  30
ATOM     30  C   UNL A   1      37.513  19.570  24.758  1.00  0.00     0.021 C 
BRANCH  30  31
ATOM     31  C   UNL A   1      38.679  20.231  25.493  1.00  0.00     0.116 C 
BRANCH  31  32
ATOM     32  N   UNL A   1      39.767  19.305  25.769  1.00  0.00    -0.352 N 
ATOM     33  C   UNL A   1      41.068  19.529  26.125  1.00  0.00     0.251 C 
ATOM     34  H   UNL A   1      39.525  18.355  25.686  1.00  0.00     0.163 HD
ATOM     35  O   UNL A   1      41.859  18.579  26.143  1.00  0.00    -0.269 OA
BRANCH  33  36
ATOM     36  C   UNL A   1      41.559  20.880  26.475  1.00  0.00     0.039 A 
ATOM     37  C   UNL A   1      41.876  21.762  25.437  1.00  0.00     0.014 A 
ATOM     38  C   UNL A   1      41.774  21.266  27.801  1.00  0.00     0.014 A 
ATOM     39  C   UNL A   1      42.357  23.041  25.727  1.00  0.00     0.010 A 
ATOM     40  C   UNL A   1      42.196  22.565  28.092  1.00  0.00     0.010 A 
ATOM     41  C   UNL A   1      42.493  23.465  27.058  1.00  0.00    -0.014 A 
BRANCH  41  42
ATOM     42  C   UNL A   1      42.931  24.850  27.371  1.00  0.00     0.031 A 
ATOM     43  C   UNL A   1      44.340  25.293  27.092  1.00  0.00     0.074 A 
ATOM     44  C   UNL A   1      42.056  25.704  27.938  1.00  0.00     0.049 A 
ATOM     45  N   UNL A   1      44.901  26.456  27.311  1.00  0.00    -0.248 NA
ATOM     46  C   UNL A   1      45.247  24.293  26.507  1.00  0.00     0.031 C 
ATOM     47  C   UNL A   1      40.676  25.379  28.303  1.00  0.00     0.029 A 
ATOM     48  N   UNL A   1      42.198  27.017  28.312  1.00  0.00    -0.354 N 
ATOM     49  C   UNL A   1      46.221  26.326  26.896  1.00  0.00     0.074 A 
ATOM     50  C   UNL A   1      46.393  24.958  26.459  1.00  0.00     0.031 C 
ATOM     51  C   UNL A   1      40.090  26.469  28.822  1.00  0.00     0.029 A 
ATOM     52  C   UNL A   1      41.060  27.559  28.859  1.00  0.00     0.049 A 
ATOM     53  H   UNL A   1      43.035  27.522  28.200  1.00  0.00     0.167 HD
ATOM     54  C   UNL A   1      47.192  27.271  26.859  1.00  0.00     0.037 A 
ATOM     55  C   UNL A   1      40.827  28.795  29.337  1.00  0.00     0.037 A 
ATOM     56  C   UNL A   1      47.014  28.637  27.278  1.00  0.00     0.049 A 
ATOM     57  C   UNL A   1      41.926  29.821  29.285  1.00  0.00     0.074 A 
ATOM     58  C   UNL A   1      47.926  29.679  27.240  1.00  0.00     0.029 A 
ATOM     59  N   UNL A   1      45.843  29.154  27.814  1.00  0.00    -0.354 N 
ATOM     60  N   UNL A   1      43.149  29.704  28.829  1.00  0.00    -0.248 NA
ATOM     61  C   UNL A   1      41.606  31.159  29.806  1.00  0.00     0.031 C 
ATOM     62  C   UNL A   1      47.319  30.814  27.789  1.00  0.00     0.029 A 
ATOM     63  C   UNL A   1      46.015  30.493  28.126  1.00  0.00     0.049 A 
ATOM     64  H   UNL A   1      45.012  28.643  27.953  1.00  0.00     0.167 HD
ATOM     65  C   UNL A   1      43.736  30.951  28.985  1.00  0.00     0.074 A 
ATOM     66  C   UNL A   1      42.726  31.820  29.554  1.00  0.00     0.031 C 
ATOM     67  C   UNL A   1      44.999  31.344  28.689  1.00  0.00     0.037 A 
BRANCH  54  68
ATOM     68  C   UNL A   1      48.538  26.867  26.332  1.00  0.00     0.064 A 
ATOM     69  C   UNL A   1      48.876  27.040  24.981  1.00  0.00     0.173 A 
ATOM     70  C   UNL A   1      49.523  26.362  27.194  1.00  0.00     0.173 A 
ATOM     71  F   UNL A   1      47.968  27.510  24.112  1.00  0.00    -0.203 F 
ATOM     72  C   UNL A   1      50.143  26.703  24.510  1.00  0.00     0.198 A 
ATOM     73  C   UNL A   1      50.797  26.052  26.725  1.00  0.00     0.198 A 
ATOM     74  F   UNL A   1      49.255  26.183  28.497  1.00  0.00    -0.203 F 
ATOM     75  F   UNL A   1      50.431  26.843  23.208  1.00  0.00    -0.200 F 
ATOM     76  C   UNL A   1      51.104  26.219  25.383  1.00  0.00     0.200 A 
ATOM     77  F   UNL A   1      51.730  25.596  27.573  1.00  0.00    -0.200 F 
ATOM     78  F   UNL A   1      52.327  25.909  24.931  1.00  0.00    -0.200 F 
ENDBRANCH  54  68
BRANCH  55  79
ATOM     79  C   UNL A   1      39.492  29.143  29.890  1.00  0.00     0.064 A 
ATOM     80  C   UNL A   1      38.523  29.772  29.093  1.00  0.00     0.173 A 
ATOM     81  C   UNL A   1      39.165  28.883  31.229  1.00  0.00     0.173 A 
ATOM     82  F   UNL A   1      38.797  30.062  27.813  1.00  0.00    -0.203 F 
ATOM     83  C   UNL A   1      37.292  30.154  29.622  1.00  0.00     0.198 A 
ATOM     84  C   UNL A   1      37.922  29.239  31.749  1.00  0.00     0.198 A 
ATOM     85  F   UNL A   1      40.055  28.283  32.034  1.00  0.00    -0.203 F 
ATOM     86  F   UNL A   1      36.409  30.806  28.854  1.00  0.00    -0.200 F 
ATOM     87  C   UNL A   1      36.992  29.884  30.949  1.00  0.00     0.200 A 
ATOM     88  F   UNL A   1      37.633  28.967  33.029  1.00  0.00    -0.200 F 
ATOM     89  F   UNL A   1      35.810  30.257  31.459  1.00  0.00    -0.200 F 
ENDBRANCH  55  79
BRANCH  67  90
ATOM     90  C   UNL A   1      45.347  32.779  28.953  1.00  0.00     0.064 A 
ATOM     91  C   UNL A   1      45.119  33.779  27.996  1.00  0.00     0.173 A 
ATOM     92  C   UNL A   1      45.903  33.162  30.183  1.00  0.00     0.173 A 
ATOM     93  F   UNL A   1      44.604  33.461  26.797  1.00  0.00    -0.203 F 
ATOM     94  C   UNL A   1      45.467  35.103  28.246  1.00  0.00     0.198 A 
ATOM     95  C   UNL A   1      46.221  34.492  30.442  1.00  0.00     0.198 A 
ATOM     96  F   UNL A   1      46.134  32.247  31.136  1.00  0.00    -0.203 F 
ATOM     97  F   UNL A   1      45.293  36.031  27.295  1.00  0.00    -0.200 F 
ATOM     98  C   UNL A   1      46.011  35.459  29.471  1.00  0.00     0.200 A 
ATOM     99  F   UNL A   1      46.736  34.837  31.631  1.00  0.00    -0.200 F 
ATOM    100  F   UNL A   1      46.346  36.735  29.711  1.00  0.00    -0.200 F 
ENDBRANCH  67  90
ENDBRANCH  41  42
ENDBRANCH  33  36
ENDBRANCH  31  32
ENDBRANCH  30  31
ENDBRANCH  29  30
ENDBRANCH   1  29
TORSDOF 16
ENDMDL
MODEL 3
REMARK VINA RESULT:     -11.6      5.363     10.927
REMARK SMILES CCC[N@@H+]1CC2(CCN(c3nccnc3C)CC2)C[C@H]1C(=O)NCCCCCCNC(=O)c1ccc(-c2c3nc(c(-c4c(F)c(F)c(F)c(F)c4F)c4ccc([nH]4)c(-c4c(F)c(F)c(F)c(F)c4F)c4nc(c(-c5c(F)c(F)c(F)c(F)c5F)c5ccc2[nH]5)C=C4)C=C3)cc1
REMARK SMILES IDX 26 1 25 2 24 3 23 4 21 5 22 6 20 8 4 9 5 10 6 12 19 13 7 14
REMARK SMILES IDX 18 15 8 16 17 17 9 18 3 19 2 20 1 21 10 22 11 23 15 24 12 25
REMARK SMILES IDX 14 26 16 27 13 28 27 29 28 30 29 31 30 32 31 33 32 35 33 36
REMARK SMILES IDX 34 37 95 38 35 39 94 40 36 41 37 42 38 43 88 44 39 45 93 46
REMARK SMILES IDX 87 47 89 48 40 49 92 50 86 51 85 52 41 54 73 55 53 56 72 57
REMARK SMILES IDX 54 58 57 59 71 60 90 61 55 62 56 63 70 65 91 66 58 67 42 68
REMARK SMILES IDX 43 69 51 70 44 71 45 72 49 73 52 74 46 75 47 76 50 77 48 78
REMARK SMILES IDX 74 79 75 80 83 81 76 82 77 83 81 84 84 85 78 86 79 87 82 88
REMARK SMILES IDX 80 89 59 90 60 91 68 92 61 93 62 94 66 95 69 96 63 97 64 98
REMARK SMILES IDX 67 99 65 100
REMARK H PARENT 23 7 4 11 30 34 89 53 57 64
REMARK Flexibility Score: inf
ROOT
ATOM      1  C   UNL A   1      34.148  33.053  32.849  1.00  0.00     0.002 C 
ENDROOT
BRANCH   1   2
ATOM      2  C   UNL A   1      34.576  34.448  33.318  1.00  0.00     0.021 C 
BRANCH   2   3
ATOM      3  C   UNL A   1      36.066  34.568  33.636  1.00  0.00     0.116 C 
BRANCH   3   4
ATOM      4  N   UNL A   1      36.476  34.045  34.911  1.00  0.00    -0.351 N 
ATOM      5  C   UNL A   1      37.299  32.991  35.199  1.00  0.00     0.278 C 
ATOM      6  O   UNL A   1      37.669  32.900  36.378  1.00  0.00    -0.268 OA
ATOM      7  H   UNL A   1      36.110  34.516  35.694  1.00  0.00     0.163 HD
BRANCH   5   8
ATOM      8  C   UNL A   1      37.767  31.922  34.161  1.00  0.00     0.274 C 
ATOM      9  N   UNL A   1      38.842  32.454  33.319  1.00  0.00    -0.324 N 
ATOM     10  C   UNL A   1      40.076  31.700  33.525  1.00  0.00     0.270 C 
ATOM     11  H   UNL A   1      39.073  33.396  33.633  1.00  0.00     0.348 HD
ATOM     12  C   UNL A   1      39.703  30.361  34.200  1.00  0.00     0.029 C 
ATOM     13  C   UNL A   1      38.243  30.572  34.685  1.00  0.00     0.088 C 
ATOM     14  C   UNL A   1      40.565  29.959  35.436  1.00  0.00     0.034 C 
ATOM     15  C   UNL A   1      39.834  29.208  33.161  1.00  0.00     0.034 C 
ATOM     16  C   UNL A   1      41.998  29.566  35.103  1.00  0.00     0.119 C 
ATOM     17  C   UNL A   1      41.303  28.875  32.845  1.00  0.00     0.119 C 
ATOM     18  N   UNL A   1      41.928  28.523  34.104  1.00  0.00    -0.355 N 
BRANCH   9  19
ATOM     19  C   UNL A   1      38.441  32.776  31.946  1.00  0.00     0.262 C 
BRANCH  19  20
ATOM     20  C   UNL A   1      38.792  34.147  31.337  1.00  0.00     0.058 C 
ATOM     21  C   UNL A   1      38.750  34.240  29.818  1.00  0.00     0.010 C 
ENDBRANCH  19  20
ENDBRANCH   9  19
BRANCH  18  22
ATOM     22  C   UNL A   1      42.859  27.510  34.119  1.00  0.00     0.150 A 
ATOM     23  N   UNL A   1      43.986  27.681  33.389  1.00  0.00    -0.236 NA
ATOM     24  C   UNL A   1      42.631  26.300  34.809  1.00  0.00     0.080 A 
ATOM     25  C   UNL A   1      44.854  26.644  33.366  1.00  0.00     0.133 A 
ATOM     26  N   UNL A   1      43.516  25.264  34.780  1.00  0.00    -0.256 NA
ATOM     27  C   UNL A   1      41.346  26.000  35.525  1.00  0.00     0.071 C 
ATOM     28  C   UNL A   1      44.624  25.463  34.041  1.00  0.00     0.131 A 
ENDBRANCH  18  22
ENDBRANCH   5   8
ENDBRANCH   3   4
ENDBRANCH   2   3
ENDBRANCH   1   2
BRANCH   1  29
ATOM     29  C   UNL A   1      34.841  32.516  31.587  1.00  0.00     0.002 C 
BRANCH  29  30
ATOM     30  C   UNL A   1      34.620  33.302  30.291  1.00  0.00     0.021 C 
BRANCH  30  31
ATOM     31  C   UNL A   1      35.239  32.700  29.029  1.00  0.00     0.116 C 
BRANCH  31  32
ATOM     32  N   UNL A   1      34.533  31.514  28.570  1.00  0.00    -0.352 N 
ATOM     33  C   UNL A   1      34.995  30.277  28.212  1.00  0.00     0.251 C 
ATOM     34  H   UNL A   1      33.557  31.619  28.506  1.00  0.00     0.163 HD
ATOM     35  O   UNL A   1      34.216  29.472  27.690  1.00  0.00    -0.269 OA
BRANCH  33  36
ATOM     36  C   UNL A   1      36.404  29.880  28.422  1.00  0.00     0.039 A 
ATOM     37  C   UNL A   1      37.295  30.002  27.350  1.00  0.00     0.014 A 
ATOM     38  C   UNL A   1      36.845  29.330  29.629  1.00  0.00     0.014 A 
ATOM     39  C   UNL A   1      38.631  29.624  27.503  1.00  0.00     0.010 A 
ATOM     40  C   UNL A   1      38.193  29.010  29.801  1.00  0.00     0.010 A 
ATOM     41  C   UNL A   1      39.099  29.152  28.739  1.00  0.00    -0.014 A 
BRANCH  41  42
ATOM     42  C   UNL A   1      40.535  28.821  28.928  1.00  0.00     0.031 A 
ATOM     43  C   UNL A   1      41.476  29.810  29.558  1.00  0.00     0.074 A 
ATOM     44  C   UNL A   1      40.998  27.629  28.502  1.00  0.00     0.049 A 
ATOM     45  N   UNL A   1      42.761  29.699  29.790  1.00  0.00    -0.248 NA
ATOM     46  C   UNL A   1      40.906  31.104  29.962  1.00  0.00     0.031 C 
ATOM     47  C   UNL A   1      40.195  26.604  27.832  1.00  0.00     0.029 A 
ATOM     48  N   UNL A   1      42.253  27.079  28.563  1.00  0.00    -0.354 N 
ATOM     49  C   UNL A   1      43.150  30.903  30.362  1.00  0.00     0.074 A 
ATOM     50  C   UNL A   1      41.978  31.752  30.397  1.00  0.00     0.031 C 
ATOM     51  C   UNL A   1      40.971  25.541  27.568  1.00  0.00     0.029 A 
ATOM     52  C   UNL A   1      42.330  25.820  28.018  1.00  0.00     0.049 A 
ATOM     53  H   UNL A   1      43.027  27.543  28.958  1.00  0.00     0.167 HD
ATOM     54  C   UNL A   1      44.368  31.259  30.840  1.00  0.00     0.037 A 
ATOM     55  C   UNL A   1      43.380  24.986  27.896  1.00  0.00     0.037 A 
ATOM     56  C   UNL A   1      45.529  30.407  30.820  1.00  0.00     0.049 A 
ATOM     57  C   UNL A   1      44.720  25.410  28.433  1.00  0.00     0.074 A 
ATOM     58  C   UNL A   1      46.796  30.661  31.317  1.00  0.00     0.029 A 
ATOM     59  N   UNL A   1      45.565  29.132  30.274  1.00  0.00    -0.354 N 
ATOM     60  N   UNL A   1      45.058  26.526  29.031  1.00  0.00    -0.248 NA
ATOM     61  C   UNL A   1      45.824  24.450  28.287  1.00  0.00     0.031 C 
ATOM     62  C   UNL A   1      47.608  29.557  31.036  1.00  0.00     0.029 A 
ATOM     63  C   UNL A   1      46.835  28.595  30.406  1.00  0.00     0.049 A 
ATOM     64  H   UNL A   1      44.800  28.676  29.853  1.00  0.00     0.167 HD
ATOM     65  C   UNL A   1      46.401  26.394  29.353  1.00  0.00     0.074 A 
ATOM     66  C   UNL A   1      46.811  25.079  28.906  1.00  0.00     0.031 C 
ATOM     67  C   UNL A   1      47.226  27.284  29.959  1.00  0.00     0.037 A 
BRANCH  54  68
ATOM     68  C   UNL A   1      44.509  32.627  31.440  1.00  0.00     0.064 A 
ATOM     69  C   UNL A   1      44.893  33.730  30.662  1.00  0.00     0.173 A 
ATOM     70  C   UNL A   1      44.198  32.853  32.789  1.00  0.00     0.173 A 
ATOM     71  F   UNL A   1      45.212  33.567  29.369  1.00  0.00    -0.203 F 
ATOM     72  C   UNL A   1      44.979  35.005  31.218  1.00  0.00     0.198 A 
ATOM     73  C   UNL A   1      44.258  34.133  33.335  1.00  0.00     0.198 A 
ATOM     74  F   UNL A   1      43.818  31.835  33.576  1.00  0.00    -0.203 F 
ATOM     75  F   UNL A   1      45.383  36.037  30.464  1.00  0.00    -0.200 F 
ATOM     76  C   UNL A   1      44.653  35.206  32.550  1.00  0.00     0.200 A 
ATOM     77  F   UNL A   1      43.929  34.330  34.620  1.00  0.00    -0.200 F 
ATOM     78  F   UNL A   1      44.722  36.435  33.080  1.00  0.00    -0.200 F 
ENDBRANCH  54  68
BRANCH  55  79
ATOM     79  C   UNL A   1      43.207  23.656  27.257  1.00  0.00     0.064 A 
ATOM     80  C   UNL A   1      43.622  23.431  25.936  1.00  0.00     0.173 A 
ATOM     81  C   UNL A   1      42.599  22.591  27.938  1.00  0.00     0.173 A 
ATOM     82  F   UNL A   1      44.188  24.425  25.235  1.00  0.00    -0.203 F 
ATOM     83  C   UNL A   1      43.409  22.204  25.312  1.00  0.00     0.198 A 
ATOM     84  C   UNL A   1      42.413  21.355  27.323  1.00  0.00     0.198 A 
ATOM     85  F   UNL A   1      42.185  22.753  29.204  1.00  0.00    -0.203 F 
ATOM     86  F   UNL A   1      43.762  22.037  24.030  1.00  0.00    -0.200 F 
ATOM     87  C   UNL A   1      42.808  21.166  26.008  1.00  0.00     0.200 A 
ATOM     88  F   UNL A   1      41.841  20.352  28.003  1.00  0.00    -0.200 F 
ATOM     89  F   UNL A   1      42.597  19.988  25.406  1.00  0.00    -0.200 F 
ENDBRANCH  55  79
BRANCH  67  90
ATOM     90  C   UNL A   1      48.643  26.850  30.194  1.00  0.00     0.064 A 
ATOM     91  C   UNL A   1      49.005  26.102  31.324  1.00  0.00     0.173 A 
ATOM     92  C   UNL A   1      49.648  27.175  29.271  1.00  0.00     0.173 A 
ATOM     93  F   UNL A   1      48.082  25.781  32.245  1.00  0.00    -0.203 F 
ATOM     94  C   UNL A   1      50.327  25.726  31.540  1.00  0.00     0.198 A 
ATOM     95  C   UNL A   1      50.965  26.769  29.474  1.00  0.00     0.198 A 
ATOM     96  F   UNL A   1      49.355  27.882  28.170  1.00  0.00    -0.203 F 
ATOM     97  F   UNL A   1      50.658  25.062  32.656  1.00  0.00    -0.200 F 
ATOM     98  C   UNL A   1      51.304  26.054  30.613  1.00  0.00     0.200 A 
ATOM     99  F   UNL A   1      51.907  27.077  28.571  1.00  0.00    -0.200 F 
ATOM    100  F   UNL A   1      52.578  25.691  30.822  1.00  0.00    -0.200 F 
ENDBRANCH  67  90
ENDBRANCH  41  42
ENDBRANCH  33  36
ENDBRANCH  31  32
ENDBRANCH  30  31
ENDBRANCH  29  30
ENDBRANCH   1  29
TORSDOF 16
ENDMDL
