MODEL 1
REMARK VINA RESULT:     -11.8      0.000      0.000
REMARK SMILES CCS(=O)(=O)N1CCC[C@@H](C(=O)NCCCCCCNC(=O)c2ccc(-c3c4nc(c(-c5c(F)c(F)c(F)c(F)c5F)c5ccc([nH]5)c(-c5c(F)c(F)c(F)c(F)c5F)c5nc(c(-c6c(F)c(F)c(F)c(F)c6F)c6ccc3[nH]6)C=C5)C=C4)cc2)C1
REMARK SMILES IDX 16 1 15 2 14 3 13 4 11 5 12 6 10 8 6 9 7 10 86 11 8 12 9 13
REMARK SMILES IDX 3 14 4 15 5 16 2 17 1 18 17 19 18 20 19 21 20 22 21 23 22 25
REMARK SMILES IDX 23 26 24 27 85 28 25 29 84 30 26 31 27 32 28 33 78 34 29 35
REMARK SMILES IDX 83 36 77 37 79 38 30 39 82 40 76 41 75 42 31 44 63 45 43 46
REMARK SMILES IDX 62 47 44 48 47 49 61 50 80 51 45 52 46 53 60 55 81 56 48 57
REMARK SMILES IDX 32 58 33 59 41 60 34 61 35 62 39 63 42 64 36 65 37 66 40 67
REMARK SMILES IDX 38 68 64 69 65 70 73 71 66 72 67 73 71 74 74 75 68 76 69 77
REMARK SMILES IDX 72 78 70 79 49 80 50 81 58 82 51 83 52 84 56 85 59 86 53 87
REMARK SMILES IDX 54 88 57 89 55 90
REMARK H PARENT 13 7 20 24 79 43 47 54
REMARK Flexibility Score: inf
ROOT
ATOM      1  C   UNL A   1      32.385  29.652  27.156  1.00  0.00     0.002 C 
ENDROOT
BRANCH   1   2
ATOM      2  C   UNL A   1      33.713  29.036  26.702  1.00  0.00     0.021 C 
BRANCH   2   3
ATOM      3  C   UNL A   1      33.580  27.649  26.078  1.00  0.00     0.116 C 
BRANCH   3   4
ATOM      4  N   UNL A   1      33.604  27.706  24.626  1.00  0.00    -0.356 N 
ATOM      5  C   UNL A   1      32.601  27.809  23.708  1.00  0.00     0.224 C 
ATOM      6  O   UNL A   1      32.918  27.845  22.518  1.00  0.00    -0.275 OA
ATOM      7  H   UNL A   1      34.507  27.661  24.234  1.00  0.00     0.163 HD
BRANCH   5   8
ATOM      8  C   UNL A   1      31.137  27.851  24.124  1.00  0.00     0.093 C 
ATOM      9  N   UNL A   1      29.036  29.111  23.483  1.00  0.00    -0.201 NA
ATOM     10  C   UNL A   1      28.433  27.852  23.005  1.00  0.00     0.102 C 
ATOM     11  C   UNL A   1      30.507  29.141  23.606  1.00  0.00     0.115 C 
ATOM     12  C   UNL A   1      28.912  26.702  23.883  1.00  0.00     0.018 C 
ATOM     13  C   UNL A   1      30.418  26.545  23.781  1.00  0.00     0.016 C 
BRANCH   9  14
ATOM     14  S   UNL A   1      28.240  30.566  23.127  1.00  0.00     0.213 S 
ATOM     15  O   UNL A   1      29.130  31.642  23.507  1.00  0.00    -0.212 OA
ATOM     16  O   UNL A   1      26.903  30.484  23.674  1.00  0.00    -0.212 OA
BRANCH  14  17
ATOM     17  C   UNL A   1      28.079  30.582  21.332  1.00  0.00     0.151 C 
ATOM     18  C   UNL A   1      28.227  31.960  20.705  1.00  0.00     0.022 C 
ENDBRANCH  14  17
ENDBRANCH   9  14
ENDBRANCH   5   8
ENDBRANCH   3   4
ENDBRANCH   2   3
ENDBRANCH   1   2
BRANCH   1  19
ATOM     19  C   UNL A   1      31.780  30.677  26.190  1.00  0.00     0.002 C 
BRANCH  19  20
ATOM     20  C   UNL A   1      31.482  32.045  26.805  1.00  0.00     0.021 C 
BRANCH  20  21
ATOM     21  C   UNL A   1      32.710  32.777  27.334  1.00  0.00     0.116 C 
BRANCH  21  22
ATOM     22  N   UNL A   1      32.433  34.174  27.629  1.00  0.00    -0.352 N 
ATOM     23  C   UNL A   1      32.997  34.976  28.591  1.00  0.00     0.251 C 
ATOM     24  H   UNL A   1      31.751  34.603  27.064  1.00  0.00     0.163 HD
ATOM     25  O   UNL A   1      32.530  36.082  28.840  1.00  0.00    -0.269 OA
BRANCH  23  26
ATOM     26  C   UNL A   1      34.167  34.479  29.343  1.00  0.00     0.039 A 
ATOM     27  C   UNL A   1      33.975  33.885  30.593  1.00  0.00     0.014 A 
ATOM     28  C   UNL A   1      35.447  34.576  28.792  1.00  0.00     0.014 A 
ATOM     29  C   UNL A   1      35.066  33.328  31.265  1.00  0.00     0.010 A 
ATOM     30  C   UNL A   1      36.514  33.950  29.422  1.00  0.00     0.010 A 
ATOM     31  C   UNL A   1      36.337  33.326  30.668  1.00  0.00    -0.014 A 
BRANCH  31  32
ATOM     32  C   UNL A   1      37.517  32.712  31.328  1.00  0.00     0.031 A 
ATOM     33  C   UNL A   1      38.223  31.567  30.657  1.00  0.00     0.074 A 
ATOM     34  C   UNL A   1      37.889  33.110  32.559  1.00  0.00     0.049 A 
ATOM     35  N   UNL A   1      39.156  30.778  31.123  1.00  0.00    -0.248 NA
ATOM     36  C   UNL A   1      37.793  31.245  29.286  1.00  0.00     0.031 C 
ATOM     37  C   UNL A   1      37.271  34.195  33.323  1.00  0.00     0.029 A 
ATOM     38  N   UNL A   1      38.867  32.630  33.396  1.00  0.00    -0.354 N 
ATOM     39  C   UNL A   1      39.405  29.855  30.115  1.00  0.00     0.074 A 
ATOM     40  C   UNL A   1      38.488  30.146  29.035  1.00  0.00     0.031 C 
ATOM     41  C   UNL A   1      37.887  34.302  34.512  1.00  0.00     0.029 A 
ATOM     42  C   UNL A   1      38.908  33.263  34.615  1.00  0.00     0.049 A 
ATOM     43  H   UNL A   1      39.479  31.901  33.147  1.00  0.00     0.167 HD
ATOM     44  C   UNL A   1      40.329  28.866  30.087  1.00  0.00     0.037 A 
ATOM     45  C   UNL A   1      39.666  33.016  35.701  1.00  0.00     0.037 A 
ATOM     46  C   UNL A   1      41.254  28.600  31.156  1.00  0.00     0.049 A 
ATOM     47  C   UNL A   1      40.666  31.889  35.658  1.00  0.00     0.074 A 
ATOM     48  C   UNL A   1      42.262  27.655  31.206  1.00  0.00     0.029 A 
ATOM     49  N   UNL A   1      41.280  29.280  32.365  1.00  0.00    -0.354 N 
ATOM     50  N   UNL A   1      40.929  31.053  34.683  1.00  0.00    -0.248 NA
ATOM     51  C   UNL A   1      41.477  31.672  36.865  1.00  0.00     0.031 C 
ATOM     52  C   UNL A   1      42.860  27.722  32.467  1.00  0.00     0.029 A 
ATOM     53  C   UNL A   1      42.273  28.758  33.176  1.00  0.00     0.049 A 
ATOM     54  H   UNL A   1      40.682  30.023  32.609  1.00  0.00     0.167 HD
ATOM     55  C   UNL A   1      41.962  30.245  35.138  1.00  0.00     0.074 A 
ATOM     56  C   UNL A   1      42.277  30.687  36.479  1.00  0.00     0.031 C 
ATOM     57  C   UNL A   1      42.596  29.233  34.498  1.00  0.00     0.037 A 
BRANCH  44  58
ATOM     58  C   UNL A   1      40.381  27.994  28.866  1.00  0.00     0.064 A 
ATOM     59  C   UNL A   1      41.156  28.333  27.746  1.00  0.00     0.173 A 
ATOM     60  C   UNL A   1      39.672  26.783  28.829  1.00  0.00     0.173 A 
ATOM     61  F   UNL A   1      41.844  29.485  27.725  1.00  0.00    -0.203 F 
ATOM     62  C   UNL A   1      41.193  27.511  26.624  1.00  0.00     0.198 A 
ATOM     63  C   UNL A   1      39.741  25.945  27.719  1.00  0.00     0.198 A 
ATOM     64  F   UNL A   1      38.920  26.406  29.873  1.00  0.00    -0.203 F 
ATOM     65  F   UNL A   1      41.893  27.884  25.544  1.00  0.00    -0.200 F 
ATOM     66  C   UNL A   1      40.492  26.313  26.614  1.00  0.00     0.200 A 
ATOM     67  F   UNL A   1      39.076  24.781  27.719  1.00  0.00    -0.200 F 
ATOM     68  F   UNL A   1      40.536  25.519  25.536  1.00  0.00    -0.200 F 
ENDBRANCH  44  58
BRANCH  45  69
ATOM     69  C   UNL A   1      39.519  33.854  36.921  1.00  0.00     0.064 A 
ATOM     70  C   UNL A   1      40.172  35.090  37.029  1.00  0.00     0.173 A 
ATOM     71  C   UNL A   1      38.734  33.437  38.007  1.00  0.00     0.173 A 
ATOM     72  F   UNL A   1      40.948  35.526  36.025  1.00  0.00    -0.203 F 
ATOM     73  C   UNL A   1      40.068  35.864  38.184  1.00  0.00     0.198 A 
ATOM     74  C   UNL A   1      38.605  34.226  39.149  1.00  0.00     0.198 A 
ATOM     75  F   UNL A   1      38.082  32.267  37.955  1.00  0.00    -0.203 F 
ATOM     76  F   UNL A   1      40.746  37.016  38.279  1.00  0.00    -0.200 F 
ATOM     77  C   UNL A   1      39.280  35.433  39.241  1.00  0.00     0.200 A 
ATOM     78  F   UNL A   1      37.828  33.815  40.160  1.00  0.00    -0.200 F 
ATOM     79  F   UNL A   1      39.177  36.178  40.349  1.00  0.00    -0.200 F 
ENDBRANCH  45  69
BRANCH  57  80
ATOM     80  C   UNL A   1      43.750  28.572  35.196  1.00  0.00     0.064 A 
ATOM     81  C   UNL A   1      43.574  27.472  36.047  1.00  0.00     0.173 A 
ATOM     82  C   UNL A   1      45.063  28.995  34.930  1.00  0.00     0.173 A 
ATOM     83  F   UNL A   1      42.339  27.039  36.344  1.00  0.00    -0.203 F 
ATOM     84  C   UNL A   1      44.669  26.824  36.612  1.00  0.00     0.198 A 
ATOM     85  C   UNL A   1      46.156  28.325  35.470  1.00  0.00     0.198 A 
ATOM     86  F   UNL A   1      45.285  30.039  34.117  1.00  0.00    -0.203 F 
ATOM     87  F   UNL A   1      44.478  25.793  37.446  1.00  0.00    -0.200 F 
ATOM     88  C   UNL A   1      45.958  27.241  36.312  1.00  0.00     0.200 A 
ATOM     89  F   UNL A   1      47.399  28.718  35.163  1.00  0.00    -0.200 F 
ATOM     90  F   UNL A   1      47.011  26.600  36.837  1.00  0.00    -0.200 F 
ENDBRANCH  57  80
ENDBRANCH  31  32
ENDBRANCH  23  26
ENDBRANCH  21  22
ENDBRANCH  20  21
ENDBRANCH  19  20
ENDBRANCH   1  19
TORSDOF 15
ENDMDL
MODEL 2
REMARK VINA RESULT:     -11.6      0.387      2.083
REMARK SMILES CCS(=O)(=O)N1CCC[C@@H](C(=O)NCCCCCCNC(=O)c2ccc(-c3c4nc(c(-c5c(F)c(F)c(F)c(F)c5F)c5ccc([nH]5)c(-c5c(F)c(F)c(F)c(F)c5F)c5nc(c(-c6c(F)c(F)c(F)c(F)c6F)c6ccc3[nH]6)C=C5)C=C4)cc2)C1
REMARK SMILES IDX 16 1 15 2 14 3 13 4 11 5 12 6 10 8 6 9 7 10 86 11 8 12 9 13
REMARK SMILES IDX 3 14 4 15 5 16 2 17 1 18 17 19 18 20 19 21 20 22 21 23 22 25
REMARK SMILES IDX 23 26 24 27 85 28 25 29 84 30 26 31 27 32 28 33 78 34 29 35
REMARK SMILES IDX 83 36 77 37 79 38 30 39 82 40 76 41 75 42 31 44 63 45 43 46
REMARK SMILES IDX 62 47 44 48 47 49 61 50 80 51 45 52 46 53 60 55 81 56 48 57
REMARK SMILES IDX 32 58 33 59 41 60 34 61 35 62 39 63 42 64 36 65 37 66 40 67
REMARK SMILES IDX 38 68 64 69 65 70 73 71 66 72 67 73 71 74 74 75 68 76 69 77
REMARK SMILES IDX 72 78 70 79 49 80 50 81 58 82 51 83 52 84 56 85 59 86 53 87
REMARK SMILES IDX 54 88 57 89 55 90
REMARK H PARENT 13 7 20 24 79 43 47 54
REMARK Flexibility Score: inf
ROOT
ATOM      1  C   UNL A   1      32.578  29.842  27.221  1.00  0.00     0.002 C 
ENDROOT
BRANCH   1   2
ATOM      2  C   UNL A   1      33.776  29.205  26.509  1.00  0.00     0.021 C 
BRANCH   2   3
ATOM      3  C   UNL A   1      33.523  27.788  26.001  1.00  0.00     0.116 C 
BRANCH   3   4
ATOM      4  N   UNL A   1      33.531  27.725  24.549  1.00  0.00    -0.356 N 
ATOM      5  C   UNL A   1      32.518  27.774  23.638  1.00  0.00     0.224 C 
ATOM      6  O   UNL A   1      32.821  27.705  22.445  1.00  0.00    -0.275 OA
ATOM      7  H   UNL A   1      34.427  27.630  24.152  1.00  0.00     0.163 HD
BRANCH   5   8
ATOM      8  C   UNL A   1      31.061  27.878  24.065  1.00  0.00     0.093 C 
ATOM      9  N   UNL A   1      29.011  29.227  23.439  1.00  0.00    -0.201 NA
ATOM     10  C   UNL A   1      28.351  27.996  22.967  1.00  0.00     0.102 C 
ATOM     11  C   UNL A   1      30.482  29.195  23.550  1.00  0.00     0.115 C 
ATOM     12  C   UNL A   1      28.786  26.826  23.842  1.00  0.00     0.018 C 
ATOM     13  C   UNL A   1      30.283  26.605  23.729  1.00  0.00     0.016 C 
BRANCH   9  14
ATOM     14  S   UNL A   1      28.276  30.715  23.088  1.00  0.00     0.213 S 
ATOM     15  O   UNL A   1      29.217  31.753  23.452  1.00  0.00    -0.212 OA
ATOM     16  O   UNL A   1      26.944  30.695  23.652  1.00  0.00    -0.212 OA
BRANCH  14  17
ATOM     17  C   UNL A   1      28.092  30.732  21.294  1.00  0.00     0.151 C 
ATOM     18  C   UNL A   1      28.027  32.126  20.688  1.00  0.00     0.022 C 
ENDBRANCH  14  17
ENDBRANCH   9  14
ENDBRANCH   5   8
ENDBRANCH   3   4
ENDBRANCH   2   3
ENDBRANCH   1   2
BRANCH   1  19
ATOM     19  C   UNL A   1      31.669  30.694  26.327  1.00  0.00     0.002 C 
BRANCH  19  20
ATOM     20  C   UNL A   1      31.426  32.119  26.827  1.00  0.00     0.021 C 
BRANCH  20  21
ATOM     21  C   UNL A   1      32.690  32.954  26.982  1.00  0.00     0.116 C 
BRANCH  21  22
ATOM     22  N   UNL A   1      32.429  34.235  27.621  1.00  0.00    -0.352 N 
ATOM     23  C   UNL A   1      33.049  34.792  28.713  1.00  0.00     0.251 C 
ATOM     24  H   UNL A   1      31.712  34.775  27.218  1.00  0.00     0.163 HD
ATOM     25  O   UNL A   1      32.596  35.798  29.247  1.00  0.00    -0.269 OA
BRANCH  23  26
ATOM     26  C   UNL A   1      34.265  34.149  29.252  1.00  0.00     0.039 A 
ATOM     27  C   UNL A   1      35.519  34.572  28.805  1.00  0.00     0.014 A 
ATOM     28  C   UNL A   1      34.157  33.150  30.223  1.00  0.00     0.014 A 
ATOM     29  C   UNL A   1      36.672  34.035  29.381  1.00  0.00     0.010 A 
ATOM     30  C   UNL A   1      35.302  32.678  30.851  1.00  0.00     0.010 A 
ATOM     31  C   UNL A   1      36.572  33.110  30.432  1.00  0.00    -0.014 A 
BRANCH  31  32
ATOM     32  C   UNL A   1      37.770  32.542  31.100  1.00  0.00     0.031 A 
ATOM     33  C   UNL A   1      38.520  31.420  30.438  1.00  0.00     0.074 A 
ATOM     34  C   UNL A   1      38.121  32.959  32.332  1.00  0.00     0.049 A 
ATOM     35  N   UNL A   1      39.478  30.668  30.913  1.00  0.00    -0.248 NA
ATOM     36  C   UNL A   1      38.108  31.077  29.067  1.00  0.00     0.031 C 
ATOM     37  C   UNL A   1      37.460  34.024  33.088  1.00  0.00     0.029 A 
ATOM     38  N   UNL A   1      39.111  32.518  33.176  1.00  0.00    -0.354 N 
ATOM     39  C   UNL A   1      39.765  29.749  29.911  1.00  0.00     0.074 A 
ATOM     40  C   UNL A   1      38.844  30.003  28.825  1.00  0.00     0.031 C 
ATOM     41  C   UNL A   1      38.067  34.159  34.279  1.00  0.00     0.029 A 
ATOM     42  C   UNL A   1      39.124  33.158  34.392  1.00  0.00     0.049 A 
ATOM     43  H   UNL A   1      39.751  31.810  32.933  1.00  0.00     0.167 HD
ATOM     44  C   UNL A   1      40.724  28.794  29.892  1.00  0.00     0.037 A 
ATOM     45  C   UNL A   1      39.885  32.943  35.483  1.00  0.00     0.037 A 
ATOM     46  C   UNL A   1      41.653  28.566  30.967  1.00  0.00     0.049 A 
ATOM     47  C   UNL A   1      40.925  31.853  35.450  1.00  0.00     0.074 A 
ATOM     48  C   UNL A   1      42.694  27.659  31.026  1.00  0.00     0.029 A 
ATOM     49  N   UNL A   1      41.648  29.252  32.173  1.00  0.00    -0.354 N 
ATOM     50  N   UNL A   1      41.222  31.022  34.480  1.00  0.00    -0.248 NA
ATOM     51  C   UNL A   1      41.737  31.670  36.661  1.00  0.00     0.031 C 
ATOM     52  C   UNL A   1      43.282  27.752  32.290  1.00  0.00     0.029 A 
ATOM     53  C   UNL A   1      42.655  28.770  32.991  1.00  0.00     0.049 A 
ATOM     54  H   UNL A   1      41.023  29.974  32.410  1.00  0.00     0.167 HD
ATOM     55  C   UNL A   1      42.281  30.253  34.944  1.00  0.00     0.074 A 
ATOM     56  C   UNL A   1      42.574  30.713  36.285  1.00  0.00     0.031 C 
ATOM     57  C   UNL A   1      42.955  29.262  34.312  1.00  0.00     0.037 A 
BRANCH  44  58
ATOM     58  C   UNL A   1      40.813  27.919  28.675  1.00  0.00     0.064 A 
ATOM     59  C   UNL A   1      40.090  26.721  28.570  1.00  0.00     0.173 A 
ATOM     60  C   UNL A   1      41.607  28.302  27.583  1.00  0.00     0.173 A 
ATOM     61  F   UNL A   1      39.324  26.303  29.590  1.00  0.00    -0.203 F 
ATOM     62  C   UNL A   1      40.184  25.923  27.433  1.00  0.00     0.198 A 
ATOM     63  C   UNL A   1      41.670  27.520  26.432  1.00  0.00     0.198 A 
ATOM     64  F   UNL A   1      42.316  29.440  27.626  1.00  0.00    -0.203 F 
ATOM     65  F   UNL A   1      39.529  24.755  27.380  1.00  0.00    -0.200 F 
ATOM     66  C   UNL A   1      40.966  26.327  26.362  1.00  0.00     0.200 A 
ATOM     67  F   UNL A   1      42.414  27.921  25.392  1.00  0.00    -0.200 F 
ATOM     68  F   UNL A   1      41.049  25.562  25.265  1.00  0.00    -0.200 F 
ENDBRANCH  44  58
BRANCH  45  69
ATOM     69  C   UNL A   1      39.702  33.781  36.698  1.00  0.00     0.064 A 
ATOM     70  C   UNL A   1      38.901  33.343  37.762  1.00  0.00     0.173 A 
ATOM     71  C   UNL A   1      40.311  35.040  36.819  1.00  0.00     0.173 A 
ATOM     72  F   UNL A   1      38.282  32.155  37.687  1.00  0.00    -0.203 F 
ATOM     73  C   UNL A   1      38.694  34.140  38.887  1.00  0.00     0.198 A 
ATOM     74  C   UNL A   1      40.130  35.822  37.958  1.00  0.00     0.198 A 
ATOM     75  F   UNL A   1      41.093  35.506  35.835  1.00  0.00    -0.203 F 
ATOM     76  F   UNL A   1      37.881  33.716  39.865  1.00  0.00    -0.200 F 
ATOM     77  C   UNL A   1      39.314  35.376  38.987  1.00  0.00     0.200 A 
ATOM     78  F   UNL A   1      40.746  37.008  38.059  1.00  0.00    -0.200 F 
ATOM     79  F   UNL A   1      39.119  36.140  40.070  1.00  0.00    -0.200 F 
ENDBRANCH  45  69
BRANCH  57  80
ATOM     80  C   UNL A   1      44.128  28.646  35.019  1.00  0.00     0.064 A 
ATOM     81  C   UNL A   1      45.416  29.192  34.937  1.00  0.00     0.173 A 
ATOM     82  C   UNL A   1      43.933  27.544  35.868  1.00  0.00     0.173 A 
ATOM     83  F   UNL A   1      45.657  30.236  34.129  1.00  0.00    -0.203 F 
ATOM     84  C   UNL A   1      46.468  28.653  35.673  1.00  0.00     0.198 A 
ATOM     85  C   UNL A   1      44.979  27.028  36.626  1.00  0.00     0.198 A 
ATOM     86  F   UNL A   1      42.716  26.989  35.986  1.00  0.00    -0.203 F 
ATOM     87  F   UNL A   1      47.698  29.171  35.558  1.00  0.00    -0.200 F 
ATOM     88  C   UNL A   1      46.246  27.582  36.527  1.00  0.00     0.200 A 
ATOM     89  F   UNL A   1      44.757  26.007  37.464  1.00  0.00    -0.200 F 
ATOM     90  F   UNL A   1      47.254  27.081  37.253  1.00  0.00    -0.200 F 
ENDBRANCH  57  80
ENDBRANCH  31  32
ENDBRANCH  23  26
ENDBRANCH  21  22
ENDBRANCH  20  21
ENDBRANCH  19  20
ENDBRANCH   1  19
TORSDOF 15
ENDMDL
MODEL 3
REMARK VINA RESULT:     -11.5      0.718      7.572
REMARK SMILES CCS(=O)(=O)N1CCC[C@@H](C(=O)NCCCCCCNC(=O)c2ccc(-c3c4nc(c(-c5c(F)c(F)c(F)c(F)c5F)c5ccc([nH]5)c(-c5c(F)c(F)c(F)c(F)c5F)c5nc(c(-c6c(F)c(F)c(F)c(F)c6F)c6ccc3[nH]6)C=C5)C=C4)cc2)C1
REMARK SMILES IDX 16 1 15 2 14 3 13 4 11 5 12 6 10 8 6 9 7 10 86 11 8 12 9 13
REMARK SMILES IDX 3 14 4 15 5 16 2 17 1 18 17 19 18 20 19 21 20 22 21 23 22 25
REMARK SMILES IDX 23 26 24 27 85 28 25 29 84 30 26 31 27 32 28 33 78 34 29 35
REMARK SMILES IDX 83 36 77 37 79 38 30 39 82 40 76 41 75 42 31 44 63 45 43 46
REMARK SMILES IDX 62 47 44 48 47 49 61 50 80 51 45 52 46 53 60 55 81 56 48 57
REMARK SMILES IDX 32 58 33 59 41 60 34 61 35 62 39 63 42 64 36 65 37 66 40 67
REMARK SMILES IDX 38 68 64 69 65 70 73 71 66 72 67 73 71 74 74 75 68 76 69 77
REMARK SMILES IDX 72 78 70 79 49 80 50 81 58 82 51 83 52 84 56 85 59 86 53 87
REMARK SMILES IDX 54 88 57 89 55 90
REMARK H PARENT 13 7 20 24 79 43 47 54
REMARK Flexibility Score: inf
ROOT
ATOM      1  C   UNL A   1      33.396  30.493  26.763  1.00  0.00     0.002 C 
ENDROOT
BRANCH   1   2
ATOM      2  C   UNL A   1      33.831  29.170  27.403  1.00  0.00     0.021 C 
BRANCH   2   3
ATOM      3  C   UNL A   1      33.967  28.012  26.418  1.00  0.00     0.116 C 
BRANCH   3   4
ATOM      4  N   UNL A   1      34.028  28.478  25.042  1.00  0.00    -0.356 N 
ATOM      5  C   UNL A   1      33.051  28.681  24.113  1.00  0.00     0.224 C 
ATOM      6  O   UNL A   1      33.396  29.098  23.006  1.00  0.00    -0.275 OA
ATOM      7  H   UNL A   1      34.937  28.684  24.725  1.00  0.00     0.163 HD
BRANCH   5   8
ATOM      8  C   UNL A   1      31.589  28.379  24.410  1.00  0.00     0.093 C 
ATOM      9  N   UNL A   1      29.324  28.871  23.389  1.00  0.00    -0.201 NA
ATOM     10  C   UNL A   1      29.136  27.432  23.126  1.00  0.00     0.102 C 
ATOM     11  C   UNL A   1      30.709  29.333  23.606  1.00  0.00     0.115 C 
ATOM     12  C   UNL A   1      29.791  26.627  24.243  1.00  0.00     0.018 C 
ATOM     13  C   UNL A   1      31.286  26.885  24.279  1.00  0.00     0.016 C 
BRANCH   9  14
ATOM     14  S   UNL A   1      28.222  29.962  22.701  1.00  0.00     0.213 S 
ATOM     15  O   UNL A   1      26.900  29.563  23.135  1.00  0.00    -0.212 OA
ATOM     16  O   UNL A   1      28.535  30.077  21.293  1.00  0.00    -0.212 OA
BRANCH  14  17
ATOM     17  C   UNL A   1      28.604  31.551  23.461  1.00  0.00     0.151 C 
ATOM     18  C   UNL A   1      28.779  32.690  22.468  1.00  0.00     0.022 C 
ENDBRANCH  14  17
ENDBRANCH   9  14
ENDBRANCH   5   8
ENDBRANCH   3   4
ENDBRANCH   2   3
ENDBRANCH   1   2
BRANCH   1  19
ATOM     19  C   UNL A   1      31.910  30.834  26.924  1.00  0.00     0.002 C 
BRANCH  19  20
ATOM     20  C   UNL A   1      31.595  32.329  26.992  1.00  0.00     0.021 C 
BRANCH  20  21
ATOM     21  C   UNL A   1      32.825  33.228  27.041  1.00  0.00     0.116 C 
BRANCH  21  22
ATOM     22  N   UNL A   1      32.533  34.528  27.626  1.00  0.00    -0.352 N 
ATOM     23  C   UNL A   1      33.006  35.067  28.798  1.00  0.00     0.251 C 
ATOM     24  H   UNL A   1      31.915  35.097  27.115  1.00  0.00     0.163 HD
ATOM     25  O   UNL A   1      32.528  36.101  29.252  1.00  0.00    -0.269 OA
BRANCH  23  26
ATOM     26  C   UNL A   1      34.091  34.373  29.520  1.00  0.00     0.039 A 
ATOM     27  C   UNL A   1      33.771  33.518  30.578  1.00  0.00     0.014 A 
ATOM     28  C   UNL A   1      35.420  34.548  29.126  1.00  0.00     0.014 A 
ATOM     29  C   UNL A   1      34.784  32.786  31.201  1.00  0.00     0.010 A 
ATOM     30  C   UNL A   1      36.413  33.759  29.691  1.00  0.00     0.010 A 
ATOM     31  C   UNL A   1      36.107  32.875  30.740  1.00  0.00    -0.014 A 
BRANCH  31  32
ATOM     32  C   UNL A   1      37.209  32.087  31.346  1.00  0.00     0.031 A 
ATOM     33  C   UNL A   1      37.720  32.463  32.709  1.00  0.00     0.074 A 
ATOM     34  C   UNL A   1      37.811  31.109  30.642  1.00  0.00     0.049 A 
ATOM     35  N   UNL A   1      38.774  32.029  33.350  1.00  0.00    -0.248 NA
ATOM     36  C   UNL A   1      36.959  33.495  33.432  1.00  0.00     0.031 C 
ATOM     37  C   UNL A   1      37.422  30.665  29.303  1.00  0.00     0.029 A 
ATOM     38  N   UNL A   1      38.898  30.326  30.949  1.00  0.00    -0.354 N 
ATOM     39  C   UNL A   1      38.815  32.751  34.536  1.00  0.00     0.074 A 
ATOM     40  C   UNL A   1      37.715  33.689  34.502  1.00  0.00     0.031 C 
ATOM     41  C   UNL A   1      38.252  29.686  28.907  1.00  0.00     0.029 A 
ATOM     42  C   UNL A   1      39.261  29.468  29.939  1.00  0.00     0.049 A 
ATOM     43  H   UNL A   1      39.372  30.377  31.810  1.00  0.00     0.167 HD
ATOM     44  C   UNL A   1      39.683  32.628  35.568  1.00  0.00     0.037 A 
ATOM     45  C   UNL A   1      40.304  28.620  29.848  1.00  0.00     0.037 A 
ATOM     46  C   UNL A   1      40.759  31.675  35.604  1.00  0.00     0.049 A 
ATOM     47  C   UNL A   1      41.274  28.523  30.997  1.00  0.00     0.074 A 
ATOM     48  C   UNL A   1      41.662  31.435  36.624  1.00  0.00     0.029 A 
ATOM     49  N   UNL A   1      41.079  30.805  34.572  1.00  0.00    -0.354 N 
ATOM     50  N   UNL A   1      41.278  29.175  32.135  1.00  0.00    -0.248 NA
ATOM     51  C   UNL A   1      42.387  27.573  30.851  1.00  0.00     0.031 C 
ATOM     52  C   UNL A   1      42.566  30.464  36.186  1.00  0.00     0.029 A 
ATOM     53  C   UNL A   1      42.181  30.045  34.922  1.00  0.00     0.049 A 
ATOM     54  H   UNL A   1      40.594  30.739  33.717  1.00  0.00     0.167 HD
ATOM     55  C   UNL A   1      42.357  28.683  32.856  1.00  0.00     0.074 A 
ATOM     56  C   UNL A   1      42.990  27.679  32.027  1.00  0.00     0.031 C 
ATOM     57  C   UNL A   1      42.779  29.026  34.097  1.00  0.00     0.037 A 
BRANCH  44  58
ATOM     58  C   UNL A   1      39.508  33.551  36.740  1.00  0.00     0.064 A 
ATOM     59  C   UNL A   1      38.750  33.187  37.863  1.00  0.00     0.173 A 
ATOM     60  C   UNL A   1      40.138  34.806  36.754  1.00  0.00     0.173 A 
ATOM     61  F   UNL A   1      38.118  32.004  37.897  1.00  0.00    -0.203 F 
ATOM     62  C   UNL A   1      38.601  34.056  38.941  1.00  0.00     0.198 A 
ATOM     63  C   UNL A   1      40.017  35.657  37.850  1.00  0.00     0.198 A 
ATOM     64  F   UNL A   1      40.880  35.203  35.710  1.00  0.00    -0.203 F 
ATOM     65  F   UNL A   1      37.825  33.710  39.977  1.00  0.00    -0.200 F 
ATOM     66  C   UNL A   1      39.242  35.286  38.937  1.00  0.00     0.200 A 
ATOM     67  F   UNL A   1      40.650  36.838  37.850  1.00  0.00    -0.200 F 
ATOM     68  F   UNL A   1      39.104  36.118  39.979  1.00  0.00    -0.200 F 
ENDBRANCH  44  58
BRANCH  45  69
ATOM     69  C   UNL A   1      40.484  27.786  28.629  1.00  0.00     0.064 A 
ATOM     70  C   UNL A   1      41.271  28.234  27.559  1.00  0.00     0.173 A 
ATOM     71  C   UNL A   1      39.867  26.532  28.501  1.00  0.00     0.173 A 
ATOM     72  F   UNL A   1      41.868  29.434  27.625  1.00  0.00    -0.203 F 
ATOM     73  C   UNL A   1      41.413  27.475  26.399  1.00  0.00     0.198 A 
ATOM     74  C   UNL A   1      40.036  25.759  27.354  1.00  0.00     0.198 A 
ATOM     75  F   UNL A   1      39.109  26.051  29.497  1.00  0.00    -0.203 F 
ATOM     76  F   UNL A   1      42.129  27.953  25.372  1.00  0.00    -0.200 F 
ATOM     77  C   UNL A   1      40.800  26.235  26.300  1.00  0.00     0.200 A 
ATOM     78  F   UNL A   1      39.457  24.553  27.270  1.00  0.00    -0.200 F 
ATOM     79  F   UNL A   1      40.940  25.504  25.187  1.00  0.00    -0.200 F 
ENDBRANCH  45  69
BRANCH  57  80
ATOM     80  C   UNL A   1      43.936  28.268  34.682  1.00  0.00     0.064 A 
ATOM     81  C   UNL A   1      45.263  28.678  34.498  1.00  0.00     0.173 A 
ATOM     82  C   UNL A   1      43.697  27.164  35.518  1.00  0.00     0.173 A 
ATOM     83  F   UNL A   1      45.544  29.717  33.697  1.00  0.00    -0.203 F 
ATOM     84  C   UNL A   1      46.311  28.007  35.124  1.00  0.00     0.198 A 
ATOM     85  C   UNL A   1      44.744  26.517  36.168  1.00  0.00     0.198 A 
ATOM     86  F   UNL A   1      42.444  26.736  35.732  1.00  0.00    -0.203 F 
ATOM     87  F   UNL A   1      47.575  28.397  34.912  1.00  0.00    -0.200 F 
ATOM     88  C   UNL A   1      46.050  26.938  35.969  1.00  0.00     0.200 A 
ATOM     89  F   UNL A   1      44.486  25.497  36.998  1.00  0.00    -0.200 F 
ATOM     90  F   UNL A   1      47.057  26.310  36.590  1.00  0.00    -0.200 F 
ENDBRANCH  57  80
ENDBRANCH  31  32
ENDBRANCH  23  26
ENDBRANCH  21  22
ENDBRANCH  20  21
ENDBRANCH  19  20
ENDBRANCH   1  19
TORSDOF 15
ENDMDL
