MODEL 1
REMARK VINA RESULT:     -12.6      0.000      0.000
REMARK SMILES CC1(C)[C@H](C(=O)NCCCCCCNC(=O)c2ccc(-c3c4nc(c(-c5c(F)c(F)c(F)c(F)c5F)c5ccc([nH]5)c(-c5c(F)c(F)c(F)c(F)c5F)c5nc(c(-c6c(F)c(F)c(F)c(F)c6F)c6ccc3[nH]6)C=C5)C=C4)cc2)[C@H]1C(=O)Nc1nc(-c2ccco2)n[nH]1
REMARK SMILES IDX 10 1 9 2 8 3 7 4 5 5 6 6 4 8 1 9 2 10 3 11 80 12 81 13 82 14
REMARK SMILES IDX 83 15 84 17 85 18 93 19 86 20 92 21 87 23 88 24 91 25 89 26
REMARK SMILES IDX 90 27 11 28 12 29 13 30 14 31 15 32 16 34 17 35 18 36 79 37
REMARK SMILES IDX 19 38 78 39 20 40 21 41 22 42 72 43 23 44 77 45 71 46 73 47
REMARK SMILES IDX 24 48 76 49 70 50 69 51 25 53 57 54 37 55 56 56 38 57 41 58
REMARK SMILES IDX 55 59 74 60 39 61 40 62 54 64 75 65 42 66 26 67 27 68 35 69
REMARK SMILES IDX 28 70 29 71 33 72 36 73 30 74 31 75 34 76 32 77 58 78 59 79
REMARK SMILES IDX 67 80 60 81 61 82 65 83 68 84 62 85 63 86 66 87 64 88 43 89
REMARK SMILES IDX 44 90 52 91 45 92 46 93 50 94 53 95 47 96 48 97 51 98 49 99
REMARK H PARENT 7 7 83 16 93 22 14 33 73 52 41 63
REMARK Flexibility Score: inf
ROOT
ATOM      1  C   UNL A   1      31.389  30.103  25.401  1.00  0.00     0.002 C 
ENDROOT
BRANCH   1   2
ATOM      2  C   UNL A   1      32.081  29.392  26.568  1.00  0.00     0.021 C 
BRANCH   2   3
ATOM      3  C   UNL A   1      33.469  28.842  26.234  1.00  0.00     0.116 C 
BRANCH   3   4
ATOM      4  N   UNL A   1      33.798  29.094  24.852  1.00  0.00    -0.356 N 
ATOM      5  C   UNL A   1      33.914  28.325  23.732  1.00  0.00     0.224 C 
ATOM      6  O   UNL A   1      34.362  28.904  22.741  1.00  0.00    -0.275 OA
ATOM      7  H   UNL A   1      33.981  30.045  24.676  1.00  0.00     0.163 HD
BRANCH   5   8
ATOM      8  C   UNL A   1      33.499  26.908  23.547  1.00  0.00     0.098 C 
ATOM      9  C   UNL A   1      33.893  24.355  23.738  1.00  0.00     0.013 C 
ATOM     10  C   UNL A   1      33.563  25.662  24.429  1.00  0.00    -0.011 C 
ATOM     11  C   UNL A   1      34.145  25.703  25.815  1.00  0.00     0.013 C 
ATOM     12  C   UNL A   1      32.224  26.365  24.134  1.00  0.00     0.098 C 
BRANCH  12  13
ATOM     13  C   UNL A   1      31.124  25.792  23.289  1.00  0.00     0.231 C 
ATOM     14  O   UNL A   1      31.406  25.115  22.315  1.00  0.00    -0.274 OA
ATOM     15  N   UNL A   1      29.847  25.902  23.778  1.00  0.00    -0.295 N 
ATOM     16  H   UNL A   1      29.481  25.171  24.327  1.00  0.00     0.173 HD
BRANCH  15  17
ATOM     17  C   UNL A   1      29.065  26.997  23.529  1.00  0.00     0.225 A 
ATOM     18  N   UNL A   1      29.480  28.157  23.084  1.00  0.00    -0.188 NA
ATOM     19  N   UNL A   1      27.717  27.059  23.724  1.00  0.00    -0.244 N 
ATOM     20  C   UNL A   1      28.311  28.853  22.867  1.00  0.00     0.218 A 
ATOM     21  N   UNL A   1      27.203  28.207  23.267  1.00  0.00    -0.149 NA
ATOM     22  H   UNL A   1      27.187  26.347  24.150  1.00  0.00     0.193 HD
BRANCH  20  23
ATOM     23  C   UNL A   1      28.267  30.202  22.226  1.00  0.00     0.173 A 
ATOM     24  C   UNL A   1      28.430  31.410  22.881  1.00  0.00     0.054 A 
ATOM     25  O   UNL A   1      28.046  30.437  20.896  1.00  0.00    -0.461 OA
ATOM     26  C   UNL A   1      28.316  32.427  21.902  1.00  0.00     0.043 A 
ATOM     27  C   UNL A   1      28.073  31.782  20.713  1.00  0.00     0.196 A 
ENDBRANCH  20  23
ENDBRANCH  15  17
ENDBRANCH  12  13
ENDBRANCH   5   8
ENDBRANCH   3   4
ENDBRANCH   2   3
ENDBRANCH   1   2
BRANCH   1  28
ATOM     28  C   UNL A   1      30.970  31.549  25.680  1.00  0.00     0.002 C 
BRANCH  28  29
ATOM     29  C   UNL A   1      31.371  32.091  27.054  1.00  0.00     0.021 C 
BRANCH  29  30
ATOM     30  C   UNL A   1      32.660  32.906  27.066  1.00  0.00     0.116 C 
BRANCH  30  31
ATOM     31  N   UNL A   1      32.441  34.259  27.551  1.00  0.00    -0.352 N 
ATOM     32  C   UNL A   1      33.000  34.904  28.624  1.00  0.00     0.251 C 
ATOM     33  H   UNL A   1      31.794  34.791  27.033  1.00  0.00     0.163 HD
ATOM     34  O   UNL A   1      32.526  35.963  29.022  1.00  0.00    -0.269 OA
BRANCH  32  35
ATOM     35  C   UNL A   1      34.172  34.320  29.311  1.00  0.00     0.039 A 
ATOM     36  C   UNL A   1      33.965  33.530  30.445  1.00  0.00     0.014 A 
ATOM     37  C   UNL A   1      35.470  34.576  28.860  1.00  0.00     0.014 A 
ATOM     38  C   UNL A   1      35.057  32.960  31.100  1.00  0.00     0.010 A 
ATOM     39  C   UNL A   1      36.552  33.947  29.469  1.00  0.00     0.010 A 
ATOM     40  C   UNL A   1      36.358  33.142  30.602  1.00  0.00    -0.014 A 
BRANCH  40  41
ATOM     41  C   UNL A   1      37.525  32.507  31.264  1.00  0.00     0.031 A 
ATOM     42  C   UNL A   1      38.261  31.383  30.587  1.00  0.00     0.074 A 
ATOM     43  C   UNL A   1      37.890  32.907  32.497  1.00  0.00     0.049 A 
ATOM     44  N   UNL A   1      39.270  30.671  31.022  1.00  0.00    -0.248 NA
ATOM     45  C   UNL A   1      37.783  30.990  29.251  1.00  0.00     0.031 C 
ATOM     46  C   UNL A   1      37.225  33.952  33.276  1.00  0.00     0.029 A 
ATOM     47  N   UNL A   1      38.904  32.476  33.316  1.00  0.00    -0.354 N 
ATOM     48  C   UNL A   1      39.536  29.742  30.025  1.00  0.00     0.074 A 
ATOM     49  C   UNL A   1      38.550  29.943  28.985  1.00  0.00     0.031 C 
ATOM     50  C   UNL A   1      37.862  34.099  34.449  1.00  0.00     0.029 A 
ATOM     51  C   UNL A   1      38.955  33.133  34.521  1.00  0.00     0.049 A 
ATOM     52  H   UNL A   1      39.535  31.764  33.063  1.00  0.00     0.167 HD
ATOM     53  C   UNL A   1      40.528  28.822  29.970  1.00  0.00     0.037 A 
ATOM     54  C   UNL A   1      39.788  32.971  35.567  1.00  0.00     0.037 A 
ATOM     55  C   UNL A   1      41.522  28.643  30.997  1.00  0.00     0.049 A 
ATOM     56  C   UNL A   1      40.881  31.941  35.480  1.00  0.00     0.074 A 
ATOM     57  C   UNL A   1      42.603  27.778  31.011  1.00  0.00     0.029 A 
ATOM     58  N   UNL A   1      41.555  29.341  32.195  1.00  0.00    -0.354 N 
ATOM     59  N   UNL A   1      41.167  31.116  34.501  1.00  0.00    -0.248 NA
ATOM     60  C   UNL A   1      41.775  31.827  36.640  1.00  0.00     0.031 C 
ATOM     61  C   UNL A   1      43.259  27.917  32.238  1.00  0.00     0.029 A 
ATOM     62  C   UNL A   1      42.624  28.911  32.965  1.00  0.00     0.049 A 
ATOM     63  H   UNL A   1      40.913  30.039  32.459  1.00  0.00     0.167 HD
ATOM     64  C   UNL A   1      42.290  30.411  34.912  1.00  0.00     0.074 A 
ATOM     65  C   UNL A   1      42.643  30.916  36.222  1.00  0.00     0.031 C 
ATOM     66  C   UNL A   1      42.967  29.432  34.263  1.00  0.00     0.037 A 
BRANCH  53  67
ATOM     67  C   UNL A   1      40.592  27.937  28.758  1.00  0.00     0.064 A 
ATOM     68  C   UNL A   1      39.876  26.732  28.687  1.00  0.00     0.173 A 
ATOM     69  C   UNL A   1      41.347  28.316  27.638  1.00  0.00     0.173 A 
ATOM     70  F   UNL A   1      39.147  26.315  29.734  1.00  0.00    -0.203 F 
ATOM     71  C   UNL A   1      39.935  25.928  27.551  1.00  0.00     0.198 A 
ATOM     72  C   UNL A   1      41.378  27.526  26.492  1.00  0.00     0.198 A 
ATOM     73  F   UNL A   1      42.047  29.461  27.650  1.00  0.00    -0.203 F 
ATOM     74  F   UNL A   1      39.282  24.758  27.525  1.00  0.00    -0.200 F 
ATOM     75  C   UNL A   1      40.679  26.330  26.452  1.00  0.00     0.200 A 
ATOM     76  F   UNL A   1      42.086  27.922  25.425  1.00  0.00    -0.200 F 
ATOM     77  F   UNL A   1      40.727  25.559  25.356  1.00  0.00    -0.200 F 
ENDBRANCH  53  67
BRANCH  54  78
ATOM     78  C   UNL A   1      39.635  33.820  36.778  1.00  0.00     0.064 A 
ATOM     79  C   UNL A   1      38.853  33.395  37.862  1.00  0.00     0.173 A 
ATOM     80  C   UNL A   1      40.255  35.074  36.874  1.00  0.00     0.173 A 
ATOM     81  F   UNL A   1      38.225  32.210  37.810  1.00  0.00    -0.203 F 
ATOM     82  C   UNL A   1      38.675  34.203  38.982  1.00  0.00     0.198 A 
ATOM     83  C   UNL A   1      40.100  35.869  38.009  1.00  0.00     0.198 A 
ATOM     84  F   UNL A   1      41.019  35.525  35.868  1.00  0.00    -0.203 F 
ATOM     85  F   UNL A   1      37.879  33.795  39.980  1.00  0.00    -0.200 F 
ATOM     86  C   UNL A   1      39.303  35.436  39.057  1.00  0.00     0.200 A 
ATOM     87  F   UNL A   1      40.723  37.053  38.084  1.00  0.00    -0.200 F 
ATOM     88  F   UNL A   1      39.133  36.214  40.136  1.00  0.00    -0.200 F 
ENDBRANCH  54  78
BRANCH  66  89
ATOM     89  C   UNL A   1      44.186  28.874  34.941  1.00  0.00     0.064 A 
ATOM     90  C   UNL A   1      44.118  27.750  35.777  1.00  0.00     0.173 A 
ATOM     91  C   UNL A   1      45.445  29.456  34.726  1.00  0.00     0.173 A 
ATOM     92  F   UNL A   1      42.937  27.164  36.027  1.00  0.00    -0.203 F 
ATOM     93  C   UNL A   1      45.259  27.250  36.399  1.00  0.00     0.198 A 
ATOM     94  C   UNL A   1      46.589  28.933  35.322  1.00  0.00     0.198 A 
ATOM     95  F   UNL A   1      45.567  30.528  33.929  1.00  0.00    -0.203 F 
ATOM     96  F   UNL A   1      45.162  26.210  37.239  1.00  0.00    -0.200 F 
ATOM     97  C   UNL A   1      46.494  27.837  36.165  1.00  0.00     0.200 A 
ATOM     98  F   UNL A   1      47.783  29.493  35.082  1.00  0.00    -0.200 F 
ATOM     99  F   UNL A   1      47.593  27.351  36.759  1.00  0.00    -0.200 F 
ENDBRANCH  66  89
ENDBRANCH  40  41
ENDBRANCH  32  35
ENDBRANCH  30  31
ENDBRANCH  29  30
ENDBRANCH  28  29
ENDBRANCH   1  28
TORSDOF 16
ENDMDL
MODEL 2
REMARK VINA RESULT:     -12.4      5.501     10.710
REMARK SMILES CC1(C)[C@H](C(=O)NCCCCCCNC(=O)c2ccc(-c3c4nc(c(-c5c(F)c(F)c(F)c(F)c5F)c5ccc([nH]5)c(-c5c(F)c(F)c(F)c(F)c5F)c5nc(c(-c6c(F)c(F)c(F)c(F)c6F)c6ccc3[nH]6)C=C5)C=C4)cc2)[C@H]1C(=O)Nc1nc(-c2ccco2)n[nH]1
REMARK SMILES IDX 10 1 9 2 8 3 7 4 5 5 6 6 4 8 1 9 2 10 3 11 80 12 81 13 82 14
REMARK SMILES IDX 83 15 84 17 85 18 93 19 86 20 92 21 87 23 88 24 91 25 89 26
REMARK SMILES IDX 90 27 11 28 12 29 13 30 14 31 15 32 16 34 17 35 18 36 79 37
REMARK SMILES IDX 19 38 78 39 20 40 21 41 22 42 72 43 23 44 77 45 71 46 73 47
REMARK SMILES IDX 24 48 76 49 70 50 69 51 25 53 57 54 37 55 56 56 38 57 41 58
REMARK SMILES IDX 55 59 74 60 39 61 40 62 54 64 75 65 42 66 26 67 27 68 35 69
REMARK SMILES IDX 28 70 29 71 33 72 36 73 30 74 31 75 34 76 32 77 58 78 59 79
REMARK SMILES IDX 67 80 60 81 61 82 65 83 68 84 62 85 63 86 66 87 64 88 43 89
REMARK SMILES IDX 44 90 52 91 45 92 46 93 50 94 53 95 47 96 48 97 51 98 49 99
REMARK H PARENT 7 7 83 16 93 22 14 33 73 52 41 63
REMARK Flexibility Score: inf
ROOT
ATOM      1  C   UNL A   1      37.173  21.592  24.897  1.00  0.00     0.002 C 
ENDROOT
BRANCH   1   2
ATOM      2  C   UNL A   1      36.257  22.429  25.794  1.00  0.00     0.021 C 
BRANCH   2   3
ATOM      3  C   UNL A   1      36.178  23.907  25.406  1.00  0.00     0.116 C 
BRANCH   3   4
ATOM      4  N   UNL A   1      35.502  24.067  24.142  1.00  0.00    -0.356 N 
ATOM      5  C   UNL A   1      34.309  24.596  23.745  1.00  0.00     0.224 C 
ATOM      6  O   UNL A   1      34.021  24.412  22.561  1.00  0.00    -0.275 OA
ATOM      7  H   UNL A   1      36.024  23.709  23.388  1.00  0.00     0.163 HD
BRANCH   5   8
ATOM      8  C   UNL A   1      33.363  25.422  24.543  1.00  0.00     0.098 C 
ATOM      9  C   UNL A   1      31.184  25.750  25.903  1.00  0.00     0.013 C 
ATOM     10  C   UNL A   1      32.590  25.190  25.840  1.00  0.00    -0.011 C 
ATOM     11  C   UNL A   1      32.692  23.898  26.603  1.00  0.00     0.013 C 
ATOM     12  C   UNL A   1      33.793  26.152  25.787  1.00  0.00     0.098 C 
BRANCH  12  13
ATOM     13  C   UNL A   1      33.702  27.644  25.922  1.00  0.00     0.231 C 
ATOM     14  O   UNL A   1      33.720  28.149  27.031  1.00  0.00    -0.274 OA
ATOM     15  N   UNL A   1      33.801  28.376  24.765  1.00  0.00    -0.295 N 
ATOM     16  H   UNL A   1      34.686  28.695  24.476  1.00  0.00     0.173 HD
BRANCH  15  17
ATOM     17  C   UNL A   1      32.707  28.675  23.999  1.00  0.00     0.225 A 
ATOM     18  N   UNL A   1      31.528  29.035  24.442  1.00  0.00    -0.188 NA
ATOM     19  N   UNL A   1      32.666  28.625  22.636  1.00  0.00    -0.244 N 
ATOM     20  C   UNL A   1      30.838  29.356  23.294  1.00  0.00     0.218 A 
ATOM     21  N   UNL A   1      31.509  29.100  22.159  1.00  0.00    -0.149 NA
ATOM     22  H   UNL A   1      33.397  28.282  22.074  1.00  0.00     0.193 HD
BRANCH  20  23
ATOM     23  C   UNL A   1      29.470  29.956  23.300  1.00  0.00     0.173 A 
ATOM     24  C   UNL A   1      28.332  29.370  22.774  1.00  0.00     0.054 A 
ATOM     25  O   UNL A   1      29.147  31.181  23.818  1.00  0.00    -0.461 OA
ATOM     26  C   UNL A   1      27.265  30.274  22.993  1.00  0.00     0.043 A 
ATOM     27  C   UNL A   1      27.816  31.364  23.622  1.00  0.00     0.196 A 
ENDBRANCH  20  23
ENDBRANCH  15  17
ENDBRANCH  12  13
ENDBRANCH   5   8
ENDBRANCH   3   4
ENDBRANCH   2   3
ENDBRANCH   1   2
BRANCH   1  28
ATOM     28  C   UNL A   1      36.903  20.085  24.921  1.00  0.00     0.002 C 
BRANCH  28  29
ATOM     29  C   UNL A   1      38.150  19.200  24.980  1.00  0.00     0.021 C 
BRANCH  29  30
ATOM     30  C   UNL A   1      39.328  19.811  25.733  1.00  0.00     0.116 C 
BRANCH  30  31
ATOM     31  N   UNL A   1      40.410  18.856  25.911  1.00  0.00    -0.352 N 
ATOM     32  C   UNL A   1      41.752  19.079  26.085  1.00  0.00     0.251 C 
ATOM     33  H   UNL A   1      40.139  17.909  25.906  1.00  0.00     0.163 HD
ATOM     34  O   UNL A   1      42.548  18.151  25.987  1.00  0.00    -0.269 OA
BRANCH  32  35
ATOM     35  C   UNL A   1      42.244  20.441  26.383  1.00  0.00     0.039 A 
ATOM     36  C   UNL A   1      42.642  21.261  25.324  1.00  0.00     0.014 A 
ATOM     37  C   UNL A   1      42.345  20.895  27.701  1.00  0.00     0.014 A 
ATOM     38  C   UNL A   1      43.097  22.554  25.584  1.00  0.00     0.010 A 
ATOM     39  C   UNL A   1      42.729  22.209  27.953  1.00  0.00     0.010 A 
ATOM     40  C   UNL A   1      43.121  23.048  26.899  1.00  0.00    -0.014 A 
BRANCH  40  41
ATOM     41  C   UNL A   1      43.564  24.436  27.186  1.00  0.00     0.031 A 
ATOM     42  C   UNL A   1      42.587  25.446  27.723  1.00  0.00     0.074 A 
ATOM     43  C   UNL A   1      44.831  24.799  26.914  1.00  0.00     0.049 A 
ATOM     44  N   UNL A   1      42.770  26.716  27.990  1.00  0.00    -0.248 NA
ATOM     45  C   UNL A   1      41.215  24.974  27.970  1.00  0.00     0.031 C 
ATOM     46  C   UNL A   1      45.857  23.924  26.346  1.00  0.00     0.029 A 
ATOM     47  N   UNL A   1      45.472  26.003  27.070  1.00  0.00    -0.354 N 
ATOM     48  C   UNL A   1      41.539  27.193  28.419  1.00  0.00     0.074 A 
ATOM     49  C   UNL A   1      40.603  26.093  28.328  1.00  0.00     0.031 C 
ATOM     50  C   UNL A   1      47.003  24.612  26.223  1.00  0.00     0.029 A 
ATOM     51  C   UNL A   1      46.784  25.985  26.667  1.00  0.00     0.049 A 
ATOM     52  H   UNL A   1      45.031  26.804  27.436  1.00  0.00     0.167 HD
ATOM     53  C   UNL A   1      41.223  28.428  28.875  1.00  0.00     0.037 A 
ATOM     54  C   UNL A   1      47.706  26.967  26.655  1.00  0.00     0.037 A 
ATOM     55  C   UNL A   1      42.164  29.513  28.988  1.00  0.00     0.049 A 
ATOM     56  C   UNL A   1      47.328  28.331  27.164  1.00  0.00     0.074 A 
ATOM     57  C   UNL A   1      41.959  30.786  29.490  1.00  0.00     0.029 A 
ATOM     58  N   UNL A   1      43.492  29.450  28.590  1.00  0.00    -0.354 N 
ATOM     59  N   UNL A   1      46.179  28.752  27.636  1.00  0.00    -0.248 NA
ATOM     60  C   UNL A   1      48.381  29.356  27.151  1.00  0.00     0.031 C 
ATOM     61  C   UNL A   1      43.147  31.510  29.349  1.00  0.00     0.029 A 
ATOM     62  C   UNL A   1      44.112  30.670  28.815  1.00  0.00     0.049 A 
ATOM     63  H   UNL A   1      43.930  28.657  28.204  1.00  0.00     0.167 HD
ATOM     64  C   UNL A   1      46.379  30.075  28.005  1.00  0.00     0.074 A 
ATOM     65  C   UNL A   1      47.764  30.384  27.718  1.00  0.00     0.031 C 
ATOM     66  C   UNL A   1      45.495  30.957  28.533  1.00  0.00     0.037 A 
BRANCH  53  67
ATOM     67  C   UNL A   1      39.801  28.678  29.288  1.00  0.00     0.064 A 
ATOM     68  C   UNL A   1      39.371  28.474  30.608  1.00  0.00     0.173 A 
ATOM     69  C   UNL A   1      38.865  29.166  28.363  1.00  0.00     0.173 A 
ATOM     70  F   UNL A   1      40.220  27.997  31.530  1.00  0.00    -0.203 F 
ATOM     71  C   UNL A   1      38.051  28.723  30.979  1.00  0.00     0.198 A 
ATOM     72  C   UNL A   1      37.556  29.445  28.746  1.00  0.00     0.198 A 
ATOM     73  F   UNL A   1      39.224  29.385  27.089  1.00  0.00    -0.203 F 
ATOM     74  F   UNL A   1      37.651  28.473  32.233  1.00  0.00    -0.200 F 
ATOM     75  C   UNL A   1      37.148  29.216  30.050  1.00  0.00     0.200 A 
ATOM     76  F   UNL A   1      36.687  29.935  27.850  1.00  0.00    -0.200 F 
ATOM     77  F   UNL A   1      35.881  29.464  30.412  1.00  0.00    -0.200 F 
ENDBRANCH  53  67
BRANCH  54  78
ATOM     78  C   UNL A   1      49.082  26.691  26.162  1.00  0.00     0.064 A 
ATOM     79  C   UNL A   1      49.449  26.992  24.843  1.00  0.00     0.173 A 
ATOM     80  C   UNL A   1      50.052  26.111  26.992  1.00  0.00     0.173 A 
ATOM     81  F   UNL A   1      48.550  27.530  24.004  1.00  0.00    -0.203 F 
ATOM     82  C   UNL A   1      50.724  26.699  24.365  1.00  0.00     0.198 A 
ATOM     83  C   UNL A   1      51.337  25.847  26.522  1.00  0.00     0.198 A 
ATOM     84  F   UNL A   1      49.754  25.810  28.265  1.00  0.00    -0.203 F 
ATOM     85  F   UNL A   1      51.031  26.948  23.085  1.00  0.00    -0.200 F 
ATOM     86  C   UNL A   1      51.668  26.132  25.207  1.00  0.00     0.200 A 
ATOM     87  F   UNL A   1      52.252  25.315  27.344  1.00  0.00    -0.200 F 
ATOM     88  F   UNL A   1      52.896  25.852  24.748  1.00  0.00    -0.200 F 
ENDBRANCH  54  78
BRANCH  66  89
ATOM     89  C   UNL A   1      46.010  32.325  28.877  1.00  0.00     0.064 A 
ATOM     90  C   UNL A   1      45.961  33.386  27.960  1.00  0.00     0.173 A 
ATOM     91  C   UNL A   1      46.532  32.585  30.153  1.00  0.00     0.173 A 
ATOM     92  F   UNL A   1      45.485  33.187  26.722  1.00  0.00    -0.203 F 
ATOM     93  C   UNL A   1      46.448  34.647  28.298  1.00  0.00     0.198 A 
ATOM     94  C   UNL A   1      46.985  33.854  30.499  1.00  0.00     0.198 A 
ATOM     95  F   UNL A   1      46.593  31.608  31.071  1.00  0.00    -0.203 F 
ATOM     96  F   UNL A   1      46.444  35.630  27.387  1.00  0.00    -0.200 F 
ATOM     97  C   UNL A   1      46.952  34.882  29.568  1.00  0.00     0.200 A 
ATOM     98  F   UNL A   1      47.457  34.083  31.732  1.00  0.00    -0.200 F 
ATOM     99  F   UNL A   1      47.413  36.097  29.894  1.00  0.00    -0.200 F 
ENDBRANCH  66  89
ENDBRANCH  40  41
ENDBRANCH  32  35
ENDBRANCH  30  31
ENDBRANCH  29  30
ENDBRANCH  28  29
ENDBRANCH   1  28
TORSDOF 16
ENDMDL
MODEL 3
REMARK VINA RESULT:     -12.4      0.564      7.256
REMARK SMILES CC1(C)[C@H](C(=O)NCCCCCCNC(=O)c2ccc(-c3c4nc(c(-c5c(F)c(F)c(F)c(F)c5F)c5ccc([nH]5)c(-c5c(F)c(F)c(F)c(F)c5F)c5nc(c(-c6c(F)c(F)c(F)c(F)c6F)c6ccc3[nH]6)C=C5)C=C4)cc2)[C@H]1C(=O)Nc1nc(-c2ccco2)n[nH]1
REMARK SMILES IDX 10 1 9 2 8 3 7 4 5 5 6 6 4 8 1 9 2 10 3 11 80 12 81 13 82 14
REMARK SMILES IDX 83 15 84 17 85 18 93 19 86 20 92 21 87 23 88 24 91 25 89 26
REMARK SMILES IDX 90 27 11 28 12 29 13 30 14 31 15 32 16 34 17 35 18 36 79 37
REMARK SMILES IDX 19 38 78 39 20 40 21 41 22 42 72 43 23 44 77 45 71 46 73 47
REMARK SMILES IDX 24 48 76 49 70 50 69 51 25 53 57 54 37 55 56 56 38 57 41 58
REMARK SMILES IDX 55 59 74 60 39 61 40 62 54 64 75 65 42 66 26 67 27 68 35 69
REMARK SMILES IDX 28 70 29 71 33 72 36 73 30 74 31 75 34 76 32 77 58 78 59 79
REMARK SMILES IDX 67 80 60 81 61 82 65 83 68 84 62 85 63 86 66 87 64 88 43 89
REMARK SMILES IDX 44 90 52 91 45 92 46 93 50 94 53 95 47 96 48 97 51 98 49 99
REMARK H PARENT 7 7 83 16 93 22 14 33 73 52 41 63
REMARK Flexibility Score: inf
ROOT
ATOM      1  C   UNL A   1      31.390  29.835  25.651  1.00  0.00     0.002 C 
ENDROOT
BRANCH   1   2
ATOM      2  C   UNL A   1      32.294  29.306  26.768  1.00  0.00     0.021 C 
BRANCH   2   3
ATOM      3  C   UNL A   1      33.592  28.663  26.273  1.00  0.00     0.116 C 
BRANCH   3   4
ATOM      4  N   UNL A   1      33.786  28.924  24.867  1.00  0.00    -0.356 N 
ATOM      5  C   UNL A   1      33.849  28.155  23.743  1.00  0.00     0.224 C 
ATOM      6  O   UNL A   1      34.177  28.752  22.717  1.00  0.00    -0.275 OA
ATOM      7  H   UNL A   1      33.899  29.883  24.675  1.00  0.00     0.163 HD
BRANCH   5   8
ATOM      8  C   UNL A   1      33.501  26.715  23.597  1.00  0.00     0.098 C 
ATOM      9  C   UNL A   1      34.045  24.190  23.786  1.00  0.00     0.013 C 
ATOM     10  C   UNL A   1      33.688  25.486  24.484  1.00  0.00    -0.011 C 
ATOM     11  C   UNL A   1      34.353  25.575  25.831  1.00  0.00     0.013 C 
ATOM     12  C   UNL A   1      32.297  26.112  24.268  1.00  0.00     0.098 C 
BRANCH  12  13
ATOM     13  C   UNL A   1      31.179  25.470  23.499  1.00  0.00     0.231 C 
ATOM     14  O   UNL A   1      31.440  24.757  22.545  1.00  0.00    -0.274 OA
ATOM     15  N   UNL A   1      29.922  25.567  24.040  1.00  0.00    -0.295 N 
ATOM     16  H   UNL A   1      29.602  24.852  24.637  1.00  0.00     0.173 HD
BRANCH  15  17
ATOM     17  C   UNL A   1      29.098  26.627  23.776  1.00  0.00     0.225 A 
ATOM     18  N   UNL A   1      29.472  27.811  23.361  1.00  0.00    -0.188 NA
ATOM     19  N   UNL A   1      27.742  26.623  23.925  1.00  0.00    -0.244 N 
ATOM     20  C   UNL A   1      28.279  28.455  23.111  1.00  0.00     0.218 A 
ATOM     21  N   UNL A   1      27.190  27.751  23.463  1.00  0.00    -0.149 NA
ATOM     22  H   UNL A   1      27.232  25.880  24.322  1.00  0.00     0.193 HD
BRANCH  20  23
ATOM     23  C   UNL A   1      28.193  29.808  22.485  1.00  0.00     0.173 A 
ATOM     24  C   UNL A   1      28.126  31.009  23.170  1.00  0.00     0.054 A 
ATOM     25  O   UNL A   1      28.155  30.055  21.139  1.00  0.00    -0.461 OA
ATOM     26  C   UNL A   1      28.058  32.035  22.196  1.00  0.00     0.043 A 
ATOM     27  C   UNL A   1      28.069  31.400  20.978  1.00  0.00     0.196 A 
ENDBRANCH  20  23
ENDBRANCH  15  17
ENDBRANCH  12  13
ENDBRANCH   5   8
ENDBRANCH   3   4
ENDBRANCH   2   3
ENDBRANCH   1   2
BRANCH   1  28
ATOM     28  C   UNL A   1      31.115  31.341  25.699  1.00  0.00     0.002 C 
BRANCH  28  29
ATOM     29  C   UNL A   1      31.457  32.024  27.025  1.00  0.00     0.021 C 
BRANCH  29  30
ATOM     30  C   UNL A   1      32.741  32.847  27.004  1.00  0.00     0.116 C 
BRANCH  30  31
ATOM     31  N   UNL A   1      32.548  34.168  27.580  1.00  0.00    -0.352 N 
ATOM     32  C   UNL A   1      33.123  34.729  28.691  1.00  0.00     0.251 C 
ATOM     33  H   UNL A   1      31.908  34.744  27.102  1.00  0.00     0.163 HD
ATOM     34  O   UNL A   1      32.670  35.768  29.162  1.00  0.00    -0.269 OA
BRANCH  32  35
ATOM     35  C   UNL A   1      34.288  34.080  29.329  1.00  0.00     0.039 A 
ATOM     36  C   UNL A   1      34.067  33.116  30.316  1.00  0.00     0.014 A 
ATOM     37  C   UNL A   1      35.593  34.443  28.982  1.00  0.00     0.014 A 
ATOM     38  C   UNL A   1      35.153  32.484  30.922  1.00  0.00     0.010 A 
ATOM     39  C   UNL A   1      36.672  33.759  29.533  1.00  0.00     0.010 A 
ATOM     40  C   UNL A   1      36.464  32.781  30.517  1.00  0.00    -0.014 A 
BRANCH  40  41
ATOM     41  C   UNL A   1      37.628  32.086  31.123  1.00  0.00     0.031 A 
ATOM     42  C   UNL A   1      38.100  32.461  32.501  1.00  0.00     0.074 A 
ATOM     43  C   UNL A   1      38.290  31.154  30.412  1.00  0.00     0.049 A 
ATOM     44  N   UNL A   1      39.123  32.006  33.180  1.00  0.00    -0.248 NA
ATOM     45  C   UNL A   1      37.335  33.507  33.201  1.00  0.00     0.031 C 
ATOM     46  C   UNL A   1      37.959  30.738  29.049  1.00  0.00     0.029 A 
ATOM     47  N   UNL A   1      39.387  30.393  30.734  1.00  0.00    -0.354 N 
ATOM     48  C   UNL A   1      39.132  32.716  34.373  1.00  0.00     0.074 A 
ATOM     49  C   UNL A   1      38.047  33.670  34.306  1.00  0.00     0.031 C 
ATOM     50  C   UNL A   1      38.817  29.782  28.660  1.00  0.00     0.029 A 
ATOM     51  C   UNL A   1      39.782  29.544  29.730  1.00  0.00     0.049 A 
ATOM     52  H   UNL A   1      39.846  30.451  31.603  1.00  0.00     0.167 HD
ATOM     53  C   UNL A   1      39.954  32.567  35.439  1.00  0.00     0.037 A 
ATOM     54  C   UNL A   1      40.809  28.674  29.677  1.00  0.00     0.037 A 
ATOM     55  C   UNL A   1      41.017  31.598  35.511  1.00  0.00     0.049 A 
ATOM     56  C   UNL A   1      41.708  28.530  30.875  1.00  0.00     0.074 A 
ATOM     57  C   UNL A   1      41.870  31.329  36.567  1.00  0.00     0.029 A 
ATOM     58  N   UNL A   1      41.374  30.740  34.482  1.00  0.00    -0.354 N 
ATOM     59  N   UNL A   1      41.663  29.157  32.026  1.00  0.00    -0.248 NA
ATOM     60  C   UNL A   1      42.795  27.548  30.770  1.00  0.00     0.031 C 
ATOM     61  C   UNL A   1      42.775  30.344  36.160  1.00  0.00     0.029 A 
ATOM     62  C   UNL A   1      42.449  29.956  34.869  1.00  0.00     0.049 A 
ATOM     63  H   UNL A   1      40.930  30.695  33.604  1.00  0.00     0.167 HD
ATOM     64  C   UNL A   1      42.691  28.623  32.792  1.00  0.00     0.074 A 
ATOM     65  C   UNL A   1      43.332  27.610  31.981  1.00  0.00     0.031 C 
ATOM     66  C   UNL A   1      43.070  28.944  34.053  1.00  0.00     0.037 A 
BRANCH  53  67
ATOM     67  C   UNL A   1      39.738  33.472  36.619  1.00  0.00     0.064 A 
ATOM     68  C   UNL A   1      40.382  34.714  36.723  1.00  0.00     0.173 A 
ATOM     69  C   UNL A   1      38.844  33.111  37.639  1.00  0.00     0.173 A 
ATOM     70  F   UNL A   1      41.256  35.104  35.782  1.00  0.00    -0.203 F 
ATOM     71  C   UNL A   1      40.161  35.548  37.817  1.00  0.00     0.198 A 
ATOM     72  C   UNL A   1      38.601  33.961  38.714  1.00  0.00     0.198 A 
ATOM     73  F   UNL A   1      38.197  31.937  37.587  1.00  0.00    -0.203 F 
ATOM     74  F   UNL A   1      40.826  36.707  37.918  1.00  0.00    -0.200 F 
ATOM     75  C   UNL A   1      39.265  35.175  38.806  1.00  0.00     0.200 A 
ATOM     76  F   UNL A   1      37.724  33.606  39.664  1.00  0.00    -0.200 F 
ATOM     77  F   UNL A   1      39.046  35.983  39.854  1.00  0.00    -0.200 F 
ENDBRANCH  53  67
BRANCH  54  78
ATOM     78  C   UNL A   1      41.029  27.856  28.455  1.00  0.00     0.064 A 
ATOM     79  C   UNL A   1      41.880  28.301  27.433  1.00  0.00     0.173 A 
ATOM     80  C   UNL A   1      40.388  26.621  28.277  1.00  0.00     0.173 A 
ATOM     81  F   UNL A   1      42.501  29.485  27.548  1.00  0.00    -0.203 F 
ATOM     82  C   UNL A   1      42.059  27.557  26.270  1.00  0.00     0.198 A 
ATOM     83  C   UNL A   1      40.593  25.863  27.126  1.00  0.00     0.198 A 
ATOM     84  F   UNL A   1      39.570  26.146  29.228  1.00  0.00    -0.203 F 
ATOM     85  F   UNL A   1      42.836  28.032  25.286  1.00  0.00    -0.200 F 
ATOM     86  C   UNL A   1      41.420  26.336  26.119  1.00  0.00     0.200 A 
ATOM     87  F   UNL A   1      39.986  24.676  26.993  1.00  0.00    -0.200 F 
ATOM     88  F   UNL A   1      41.594  25.619  25.001  1.00  0.00    -0.200 F 
ENDBRANCH  54  78
BRANCH  66  89
ATOM     89  C   UNL A   1      44.203  28.161  34.651  1.00  0.00     0.064 A 
ATOM     90  C   UNL A   1      43.990  26.955  35.334  1.00  0.00     0.173 A 
ATOM     91  C   UNL A   1      45.526  28.610  34.510  1.00  0.00     0.173 A 
ATOM     92  F   UNL A   1      42.744  26.489  35.508  1.00  0.00    -0.203 F 
ATOM     93  C   UNL A   1      45.055  26.244  35.884  1.00  0.00     0.198 A 
ATOM     94  C   UNL A   1      46.590  27.880  35.030  1.00  0.00     0.198 A 
ATOM     95  F   UNL A   1      45.786  29.753  33.858  1.00  0.00    -0.203 F 
ATOM     96  F   UNL A   1      44.822  25.124  36.581  1.00  0.00    -0.200 F 
ATOM     97  C   UNL A   1      46.354  26.704  35.725  1.00  0.00     0.200 A 
ATOM     98  F   UNL A   1      47.846  28.318  34.863  1.00  0.00    -0.200 F 
ATOM     99  F   UNL A   1      47.378  26.017  36.249  1.00  0.00    -0.200 F 
ENDBRANCH  66  89
ENDBRANCH  40  41
ENDBRANCH  32  35
ENDBRANCH  30  31
ENDBRANCH  29  30
ENDBRANCH  28  29
ENDBRANCH   1  28
TORSDOF 16
ENDMDL
