MODEL 1
REMARK VINA RESULT:     -12.0      0.000      0.000
REMARK SMILES CCN1C(=O)/C(=C2/SC(=S)N([C@@H](C)C(=O)NCCCCCCNC(=O)c3ccc(-c4c5nc(c(-c6c(F)c(F)c(F)c(F)c6F)c6ccc([nH]6)c(-c6c(F)c(F)c(F)c(F)c6F)c6nc(c(-c7c(F)c(F)c(F)c(F)c7F)c7ccc4[nH]7)C=C6)C=C5)cc3)C2=O)c2cc(Br)ccc21
REMARK SMILES IDX 19 1 18 2 17 3 16 4 14 5 15 6 12 8 13 9 11 10 3 11 4 12
REMARK SMILES IDX 97 13 5 14 6 15 91 16 96 17 7 18 92 19 95 20 8 21 89 22
REMARK SMILES IDX 93 23 9 24 90 25 94 26 10 27 2 28 1 29 20 30 21 31 22 32
REMARK SMILES IDX 23 33 24 34 25 36 26 37 27 38 88 39 28 40 87 41 29 42 30 43
REMARK SMILES IDX 31 44 81 45 32 46 86 47 80 48 82 49 33 50 85 51 79 52 78 53
REMARK SMILES IDX 34 55 66 56 46 57 65 58 47 59 50 60 64 61 83 62 48 63 49 64
REMARK SMILES IDX 63 66 84 67 51 68 35 69 36 70 44 71 37 72 38 73 42 74 45 75
REMARK SMILES IDX 39 76 40 77 43 78 41 79 67 80 68 81 76 82 69 83 70 84 74 85
REMARK SMILES IDX 77 86 71 87 72 88 75 89 73 90 52 91 53 92 61 93 54 94 55 95
REMARK SMILES IDX 59 96 62 97 56 98 57 99 60 100 58 101
REMARK H PARENT 16 7 23 35 82 54 50 65
REMARK Flexibility Score: inf
ROOT
ATOM      1  C   UNL A   1      36.930  22.189  23.770  1.00  0.00     0.002 C 
ENDROOT
BRANCH   1   2
ATOM      2  C   UNL A   1      36.077  23.458  23.869  1.00  0.00     0.021 C 
BRANCH   2   3
ATOM      3  C   UNL A   1      34.674  23.304  23.283  1.00  0.00     0.116 C 
BRANCH   3   4
ATOM      4  N   UNL A   1      33.922  22.280  23.970  1.00  0.00    -0.354 N 
ATOM      5  C   UNL A   1      33.379  22.214  25.217  1.00  0.00     0.242 C 
ATOM      6  O   UNL A   1      32.729  21.189  25.457  1.00  0.00    -0.273 OA
ATOM      7  H   UNL A   1      33.773  21.469  23.431  1.00  0.00     0.163 HD
BRANCH   5   8
ATOM      8  C   UNL A   1      33.461  23.350  26.274  1.00  0.00     0.178 C 
ATOM      9  C   UNL A   1      33.311  22.789  27.686  1.00  0.00     0.042 C 
BRANCH   8  10
ATOM     10  N   UNL A   1      32.642  24.527  25.909  1.00  0.00    -0.280 N 
ATOM     11  N   UNL A   1      32.398  30.185  26.478  1.00  0.00    -0.308 N 
ATOM     12  C   UNL A   1      32.958  28.902  26.513  1.00  0.00     0.260 C 
ATOM     13  C   UNL A   1      31.385  30.280  25.513  1.00  0.00     0.052 A 
ATOM     14  O   UNL A   1      33.791  28.486  27.290  1.00  0.00    -0.269 OA
ATOM     15  C   UNL A   1      32.206  28.118  25.461  1.00  0.00     0.069 C 
ATOM     16  C   UNL A   1      31.224  29.054  24.863  1.00  0.00     0.014 A 
ATOM     17  C   UNL A   1      30.598  31.382  25.204  1.00  0.00     0.028 A 
ATOM     18  C   UNL A   1      32.321  26.794  25.260  1.00  0.00     0.093 C 
ATOM     19  C   UNL A   1      30.265  28.929  23.864  1.00  0.00     0.026 A 
ATOM     20  C   UNL A   1      29.614  31.242  24.220  1.00  0.00     0.018 A 
ATOM     21  S   UNL A   1      31.153  25.867  24.378  1.00  0.00    -0.053 SA
ATOM     22  C   UNL A   1      33.267  25.782  25.849  1.00  0.00     0.267 C 
ATOM     23  C   UNL A   1      29.452  30.020  23.561  1.00  0.00     0.018 A 
ATOM     24  C   UNL A   1      31.332  24.553  25.511  1.00  0.00     0.149 C 
ATOM     25  O   UNL A   1      34.425  26.018  26.148  1.00  0.00    -0.268 OA
ATOM     26  Br  UNL A   1      28.101  29.826  22.251  1.00  0.00    -0.051 Br
ATOM     27  S   UNL A   1      30.003  23.688  26.020  1.00  0.00    -0.052 S 
BRANCH  11  28
ATOM     28  C   UNL A   1      32.782  31.265  27.365  1.00  0.00     0.122 C 
ATOM     29  C   UNL A   1      34.281  31.521  27.338  1.00  0.00     0.028 C 
ENDBRANCH  11  28
ENDBRANCH   8  10
ENDBRANCH   5   8
ENDBRANCH   3   4
ENDBRANCH   2   3
ENDBRANCH   1   2
BRANCH   1  30
ATOM     30  C   UNL A   1      37.228  21.499  25.109  1.00  0.00     0.002 C 
BRANCH  30  31
ATOM     31  C   UNL A   1      38.250  20.363  25.043  1.00  0.00     0.021 C 
BRANCH  31  32
ATOM     32  C   UNL A   1      39.363  20.460  26.080  1.00  0.00     0.116 C 
BRANCH  32  33
ATOM     33  N   UNL A   1      40.291  19.339  26.005  1.00  0.00    -0.352 N 
ATOM     34  C   UNL A   1      41.665  19.338  26.060  1.00  0.00     0.251 C 
ATOM     35  H   UNL A   1      39.873  18.454  25.898  1.00  0.00     0.163 HD
ATOM     36  O   UNL A   1      42.304  18.327  25.792  1.00  0.00    -0.269 OA
BRANCH  34  37
ATOM     37  C   UNL A   1      42.366  20.587  26.416  1.00  0.00     0.039 A 
ATOM     38  C   UNL A   1      42.542  20.932  27.756  1.00  0.00     0.014 A 
ATOM     39  C   UNL A   1      42.789  21.450  25.401  1.00  0.00     0.014 A 
ATOM     40  C   UNL A   1      42.949  22.218  28.082  1.00  0.00     0.010 A 
ATOM     41  C   UNL A   1      43.296  22.707  25.735  1.00  0.00     0.010 A 
ATOM     42  C   UNL A   1      43.322  23.126  27.076  1.00  0.00    -0.014 A 
BRANCH  42  43
ATOM     43  C   UNL A   1      43.707  24.512  27.448  1.00  0.00     0.031 A 
ATOM     44  C   UNL A   1      42.660  25.521  27.837  1.00  0.00     0.074 A 
ATOM     45  C   UNL A   1      45.011  24.844  27.490  1.00  0.00     0.049 A 
ATOM     46  N   UNL A   1      42.809  26.778  28.178  1.00  0.00    -0.248 NA
ATOM     47  C   UNL A   1      41.261  25.065  27.844  1.00  0.00     0.031 C 
ATOM     48  C   UNL A   1      46.119  23.943  27.165  1.00  0.00     0.029 A 
ATOM     49  N   UNL A   1      45.629  26.016  27.846  1.00  0.00    -0.354 N 
ATOM     50  C   UNL A   1      41.531  27.262  28.424  1.00  0.00     0.074 A 
ATOM     51  C   UNL A   1      40.611  26.178  28.158  1.00  0.00     0.031 C 
ATOM     52  C   UNL A   1      47.279  24.577  27.385  1.00  0.00     0.029 A 
ATOM     53  C   UNL A   1      46.999  25.951  27.790  1.00  0.00     0.049 A 
ATOM     54  H   UNL A   1      45.137  26.825  28.113  1.00  0.00     0.167 HD
ATOM     55  C   UNL A   1      41.161  28.493  28.851  1.00  0.00     0.037 A 
ATOM     56  C   UNL A   1      47.929  26.895  28.020  1.00  0.00     0.037 A 
ATOM     57  C   UNL A   1      42.084  29.563  29.132  1.00  0.00     0.049 A 
ATOM     58  C   UNL A   1      47.486  28.275  28.418  1.00  0.00     0.074 A 
ATOM     59  C   UNL A   1      41.807  30.845  29.577  1.00  0.00     0.029 A 
ATOM     60  N   UNL A   1      43.462  29.478  28.999  1.00  0.00    -0.354 N 
ATOM     61  N   UNL A   1      46.275  28.720  28.645  1.00  0.00    -0.248 NA
ATOM     62  C   UNL A   1      48.540  29.285  28.583  1.00  0.00     0.031 C 
ATOM     63  C   UNL A   1      43.010  31.550  29.660  1.00  0.00     0.029 A 
ATOM     64  C   UNL A   1      44.046  30.692  29.327  1.00  0.00     0.049 A 
ATOM     65  H   UNL A   1      43.953  28.674  28.712  1.00  0.00     0.167 HD
ATOM     66  C   UNL A   1      46.420  30.055  28.998  1.00  0.00     0.074 A 
ATOM     67  C   UNL A   1      47.841  30.339  28.978  1.00  0.00     0.031 C 
ATOM     68  C   UNL A   1      45.461  30.963  29.306  1.00  0.00     0.037 A 
BRANCH  55  69
ATOM     69  C   UNL A   1      39.695  28.765  29.039  1.00  0.00     0.064 A 
ATOM     70  C   UNL A   1      39.078  28.640  30.292  1.00  0.00     0.173 A 
ATOM     71  C   UNL A   1      38.913  29.229  27.968  1.00  0.00     0.173 A 
ATOM     72  F   UNL A   1      39.774  28.190  31.346  1.00  0.00    -0.203 F 
ATOM     73  C   UNL A   1      37.732  28.956  30.464  1.00  0.00     0.198 A 
ATOM     74  C   UNL A   1      37.576  29.574  28.151  1.00  0.00     0.198 A 
ATOM     75  F   UNL A   1      39.453  29.374  26.749  1.00  0.00    -0.203 F 
ATOM     76  F   UNL A   1      37.156  28.795  31.664  1.00  0.00    -0.200 F 
ATOM     77  C   UNL A   1      36.986  29.432  29.397  1.00  0.00     0.200 A 
ATOM     78  F   UNL A   1      36.862  30.050  27.122  1.00  0.00    -0.200 F 
ATOM     79  F   UNL A   1      35.696  29.755  29.569  1.00  0.00    -0.200 F 
ENDBRANCH  55  69
BRANCH  56  80
ATOM     80  C   UNL A   1      49.369  26.558  27.877  1.00  0.00     0.064 A 
ATOM     81  C   UNL A   1      49.962  26.459  26.612  1.00  0.00     0.173 A 
ATOM     82  C   UNL A   1      50.188  26.360  28.999  1.00  0.00     0.173 A 
ATOM     83  F   UNL A   1      49.216  26.620  25.508  1.00  0.00    -0.203 F 
ATOM     84  C   UNL A   1      51.317  26.167  26.473  1.00  0.00     0.198 A 
ATOM     85  C   UNL A   1      51.550  26.103  28.860  1.00  0.00     0.198 A 
ATOM     86  F   UNL A   1      49.671  26.448  30.234  1.00  0.00    -0.203 F 
ATOM     87  F   UNL A   1      51.851  26.044  25.251  1.00  0.00    -0.200 F 
ATOM     88  C   UNL A   1      52.112  26.000  27.597  1.00  0.00     0.200 A 
ATOM     89  F   UNL A   1      52.318  25.962  29.950  1.00  0.00    -0.200 F 
ATOM     90  F   UNL A   1      53.419  25.738  27.463  1.00  0.00    -0.200 F 
ENDBRANCH  56  80
BRANCH  68  91
ATOM     91  C   UNL A   1      45.911  32.349  29.668  1.00  0.00     0.064 A 
ATOM     92  C   UNL A   1      46.046  33.354  28.700  1.00  0.00     0.173 A 
ATOM     93  C   UNL A   1      46.151  32.693  31.008  1.00  0.00     0.173 A 
ATOM     94  F   UNL A   1      45.842  33.074  27.403  1.00  0.00    -0.203 F 
ATOM     95  C   UNL A   1      46.426  34.645  29.055  1.00  0.00     0.198 A 
ATOM     96  C   UNL A   1      46.496  33.993  31.364  1.00  0.00     0.198 A 
ATOM     97  F   UNL A   1      46.028  31.770  31.975  1.00  0.00    -0.203 F 
ATOM     98  F   UNL A   1      46.593  35.578  28.107  1.00  0.00    -0.200 F 
ATOM     99  C   UNL A   1      46.639  34.966  30.387  1.00  0.00     0.200 A 
ATOM    100  F   UNL A   1      46.684  34.305  32.654  1.00  0.00    -0.200 F 
ATOM    101  F   UNL A   1      46.989  36.214  30.730  1.00  0.00    -0.200 F 
ENDBRANCH  68  91
ENDBRANCH  42  43
ENDBRANCH  34  37
ENDBRANCH  32  33
ENDBRANCH  31  32
ENDBRANCH  30  31
ENDBRANCH   1  30
TORSDOF 15
ENDMDL
MODEL 2
REMARK VINA RESULT:     -12.0      0.723      7.093
REMARK SMILES CCN1C(=O)/C(=C2/SC(=S)N([C@@H](C)C(=O)NCCCCCCNC(=O)c3ccc(-c4c5nc(c(-c6c(F)c(F)c(F)c(F)c6F)c6ccc([nH]6)c(-c6c(F)c(F)c(F)c(F)c6F)c6nc(c(-c7c(F)c(F)c(F)c(F)c7F)c7ccc4[nH]7)C=C6)C=C5)cc3)C2=O)c2cc(Br)ccc21
REMARK SMILES IDX 19 1 18 2 17 3 16 4 14 5 15 6 12 8 13 9 11 10 3 11 4 12
REMARK SMILES IDX 97 13 5 14 6 15 91 16 96 17 7 18 92 19 95 20 8 21 89 22
REMARK SMILES IDX 93 23 9 24 90 25 94 26 10 27 2 28 1 29 20 30 21 31 22 32
REMARK SMILES IDX 23 33 24 34 25 36 26 37 27 38 88 39 28 40 87 41 29 42 30 43
REMARK SMILES IDX 31 44 81 45 32 46 86 47 80 48 82 49 33 50 85 51 79 52 78 53
REMARK SMILES IDX 34 55 66 56 46 57 65 58 47 59 50 60 64 61 83 62 48 63 49 64
REMARK SMILES IDX 63 66 84 67 51 68 35 69 36 70 44 71 37 72 38 73 42 74 45 75
REMARK SMILES IDX 39 76 40 77 43 78 41 79 67 80 68 81 76 82 69 83 70 84 74 85
REMARK SMILES IDX 77 86 71 87 72 88 75 89 73 90 52 91 53 92 61 93 54 94 55 95
REMARK SMILES IDX 59 96 62 97 56 98 57 99 60 100 58 101
REMARK H PARENT 16 7 23 35 82 54 50 65
REMARK Flexibility Score: inf
ROOT
ATOM      1  C   UNL A   1      37.039  22.077  23.878  1.00  0.00     0.002 C 
ENDROOT
BRANCH   1   2
ATOM      2  C   UNL A   1      36.023  23.218  24.003  1.00  0.00     0.021 C 
BRANCH   2   3
ATOM      3  C   UNL A   1      34.690  22.933  23.313  1.00  0.00     0.116 C 
BRANCH   3   4
ATOM      4  N   UNL A   1      33.928  21.932  24.024  1.00  0.00    -0.354 N 
ATOM      5  C   UNL A   1      33.385  21.900  25.273  1.00  0.00     0.242 C 
ATOM      6  O   UNL A   1      32.725  20.888  25.536  1.00  0.00    -0.273 OA
ATOM      7  H   UNL A   1      33.770  21.111  23.504  1.00  0.00     0.163 HD
BRANCH   5   8
ATOM      8  C   UNL A   1      33.480  23.059  26.303  1.00  0.00     0.178 C 
ATOM      9  C   UNL A   1      33.387  22.525  27.730  1.00  0.00     0.042 C 
BRANCH   8  10
ATOM     10  N   UNL A   1      32.626  24.214  25.942  1.00  0.00    -0.280 N 
ATOM     11  N   UNL A   1      32.572  29.903  25.831  1.00  0.00    -0.308 N 
ATOM     12  C   UNL A   1      33.110  28.614  25.928  1.00  0.00     0.260 C 
ATOM     13  C   UNL A   1      31.405  29.919  25.053  1.00  0.00     0.052 A 
ATOM     14  O   UNL A   1      34.061  28.265  26.593  1.00  0.00    -0.269 OA
ATOM     15  C   UNL A   1      32.171  27.737  25.130  1.00  0.00     0.069 C 
ATOM     16  C   UNL A   1      31.112  28.630  24.600  1.00  0.00     0.014 A 
ATOM     17  C   UNL A   1      30.591  31.003  24.750  1.00  0.00     0.028 A 
ATOM     18  C   UNL A   1      32.229  26.395  25.080  1.00  0.00     0.093 C 
ATOM     19  C   UNL A   1      29.989  28.420  23.808  1.00  0.00     0.026 A 
ATOM     20  C   UNL A   1      29.446  30.782  23.979  1.00  0.00     0.018 A 
ATOM     21  S   UNL A   1      30.909  25.412  24.538  1.00  0.00    -0.053 SA
ATOM     22  C   UNL A   1      33.250  25.428  25.617  1.00  0.00     0.267 C 
ATOM     23  C   UNL A   1      29.151  29.496  23.517  1.00  0.00     0.018 A 
ATOM     24  C   UNL A   1      31.267  24.239  25.778  1.00  0.00     0.149 C 
ATOM     25  O   UNL A   1      34.446  25.655  25.677  1.00  0.00    -0.268 OA
ATOM     26  Br  UNL A   1      27.587  29.195  22.498  1.00  0.00    -0.051 Br
ATOM     27  S   UNL A   1      30.038  23.491  26.617  1.00  0.00    -0.052 S 
BRANCH  11  28
ATOM     28  C   UNL A   1      33.123  31.068  26.494  1.00  0.00     0.122 C 
ATOM     29  C   UNL A   1      33.644  30.742  27.885  1.00  0.00     0.028 C 
ENDBRANCH  11  28
ENDBRANCH   8  10
ENDBRANCH   5   8
ENDBRANCH   3   4
ENDBRANCH   2   3
ENDBRANCH   1   2
BRANCH   1  30
ATOM     30  C   UNL A   1      37.031  21.068  25.035  1.00  0.00     0.002 C 
BRANCH  30  31
ATOM     31  C   UNL A   1      38.120  19.996  24.973  1.00  0.00     0.021 C 
BRANCH  31  32
ATOM     32  C   UNL A   1      39.337  20.288  25.843  1.00  0.00     0.116 C 
BRANCH  32  33
ATOM     33  N   UNL A   1      40.262  19.163  25.900  1.00  0.00    -0.352 N 
ATOM     34  C   UNL A   1      41.627  19.162  26.063  1.00  0.00     0.251 C 
ATOM     35  H   UNL A   1      39.848  18.274  25.807  1.00  0.00     0.163 HD
ATOM     36  O   UNL A   1      42.280  18.138  25.898  1.00  0.00    -0.269 OA
BRANCH  34  37
ATOM     37  C   UNL A   1      42.305  20.428  26.406  1.00  0.00     0.039 A 
ATOM     38  C   UNL A   1      42.337  20.867  27.730  1.00  0.00     0.014 A 
ATOM     39  C   UNL A   1      42.853  21.212  25.387  1.00  0.00     0.014 A 
ATOM     40  C   UNL A   1      42.727  22.169  28.009  1.00  0.00     0.010 A 
ATOM     41  C   UNL A   1      43.341  22.485  25.687  1.00  0.00     0.010 A 
ATOM     42  C   UNL A   1      43.224  22.998  26.990  1.00  0.00    -0.014 A 
BRANCH  42  43
ATOM     43  C   UNL A   1      43.589  24.404  27.304  1.00  0.00     0.031 A 
ATOM     44  C   UNL A   1      44.996  24.898  27.091  1.00  0.00     0.074 A 
ATOM     45  C   UNL A   1      42.635  25.253  27.729  1.00  0.00     0.049 A 
ATOM     46  N   UNL A   1      45.498  26.087  27.321  1.00  0.00    -0.248 NA
ATOM     47  C   UNL A   1      45.968  23.936  26.548  1.00  0.00     0.031 C 
ATOM     48  C   UNL A   1      41.230  24.899  27.944  1.00  0.00     0.029 A 
ATOM     49  N   UNL A   1      42.691  26.589  28.033  1.00  0.00    -0.354 N 
ATOM     50  C   UNL A   1      46.839  26.009  26.968  1.00  0.00     0.074 A 
ATOM     51  C   UNL A   1      47.086  24.649  26.543  1.00  0.00     0.031 C 
ATOM     52  C   UNL A   1      40.549  25.998  28.294  1.00  0.00     0.029 A 
ATOM     53  C   UNL A   1      41.479  27.117  28.405  1.00  0.00     0.049 A 
ATOM     54  H   UNL A   1      43.519  27.118  27.989  1.00  0.00     0.167 HD
ATOM     55  C   UNL A   1      47.775  26.990  26.981  1.00  0.00     0.037 A 
ATOM     56  C   UNL A   1      41.154  28.358  28.810  1.00  0.00     0.037 A 
ATOM     57  C   UNL A   1      47.518  28.348  27.388  1.00  0.00     0.049 A 
ATOM     58  C   UNL A   1      42.228  29.406  28.888  1.00  0.00     0.074 A 
ATOM     59  C   UNL A   1      48.398  29.416  27.428  1.00  0.00     0.029 A 
ATOM     60  N   UNL A   1      46.291  28.827  27.823  1.00  0.00    -0.354 N 
ATOM     61  N   UNL A   1      43.492  29.320  28.554  1.00  0.00    -0.248 NA
ATOM     62  C   UNL A   1      41.830  30.721  29.407  1.00  0.00     0.031 C 
ATOM     63  C   UNL A   1      47.718  30.525  27.939  1.00  0.00     0.029 A 
ATOM     64  C   UNL A   1      46.398  30.168  28.159  1.00  0.00     0.049 A 
ATOM     65  H   UNL A   1      45.465  28.293  27.885  1.00  0.00     0.167 HD
ATOM     66  C   UNL A   1      44.037  30.572  28.803  1.00  0.00     0.074 A 
ATOM     67  C   UNL A   1      42.960  31.406  29.295  1.00  0.00     0.031 C 
ATOM     68  C   UNL A   1      45.318  30.989  28.645  1.00  0.00     0.037 A 
BRANCH  55  69
ATOM     69  C   UNL A   1      49.171  26.640  26.548  1.00  0.00     0.064 A 
ATOM     70  C   UNL A   1      49.600  26.827  25.227  1.00  0.00     0.173 A 
ATOM     71  C   UNL A   1      50.113  26.183  27.484  1.00  0.00     0.173 A 
ATOM     72  F   UNL A   1      48.739  27.250  24.290  1.00  0.00    -0.203 F 
ATOM     73  C   UNL A   1      50.916  26.558  24.855  1.00  0.00     0.198 A 
ATOM     74  C   UNL A   1      51.435  25.944  27.116  1.00  0.00     0.198 A 
ATOM     75  F   UNL A   1      49.758  25.992  28.764  1.00  0.00    -0.203 F 
ATOM     76  F   UNL A   1      51.293  26.711  23.578  1.00  0.00    -0.200 F 
ATOM     77  C   UNL A   1      51.834  26.127  25.801  1.00  0.00     0.200 A 
ATOM     78  F   UNL A   1      52.324  25.546  28.035  1.00  0.00    -0.200 F 
ATOM     79  F   UNL A   1      53.103  25.888  25.445  1.00  0.00    -0.200 F 
ENDBRANCH  55  69
BRANCH  56  80
ATOM     80  C   UNL A   1      39.746  28.668  29.171  1.00  0.00     0.064 A 
ATOM     81  C   UNL A   1      39.272  28.449  30.471  1.00  0.00     0.173 A 
ATOM     82  C   UNL A   1      38.855  29.216  28.235  1.00  0.00     0.173 A 
ATOM     83  F   UNL A   1      40.080  27.907  31.395  1.00  0.00    -0.203 F 
ATOM     84  C   UNL A   1      37.960  28.760  30.820  1.00  0.00     0.198 A 
ATOM     85  C   UNL A   1      37.554  29.559  28.595  1.00  0.00     0.198 A 
ATOM     86  F   UNL A   1      39.260  29.449  26.977  1.00  0.00    -0.203 F 
ATOM     87  F   UNL A   1      37.522  28.509  32.061  1.00  0.00    -0.200 F 
ATOM     88  C   UNL A   1      37.105  29.324  29.885  1.00  0.00     0.200 A 
ATOM     89  F   UNL A   1      36.738  30.123  27.692  1.00  0.00    -0.200 F 
ATOM     90  F   UNL A   1      35.849  29.641  30.227  1.00  0.00    -0.200 F 
ENDBRANCH  56  80
BRANCH  68  91
ATOM     91  C   UNL A   1      45.627  32.419  28.983  1.00  0.00     0.064 A 
ATOM     92  C   UNL A   1      45.466  33.447  28.043  1.00  0.00     0.173 A 
ATOM     93  C   UNL A   1      46.031  32.773  30.280  1.00  0.00     0.173 A 
ATOM     94  F   UNL A   1      45.096  33.160  26.785  1.00  0.00    -0.203 F 
ATOM     95  C   UNL A   1      45.718  34.774  28.382  1.00  0.00     0.198 A 
ATOM     96  C   UNL A   1      46.247  34.103  30.625  1.00  0.00     0.198 A 
ATOM     97  F   UNL A   1      46.192  31.829  31.220  1.00  0.00    -0.203 F 
ATOM     98  F   UNL A   1      45.601  35.734  27.455  1.00  0.00    -0.200 F 
ATOM     99  C   UNL A   1      46.097  35.101  29.675  1.00  0.00     0.200 A 
ATOM    100  F   UNL A   1      46.597  34.420  31.880  1.00  0.00    -0.200 F 
ATOM    101  F   UNL A   1      46.325  36.381  30.004  1.00  0.00    -0.200 F 
ENDBRANCH  68  91
ENDBRANCH  42  43
ENDBRANCH  34  37
ENDBRANCH  32  33
ENDBRANCH  31  32
ENDBRANCH  30  31
ENDBRANCH   1  30
TORSDOF 15
ENDMDL
MODEL 3
REMARK VINA RESULT:     -11.8      5.111     10.232
REMARK SMILES CCN1C(=O)/C(=C2/SC(=S)N([C@@H](C)C(=O)NCCCCCCNC(=O)c3ccc(-c4c5nc(c(-c6c(F)c(F)c(F)c(F)c6F)c6ccc([nH]6)c(-c6c(F)c(F)c(F)c(F)c6F)c6nc(c(-c7c(F)c(F)c(F)c(F)c7F)c7ccc4[nH]7)C=C6)C=C5)cc3)C2=O)c2cc(Br)ccc21
REMARK SMILES IDX 19 1 18 2 17 3 16 4 14 5 15 6 12 8 13 9 11 10 3 11 4 12
REMARK SMILES IDX 97 13 5 14 6 15 91 16 96 17 7 18 92 19 95 20 8 21 89 22
REMARK SMILES IDX 93 23 9 24 90 25 94 26 10 27 2 28 1 29 20 30 21 31 22 32
REMARK SMILES IDX 23 33 24 34 25 36 26 37 27 38 88 39 28 40 87 41 29 42 30 43
REMARK SMILES IDX 31 44 81 45 32 46 86 47 80 48 82 49 33 50 85 51 79 52 78 53
REMARK SMILES IDX 34 55 66 56 46 57 65 58 47 59 50 60 64 61 83 62 48 63 49 64
REMARK SMILES IDX 63 66 84 67 51 68 35 69 36 70 44 71 37 72 38 73 42 74 45 75
REMARK SMILES IDX 39 76 40 77 43 78 41 79 67 80 68 81 76 82 69 83 70 84 74 85
REMARK SMILES IDX 77 86 71 87 72 88 75 89 73 90 52 91 53 92 61 93 54 94 55 95
REMARK SMILES IDX 59 96 62 97 56 98 57 99 60 100 58 101
REMARK H PARENT 16 7 23 35 82 54 50 65
REMARK Flexibility Score: inf
ROOT
ATOM      1  C   UNL A   1      31.970  30.068  25.251  1.00  0.00     0.002 C 
ENDROOT
BRANCH   1   2
ATOM      2  C   UNL A   1      30.655  29.789  24.515  1.00  0.00     0.021 C 
BRANCH   2   3
ATOM      3  C   UNL A   1      30.717  28.582  23.581  1.00  0.00     0.116 C 
BRANCH   3   4
ATOM      4  N   UNL A   1      32.062  28.065  23.472  1.00  0.00    -0.354 N 
ATOM      5  C   UNL A   1      32.720  27.060  24.114  1.00  0.00     0.242 C 
ATOM      6  O   UNL A   1      33.870  26.841  23.715  1.00  0.00    -0.273 OA
ATOM      7  H   UNL A   1      32.612  28.532  22.801  1.00  0.00     0.163 HD
BRANCH   5   8
ATOM      8  C   UNL A   1      32.093  26.161  25.215  1.00  0.00     0.178 C 
ATOM      9  C   UNL A   1      32.358  26.738  26.603  1.00  0.00     0.042 C 
BRANCH   8  10
ATOM     10  N   UNL A   1      32.370  24.722  25.001  1.00  0.00    -0.280 N 
ATOM     11  N   UNL A   1      36.610  20.926  24.921  1.00  0.00    -0.308 N 
ATOM     12  C   UNL A   1      35.964  22.142  25.178  1.00  0.00     0.260 C 
ATOM     13  C   UNL A   1      35.705  19.854  24.902  1.00  0.00     0.052 A 
ATOM     14  O   UNL A   1      36.457  23.249  25.176  1.00  0.00    -0.269 OA
ATOM     15  C   UNL A   1      34.502  21.784  25.326  1.00  0.00     0.069 C 
ATOM     16  C   UNL A   1      34.409  20.316  25.142  1.00  0.00     0.014 A 
ATOM     17  C   UNL A   1      35.973  18.512  24.664  1.00  0.00     0.028 A 
ATOM     18  C   UNL A   1      33.499  22.673  25.433  1.00  0.00     0.093 C 
ATOM     19  C   UNL A   1      33.353  19.411  25.165  1.00  0.00     0.026 A 
ATOM     20  C   UNL A   1      34.904  17.611  24.658  1.00  0.00     0.018 A 
ATOM     21  S   UNL A   1      31.839  22.263  25.157  1.00  0.00    -0.053 SA
ATOM     22  C   UNL A   1      33.518  24.170  25.592  1.00  0.00     0.267 C 
ATOM     23  C   UNL A   1      33.605  18.065  24.904  1.00  0.00     0.018 A 
ATOM     24  C   UNL A   1      31.586  23.797  24.367  1.00  0.00     0.149 C 
ATOM     25  O   UNL A   1      34.367  24.784  26.214  1.00  0.00    -0.268 OA
ATOM     26  Br  UNL A   1      32.157  16.848  24.866  1.00  0.00    -0.051 Br
ATOM     27  S   UNL A   1      30.641  23.899  22.999  1.00  0.00    -0.052 S 
BRANCH  11  28
ATOM     28  C   UNL A   1      38.029  20.798  24.658  1.00  0.00     0.122 C 
ATOM     29  C   UNL A   1      38.873  21.433  25.752  1.00  0.00     0.028 C 
ENDBRANCH  11  28
ENDBRANCH   8  10
ENDBRANCH   5   8
ENDBRANCH   3   4
ENDBRANCH   2   3
ENDBRANCH   1   2
BRANCH   1  30
ATOM     30  C   UNL A   1      31.815  30.544  26.702  1.00  0.00     0.002 C 
BRANCH  30  31
ATOM     31  C   UNL A   1      31.585  32.046  26.875  1.00  0.00     0.021 C 
BRANCH  31  32
ATOM     32  C   UNL A   1      32.792  32.809  27.405  1.00  0.00     0.116 C 
BRANCH  32  33
ATOM     33  N   UNL A   1      32.492  34.210  27.671  1.00  0.00    -0.352 N 
ATOM     34  C   UNL A   1      33.026  35.054  28.616  1.00  0.00     0.251 C 
ATOM     35  H   UNL A   1      31.806  34.610  27.088  1.00  0.00     0.163 HD
ATOM     36  O   UNL A   1      32.527  36.152  28.832  1.00  0.00    -0.269 OA
BRANCH  34  37
ATOM     37  C   UNL A   1      34.194  34.602  29.397  1.00  0.00     0.039 A 
ATOM     38  C   UNL A   1      35.476  34.695  28.853  1.00  0.00     0.014 A 
ATOM     39  C   UNL A   1      33.998  34.020  30.652  1.00  0.00     0.014 A 
ATOM     40  C   UNL A   1      36.527  34.027  29.466  1.00  0.00     0.010 A 
ATOM     41  C   UNL A   1      35.079  33.438  31.317  1.00  0.00     0.010 A 
ATOM     42  C   UNL A   1      36.340  33.382  30.700  1.00  0.00    -0.014 A 
BRANCH  42  43
ATOM     43  C   UNL A   1      37.469  32.633  31.312  1.00  0.00     0.031 A 
ATOM     44  C   UNL A   1      37.946  32.963  32.701  1.00  0.00     0.074 A 
ATOM     45  C   UNL A   1      38.026  31.613  30.633  1.00  0.00     0.049 A 
ATOM     46  N   UNL A   1      38.923  32.425  33.390  1.00  0.00    -0.248 NA
ATOM     47  C   UNL A   1      37.237  34.038  33.415  1.00  0.00     0.031 C 
ATOM     48  C   UNL A   1      37.629  31.178  29.293  1.00  0.00     0.029 A 
ATOM     49  N   UNL A   1      39.027  30.742  30.982  1.00  0.00    -0.354 N 
ATOM     50  C   UNL A   1      38.954  33.102  34.602  1.00  0.00     0.074 A 
ATOM     51  C   UNL A   1      37.925  34.117  34.546  1.00  0.00     0.031 C 
ATOM     52  C   UNL A   1      38.340  30.094  28.954  1.00  0.00     0.029 A 
ATOM     53  C   UNL A   1      39.296  29.803  30.017  1.00  0.00     0.049 A 
ATOM     54  H   UNL A   1      39.505  30.786  31.841  1.00  0.00     0.167 HD
ATOM     55  C   UNL A   1      39.757  32.884  35.671  1.00  0.00     0.037 A 
ATOM     56  C   UNL A   1      40.223  28.828  29.981  1.00  0.00     0.037 A 
ATOM     57  C   UNL A   1      40.768  31.860  35.729  1.00  0.00     0.049 A 
ATOM     58  C   UNL A   1      41.151  28.659  31.150  1.00  0.00     0.074 A 
ATOM     59  C   UNL A   1      41.627  31.555  36.771  1.00  0.00     0.029 A 
ATOM     60  N   UNL A   1      41.056  30.971  34.703  1.00  0.00    -0.354 N 
ATOM     61  N   UNL A   1      41.172  29.306  32.289  1.00  0.00    -0.248 NA
ATOM     62  C   UNL A   1      42.190  27.628  31.024  1.00  0.00     0.031 C 
ATOM     63  C   UNL A   1      42.470  30.520  36.355  1.00  0.00     0.029 A 
ATOM     64  C   UNL A   1      42.097  30.136  35.078  1.00  0.00     0.049 A 
ATOM     65  H   UNL A   1      40.590  30.939  33.835  1.00  0.00     0.167 HD
ATOM     66  C   UNL A   1      42.211  28.750  33.023  1.00  0.00     0.074 A 
ATOM     67  C   UNL A   1      42.781  27.697  32.209  1.00  0.00     0.031 C 
ATOM     68  C   UNL A   1      42.655  29.089  34.259  1.00  0.00     0.037 A 
BRANCH  55  69
ATOM     69  C   UNL A   1      39.588  33.769  36.875  1.00  0.00     0.064 A 
ATOM     70  C   UNL A   1      40.168  35.044  36.938  1.00  0.00     0.173 A 
ATOM     71  C   UNL A   1      38.773  33.367  37.945  1.00  0.00     0.173 A 
ATOM     72  F   UNL A   1      40.966  35.474  35.949  1.00  0.00    -0.203 F 
ATOM     73  C   UNL A   1      39.951  35.878  38.033  1.00  0.00     0.198 A 
ATOM     74  C   UNL A   1      38.532  34.216  39.023  1.00  0.00     0.198 A 
ATOM     75  F   UNL A   1      38.187  32.161  37.934  1.00  0.00    -0.203 F 
ATOM     76  F   UNL A   1      40.545  37.078  38.087  1.00  0.00    -0.200 F 
ATOM     77  C   UNL A   1      39.125  35.468  39.068  1.00  0.00     0.200 A 
ATOM     78  F   UNL A   1      37.719  33.824  40.014  1.00  0.00    -0.200 F 
ATOM     79  F   UNL A   1      38.901  36.280  40.111  1.00  0.00    -0.200 F 
ENDBRANCH  55  69
BRANCH  56  80
ATOM     80  C   UNL A   1      40.310  27.942  28.791  1.00  0.00     0.064 A 
ATOM     81  C   UNL A   1      39.615  26.726  28.748  1.00  0.00     0.173 A 
ATOM     82  C   UNL A   1      41.062  28.304  27.663  1.00  0.00     0.173 A 
ATOM     83  F   UNL A   1      38.899  26.327  29.811  1.00  0.00    -0.203 F 
ATOM     84  C   UNL A   1      39.674  25.903  27.626  1.00  0.00     0.198 A 
ATOM     85  C   UNL A   1      41.092  27.496  26.528  1.00  0.00     0.198 A 
ATOM     86  F   UNL A   1      41.742  29.460  27.651  1.00  0.00    -0.203 F 
ATOM     87  F   UNL A   1      39.028  24.729  27.625  1.00  0.00    -0.200 F 
ATOM     88  C   UNL A   1      40.403  26.294  26.514  1.00  0.00     0.200 A 
ATOM     89  F   UNL A   1      41.782  27.889  25.448  1.00  0.00    -0.200 F 
ATOM     90  F   UNL A   1      40.444  25.510  25.427  1.00  0.00    -0.200 F 
ENDBRANCH  56  80
BRANCH  68  91
ATOM     91  C   UNL A   1      43.801  28.299  34.823  1.00  0.00     0.064 A 
ATOM     92  C   UNL A   1      45.129  28.730  34.684  1.00  0.00     0.173 A 
ATOM     93  C   UNL A   1      43.566  27.130  35.563  1.00  0.00     0.173 A 
ATOM     94  F   UNL A   1      45.409  29.834  33.973  1.00  0.00    -0.203 F 
ATOM     95  C   UNL A   1      46.178  28.010  35.245  1.00  0.00     0.198 A 
ATOM     96  C   UNL A   1      44.614  26.432  36.153  1.00  0.00     0.198 A 
ATOM     97  F   UNL A   1      42.313  26.678  35.734  1.00  0.00    -0.203 F 
ATOM     98  F   UNL A   1      47.442  28.416  35.061  1.00  0.00    -0.200 F 
ATOM     99  C   UNL A   1      45.920  26.868  35.988  1.00  0.00     0.200 A 
ATOM    100  F   UNL A   1      44.361  25.338  36.886  1.00  0.00    -0.200 F 
ATOM    101  F   UNL A   1      46.931  26.184  36.542  1.00  0.00    -0.200 F 
ENDBRANCH  68  91
ENDBRANCH  42  43
ENDBRANCH  34  37
ENDBRANCH  32  33
ENDBRANCH  31  32
ENDBRANCH  30  31
ENDBRANCH   1  30
TORSDOF 15
ENDMDL
