MODEL 1
REMARK VINA RESULT:     -11.6      0.000      0.000
REMARK SMILES O=C(C[C@H]1C[C@H]2CC[C@@H](C1)N2C(=O)NCc1ncn[nH]1)NCCCCCCNC(=O)c1ccc(-c2c3nc(c(-c4c(F)c(F)c(F)c(F)c4F)c4ccc([nH]4)c(-c4c(F)c(F)c(F)c(F)c4F)c4nc(c(-c5c(F)c(F)c(F)c(F)c5F)c5ccc2[nH]5)C=C4)C=C3)cc1
REMARK SMILES IDX 23 1 22 2 21 3 1 4 2 5 3 7 4 8 5 9 10 10 6 11 9 12 7 13
REMARK SMILES IDX 11 14 8 15 12 16 13 17 14 18 15 20 16 21 17 22 20 23 18 24
REMARK SMILES IDX 19 25 24 27 25 28 26 29 27 30 28 31 29 32 30 34 31 35 32 36
REMARK SMILES IDX 93 37 33 38 92 39 34 40 35 41 36 42 86 43 37 44 91 45 85 46
REMARK SMILES IDX 87 47 38 48 90 49 84 50 83 51 39 53 71 54 51 55 70 56 52 57
REMARK SMILES IDX 55 58 69 59 88 60 53 61 54 62 68 64 89 65 56 66 40 67 41 68
REMARK SMILES IDX 49 69 42 70 43 71 47 72 50 73 44 74 45 75 48 76 46 77 72 78
REMARK SMILES IDX 73 79 81 80 74 81 75 82 79 83 82 84 76 85 77 86 80 87 78 88
REMARK SMILES IDX 57 89 58 90 66 91 59 92 60 93 64 94 67 95 61 96 62 97 65 98
REMARK SMILES IDX 63 99
REMARK H PARENT 21 6 14 19 20 26 28 33 87 52 55 63
REMARK Flexibility Score: inf
ROOT
ATOM      1  C   UNL A   1      41.344  21.856  26.482  1.00  0.00     0.021 C 
ENDROOT
BRANCH   1   2
ATOM      2  C   UNL A   1      39.979  22.178  27.094  1.00  0.00     0.116 C 
BRANCH   2   3
ATOM      3  N   UNL A   1      39.049  22.558  26.053  1.00  0.00    -0.356 N 
ATOM      4  O   UNL A   1      38.447  24.588  26.943  1.00  0.00    -0.275 OA
ATOM      5  C   UNL A   1      38.280  23.690  26.126  1.00  0.00     0.220 C 
ATOM      6  H   UNL A   1      38.964  21.979  25.261  1.00  0.00     0.163 HD
BRANCH   5   7
ATOM      7  C   UNL A   1      37.132  23.703  25.142  1.00  0.00     0.103 C 
BRANCH   7   8
ATOM      8  C   UNL A   1      36.090  22.586  25.338  1.00  0.00     0.002 C 
ATOM      9  C   UNL A   1      35.124  22.939  26.501  1.00  0.00     0.029 C 
ATOM     10  C   UNL A   1      35.323  22.202  24.045  1.00  0.00     0.029 C 
ATOM     11  C   UNL A   1      33.818  23.626  26.050  1.00  0.00     0.087 C 
ATOM     12  C   UNL A   1      33.998  22.965  23.845  1.00  0.00     0.087 C 
ATOM     13  C   UNL A   1      34.051  24.925  25.278  1.00  0.00     0.027 C 
ATOM     14  N   UNL A   1      33.197  22.769  25.046  1.00  0.00    -0.319 N 
ATOM     15  C   UNL A   1      34.187  24.485  23.814  1.00  0.00     0.027 C 
BRANCH  14  16
ATOM     16  C   UNL A   1      32.167  21.970  25.395  1.00  0.00     0.318 C 
ATOM     17  O   UNL A   1      31.033  22.430  25.568  1.00  0.00    -0.249 OA
ATOM     18  N   UNL A   1      32.264  20.652  25.597  1.00  0.00    -0.331 N 
ATOM     19  H   UNL A   1      31.405  20.274  25.894  1.00  0.00     0.165 HD
BRANCH  18  20
ATOM     20  C   UNL A   1      33.281  19.629  25.498  1.00  0.00     0.194 C 
BRANCH  20  21
ATOM     21  C   UNL A   1      33.097  18.841  24.254  1.00  0.00     0.143 A 
ATOM     22  N   UNL A   1      32.274  19.093  23.255  1.00  0.00    -0.218 NA
ATOM     23  N   UNL A   1      33.805  17.708  23.963  1.00  0.00    -0.262 N 
ATOM     24  C   UNL A   1      32.526  18.080  22.376  1.00  0.00     0.246 A 
ATOM     25  N   UNL A   1      33.460  17.210  22.765  1.00  0.00    -0.162 NA
ATOM     26  H   UNL A   1      34.482  17.308  24.556  1.00  0.00     0.192 HD
ENDBRANCH  20  21
ENDBRANCH  18  20
ENDBRANCH  14  16
ENDBRANCH   7   8
ENDBRANCH   5   7
ENDBRANCH   2   3
ENDBRANCH   1   2
BRANCH   1  27
ATOM     27  C   UNL A   1      42.276  21.060  27.408  1.00  0.00     0.002 C 
BRANCH  27  28
ATOM     28  C   UNL A   1      41.914  19.581  27.575  1.00  0.00     0.002 C 
BRANCH  28  29
ATOM     29  C   UNL A   1      42.773  18.617  26.755  1.00  0.00     0.021 C 
BRANCH  29  30
ATOM     30  C   UNL A   1      42.778  18.897  25.258  1.00  0.00     0.116 C 
BRANCH  30  31
ATOM     31  N   UNL A   1      44.057  18.579  24.642  1.00  0.00    -0.352 N 
ATOM     32  C   UNL A   1      45.090  19.421  24.309  1.00  0.00     0.251 C 
ATOM     33  H   UNL A   1      44.203  17.628  24.434  1.00  0.00     0.163 HD
ATOM     34  O   UNL A   1      46.027  19.022  23.632  1.00  0.00    -0.269 OA
BRANCH  32  35
ATOM     35  C   UNL A   1      45.048  20.831  24.757  1.00  0.00     0.039 A 
ATOM     36  C   UNL A   1      45.461  21.143  26.053  1.00  0.00     0.014 A 
ATOM     37  C   UNL A   1      44.621  21.840  23.890  1.00  0.00     0.014 A 
ATOM     38  C   UNL A   1      45.510  22.478  26.460  1.00  0.00     0.010 A 
ATOM     39  C   UNL A   1      44.742  23.173  24.270  1.00  0.00     0.010 A 
ATOM     40  C   UNL A   1      45.188  23.507  25.559  1.00  0.00    -0.014 A 
BRANCH  40  41
ATOM     41  C   UNL A   1      45.310  24.938  25.939  1.00  0.00     0.031 A 
ATOM     42  C   UNL A   1      46.644  25.627  25.851  1.00  0.00     0.074 A 
ATOM     43  C   UNL A   1      44.240  25.592  26.437  1.00  0.00     0.049 A 
ATOM     44  N   UNL A   1      46.979  26.836  26.230  1.00  0.00    -0.248 NA
ATOM     45  C   UNL A   1      47.758  24.848  25.287  1.00  0.00     0.031 C 
ATOM     46  C   UNL A   1      42.902  25.023  26.607  1.00  0.00     0.029 A 
ATOM     47  N   UNL A   1      44.115  26.876  26.907  1.00  0.00    -0.354 N 
ATOM     48  C   UNL A   1      48.339  26.948  25.975  1.00  0.00     0.074 A 
ATOM     49  C   UNL A   1      48.779  25.678  25.446  1.00  0.00     0.031 C 
ATOM     50  C   UNL A   1      42.089  25.957  27.126  1.00  0.00     0.029 A 
ATOM     51  C   UNL A   1      42.855  27.174  27.370  1.00  0.00     0.049 A 
ATOM     52  H   UNL A   1      44.856  27.523  26.911  1.00  0.00     0.167 HD
ATOM     53  C   UNL A   1      49.143  28.023  26.153  1.00  0.00     0.037 A 
ATOM     54  C   UNL A   1      42.380  28.296  27.946  1.00  0.00     0.037 A 
ATOM     55  C   UNL A   1      48.691  29.299  26.641  1.00  0.00     0.049 A 
ATOM     56  C   UNL A   1      43.306  29.468  28.143  1.00  0.00     0.074 A 
ATOM     57  C   UNL A   1      49.412  30.474  26.771  1.00  0.00     0.029 A 
ATOM     58  N   UNL A   1      47.405  29.568  27.082  1.00  0.00    -0.354 N 
ATOM     59  N   UNL A   1      44.569  29.592  27.815  1.00  0.00    -0.248 NA
ATOM     60  C   UNL A   1      42.738  30.662  28.787  1.00  0.00     0.031 C 
ATOM     61  C   UNL A   1      48.579  31.434  27.353  1.00  0.00     0.029 A 
ATOM     62  C   UNL A   1      47.322  30.878  27.521  1.00  0.00     0.049 A 
ATOM     63  H   UNL A   1      46.661  28.922  27.085  1.00  0.00     0.167 HD
ATOM     64  C   UNL A   1      44.931  30.884  28.172  1.00  0.00     0.074 A 
ATOM     65  C   UNL A   1      43.753  31.510  28.731  1.00  0.00     0.031 C 
ATOM     66  C   UNL A   1      46.134  31.497  28.049  1.00  0.00     0.037 A 
BRANCH  53  67
ATOM     67  C   UNL A   1      50.601  27.880  25.824  1.00  0.00     0.064 A 
ATOM     68  C   UNL A   1      51.081  28.021  24.514  1.00  0.00     0.173 A 
ATOM     69  C   UNL A   1      51.538  27.682  26.849  1.00  0.00     0.173 A 
ATOM     70  F   UNL A   1      50.226  28.202  23.496  1.00  0.00    -0.203 F 
ATOM     71  C   UNL A   1      52.445  27.955  24.241  1.00  0.00     0.198 A 
ATOM     72  C   UNL A   1      52.903  27.648  26.577  1.00  0.00     0.198 A 
ATOM     73  F   UNL A   1      51.131  27.546  28.120  1.00  0.00    -0.203 F 
ATOM     74  F   UNL A   1      52.879  28.059  22.978  1.00  0.00    -0.200 F 
ATOM     75  C   UNL A   1      53.355  27.780  25.274  1.00  0.00     0.200 A 
ATOM     76  F   UNL A   1      53.781  27.496  27.578  1.00  0.00    -0.200 F 
ATOM     77  F   UNL A   1      54.669  27.739  25.011  1.00  0.00    -0.200 F 
ENDBRANCH  53  67
BRANCH  54  78
ATOM     78  C   UNL A   1      40.959  28.380  28.382  1.00  0.00     0.064 A 
ATOM     79  C   UNL A   1      39.975  28.914  27.536  1.00  0.00     0.173 A 
ATOM     80  C   UNL A   1      40.562  27.984  29.668  1.00  0.00     0.173 A 
ATOM     81  F   UNL A   1      40.307  29.328  26.303  1.00  0.00    -0.203 F 
ATOM     82  C   UNL A   1      38.664  29.088  27.972  1.00  0.00     0.198 A 
ATOM     83  C   UNL A   1      39.242  28.124  30.091  1.00  0.00     0.198 A 
ATOM     84  F   UNL A   1      41.459  27.462  30.518  1.00  0.00    -0.203 F 
ATOM     85  F   UNL A   1      37.764  29.670  27.167  1.00  0.00    -0.200 F 
ATOM     86  C   UNL A   1      38.297  28.691  29.249  1.00  0.00     0.200 A 
ATOM     87  F   UNL A   1      38.888  27.725  31.320  1.00  0.00    -0.200 F 
ATOM     88  F   UNL A   1      37.038  28.868  29.672  1.00  0.00    -0.200 F 
ENDBRANCH  54  78
BRANCH  66  89
ATOM     89  C   UNL A   1      46.227  32.937  28.466  1.00  0.00     0.064 A 
ATOM     90  C   UNL A   1      45.964  33.985  27.572  1.00  0.00     0.173 A 
ATOM     91  C   UNL A   1      46.533  33.269  29.795  1.00  0.00     0.173 A 
ATOM     92  F   UNL A   1      45.682  33.723  26.287  1.00  0.00    -0.203 F 
ATOM     93  C   UNL A   1      46.028  35.312  27.988  1.00  0.00     0.198 A 
ATOM     94  C   UNL A   1      46.561  34.595  30.216  1.00  0.00     0.198 A 
ATOM     95  F   UNL A   1      46.784  32.304  30.692  1.00  0.00    -0.203 F 
ATOM     96  F   UNL A   1      45.821  36.300  27.105  1.00  0.00    -0.200 F 
ATOM     97  C   UNL A   1      46.316  35.616  29.311  1.00  0.00     0.200 A 
ATOM     98  F   UNL A   1      46.820  34.884  31.498  1.00  0.00    -0.200 F 
ATOM     99  F   UNL A   1      46.363  36.894  29.712  1.00  0.00    -0.200 F 
ENDBRANCH  66  89
ENDBRANCH  40  41
ENDBRANCH  32  35
ENDBRANCH  30  31
ENDBRANCH  29  30
ENDBRANCH  28  29
ENDBRANCH  27  28
ENDBRANCH   1  27
TORSDOF 17
ENDMDL
MODEL 2
REMARK VINA RESULT:     -11.6      7.198     12.776
REMARK SMILES O=C(C[C@H]1C[C@H]2CC[C@@H](C1)N2C(=O)NCc1ncn[nH]1)NCCCCCCNC(=O)c1ccc(-c2c3nc(c(-c4c(F)c(F)c(F)c(F)c4F)c4ccc([nH]4)c(-c4c(F)c(F)c(F)c(F)c4F)c4nc(c(-c5c(F)c(F)c(F)c(F)c5F)c5ccc2[nH]5)C=C4)C=C3)cc1
REMARK SMILES IDX 23 1 22 2 21 3 1 4 2 5 3 7 4 8 5 9 10 10 6 11 9 12 7 13
REMARK SMILES IDX 11 14 8 15 12 16 13 17 14 18 15 20 16 21 17 22 20 23 18 24
REMARK SMILES IDX 19 25 24 27 25 28 26 29 27 30 28 31 29 32 30 34 31 35 32 36
REMARK SMILES IDX 93 37 33 38 92 39 34 40 35 41 36 42 86 43 37 44 91 45 85 46
REMARK SMILES IDX 87 47 38 48 90 49 84 50 83 51 39 53 71 54 51 55 70 56 52 57
REMARK SMILES IDX 55 58 69 59 88 60 53 61 54 62 68 64 89 65 56 66 40 67 41 68
REMARK SMILES IDX 49 69 42 70 43 71 47 72 50 73 44 74 45 75 48 76 46 77 72 78
REMARK SMILES IDX 73 79 81 80 74 81 75 82 79 83 82 84 76 85 77 86 80 87 78 88
REMARK SMILES IDX 57 89 58 90 66 91 59 92 60 93 64 94 67 95 61 96 62 97 65 98
REMARK SMILES IDX 63 99
REMARK H PARENT 21 6 14 19 20 26 28 33 87 52 55 63
REMARK Flexibility Score: inf
ROOT
ATOM      1  C   UNL A   1      34.395  32.781  29.050  1.00  0.00     0.021 C 
ENDROOT
BRANCH   1   2
ATOM      2  C   UNL A   1      34.886  31.956  27.858  1.00  0.00     0.116 C 
BRANCH   2   3
ATOM      3  N   UNL A   1      34.143  30.719  27.773  1.00  0.00    -0.356 N 
ATOM      4  O   UNL A   1      35.955  29.312  27.657  1.00  0.00    -0.275 OA
ATOM      5  C   UNL A   1      34.747  29.505  27.572  1.00  0.00     0.220 C 
ATOM      6  H   UNL A   1      33.163  30.749  27.864  1.00  0.00     0.163 HD
BRANCH   5   7
ATOM      7  C   UNL A   1      33.788  28.417  27.147  1.00  0.00     0.103 C 
BRANCH   7   8
ATOM      8  C   UNL A   1      32.859  28.785  25.975  1.00  0.00     0.002 C 
ATOM      9  C   UNL A   1      33.611  28.656  24.622  1.00  0.00     0.029 C 
ATOM     10  C   UNL A   1      31.515  28.011  25.965  1.00  0.00     0.029 C 
ATOM     11  C   UNL A   1      33.415  27.296  23.919  1.00  0.00     0.087 C 
ATOM     12  C   UNL A   1      31.534  26.718  25.126  1.00  0.00     0.087 C 
ATOM     13  C   UNL A   1      33.857  26.105  24.769  1.00  0.00     0.027 C 
ATOM     14  N   UNL A   1      31.980  27.075  23.786  1.00  0.00    -0.319 N 
ATOM     15  C   UNL A   1      32.612  25.729  25.585  1.00  0.00     0.027 C 
BRANCH  14  16
ATOM     16  C   UNL A   1      31.376  27.304  22.602  1.00  0.00     0.318 C 
ATOM     17  O   UNL A   1      31.444  26.482  21.681  1.00  0.00    -0.249 OA
ATOM     18  N   UNL A   1      30.681  28.406  22.305  1.00  0.00    -0.331 N 
ATOM     19  H   UNL A   1      30.370  28.391  21.371  1.00  0.00     0.165 HD
BRANCH  18  20
ATOM     20  C   UNL A   1      30.258  29.614  22.978  1.00  0.00     0.194 C 
BRANCH  20  21
ATOM     21  C   UNL A   1      29.376  30.414  22.091  1.00  0.00     0.143 A 
ATOM     22  N   UNL A   1      28.469  29.969  21.244  1.00  0.00    -0.218 NA
ATOM     23  N   UNL A   1      29.379  31.781  22.052  1.00  0.00    -0.262 N 
ATOM     24  C   UNL A   1      27.944  31.112  20.715  1.00  0.00     0.246 A 
ATOM     25  N   UNL A   1      28.467  32.247  21.184  1.00  0.00    -0.162 NA
ATOM     26  H   UNL A   1      29.973  32.350  22.591  1.00  0.00     0.192 HD
ENDBRANCH  20  21
ENDBRANCH  18  20
ENDBRANCH  14  16
ENDBRANCH   7   8
ENDBRANCH   5   7
ENDBRANCH   2   3
ENDBRANCH   1   2
BRANCH   1  27
ATOM     27  C   UNL A   1      33.423  33.910  28.677  1.00  0.00     0.002 C 
BRANCH  27  28
ATOM     28  C   UNL A   1      34.074  35.281  28.466  1.00  0.00     0.002 C 
BRANCH  28  29
ATOM     29  C   UNL A   1      33.201  36.470  28.867  1.00  0.00     0.021 C 
BRANCH  29  30
ATOM     30  C   UNL A   1      33.497  37.030  30.252  1.00  0.00     0.116 C 
BRANCH  30  31
ATOM     31  N   UNL A   1      32.471  36.678  31.221  1.00  0.00    -0.352 N 
ATOM     32  C   UNL A   1      32.451  35.640  32.121  1.00  0.00     0.251 C 
ATOM     33  H   UNL A   1      31.681  37.265  31.234  1.00  0.00     0.163 HD
ATOM     34  O   UNL A   1      31.432  35.375  32.744  1.00  0.00    -0.269 OA
BRANCH  32  35
ATOM     35  C   UNL A   1      33.670  34.825  32.314  1.00  0.00     0.039 A 
ATOM     36  C   UNL A   1      34.914  35.382  32.011  1.00  0.00     0.014 A 
ATOM     37  C   UNL A   1      33.583  33.521  32.809  1.00  0.00     0.014 A 
ATOM     38  C   UNL A   1      36.078  34.656  32.270  1.00  0.00     0.010 A 
ATOM     39  C   UNL A   1      34.745  32.829  33.138  1.00  0.00     0.010 A 
ATOM     40  C   UNL A   1      36.004  33.389  32.872  1.00  0.00    -0.014 A 
BRANCH  40  41
ATOM     41  C   UNL A   1      37.229  32.629  33.234  1.00  0.00     0.031 A 
ATOM     42  C   UNL A   1      37.959  32.945  34.511  1.00  0.00     0.074 A 
ATOM     43  C   UNL A   1      37.727  31.714  32.378  1.00  0.00     0.049 A 
ATOM     44  N   UNL A   1      39.095  32.469  34.956  1.00  0.00    -0.248 NA
ATOM     45  C   UNL A   1      37.344  33.948  35.396  1.00  0.00     0.031 C 
ATOM     46  C   UNL A   1      37.133  31.345  31.091  1.00  0.00     0.029 A 
ATOM     47  N   UNL A   1      38.857  30.937  32.454  1.00  0.00    -0.354 N 
ATOM     48  C   UNL A   1      39.341  33.132  36.150  1.00  0.00     0.074 A 
ATOM     49  C   UNL A   1      38.260  34.071  36.347  1.00  0.00     0.031 C 
ATOM     50  C   UNL A   1      37.893  30.404  30.509  1.00  0.00     0.029 A 
ATOM     51  C   UNL A   1      39.051  30.136  31.354  1.00  0.00     0.049 A 
ATOM     52  H   UNL A   1      39.470  30.952  33.224  1.00  0.00     0.167 HD
ATOM     53  C   UNL A   1      40.371  32.959  37.013  1.00  0.00     0.037 A 
ATOM     54  C   UNL A   1      40.062  29.296  31.054  1.00  0.00     0.037 A 
ATOM     55  C   UNL A   1      41.423  31.994  36.834  1.00  0.00     0.049 A 
ATOM     56  C   UNL A   1      41.199  29.139  32.030  1.00  0.00     0.074 A 
ATOM     57  C   UNL A   1      42.459  31.684  37.696  1.00  0.00     0.029 A 
ATOM     58  N   UNL A   1      41.575  31.188  35.717  1.00  0.00    -0.354 N 
ATOM     59  N   UNL A   1      41.374  29.706  33.198  1.00  0.00    -0.248 NA
ATOM     60  C   UNL A   1      42.280  28.219  31.646  1.00  0.00     0.031 C 
ATOM     61  C   UNL A   1      43.277  30.737  37.072  1.00  0.00     0.029 A 
ATOM     62  C   UNL A   1      42.711  30.407  35.852  1.00  0.00     0.049 A 
ATOM     63  H   UNL A   1      40.967  31.173  34.942  1.00  0.00     0.167 HD
ATOM     64  C   UNL A   1      42.556  29.181  33.704  1.00  0.00     0.074 A 
ATOM     65  C   UNL A   1      43.052  28.242  32.722  1.00  0.00     0.031 C 
ATOM     66  C   UNL A   1      43.177  29.455  34.878  1.00  0.00     0.037 A 
BRANCH  53  67
ATOM     67  C   UNL A   1      40.424  33.829  38.235  1.00  0.00     0.064 A 
ATOM     68  C   UNL A   1      39.746  33.490  39.415  1.00  0.00     0.173 A 
ATOM     69  C   UNL A   1      41.235  34.974  38.250  1.00  0.00     0.173 A 
ATOM     70  F   UNL A   1      38.950  32.412  39.452  1.00  0.00    -0.203 F 
ATOM     71  C   UNL A   1      39.866  34.274  40.561  1.00  0.00     0.198 A 
ATOM     72  C   UNL A   1      41.378  35.738  39.405  1.00  0.00     0.198 A 
ATOM     73  F   UNL A   1      41.909  35.339  37.149  1.00  0.00    -0.203 F 
ATOM     74  F   UNL A   1      39.184  33.950  41.666  1.00  0.00    -0.200 F 
ATOM     75  C   UNL A   1      40.691  35.390  40.558  1.00  0.00     0.200 A 
ATOM     76  F   UNL A   1      42.188  36.806  39.405  1.00  0.00    -0.200 F 
ATOM     77  F   UNL A   1      40.823  36.130  41.667  1.00  0.00    -0.200 F 
ENDBRANCH  53  67
BRANCH  54  78
ATOM     78  C   UNL A   1      40.057  28.530  29.777  1.00  0.00     0.064 A 
ATOM     79  C   UNL A   1      39.424  27.281  29.687  1.00  0.00     0.173 A 
ATOM     80  C   UNL A   1      40.729  29.000  28.638  1.00  0.00     0.173 A 
ATOM     81  F   UNL A   1      38.785  26.778  30.755  1.00  0.00    -0.203 F 
ATOM     82  C   UNL A   1      39.500  26.515  28.527  1.00  0.00     0.198 A 
ATOM     83  C   UNL A   1      40.773  28.249  27.466  1.00  0.00     0.198 A 
ATOM     84  F   UNL A   1      41.347  30.190  28.666  1.00  0.00    -0.203 F 
ATOM     85  F   UNL A   1      38.949  25.293  28.496  1.00  0.00    -0.200 F 
ATOM     86  C   UNL A   1      40.172  27.000  27.416  1.00  0.00     0.200 A 
ATOM     87  F   UNL A   1      41.411  28.728  26.390  1.00  0.00    -0.200 F 
ATOM     88  F   UNL A   1      40.254  26.258  26.303  1.00  0.00    -0.200 F 
ENDBRANCH  54  78
BRANCH  66  89
ATOM     89  C   UNL A   1      44.426  28.686  35.200  1.00  0.00     0.064 A 
ATOM     90  C   UNL A   1      44.384  27.447  35.856  1.00  0.00     0.173 A 
ATOM     91  C   UNL A   1      45.679  29.174  34.798  1.00  0.00     0.173 A 
ATOM     92  F   UNL A   1      43.214  26.943  36.275  1.00  0.00    -0.203 F 
ATOM     93  C   UNL A   1      45.553  26.738  36.119  1.00  0.00     0.198 A 
ATOM     94  C   UNL A   1      46.842  28.445  35.031  1.00  0.00     0.198 A 
ATOM     95  F   UNL A   1      45.774  30.350  34.160  1.00  0.00    -0.203 F 
ATOM     96  F   UNL A   1      45.495  25.579  36.790  1.00  0.00    -0.200 F 
ATOM     97  C   UNL A   1      46.779  27.232  35.697  1.00  0.00     0.200 A 
ATOM     98  F   UNL A   1      48.022  28.917  34.605  1.00  0.00    -0.200 F 
ATOM     99  F   UNL A   1      47.902  26.541  35.939  1.00  0.00    -0.200 F 
ENDBRANCH  66  89
ENDBRANCH  40  41
ENDBRANCH  32  35
ENDBRANCH  30  31
ENDBRANCH  29  30
ENDBRANCH  28  29
ENDBRANCH  27  28
ENDBRANCH   1  27
TORSDOF 17
ENDMDL
MODEL 3
REMARK VINA RESULT:     -11.6      6.264     10.866
REMARK SMILES O=C(C[C@H]1C[C@H]2CC[C@@H](C1)N2C(=O)NCc1ncn[nH]1)NCCCCCCNC(=O)c1ccc(-c2c3nc(c(-c4c(F)c(F)c(F)c(F)c4F)c4ccc([nH]4)c(-c4c(F)c(F)c(F)c(F)c4F)c4nc(c(-c5c(F)c(F)c(F)c(F)c5F)c5ccc2[nH]5)C=C4)C=C3)cc1
REMARK SMILES IDX 23 1 22 2 21 3 1 4 2 5 3 7 4 8 5 9 10 10 6 11 9 12 7 13
REMARK SMILES IDX 11 14 8 15 12 16 13 17 14 18 15 20 16 21 17 22 20 23 18 24
REMARK SMILES IDX 19 25 24 27 25 28 26 29 27 30 28 31 29 32 30 34 31 35 32 36
REMARK SMILES IDX 93 37 33 38 92 39 34 40 35 41 36 42 86 43 37 44 91 45 85 46
REMARK SMILES IDX 87 47 38 48 90 49 84 50 83 51 39 53 71 54 51 55 70 56 52 57
REMARK SMILES IDX 55 58 69 59 88 60 53 61 54 62 68 64 89 65 56 66 40 67 41 68
REMARK SMILES IDX 49 69 42 70 43 71 47 72 50 73 44 74 45 75 48 76 46 77 72 78
REMARK SMILES IDX 73 79 81 80 74 81 75 82 79 83 82 84 76 85 77 86 80 87 78 88
REMARK SMILES IDX 57 89 58 90 66 91 59 92 60 93 64 94 67 95 61 96 62 97 65 98
REMARK SMILES IDX 63 99
REMARK H PARENT 21 6 14 19 20 26 28 33 87 52 55 63
REMARK Flexibility Score: inf
ROOT
ATOM      1  C   UNL A   1      31.689  28.224  26.827  1.00  0.00     0.021 C 
ENDROOT
BRANCH   1   2
ATOM      2  C   UNL A   1      31.247  28.045  25.373  1.00  0.00     0.116 C 
BRANCH   2   3
ATOM      3  N   UNL A   1      31.821  26.835  24.827  1.00  0.00    -0.356 N 
ATOM      4  O   UNL A   1      33.903  27.693  24.374  1.00  0.00    -0.275 OA
ATOM      5  C   UNL A   1      33.074  26.796  24.274  1.00  0.00     0.220 C 
ATOM      6  H   UNL A   1      31.290  26.006  24.854  1.00  0.00     0.163 HD
BRANCH   5   7
ATOM      7  C   UNL A   1      33.328  25.559  23.442  1.00  0.00     0.103 C 
BRANCH   7   8
ATOM      8  C   UNL A   1      34.306  24.544  24.062  1.00  0.00     0.002 C 
ATOM      9  C   UNL A   1      33.784  24.054  25.440  1.00  0.00     0.029 C 
ATOM     10  C   UNL A   1      34.667  23.360  23.126  1.00  0.00     0.029 C 
ATOM     11  C   UNL A   1      32.977  22.740  25.377  1.00  0.00     0.087 C 
ATOM     12  C   UNL A   1      33.770  22.119  23.300  1.00  0.00     0.087 C 
ATOM     13  C   UNL A   1      31.755  22.821  24.461  1.00  0.00     0.027 C 
ATOM     14  N   UNL A   1      33.809  21.747  24.708  1.00  0.00    -0.319 N 
ATOM     15  C   UNL A   1      32.285  22.424  23.076  1.00  0.00     0.027 C 
BRANCH  14  16
ATOM     16  C   UNL A   1      34.465  20.823  25.440  1.00  0.00     0.318 C 
ATOM     17  O   UNL A   1      35.554  21.079  25.964  1.00  0.00    -0.249 OA
ATOM     18  N   UNL A   1      34.029  19.578  25.656  1.00  0.00    -0.331 N 
ATOM     19  H   UNL A   1      34.685  19.056  26.173  1.00  0.00     0.165 HD
BRANCH  18  20
ATOM     20  C   UNL A   1      32.861  18.786  25.342  1.00  0.00     0.194 C 
BRANCH  20  21
ATOM     21  C   UNL A   1      33.197  17.341  25.369  1.00  0.00     0.143 A 
ATOM     22  N   UNL A   1      32.362  16.320  25.371  1.00  0.00    -0.218 NA
ATOM     23  N   UNL A   1      34.477  16.860  25.376  1.00  0.00    -0.262 N 
ATOM     24  C   UNL A   1      33.191  15.235  25.376  1.00  0.00     0.246 A 
ATOM     25  N   UNL A   1      34.495  15.517  25.374  1.00  0.00    -0.162 NA
ATOM     26  H   UNL A   1      35.282  17.426  25.381  1.00  0.00     0.192 HD
ENDBRANCH  20  21
ENDBRANCH  18  20
ENDBRANCH  14  16
ENDBRANCH   7   8
ENDBRANCH   5   7
ENDBRANCH   2   3
ENDBRANCH   1   2
BRANCH   1  27
ATOM     27  C   UNL A   1      32.110  29.657  27.185  1.00  0.00     0.002 C 
BRANCH  27  28
ATOM     28  C   UNL A   1      31.771  30.714  26.129  1.00  0.00     0.002 C 
BRANCH  28  29
ATOM     29  C   UNL A   1      31.485  32.107  26.691  1.00  0.00     0.021 C 
BRANCH  29  30
ATOM     30  C   UNL A   1      32.699  32.807  27.287  1.00  0.00     0.116 C 
BRANCH  30  31
ATOM     31  N   UNL A   1      32.424  34.195  27.626  1.00  0.00    -0.352 N 
ATOM     32  C   UNL A   1      32.996  34.976  28.600  1.00  0.00     0.251 C 
ATOM     33  H   UNL A   1      31.733  34.635  27.081  1.00  0.00     0.163 HD
ATOM     34  O   UNL A   1      32.528  36.072  28.876  1.00  0.00    -0.269 OA
BRANCH  32  35
ATOM     35  C   UNL A   1      34.174  34.469  29.337  1.00  0.00     0.039 A 
ATOM     36  C   UNL A   1      33.987  33.860  30.580  1.00  0.00     0.014 A 
ATOM     37  C   UNL A   1      35.457  34.578  28.792  1.00  0.00     0.014 A 
ATOM     38  C   UNL A   1      35.078  33.299  31.246  1.00  0.00     0.010 A 
ATOM     39  C   UNL A   1      36.529  33.952  29.420  1.00  0.00     0.010 A 
ATOM     40  C   UNL A   1      36.352  33.306  30.653  1.00  0.00    -0.014 A 
BRANCH  40  41
ATOM     41  C   UNL A   1      37.513  32.644  31.302  1.00  0.00     0.031 A 
ATOM     42  C   UNL A   1      38.198  31.491  30.620  1.00  0.00     0.074 A 
ATOM     43  C   UNL A   1      37.901  33.029  32.535  1.00  0.00     0.049 A 
ATOM     44  N   UNL A   1      39.158  30.719  31.062  1.00  0.00    -0.248 NA
ATOM     45  C   UNL A   1      37.723  31.141  29.271  1.00  0.00     0.031 C 
ATOM     46  C   UNL A   1      37.293  34.109  33.316  1.00  0.00     0.029 A 
ATOM     47  N   UNL A   1      38.889  32.543  33.356  1.00  0.00    -0.354 N 
ATOM     48  C   UNL A   1      39.381  29.781  30.063  1.00  0.00     0.074 A 
ATOM     49  C   UNL A   1      38.433  30.053  29.006  1.00  0.00     0.031 C 
ATOM     50  C   UNL A   1      37.932  34.214  34.492  1.00  0.00     0.029 A 
ATOM     51  C   UNL A   1      38.960  33.182  34.571  1.00  0.00     0.049 A 
ATOM     52  H   UNL A   1      39.490  31.808  33.098  1.00  0.00     0.167 HD
ATOM     53  C   UNL A   1      40.306  28.793  30.025  1.00  0.00     0.037 A 
ATOM     54  C   UNL A   1      39.752  32.947  35.635  1.00  0.00     0.037 A 
ATOM     55  C   UNL A   1      41.275  28.553  31.062  1.00  0.00     0.049 A 
ATOM     56  C   UNL A   1      40.761  31.828  35.566  1.00  0.00     0.074 A 
ATOM     57  C   UNL A   1      42.308  27.633  31.074  1.00  0.00     0.029 A 
ATOM     58  N   UNL A   1      41.328  29.232  32.269  1.00  0.00    -0.354 N 
ATOM     59  N   UNL A   1      41.021  31.007  34.578  1.00  0.00    -0.248 NA
ATOM     60  C   UNL A   1      41.590  31.608  36.760  1.00  0.00     0.031 C 
ATOM     61  C   UNL A   1      42.945  27.710  32.316  1.00  0.00     0.029 A 
ATOM     62  C   UNL A   1      42.353  28.725  33.049  1.00  0.00     0.049 A 
ATOM     63  H   UNL A   1      40.725  29.965  32.532  1.00  0.00     0.167 HD
ATOM     64  C   UNL A   1      42.068  30.205  35.015  1.00  0.00     0.074 A 
ATOM     65  C   UNL A   1      42.403  30.645  36.352  1.00  0.00     0.031 C 
ATOM     66  C   UNL A   1      42.694  29.192  34.367  1.00  0.00     0.037 A 
BRANCH  53  67
ATOM     67  C   UNL A   1      40.324  27.885  28.830  1.00  0.00     0.064 A 
ATOM     68  C   UNL A   1      41.082  28.181  27.688  1.00  0.00     0.173 A 
ATOM     69  C   UNL A   1      39.640  26.660  28.865  1.00  0.00     0.173 A 
ATOM     70  F   UNL A   1      41.747  29.343  27.599  1.00  0.00    -0.203 F 
ATOM     71  C   UNL A   1      41.142  27.290  26.618  1.00  0.00     0.198 A 
ATOM     72  C   UNL A   1      39.727  25.759  27.808  1.00  0.00     0.198 A 
ATOM     73  F   UNL A   1      38.906  26.327  29.937  1.00  0.00    -0.203 F 
ATOM     74  F   UNL A   1      41.845  27.608  25.523  1.00  0.00    -0.200 F 
ATOM     75  C   UNL A   1      40.474  26.076  26.684  1.00  0.00     0.200 A 
ATOM     76  F   UNL A   1      39.095  24.579  27.881  1.00  0.00    -0.200 F 
ATOM     77  F   UNL A   1      40.551  25.211  25.663  1.00  0.00    -0.200 F 
ENDBRANCH  53  67
BRANCH  54  78
ATOM     78  C   UNL A   1      39.637  33.778  36.865  1.00  0.00     0.064 A 
ATOM     79  C   UNL A   1      38.814  33.382  37.929  1.00  0.00     0.173 A 
ATOM     80  C   UNL A   1      40.300  35.010  36.981  1.00  0.00     0.173 A 
ATOM     81  F   UNL A   1      38.141  32.223  37.858  1.00  0.00    -0.203 F 
ATOM     82  C   UNL A   1      38.624  34.202  39.039  1.00  0.00     0.198 A 
ATOM     83  C   UNL A   1      40.139  35.812  38.108  1.00  0.00     0.198 A 
ATOM     84  F   UNL A   1      41.104  35.436  35.996  1.00  0.00    -0.203 F 
ATOM     85  F   UNL A   1      37.773  33.830  40.006  1.00  0.00    -0.200 F 
ATOM     86  C   UNL A   1      39.288  35.416  39.129  1.00  0.00     0.200 A 
ATOM     87  F   UNL A   1      40.794  36.977  38.198  1.00  0.00    -0.200 F 
ATOM     88  F   UNL A   1      39.098  36.209  40.192  1.00  0.00    -0.200 F 
ENDBRANCH  54  78
BRANCH  66  89
ATOM     89  C   UNL A   1      43.849  28.530  35.063  1.00  0.00     0.064 A 
ATOM     90  C   UNL A   1      45.163  29.002  34.929  1.00  0.00     0.173 A 
ATOM     91  C   UNL A   1      43.627  27.439  35.916  1.00  0.00     0.173 A 
ATOM     92  F   UNL A   1      45.432  30.033  34.114  1.00  0.00    -0.203 F 
ATOM     93  C   UNL A   1      46.214  28.390  35.606  1.00  0.00     0.198 A 
ATOM     94  C   UNL A   1      44.675  26.852  36.620  1.00  0.00     0.198 A 
ATOM     95  F   UNL A   1      42.388  26.953  36.086  1.00  0.00    -0.203 F 
ATOM     96  F   UNL A   1      47.469  28.826  35.427  1.00  0.00    -0.200 F 
ATOM     97  C   UNL A   1      45.968  27.322  36.458  1.00  0.00     0.200 A 
ATOM     98  F   UNL A   1      44.431  25.834  37.456  1.00  0.00    -0.200 F 
ATOM     99  F   UNL A   1      46.980  26.744  37.120  1.00  0.00    -0.200 F 
ENDBRANCH  66  89
ENDBRANCH  40  41
ENDBRANCH  32  35
ENDBRANCH  30  31
ENDBRANCH  29  30
ENDBRANCH  28  29
ENDBRANCH  27  28
ENDBRANCH   1  27
TORSDOF 17
ENDMDL
