MODEL 1
REMARK VINA RESULT:     -11.4      0.000      0.000
REMARK SMILES CC(C)(C)OC(=O)N1C[C@H](Oc2ccncc2)C[C@H]1C(=O)NCCCCCCNC(=O)c1ccc(-c2c3nc(c(-c4c(F)c(F)c(F)c(F)c4F)c4ccc([nH]4)c(-c4c(F)c(F)c(F)c(F)c4F)c4nc(c(-c5c(F)c(F)c(F)c(F)c5F)c5ccc2[nH]5)C=C4)C=C3)cc1
REMARK SMILES IDX 25 1 24 2 23 3 22 4 20 5 21 6 19 8 8 9 9 10 10 11 18 12 6 13
REMARK SMILES IDX 7 14 5 15 2 16 1 17 3 18 4 19 11 20 12 21 13 22 17 23 14 24
REMARK SMILES IDX 16 25 15 26 26 27 27 28 28 29 29 30 30 31 31 33 32 34 33 35
REMARK SMILES IDX 94 36 34 37 93 38 35 39 36 40 37 41 87 42 38 43 92 44 86 45
REMARK SMILES IDX 88 46 39 47 91 48 85 49 84 50 40 52 72 53 52 54 71 55 53 56
REMARK SMILES IDX 56 57 70 58 89 59 54 60 55 61 69 63 90 64 57 65 41 66 42 67
REMARK SMILES IDX 50 68 43 69 44 70 48 71 51 72 45 73 46 74 49 75 47 76 73 77
REMARK SMILES IDX 74 78 82 79 75 80 76 81 80 82 83 83 77 84 78 85 81 86 79 87
REMARK SMILES IDX 58 88 59 89 67 90 60 91 61 92 65 93 68 94 62 95 63 96 66 97
REMARK SMILES IDX 64 98
REMARK H PARENT 22 7 29 32 88 51 56 62
REMARK Flexibility Score: inf
ROOT
ATOM      1  C   UNL A   1      33.546  23.082  27.094  1.00  0.00     0.002 C 
ENDROOT
BRANCH   1   2
ATOM      2  C   UNL A   1      32.101  23.284  26.615  1.00  0.00     0.021 C 
BRANCH   2   3
ATOM      3  C   UNL A   1      31.832  24.669  26.015  1.00  0.00     0.116 C 
BRANCH   3   4
ATOM      4  N   UNL A   1      31.903  24.612  24.569  1.00  0.00    -0.354 N 
ATOM      5  C   UNL A   1      31.371  25.459  23.635  1.00  0.00     0.243 C 
ATOM      6  O   UNL A   1      31.312  25.054  22.472  1.00  0.00    -0.273 OA
ATOM      7  H   UNL A   1      32.409  23.851  24.204  1.00  0.00     0.163 HD
BRANCH   5   8
ATOM      8  C   UNL A   1      30.862  26.852  24.072  1.00  0.00     0.181 C 
ATOM      9  N   UNL A   1      31.846  27.890  23.777  1.00  0.00    -0.292 N 
ATOM     10  C   UNL A   1      31.402  28.767  22.711  1.00  0.00     0.169 C 
ATOM     11  C   UNL A   1      29.883  28.710  22.814  1.00  0.00     0.195 C 
ATOM     12  C   UNL A   1      29.604  27.281  23.293  1.00  0.00     0.082 C 
BRANCH   9  13
ATOM     13  C   UNL A   1      32.975  28.052  24.538  1.00  0.00     0.411 C 
ATOM     14  O   UNL A   1      33.854  27.206  24.628  1.00  0.00    -0.224 OA
BRANCH  13  15
ATOM     15  O   UNL A   1      32.942  29.223  25.218  1.00  0.00    -0.444 OA
BRANCH  15  16
ATOM     16  C   UNL A   1      32.875  29.307  26.665  1.00  0.00     0.106 C 
ATOM     17  C   UNL A   1      32.400  30.741  26.944  1.00  0.00     0.056 C 
ATOM     18  C   UNL A   1      34.286  29.121  27.222  1.00  0.00     0.056 C 
ATOM     19  C   UNL A   1      31.884  28.338  27.322  1.00  0.00     0.056 C 
ENDBRANCH  15  16
ENDBRANCH  13  15
ENDBRANCH   9  13
BRANCH  11  20
ATOM     20  O   UNL A   1      29.248  29.738  23.598  1.00  0.00    -0.488 OA
BRANCH  20  21
ATOM     21  C   UNL A   1      28.820  30.864  22.957  1.00  0.00     0.122 A 
ATOM     22  C   UNL A   1      28.951  32.114  23.545  1.00  0.00     0.066 A 
ATOM     23  C   UNL A   1      28.393  30.768  21.639  1.00  0.00     0.066 A 
ATOM     24  C   UNL A   1      28.550  33.221  22.818  1.00  0.00     0.115 A 
ATOM     25  C   UNL A   1      28.032  31.934  20.986  1.00  0.00     0.115 A 
ATOM     26  N   UNL A   1      28.086  33.159  21.552  1.00  0.00    -0.264 NA
ENDBRANCH  20  21
ENDBRANCH  11  20
ENDBRANCH   5   8
ENDBRANCH   3   4
ENDBRANCH   2   3
ENDBRANCH   1   2
BRANCH   1  27
ATOM     27  C   UNL A   1      34.602  23.884  26.326  1.00  0.00     0.002 C 
BRANCH  27  28
ATOM     28  C   UNL A   1      35.685  23.044  25.644  1.00  0.00     0.021 C 
BRANCH  28  29
ATOM     29  C   UNL A   1      37.028  23.749  25.472  1.00  0.00     0.116 C 
BRANCH  29  30
ATOM     30  N   UNL A   1      38.152  22.843  25.645  1.00  0.00    -0.352 N 
ATOM     31  C   UNL A   1      39.394  23.086  26.176  1.00  0.00     0.251 C 
ATOM     32  H   UNL A   1      38.001  21.919  25.337  1.00  0.00     0.163 HD
ATOM     33  O   UNL A   1      40.284  22.248  26.079  1.00  0.00    -0.269 OA
BRANCH  31  34
ATOM     34  C   UNL A   1      39.670  24.373  26.852  1.00  0.00     0.039 A 
ATOM     35  C   UNL A   1      39.233  24.550  28.168  1.00  0.00     0.014 A 
ATOM     36  C   UNL A   1      40.340  25.405  26.188  1.00  0.00     0.014 A 
ATOM     37  C   UNL A   1      39.520  25.741  28.839  1.00  0.00     0.010 A 
ATOM     38  C   UNL A   1      40.679  26.566  26.878  1.00  0.00     0.010 A 
ATOM     39  C   UNL A   1      40.272  26.746  28.208  1.00  0.00    -0.014 A 
BRANCH  39  40
ATOM     40  C   UNL A   1      40.643  27.991  28.925  1.00  0.00     0.031 A 
ATOM     41  C   UNL A   1      42.011  28.136  29.530  1.00  0.00     0.074 A 
ATOM     42  C   UNL A   1      39.725  28.961  29.094  1.00  0.00     0.049 A 
ATOM     43  N   UNL A   1      42.495  29.108  30.261  1.00  0.00    -0.248 NA
ATOM     44  C   UNL A   1      42.950  27.027  29.306  1.00  0.00     0.031 C 
ATOM     45  C   UNL A   1      38.349  28.916  28.599  1.00  0.00     0.029 A 
ATOM     46  N   UNL A   1      39.807  30.168  29.744  1.00  0.00    -0.354 N 
ATOM     47  C   UNL A   1      43.787  28.723  30.592  1.00  0.00     0.074 A 
ATOM     48  C   UNL A   1      43.994  27.406  30.028  1.00  0.00     0.031 C 
ATOM     49  C   UNL A   1      37.717  30.045  28.957  1.00  0.00     0.029 A 
ATOM     50  C   UNL A   1      38.633  30.879  29.730  1.00  0.00     0.049 A 
ATOM     51  H   UNL A   1      40.629  30.491  30.178  1.00  0.00     0.167 HD
ATOM     52  C   UNL A   1      44.725  29.415  31.284  1.00  0.00     0.037 A 
ATOM     53  C   UNL A   1      38.326  32.066  30.287  1.00  0.00     0.037 A 
ATOM     54  C   UNL A   1      44.523  30.732  31.828  1.00  0.00     0.049 A 
ATOM     55  C   UNL A   1      39.385  32.820  31.044  1.00  0.00     0.074 A 
ATOM     56  C   UNL A   1      45.427  31.538  32.498  1.00  0.00     0.029 A 
ATOM     57  N   UNL A   1      43.330  31.437  31.763  1.00  0.00    -0.354 N 
ATOM     58  N   UNL A   1      40.623  32.474  31.297  1.00  0.00    -0.248 NA
ATOM     59  C   UNL A   1      39.007  34.133  31.583  1.00  0.00     0.031 C 
ATOM     60  C   UNL A   1      44.770  32.716  32.872  1.00  0.00     0.029 A 
ATOM     61  C   UNL A   1      43.469  32.662  32.397  1.00  0.00     0.049 A 
ATOM     62  H   UNL A   1      42.507  31.116  31.331  1.00  0.00     0.167 HD
ATOM     63  C   UNL A   1      41.178  33.530  32.006  1.00  0.00     0.074 A 
ATOM     64  C   UNL A   1      40.145  34.538  32.129  1.00  0.00     0.031 C 
ATOM     65  C   UNL A   1      42.430  33.654  32.511  1.00  0.00     0.037 A 
BRANCH  52  66
ATOM     66  C   UNL A   1      46.057  28.754  31.487  1.00  0.00     0.064 A 
ATOM     67  C   UNL A   1      47.098  28.902  30.558  1.00  0.00     0.173 A 
ATOM     68  C   UNL A   1      46.304  27.979  32.630  1.00  0.00     0.173 A 
ATOM     69  F   UNL A   1      46.909  29.622  29.442  1.00  0.00    -0.203 F 
ATOM     70  C   UNL A   1      48.325  28.271  30.748  1.00  0.00     0.198 A 
ATOM     71  C   UNL A   1      47.542  27.374  32.832  1.00  0.00     0.198 A 
ATOM     72  F   UNL A   1      45.345  27.810  33.554  1.00  0.00    -0.203 F 
ATOM     73  F   UNL A   1      49.285  28.382  29.820  1.00  0.00    -0.200 F 
ATOM     74  C   UNL A   1      48.547  27.512  31.887  1.00  0.00     0.200 A 
ATOM     75  F   UNL A   1      47.760  26.650  33.939  1.00  0.00    -0.200 F 
ATOM     76  F   UNL A   1      49.729  26.907  32.069  1.00  0.00    -0.200 F 
ENDBRANCH  52  66
BRANCH  53  77
ATOM     77  C   UNL A   1      36.957  32.620  30.129  1.00  0.00     0.064 A 
ATOM     78  C   UNL A   1      35.992  32.450  31.131  1.00  0.00     0.173 A 
ATOM     79  C   UNL A   1      36.594  33.345  28.985  1.00  0.00     0.173 A 
ATOM     80  F   UNL A   1      36.289  31.746  32.233  1.00  0.00    -0.203 F 
ATOM     81  C   UNL A   1      34.709  32.971  30.988  1.00  0.00     0.198 A 
ATOM     82  C   UNL A   1      35.317  33.888  28.856  1.00  0.00     0.198 A 
ATOM     83  F   UNL A   1      37.485  33.542  28.003  1.00  0.00    -0.203 F 
ATOM     84  F   UNL A   1      33.793  32.763  31.943  1.00  0.00    -0.200 F 
ATOM     85  C   UNL A   1      34.374  33.696  29.853  1.00  0.00     0.200 A 
ATOM     86  F   UNL A   1      35.003  34.600  27.765  1.00  0.00    -0.200 F 
ATOM     87  F   UNL A   1      33.142  34.205  29.720  1.00  0.00    -0.200 F 
ENDBRANCH  53  77
BRANCH  65  88
ATOM     88  C   UNL A   1      42.758  34.932  33.224  1.00  0.00     0.064 A 
ATOM     89  C   UNL A   1      42.573  35.069  34.607  1.00  0.00     0.173 A 
ATOM     90  C   UNL A   1      43.303  36.018  32.522  1.00  0.00     0.173 A 
ATOM     91  F   UNL A   1      42.039  34.064  35.319  1.00  0.00    -0.203 F 
ATOM     92  C   UNL A   1      42.900  36.255  35.258  1.00  0.00     0.198 A 
ATOM     93  C   UNL A   1      43.654  37.192  33.181  1.00  0.00     0.198 A 
ATOM     94  F   UNL A   1      43.506  35.935  31.199  1.00  0.00    -0.203 F 
ATOM     95  F   UNL A   1      42.674  36.380  36.573  1.00  0.00    -0.200 F 
ATOM     96  C   UNL A   1      43.447  37.313  34.546  1.00  0.00     0.200 A 
ATOM     97  F   UNL A   1      44.194  38.210  32.493  1.00  0.00    -0.200 F 
ATOM     98  F   UNL A   1      43.767  38.451  35.177  1.00  0.00    -0.200 F 
ENDBRANCH  65  88
ENDBRANCH  39  40
ENDBRANCH  31  34
ENDBRANCH  29  30
ENDBRANCH  28  29
ENDBRANCH  27  28
ENDBRANCH   1  27
TORSDOF 18
ENDMDL
MODEL 2
REMARK VINA RESULT:     -11.4      4.094      9.571
REMARK SMILES CC(C)(C)OC(=O)N1C[C@H](Oc2ccncc2)C[C@H]1C(=O)NCCCCCCNC(=O)c1ccc(-c2c3nc(c(-c4c(F)c(F)c(F)c(F)c4F)c4ccc([nH]4)c(-c4c(F)c(F)c(F)c(F)c4F)c4nc(c(-c5c(F)c(F)c(F)c(F)c5F)c5ccc2[nH]5)C=C4)C=C3)cc1
REMARK SMILES IDX 25 1 24 2 23 3 22 4 20 5 21 6 19 8 8 9 9 10 10 11 18 12 6 13
REMARK SMILES IDX 7 14 5 15 2 16 1 17 3 18 4 19 11 20 12 21 13 22 17 23 14 24
REMARK SMILES IDX 16 25 15 26 26 27 27 28 28 29 29 30 30 31 31 33 32 34 33 35
REMARK SMILES IDX 94 36 34 37 93 38 35 39 36 40 37 41 87 42 38 43 92 44 86 45
REMARK SMILES IDX 88 46 39 47 91 48 85 49 84 50 40 52 72 53 52 54 71 55 53 56
REMARK SMILES IDX 56 57 70 58 89 59 54 60 55 61 69 63 90 64 57 65 41 66 42 67
REMARK SMILES IDX 50 68 43 69 44 70 48 71 51 72 45 73 46 74 49 75 47 76 73 77
REMARK SMILES IDX 74 78 82 79 75 80 76 81 80 82 83 83 77 84 78 85 81 86 79 87
REMARK SMILES IDX 58 88 59 89 67 90 60 91 61 92 65 93 68 94 62 95 63 96 66 97
REMARK SMILES IDX 64 98
REMARK H PARENT 22 7 29 32 88 51 56 62
REMARK Flexibility Score: inf
ROOT
ATOM      1  C   UNL A   1      38.649  22.355  26.063  1.00  0.00     0.002 C 
ENDROOT
BRANCH   1   2
ATOM      2  C   UNL A   1      37.971  23.732  26.121  1.00  0.00     0.021 C 
BRANCH   2   3
ATOM      3  C   UNL A   1      36.442  23.669  26.211  1.00  0.00     0.116 C 
BRANCH   3   4
ATOM      4  N   UNL A   1      35.847  24.151  24.981  1.00  0.00    -0.354 N 
ATOM      5  C   UNL A   1      34.822  23.625  24.243  1.00  0.00     0.243 C 
ATOM      6  O   UNL A   1      34.683  24.041  23.091  1.00  0.00    -0.273 OA
ATOM      7  H   UNL A   1      36.237  24.981  24.624  1.00  0.00     0.163 HD
BRANCH   5   8
ATOM      8  C   UNL A   1      33.912  22.541  24.866  1.00  0.00     0.181 C 
ATOM      9  N   UNL A   1      32.503  22.816  24.597  1.00  0.00    -0.292 N 
ATOM     10  C   UNL A   1      31.934  21.856  23.672  1.00  0.00     0.169 C 
ATOM     11  C   UNL A   1      32.770  20.603  23.899  1.00  0.00     0.195 C 
ATOM     12  C   UNL A   1      34.159  21.151  24.248  1.00  0.00     0.082 C 
BRANCH   9  13
ATOM     13  C   UNL A   1      31.818  23.794  25.270  1.00  0.00     0.411 C 
ATOM     14  O   UNL A   1      31.418  23.667  26.418  1.00  0.00    -0.224 OA
BRANCH  13  15
ATOM     15  O   UNL A   1      31.588  24.866  24.473  1.00  0.00    -0.444 OA
BRANCH  15  16
ATOM     16  C   UNL A   1      31.898  26.230  24.858  1.00  0.00     0.106 C 
ATOM     17  C   UNL A   1      30.653  26.705  25.623  1.00  0.00     0.056 C 
ATOM     18  C   UNL A   1      32.060  27.062  23.585  1.00  0.00     0.056 C 
ATOM     19  C   UNL A   1      33.114  26.380  25.780  1.00  0.00     0.056 C 
ENDBRANCH  15  16
ENDBRANCH  13  15
ENDBRANCH   9  13
BRANCH  11  20
ATOM     20  O   UNL A   1      32.254  19.642  24.839  1.00  0.00    -0.488 OA
BRANCH  20  21
ATOM     21  C   UNL A   1      32.638  18.339  24.703  1.00  0.00     0.122 A 
ATOM     22  C   UNL A   1      33.272  17.897  23.551  1.00  0.00     0.066 A 
ATOM     23  C   UNL A   1      32.530  17.488  25.795  1.00  0.00     0.066 A 
ATOM     24  C   UNL A   1      33.688  16.578  23.501  1.00  0.00     0.115 A 
ATOM     25  C   UNL A   1      32.993  16.191  25.656  1.00  0.00     0.115 A 
ATOM     26  N   UNL A   1      33.555  15.711  24.526  1.00  0.00    -0.264 NA
ENDBRANCH  20  21
ENDBRANCH  11  20
ENDBRANCH   5   8
ENDBRANCH   3   4
ENDBRANCH   2   3
ENDBRANCH   1   2
BRANCH   1  27
ATOM     27  C   UNL A   1      38.091  21.401  25.001  1.00  0.00     0.002 C 
BRANCH  27  28
ATOM     28  C   UNL A   1      38.679  19.988  25.025  1.00  0.00     0.021 C 
BRANCH  28  29
ATOM     29  C   UNL A   1      39.380  19.608  26.326  1.00  0.00     0.116 C 
BRANCH  29  30
ATOM     30  N   UNL A   1      40.585  18.827  26.095  1.00  0.00    -0.352 N 
ATOM     31  C   UNL A   1      41.888  19.246  25.985  1.00  0.00     0.251 C 
ATOM     32  H   UNL A   1      40.447  17.856  26.004  1.00  0.00     0.163 HD
ATOM     33  O   UNL A   1      42.759  18.469  25.609  1.00  0.00    -0.269 OA
BRANCH  31  34
ATOM     34  C   UNL A   1      42.242  20.647  26.301  1.00  0.00     0.039 A 
ATOM     35  C   UNL A   1      42.533  20.986  27.626  1.00  0.00     0.014 A 
ATOM     36  C   UNL A   1      42.273  21.624  25.302  1.00  0.00     0.014 A 
ATOM     37  C   UNL A   1      42.912  22.293  27.939  1.00  0.00     0.010 A 
ATOM     38  C   UNL A   1      42.710  22.911  25.605  1.00  0.00     0.010 A 
ATOM     39  C   UNL A   1      43.033  23.259  26.926  1.00  0.00    -0.014 A 
BRANCH  39  40
ATOM     40  C   UNL A   1      43.497  24.636  27.228  1.00  0.00     0.031 A 
ATOM     41  C   UNL A   1      42.539  25.652  27.780  1.00  0.00     0.074 A 
ATOM     42  C   UNL A   1      44.763  24.990  26.938  1.00  0.00     0.049 A 
ATOM     43  N   UNL A   1      42.732  26.922  28.031  1.00  0.00    -0.248 NA
ATOM     44  C   UNL A   1      41.173  25.185  28.061  1.00  0.00     0.031 C 
ATOM     45  C   UNL A   1      45.773  24.108  26.352  1.00  0.00     0.029 A 
ATOM     46  N   UNL A   1      45.411  26.191  27.080  1.00  0.00    -0.354 N 
ATOM     47  C   UNL A   1      41.513  27.406  28.486  1.00  0.00     0.074 A 
ATOM     48  C   UNL A   1      40.573  26.307  28.428  1.00  0.00     0.031 C 
ATOM     49  C   UNL A   1      46.915  24.795  26.191  1.00  0.00     0.029 A 
ATOM     50  C   UNL A   1      46.709  26.171  26.634  1.00  0.00     0.049 A 
ATOM     51  H   UNL A   1      44.985  26.991  27.466  1.00  0.00     0.167 HD
ATOM     52  C   UNL A   1      41.211  28.649  28.936  1.00  0.00     0.037 A 
ATOM     53  C   UNL A   1      47.627  27.154  26.579  1.00  0.00     0.037 A 
ATOM     54  C   UNL A   1      42.152  29.735  29.011  1.00  0.00     0.049 A 
ATOM     55  C   UNL A   1      47.272  28.524  27.090  1.00  0.00     0.074 A 
ATOM     56  C   UNL A   1      41.958  31.015  29.500  1.00  0.00     0.029 A 
ATOM     57  N   UNL A   1      43.470  29.667  28.582  1.00  0.00    -0.354 N 
ATOM     58  N   UNL A   1      46.134  28.953  27.578  1.00  0.00    -0.248 NA
ATOM     59  C   UNL A   1      48.332  29.541  27.053  1.00  0.00     0.031 C 
ATOM     60  C   UNL A   1      43.147  31.733  29.333  1.00  0.00     0.029 A 
ATOM     61  C   UNL A   1      44.096  30.888  28.780  1.00  0.00     0.049 A 
ATOM     62  H   UNL A   1      43.897  28.869  28.195  1.00  0.00     0.167 HD
ATOM     63  C   UNL A   1      46.343  30.281  27.923  1.00  0.00     0.074 A 
ATOM     64  C   UNL A   1      47.724  30.582  27.604  1.00  0.00     0.031 C 
ATOM     65  C   UNL A   1      45.471  31.171  28.455  1.00  0.00     0.037 A 
BRANCH  52  66
ATOM     66  C   UNL A   1      39.799  28.894  29.384  1.00  0.00     0.064 A 
ATOM     67  C   UNL A   1      38.826  29.391  28.503  1.00  0.00     0.173 A 
ATOM     68  C   UNL A   1      39.409  28.614  30.701  1.00  0.00     0.173 A 
ATOM     69  F   UNL A   1      39.152  29.687  27.235  1.00  0.00    -0.203 F 
ATOM     70  C   UNL A   1      37.524  29.631  28.933  1.00  0.00     0.198 A 
ATOM     71  C   UNL A   1      38.097  28.826  31.121  1.00  0.00     0.198 A 
ATOM     72  F   UNL A   1      40.297  28.132  31.583  1.00  0.00    -0.203 F 
ATOM     73  F   UNL A   1      36.627  30.158  28.089  1.00  0.00    -0.200 F 
ATOM     74  C   UNL A   1      37.159  29.344  30.240  1.00  0.00     0.200 A 
ATOM     75  F   UNL A   1      37.743  28.538  32.381  1.00  0.00    -0.200 F 
ATOM     76  F   UNL A   1      35.905  29.574  30.652  1.00  0.00    -0.200 F 
ENDBRANCH  52  66
BRANCH  53  77
ATOM     77  C   UNL A   1      48.979  26.868  26.033  1.00  0.00     0.064 A 
ATOM     78  C   UNL A   1      49.279  27.116  24.687  1.00  0.00     0.173 A 
ATOM     79  C   UNL A   1      49.999  26.359  26.849  1.00  0.00     0.173 A 
ATOM     80  F   UNL A   1      48.328  27.583  23.865  1.00  0.00    -0.203 F 
ATOM     81  C   UNL A   1      50.546  26.852  24.173  1.00  0.00     0.198 A 
ATOM     82  C   UNL A   1      51.274  26.120  26.339  1.00  0.00     0.198 A 
ATOM     83  F   UNL A   1      49.763  26.113  28.146  1.00  0.00    -0.203 F 
ATOM     84  F   UNL A   1      50.797  27.063  22.874  1.00  0.00    -0.200 F 
ATOM     85  C   UNL A   1      51.544  26.361  25.001  1.00  0.00     0.200 A 
ATOM     86  F   UNL A   1      52.239  25.660  27.146  1.00  0.00    -0.200 F 
ATOM     87  F   UNL A   1      52.766  26.115  24.508  1.00  0.00    -0.200 F 
ENDBRANCH  53  77
BRANCH  65  88
ATOM     88  C   UNL A   1      45.988  32.548  28.746  1.00  0.00     0.064 A 
ATOM     89  C   UNL A   1      45.895  33.582  27.803  1.00  0.00     0.173 A 
ATOM     90  C   UNL A   1      46.548  32.849  29.998  1.00  0.00     0.173 A 
ATOM     91  F   UNL A   1      45.382  33.340  26.586  1.00  0.00    -0.203 F 
ATOM     92  C   UNL A   1      46.362  34.860  28.094  1.00  0.00     0.198 A 
ATOM     93  C   UNL A   1      46.989  34.134  30.295  1.00  0.00     0.198 A 
ATOM     94  F   UNL A   1      46.654  31.896  30.937  1.00  0.00    -0.203 F 
ATOM     95  F   UNL A   1      46.302  35.821  27.163  1.00  0.00    -0.200 F 
ATOM     96  C   UNL A   1      46.902  35.138  29.342  1.00  0.00     0.200 A 
ATOM     97  F   UNL A   1      47.501  34.403  31.505  1.00  0.00    -0.200 F 
ATOM     98  F   UNL A   1      47.345  36.370  29.622  1.00  0.00    -0.200 F 
ENDBRANCH  65  88
ENDBRANCH  39  40
ENDBRANCH  31  34
ENDBRANCH  29  30
ENDBRANCH  28  29
ENDBRANCH  27  28
ENDBRANCH   1  27
TORSDOF 18
ENDMDL
MODEL 3
REMARK VINA RESULT:     -11.4      4.085      9.442
REMARK SMILES CC(C)(C)OC(=O)N1C[C@H](Oc2ccncc2)C[C@H]1C(=O)NCCCCCCNC(=O)c1ccc(-c2c3nc(c(-c4c(F)c(F)c(F)c(F)c4F)c4ccc([nH]4)c(-c4c(F)c(F)c(F)c(F)c4F)c4nc(c(-c5c(F)c(F)c(F)c(F)c5F)c5ccc2[nH]5)C=C4)C=C3)cc1
REMARK SMILES IDX 25 1 24 2 23 3 22 4 20 5 21 6 19 8 8 9 9 10 10 11 18 12 6 13
REMARK SMILES IDX 7 14 5 15 2 16 1 17 3 18 4 19 11 20 12 21 13 22 17 23 14 24
REMARK SMILES IDX 16 25 15 26 26 27 27 28 28 29 29 30 30 31 31 33 32 34 33 35
REMARK SMILES IDX 94 36 34 37 93 38 35 39 36 40 37 41 87 42 38 43 92 44 86 45
REMARK SMILES IDX 88 46 39 47 91 48 85 49 84 50 40 52 72 53 52 54 71 55 53 56
REMARK SMILES IDX 56 57 70 58 89 59 54 60 55 61 69 63 90 64 57 65 41 66 42 67
REMARK SMILES IDX 50 68 43 69 44 70 48 71 51 72 45 73 46 74 49 75 47 76 73 77
REMARK SMILES IDX 74 78 82 79 75 80 76 81 80 82 83 83 77 84 78 85 81 86 79 87
REMARK SMILES IDX 58 88 59 89 67 90 60 91 61 92 65 93 68 94 62 95 63 96 66 97
REMARK SMILES IDX 64 98
REMARK H PARENT 22 7 29 32 88 51 56 62
REMARK Flexibility Score: inf
ROOT
ATOM      1  C   UNL A   1      38.518  22.377  26.063  1.00  0.00     0.002 C 
ENDROOT
BRANCH   1   2
ATOM      2  C   UNL A   1      37.859  23.763  26.106  1.00  0.00     0.021 C 
BRANCH   2   3
ATOM      3  C   UNL A   1      36.327  23.723  26.131  1.00  0.00     0.116 C 
BRANCH   3   4
ATOM      4  N   UNL A   1      35.791  24.224  24.881  1.00  0.00    -0.354 N 
ATOM      5  C   UNL A   1      34.803  23.710  24.087  1.00  0.00     0.243 C 
ATOM      6  O   UNL A   1      34.718  24.144  22.936  1.00  0.00    -0.273 OA
ATOM      7  H   UNL A   1      36.199  25.058  24.555  1.00  0.00     0.163 HD
BRANCH   5   8
ATOM      8  C   UNL A   1      33.863  22.619  24.650  1.00  0.00     0.181 C 
ATOM      9  N   UNL A   1      32.559  22.654  23.991  1.00  0.00    -0.292 N 
ATOM     10  C   UNL A   1      32.353  21.494  23.145  1.00  0.00     0.169 C 
ATOM     11  C   UNL A   1      33.209  20.418  23.800  1.00  0.00     0.195 C 
ATOM     12  C   UNL A   1      34.394  21.199  24.379  1.00  0.00     0.082 C 
BRANCH   9  13
ATOM     13  C   UNL A   1      31.630  23.619  24.280  1.00  0.00     0.411 C 
ATOM     14  O   UNL A   1      30.592  23.765  23.650  1.00  0.00    -0.224 OA
BRANCH  13  15
ATOM     15  O   UNL A   1      32.052  24.417  25.291  1.00  0.00    -0.444 OA
BRANCH  15  16
ATOM     16  C   UNL A   1      32.004  25.866  25.240  1.00  0.00     0.106 C 
ATOM     17  C   UNL A   1      33.155  26.319  26.152  1.00  0.00     0.056 C 
ATOM     18  C   UNL A   1      30.673  26.323  25.837  1.00  0.00     0.056 C 
ATOM     19  C   UNL A   1      32.228  26.471  23.849  1.00  0.00     0.056 C 
ENDBRANCH  15  16
ENDBRANCH  13  15
ENDBRANCH   9  13
BRANCH  11  20
ATOM     20  O   UNL A   1      32.548  19.550  24.741  1.00  0.00    -0.488 OA
BRANCH  20  21
ATOM     21  C   UNL A   1      32.907  18.233  24.762  1.00  0.00     0.122 A 
ATOM     22  C   UNL A   1      32.464  17.388  25.769  1.00  0.00     0.066 A 
ATOM     23  C   UNL A   1      33.594  17.705  23.677  1.00  0.00     0.066 A 
ATOM     24  C   UNL A   1      32.816  16.051  25.700  1.00  0.00     0.115 A 
ATOM     25  C   UNL A   1      33.884  16.351  23.688  1.00  0.00     0.115 A 
ATOM     26  N   UNL A   1      33.524  15.514  24.684  1.00  0.00    -0.264 NA
ENDBRANCH  20  21
ENDBRANCH  11  20
ENDBRANCH   5   8
ENDBRANCH   3   4
ENDBRANCH   2   3
ENDBRANCH   1   2
BRANCH   1  27
ATOM     27  C   UNL A   1      37.996  21.444  24.965  1.00  0.00     0.002 C 
BRANCH  27  28
ATOM     28  C   UNL A   1      38.604  20.039  24.964  1.00  0.00     0.021 C 
BRANCH  28  29
ATOM     29  C   UNL A   1      39.307  19.645  26.259  1.00  0.00     0.116 C 
BRANCH  29  30
ATOM     30  N   UNL A   1      40.512  18.867  26.018  1.00  0.00    -0.352 N 
ATOM     31  C   UNL A   1      41.817  19.286  25.932  1.00  0.00     0.251 C 
ATOM     32  H   UNL A   1      40.372  17.900  25.897  1.00  0.00     0.163 HD
ATOM     33  O   UNL A   1      42.690  18.517  25.543  1.00  0.00    -0.269 OA
BRANCH  31  34
ATOM     34  C   UNL A   1      42.172  20.675  26.293  1.00  0.00     0.039 A 
ATOM     35  C   UNL A   1      42.421  20.981  27.634  1.00  0.00     0.014 A 
ATOM     36  C   UNL A   1      42.243  21.675  25.318  1.00  0.00     0.014 A 
ATOM     37  C   UNL A   1      42.800  22.278  27.990  1.00  0.00     0.010 A 
ATOM     38  C   UNL A   1      42.681  22.951  25.666  1.00  0.00     0.010 A 
ATOM     39  C   UNL A   1      42.962  23.265  27.005  1.00  0.00    -0.014 A 
BRANCH  39  40
ATOM     40  C   UNL A   1      43.427  24.630  27.354  1.00  0.00     0.031 A 
ATOM     41  C   UNL A   1      42.460  25.642  27.899  1.00  0.00     0.074 A 
ATOM     42  C   UNL A   1      44.705  24.980  27.112  1.00  0.00     0.049 A 
ATOM     43  N   UNL A   1      42.655  26.904  28.186  1.00  0.00    -0.248 NA
ATOM     44  C   UNL A   1      41.082  25.179  28.125  1.00  0.00     0.031 C 
ATOM     45  C   UNL A   1      45.726  24.104  26.538  1.00  0.00     0.029 A 
ATOM     46  N   UNL A   1      45.357  26.172  27.304  1.00  0.00    -0.354 N 
ATOM     47  C   UNL A   1      41.426  27.387  28.614  1.00  0.00     0.074 A 
ATOM     48  C   UNL A   1      40.479  26.298  28.500  1.00  0.00     0.031 C 
ATOM     49  C   UNL A   1      46.877  24.784  26.430  1.00  0.00     0.029 A 
ATOM     50  C   UNL A   1      46.668  26.152  26.899  1.00  0.00     0.049 A 
ATOM     51  H   UNL A   1      44.925  26.966  27.695  1.00  0.00     0.167 HD
ATOM     52  C   UNL A   1      41.119  28.621  29.083  1.00  0.00     0.037 A 
ATOM     53  C   UNL A   1      47.596  27.128  26.896  1.00  0.00     0.037 A 
ATOM     54  C   UNL A   1      42.066  29.698  29.214  1.00  0.00     0.049 A 
ATOM     55  C   UNL A   1      47.235  28.488  27.428  1.00  0.00     0.074 A 
ATOM     56  C   UNL A   1      41.866  30.967  29.727  1.00  0.00     0.029 A 
ATOM     57  N   UNL A   1      43.397  29.628  28.826  1.00  0.00    -0.354 N 
ATOM     58  N   UNL A   1      46.086  28.915  27.890  1.00  0.00    -0.248 NA
ATOM     59  C   UNL A   1      48.303  29.496  27.449  1.00  0.00     0.031 C 
ATOM     60  C   UNL A   1      43.066  31.679  29.615  1.00  0.00     0.029 A 
ATOM     61  C   UNL A   1      44.025  30.839  29.072  1.00  0.00     0.049 A 
ATOM     62  H   UNL A   1      43.829  28.836  28.434  1.00  0.00     0.167 HD
ATOM     63  C   UNL A   1      46.294  30.233  28.273  1.00  0.00     0.074 A 
ATOM     64  C   UNL A   1      47.687  30.530  28.006  1.00  0.00     0.031 C 
ATOM     65  C   UNL A   1      45.412  31.118  28.799  1.00  0.00     0.037 A 
BRANCH  52  66
ATOM     66  C   UNL A   1      39.696  28.868  29.492  1.00  0.00     0.064 A 
ATOM     67  C   UNL A   1      38.753  29.385  28.589  1.00  0.00     0.173 A 
ATOM     68  C   UNL A   1      39.264  28.570  30.792  1.00  0.00     0.173 A 
ATOM     69  F   UNL A   1      39.119  29.698  27.337  1.00  0.00    -0.203 F 
ATOM     70  C   UNL A   1      37.439  29.626  28.984  1.00  0.00     0.198 A 
ATOM     71  C   UNL A   1      37.941  28.784  31.175  1.00  0.00     0.198 A 
ATOM     72  F   UNL A   1      40.122  28.070  31.693  1.00  0.00    -0.203 F 
ATOM     73  F   UNL A   1      36.572  30.171  28.121  1.00  0.00    -0.200 F 
ATOM     74  C   UNL A   1      37.034  29.320  30.274  1.00  0.00     0.200 A 
ATOM     75  F   UNL A   1      37.548  28.479  32.419  1.00  0.00    -0.200 F 
ATOM     76  F   UNL A   1      35.769  29.552  30.652  1.00  0.00    -0.200 F 
ENDBRANCH  52  66
BRANCH  53  77
ATOM     77  C   UNL A   1      48.962  26.843  26.387  1.00  0.00     0.064 A 
ATOM     78  C   UNL A   1      49.944  26.301  27.227  1.00  0.00     0.173 A 
ATOM     79  C   UNL A   1      49.305  27.087  25.050  1.00  0.00     0.173 A 
ATOM     80  F   UNL A   1      49.666  26.070  28.518  1.00  0.00    -0.203 F 
ATOM     81  C   UNL A   1      51.224  26.028  26.751  1.00  0.00     0.198 A 
ATOM     82  C   UNL A   1      50.579  26.789  24.570  1.00  0.00     0.198 A 
ATOM     83  F   UNL A   1      48.397  27.597  24.205  1.00  0.00    -0.203 F 
ATOM     84  F   UNL A   1      52.157  25.545  27.584  1.00  0.00    -0.200 F 
ATOM     85  C   UNL A   1      51.539  26.266  25.422  1.00  0.00     0.200 A 
ATOM     86  F   UNL A   1      50.873  27.007  23.281  1.00  0.00    -0.200 F 
ATOM     87  F   UNL A   1      52.768  25.995  24.963  1.00  0.00    -0.200 F 
ENDBRANCH  53  77
BRANCH  65  88
ATOM     88  C   UNL A   1      45.931  32.483  29.138  1.00  0.00     0.064 A 
ATOM     89  C   UNL A   1      46.504  32.761  30.388  1.00  0.00     0.173 A 
ATOM     90  C   UNL A   1      45.890  33.516  28.189  1.00  0.00     0.173 A 
ATOM     91  F   UNL A   1      46.551  31.810  31.334  1.00  0.00    -0.203 F 
ATOM     92  C   UNL A   1      46.998  34.028  30.682  1.00  0.00     0.198 A 
ATOM     93  C   UNL A   1      46.409  34.774  28.477  1.00  0.00     0.198 A 
ATOM     94  F   UNL A   1      45.357  33.300  26.977  1.00  0.00    -0.203 F 
ATOM     95  F   UNL A   1      47.502  34.283  31.897  1.00  0.00    -0.200 F 
ATOM     96  C   UNL A   1      46.957  35.032  29.725  1.00  0.00     0.200 A 
ATOM     97  F   UNL A   1      46.379  35.740  27.548  1.00  0.00    -0.200 F 
ATOM     98  F   UNL A   1      47.439  36.249  30.009  1.00  0.00    -0.200 F 
ENDBRANCH  65  88
ENDBRANCH  39  40
ENDBRANCH  31  34
ENDBRANCH  29  30
ENDBRANCH  28  29
ENDBRANCH  27  28
ENDBRANCH   1  27
TORSDOF 18
ENDMDL
