MODEL 1
REMARK VINA RESULT:     -11.0      0.000      0.000
REMARK SMILES C[NH+](C)[C@@H]1CC[N@@H+](Cc2ccc(C(=O)NCCCCCCNC(=O)c3ccc(-c4c5nc(c(-c6c(F)c(F)c(F)c(F)c6F)c6ccc([nH]6)c(-c6c(F)c(F)c(F)c(F)c6F)c6nc(c(-c7c(F)c(F)c(F)c(F)c7F)c7ccc4[nH]7)C=C6)C=C5)cc3)cn2)C1
REMARK SMILES IDX 18 1 17 2 16 3 15 4 13 5 14 6 12 8 9 9 10 10 89 11 11 12
REMARK SMILES IDX 88 13 8 14 7 15 4 16 5 17 90 18 6 19 2 21 1 22 3 23 19 25
REMARK SMILES IDX 20 26 21 27 22 28 23 29 24 31 25 32 26 33 87 34 27 35 86 36
REMARK SMILES IDX 28 37 29 38 30 39 80 40 31 41 85 42 79 43 81 44 32 45 84 46
REMARK SMILES IDX 78 47 77 48 33 50 65 51 45 52 64 53 46 54 49 55 63 56 82 57
REMARK SMILES IDX 47 58 48 59 62 61 83 62 50 63 34 64 35 65 43 66 36 67 37 68
REMARK SMILES IDX 41 69 44 70 38 71 39 72 42 73 40 74 66 75 67 76 75 77 68 78
REMARK SMILES IDX 69 79 73 80 76 81 70 82 71 83 74 84 72 85 51 86 52 87 60 88
REMARK SMILES IDX 53 89 54 90 58 91 61 92 55 93 56 94 59 95 57 96
REMARK H PARENT 15 7 7 20 2 24 22 30 81 49 49 60
REMARK Flexibility Score: inf
ROOT
ATOM      1  C   UNL A   1      34.647  32.369  29.233  1.00  0.00     0.002 C 
ENDROOT
BRANCH   1   2
ATOM      2  C   UNL A   1      35.302  31.528  28.129  1.00  0.00     0.021 C 
BRANCH   2   3
ATOM      3  C   UNL A   1      34.339  30.544  27.463  1.00  0.00     0.116 C 
BRANCH   3   4
ATOM      4  N   UNL A   1      33.128  31.233  27.057  1.00  0.00    -0.352 N 
ATOM      5  C   UNL A   1      31.967  30.776  26.488  1.00  0.00     0.252 C 
ATOM      6  O   UNL A   1      31.069  31.582  26.254  1.00  0.00    -0.269 OA
ATOM      7  H   UNL A   1      33.142  32.204  27.219  1.00  0.00     0.163 HD
BRANCH   5   8
ATOM      8  C   UNL A   1      31.727  29.340  26.238  1.00  0.00     0.058 A 
ATOM      9  C   UNL A   1      31.566  26.594  26.092  1.00  0.00     0.095 A 
ATOM     10  C   UNL A   1      31.693  27.328  24.915  1.00  0.00     0.030 A 
ATOM     11  N   UNL A   1      31.400  27.192  27.299  1.00  0.00    -0.255 NA
ATOM     12  C   UNL A   1      31.759  28.721  24.991  1.00  0.00     0.017 A 
ATOM     13  C   UNL A   1      31.479  28.543  27.345  1.00  0.00     0.125 A 
BRANCH   9  14
ATOM     14  C   UNL A   1      31.737  25.086  26.088  1.00  0.00     0.319 C 
BRANCH  14  15
ATOM     15  N   UNL A   1      32.839  24.529  25.278  1.00  0.00    -0.325 N 
ATOM     16  C   UNL A   1      34.421  23.140  26.499  1.00  0.00     0.245 C 
ATOM     17  C   UNL A   1      33.358  22.247  25.849  1.00  0.00     0.132 C 
ATOM     18  C   UNL A   1      34.163  24.548  25.908  1.00  0.00     0.328 C 
ATOM     19  C   UNL A   1      32.635  23.141  24.848  1.00  0.00     0.269 C 
ATOM     20  H   UNL A   1      32.820  25.171  24.486  1.00  0.00     0.348 HD
BRANCH  16  21
ATOM     21  N   UNL A   1      35.834  22.722  26.404  1.00  0.00    -0.333 N 
ATOM     22  C   UNL A   1      35.968  21.420  25.751  1.00  0.00     0.332 C 
ATOM     23  C   UNL A   1      36.705  23.703  25.753  1.00  0.00     0.332 C 
ATOM     24  H   UNL A   1      36.150  22.647  27.371  1.00  0.00     0.348 HD
ENDBRANCH  16  21
ENDBRANCH  14  15
ENDBRANCH   9  14
ENDBRANCH   5   8
ENDBRANCH   3   4
ENDBRANCH   2   3
ENDBRANCH   1   2
BRANCH   1  25
ATOM     25  C   UNL A   1      34.687  33.885  29.000  1.00  0.00     0.002 C 
BRANCH  25  26
ATOM     26  C   UNL A   1      33.325  34.582  29.042  1.00  0.00     0.021 C 
BRANCH  26  27
ATOM     27  C   UNL A   1      33.377  36.040  29.487  1.00  0.00     0.116 C 
BRANCH  27  28
ATOM     28  N   UNL A   1      32.504  36.292  30.622  1.00  0.00    -0.352 N 
ATOM     29  C   UNL A   1      32.575  35.801  31.901  1.00  0.00     0.251 C 
ATOM     30  H   UNL A   1      31.752  36.904  30.447  1.00  0.00     0.163 HD
ATOM     31  O   UNL A   1      31.635  35.947  32.674  1.00  0.00    -0.269 OA
BRANCH  29  32
ATOM     32  C   UNL A   1      33.786  35.080  32.345  1.00  0.00     0.039 A 
ATOM     33  C   UNL A   1      33.655  33.784  32.851  1.00  0.00     0.014 A 
ATOM     34  C   UNL A   1      35.044  35.685  32.280  1.00  0.00     0.014 A 
ATOM     35  C   UNL A   1      34.791  33.076  33.246  1.00  0.00     0.010 A 
ATOM     36  C   UNL A   1      36.182  34.953  32.606  1.00  0.00     0.010 A 
ATOM     37  C   UNL A   1      36.067  33.645  33.099  1.00  0.00    -0.014 A 
BRANCH  37  38
ATOM     38  C   UNL A   1      37.292  32.888  33.464  1.00  0.00     0.031 A 
ATOM     39  C   UNL A   1      38.005  33.185  34.754  1.00  0.00     0.074 A 
ATOM     40  C   UNL A   1      37.793  31.980  32.606  1.00  0.00     0.049 A 
ATOM     41  N   UNL A   1      39.122  32.682  35.218  1.00  0.00    -0.248 NA
ATOM     42  C   UNL A   1      37.399  34.203  35.626  1.00  0.00     0.031 C 
ATOM     43  C   UNL A   1      37.217  31.638  31.305  1.00  0.00     0.029 A 
ATOM     44  N   UNL A   1      38.909  31.184  32.695  1.00  0.00    -0.354 N 
ATOM     45  C   UNL A   1      39.356  33.330  36.423  1.00  0.00     0.074 A 
ATOM     46  C   UNL A   1      38.298  34.302  36.594  1.00  0.00     0.031 C 
ATOM     47  C   UNL A   1      37.969  30.688  30.726  1.00  0.00     0.029 A 
ATOM     48  C   UNL A   1      39.101  30.382  31.597  1.00  0.00     0.049 A 
ATOM     49  H   UNL A   1      39.514  31.189  33.472  1.00  0.00     0.167 HD
ATOM     50  C   UNL A   1      40.350  33.116  37.318  1.00  0.00     0.037 A 
ATOM     51  C   UNL A   1      40.083  29.503  31.322  1.00  0.00     0.037 A 
ATOM     52  C   UNL A   1      41.387  32.131  37.155  1.00  0.00     0.049 A 
ATOM     53  C   UNL A   1      41.179  29.289  32.330  1.00  0.00     0.074 A 
ATOM     54  C   UNL A   1      42.405  31.795  38.031  1.00  0.00     0.029 A 
ATOM     55  N   UNL A   1      41.538  31.323  36.037  1.00  0.00    -0.354 N 
ATOM     56  N   UNL A   1      41.352  29.857  33.499  1.00  0.00    -0.248 NA
ATOM     57  C   UNL A   1      42.214  28.304  31.984  1.00  0.00     0.031 C 
ATOM     58  C   UNL A   1      43.200  30.820  37.422  1.00  0.00     0.029 A 
ATOM     59  C   UNL A   1      42.647  30.506  36.192  1.00  0.00     0.049 A 
ATOM     60  H   UNL A   1      40.946  31.329  35.251  1.00  0.00     0.167 HD
ATOM     61  C   UNL A   1      42.493  29.280  34.040  1.00  0.00     0.074 A 
ATOM     62  C   UNL A   1      42.964  28.305  33.077  1.00  0.00     0.031 C 
ATOM     63  C   UNL A   1      43.097  29.534  35.227  1.00  0.00     0.037 A 
BRANCH  50  64
ATOM     64  C   UNL A   1      40.364  33.964  38.558  1.00  0.00     0.064 A 
ATOM     65  C   UNL A   1      41.088  35.166  38.622  1.00  0.00     0.173 A 
ATOM     66  C   UNL A   1      39.614  33.591  39.684  1.00  0.00     0.173 A 
ATOM     67  F   UNL A   1      41.830  35.562  37.577  1.00  0.00    -0.203 F 
ATOM     68  C   UNL A   1      41.087  35.943  39.777  1.00  0.00     0.198 A 
ATOM     69  C   UNL A   1      39.589  34.388  40.825  1.00  0.00     0.198 A 
ATOM     70  F   UNL A   1      38.899  32.456  39.675  1.00  0.00    -0.203 F 
ATOM     71  F   UNL A   1      41.827  37.059  39.831  1.00  0.00    -0.200 F 
ATOM     72  C   UNL A   1      40.332  35.559  40.874  1.00  0.00     0.200 A 
ATOM     73  F   UNL A   1      38.848  34.022  41.881  1.00  0.00    -0.200 F 
ATOM     74  F   UNL A   1      40.325  36.313  41.982  1.00  0.00    -0.200 F 
ENDBRANCH  50  64
BRANCH  51  75
ATOM     75  C   UNL A   1      40.062  28.740  30.046  1.00  0.00     0.064 A 
ATOM     76  C   UNL A   1      39.451  27.480  29.972  1.00  0.00     0.173 A 
ATOM     77  C   UNL A   1      40.650  29.249  28.880  1.00  0.00     0.173 A 
ATOM     78  F   UNL A   1      38.892  26.942  31.066  1.00  0.00    -0.203 F 
ATOM     79  C   UNL A   1      39.451  26.749  28.786  1.00  0.00     0.198 A 
ATOM     80  C   UNL A   1      40.623  28.530  27.687  1.00  0.00     0.198 A 
ATOM     81  F   UNL A   1      41.241  30.453  28.896  1.00  0.00    -0.203 F 
ATOM     82  F   UNL A   1      38.903  25.526  28.756  1.00  0.00    -0.200 F 
ATOM     83  C   UNL A   1      40.032  27.276  27.643  1.00  0.00     0.200 A 
ATOM     84  F   UNL A   1      41.171  29.051  26.580  1.00  0.00    -0.200 F 
ATOM     85  F   UNL A   1      40.028  26.575  26.501  1.00  0.00    -0.200 F 
ENDBRANCH  51  75
BRANCH  63  86
ATOM     86  C   UNL A   1      44.310  28.720  35.571  1.00  0.00     0.064 A 
ATOM     87  C   UNL A   1      44.211  27.506  36.267  1.00  0.00     0.173 A 
ATOM     88  C   UNL A   1      45.585  29.140  35.161  1.00  0.00     0.173 A 
ATOM     89  F   UNL A   1      43.017  27.068  36.693  1.00  0.00    -0.203 F 
ATOM     90  C   UNL A   1      45.347  26.757  36.563  1.00  0.00     0.198 A 
ATOM     91  C   UNL A   1      46.714  28.373  35.431  1.00  0.00     0.198 A 
ATOM     92  F   UNL A   1      45.733  30.290  34.485  1.00  0.00    -0.203 F 
ATOM     93  F   UNL A   1      45.234  25.625  37.272  1.00  0.00    -0.200 F 
ATOM     94  C   UNL A   1      46.596  27.186  36.138  1.00  0.00     0.200 A 
ATOM     95  F   UNL A   1      47.918  28.782  35.006  1.00  0.00    -0.200 F 
ATOM     96  F   UNL A   1      47.687  26.460  36.417  1.00  0.00    -0.200 F 
ENDBRANCH  63  86
ENDBRANCH  37  38
ENDBRANCH  29  32
ENDBRANCH  27  28
ENDBRANCH  26  27
ENDBRANCH  25  26
ENDBRANCH   1  25
TORSDOF 16
ENDMDL
MODEL 2
REMARK VINA RESULT:     -11.0      4.123      8.048
REMARK SMILES C[NH+](C)[C@@H]1CC[N@@H+](Cc2ccc(C(=O)NCCCCCCNC(=O)c3ccc(-c4c5nc(c(-c6c(F)c(F)c(F)c(F)c6F)c6ccc([nH]6)c(-c6c(F)c(F)c(F)c(F)c6F)c6nc(c(-c7c(F)c(F)c(F)c(F)c7F)c7ccc4[nH]7)C=C6)C=C5)cc3)cn2)C1
REMARK SMILES IDX 18 1 17 2 16 3 15 4 13 5 14 6 12 8 9 9 10 10 89 11 11 12
REMARK SMILES IDX 88 13 8 14 7 15 4 16 5 17 90 18 6 19 2 21 1 22 3 23 19 25
REMARK SMILES IDX 20 26 21 27 22 28 23 29 24 31 25 32 26 33 87 34 27 35 86 36
REMARK SMILES IDX 28 37 29 38 30 39 80 40 31 41 85 42 79 43 81 44 32 45 84 46
REMARK SMILES IDX 78 47 77 48 33 50 65 51 45 52 64 53 46 54 49 55 63 56 82 57
REMARK SMILES IDX 47 58 48 59 62 61 83 62 50 63 34 64 35 65 43 66 36 67 37 68
REMARK SMILES IDX 41 69 44 70 38 71 39 72 42 73 40 74 66 75 67 76 75 77 68 78
REMARK SMILES IDX 69 79 73 80 76 81 70 82 71 83 74 84 72 85 51 86 52 87 60 88
REMARK SMILES IDX 53 89 54 90 58 91 61 92 55 93 56 94 59 95 57 96
REMARK H PARENT 15 7 7 20 2 24 22 30 81 49 49 60
REMARK Flexibility Score: inf
ROOT
ATOM      1  C   UNL A   1      37.157  32.805  30.440  1.00  0.00     0.002 C 
ENDROOT
BRANCH   1   2
ATOM      2  C   UNL A   1      37.702  34.167  30.888  1.00  0.00     0.021 C 
BRANCH   2   3
ATOM      3  C   UNL A   1      38.523  34.099  32.177  1.00  0.00     0.116 C 
BRANCH   3   4
ATOM      4  N   UNL A   1      37.642  33.948  33.320  1.00  0.00    -0.352 N 
ATOM      5  C   UNL A   1      37.427  32.896  34.172  1.00  0.00     0.252 C 
ATOM      6  O   UNL A   1      36.621  33.036  35.089  1.00  0.00    -0.269 OA
ATOM      7  H   UNL A   1      37.100  34.746  33.520  1.00  0.00     0.163 HD
BRANCH   5   8
ATOM      8  C   UNL A   1      38.199  31.640  34.079  1.00  0.00     0.058 A 
ATOM      9  C   UNL A   1      39.978  29.553  33.814  1.00  0.00     0.095 A 
ATOM     10  C   UNL A   1      38.730  29.461  33.202  1.00  0.00     0.030 A 
ATOM     11  N   UNL A   1      40.303  30.585  34.634  1.00  0.00    -0.255 NA
ATOM     12  C   UNL A   1      37.824  30.513  33.351  1.00  0.00     0.017 A 
ATOM     13  C   UNL A   1      39.410  31.596  34.753  1.00  0.00     0.125 A 
BRANCH   9  14
ATOM     14  C   UNL A   1      41.079  28.562  33.485  1.00  0.00     0.319 C 
BRANCH  14  15
ATOM     15  N   UNL A   1      41.907  28.069  34.604  1.00  0.00    -0.325 N 
ATOM     16  C   UNL A   1      43.128  26.011  34.161  1.00  0.00     0.245 C 
ATOM     17  C   UNL A   1      44.040  27.212  33.883  1.00  0.00     0.132 C 
ATOM     18  C   UNL A   1      41.872  26.620  34.831  1.00  0.00     0.328 C 
ATOM     19  C   UNL A   1      43.329  28.410  34.502  1.00  0.00     0.269 C 
ATOM     20  H   UNL A   1      41.462  28.556  35.382  1.00  0.00     0.348 HD
BRANCH  16  21
ATOM     21  N   UNL A   1      43.689  24.870  34.912  1.00  0.00    -0.333 N 
ATOM     22  C   UNL A   1      42.681  23.843  35.164  1.00  0.00     0.332 C 
ATOM     23  C   UNL A   1      44.873  24.272  34.292  1.00  0.00     0.332 C 
ATOM     24  H   UNL A   1      43.995  25.268  35.801  1.00  0.00     0.348 HD
ENDBRANCH  16  21
ENDBRANCH  14  15
ENDBRANCH   9  14
ENDBRANCH   5   8
ENDBRANCH   3   4
ENDBRANCH   2   3
ENDBRANCH   1   2
BRANCH   1  25
ATOM     25  C   UNL A   1      35.702  32.528  30.836  1.00  0.00     0.002 C 
BRANCH  25  26
ATOM     26  C   UNL A   1      34.652  33.086  29.873  1.00  0.00     0.021 C 
BRANCH  26  27
ATOM     27  C   UNL A   1      34.828  32.645  28.423  1.00  0.00     0.116 C 
BRANCH  27  28
ATOM     28  N   UNL A   1      34.111  31.412  28.140  1.00  0.00    -0.352 N 
ATOM     29  C   UNL A   1      34.600  30.143  27.959  1.00  0.00     0.251 C 
ATOM     30  H   UNL A   1      33.133  31.501  28.068  1.00  0.00     0.163 HD
ATOM     31  O   UNL A   1      33.876  29.259  27.516  1.00  0.00    -0.269 OA
BRANCH  29  32
ATOM     32  C   UNL A   1      36.010  29.844  28.286  1.00  0.00     0.039 A 
ATOM     33  C   UNL A   1      36.318  29.335  29.550  1.00  0.00     0.014 A 
ATOM     34  C   UNL A   1      37.026  30.082  27.357  1.00  0.00     0.014 A 
ATOM     35  C   UNL A   1      37.640  29.017  29.865  1.00  0.00     0.010 A 
ATOM     36  C   UNL A   1      38.333  29.698  27.646  1.00  0.00     0.010 A 
ATOM     37  C   UNL A   1      38.654  29.169  28.905  1.00  0.00    -0.014 A 
BRANCH  37  38
ATOM     38  C   UNL A   1      40.057  28.786  29.202  1.00  0.00     0.031 A 
ATOM     39  C   UNL A   1      40.953  29.732  29.955  1.00  0.00     0.074 A 
ATOM     40  C   UNL A   1      40.541  27.617  28.742  1.00  0.00     0.049 A 
ATOM     41  N   UNL A   1      42.222  29.609  30.253  1.00  0.00    -0.248 NA
ATOM     42  C   UNL A   1      40.350  30.994  30.408  1.00  0.00     0.031 C 
ATOM     43  C   UNL A   1      39.783  26.638  27.962  1.00  0.00     0.029 A 
ATOM     44  N   UNL A   1      41.789  27.057  28.856  1.00  0.00    -0.354 N 
ATOM     45  C   UNL A   1      42.570  30.780  30.914  1.00  0.00     0.074 A 
ATOM     46  C   UNL A   1      41.394  31.624  30.924  1.00  0.00     0.031 C 
ATOM     47  C   UNL A   1      40.575  25.590  27.684  1.00  0.00     0.029 A 
ATOM     48  C   UNL A   1      41.904  25.838  28.233  1.00  0.00     0.049 A 
ATOM     49  H   UNL A   1      42.532  27.489  29.337  1.00  0.00     0.167 HD
ATOM     50  C   UNL A   1      43.754  31.111  31.481  1.00  0.00     0.037 A 
ATOM     51  C   UNL A   1      42.965  25.017  28.115  1.00  0.00     0.037 A 
ATOM     52  C   UNL A   1      44.913  30.256  31.490  1.00  0.00     0.049 A 
ATOM     53  C   UNL A   1      44.271  25.411  28.749  1.00  0.00     0.074 A 
ATOM     54  C   UNL A   1      46.141  30.474  32.090  1.00  0.00     0.029 A 
ATOM     55  N   UNL A   1      44.985  29.019  30.865  1.00  0.00    -0.354 N 
ATOM     56  N   UNL A   1      44.569  26.490  29.433  1.00  0.00    -0.248 NA
ATOM     57  C   UNL A   1      45.389  24.468  28.604  1.00  0.00     0.031 C 
ATOM     58  C   UNL A   1      46.972  29.391  31.786  1.00  0.00     0.029 A 
ATOM     59  C   UNL A   1      46.246  28.473  31.046  1.00  0.00     0.049 A 
ATOM     60  H   UNL A   1      44.251  28.593  30.367  1.00  0.00     0.167 HD
ATOM     61  C   UNL A   1      45.893  26.344  29.822  1.00  0.00     0.074 A 
ATOM     62  C   UNL A   1      46.338  25.063  29.312  1.00  0.00     0.031 C 
ATOM     63  C   UNL A   1      46.671  27.192  30.539  1.00  0.00     0.037 A 
BRANCH  50  64
ATOM     64  C   UNL A   1      43.856  32.454  32.144  1.00  0.00     0.064 A 
ATOM     65  C   UNL A   1      43.584  32.625  33.512  1.00  0.00     0.173 A 
ATOM     66  C   UNL A   1      44.266  33.581  31.414  1.00  0.00     0.173 A 
ATOM     67  F   UNL A   1      43.178  31.583  34.253  1.00  0.00    -0.203 F 
ATOM     68  C   UNL A   1      43.688  33.876  34.113  1.00  0.00     0.198 A 
ATOM     69  C   UNL A   1      44.400  34.823  32.027  1.00  0.00     0.198 A 
ATOM     70  F   UNL A   1      44.544  33.474  30.106  1.00  0.00    -0.203 F 
ATOM     71  F   UNL A   1      43.373  34.022  35.407  1.00  0.00    -0.200 F 
ATOM     72  C   UNL A   1      44.103  34.972  33.374  1.00  0.00     0.200 A 
ATOM     73  F   UNL A   1      44.815  35.880  31.313  1.00  0.00    -0.200 F 
ATOM     74  F   UNL A   1      44.210  36.174  33.956  1.00  0.00    -0.200 F 
ENDBRANCH  50  64
BRANCH  51  75
ATOM     75  C   UNL A   1      42.830  23.729  27.385  1.00  0.00     0.064 A 
ATOM     76  C   UNL A   1      42.299  22.597  28.019  1.00  0.00     0.173 A 
ATOM     77  C   UNL A   1      43.229  23.601  26.048  1.00  0.00     0.173 A 
ATOM     78  F   UNL A   1      41.921  22.664  29.305  1.00  0.00    -0.203 F 
ATOM     79  C   UNL A   1      42.194  21.379  27.350  1.00  0.00     0.198 A 
ATOM     80  C   UNL A   1      43.096  22.390  25.370  1.00  0.00     0.198 A 
ATOM     81  F   UNL A   1      43.736  24.656  25.394  1.00  0.00    -0.203 F 
ATOM     82  F   UNL A   1      41.728  20.301  27.994  1.00  0.00    -0.200 F 
ATOM     83  C   UNL A   1      42.587  21.279  26.024  1.00  0.00     0.200 A 
ATOM     84  F   UNL A   1      43.461  22.302  24.083  1.00  0.00    -0.200 F 
ATOM     85  F   UNL A   1      42.482  20.109  25.378  1.00  0.00    -0.200 F 
ENDBRANCH  51  75
BRANCH  63  86
ATOM     86  C   UNL A   1      48.071  26.748  30.848  1.00  0.00     0.064 A 
ATOM     87  C   UNL A   1      48.359  25.933  31.952  1.00  0.00     0.173 A 
ATOM     88  C   UNL A   1      49.132  27.111  30.003  1.00  0.00     0.173 A 
ATOM     89  F   UNL A   1      47.383  25.571  32.798  1.00  0.00    -0.203 F 
ATOM     90  C   UNL A   1      49.662  25.519  32.214  1.00  0.00     0.198 A 
ATOM     91  C   UNL A   1      50.427  26.669  30.251  1.00  0.00     0.198 A 
ATOM     92  F   UNL A   1      48.908  27.884  28.929  1.00  0.00    -0.203 F 
ATOM     93  F   UNL A   1      49.923  24.781  33.302  1.00  0.00    -0.200 F 
ATOM     94  C   UNL A   1      50.694  25.880  31.359  1.00  0.00     0.200 A 
ATOM     95  F   UNL A   1      51.420  27.006  29.415  1.00  0.00    -0.200 F 
ATOM     96  F   UNL A   1      51.947  25.474  31.609  1.00  0.00    -0.200 F 
ENDBRANCH  63  86
ENDBRANCH  37  38
ENDBRANCH  29  32
ENDBRANCH  27  28
ENDBRANCH  26  27
ENDBRANCH  25  26
ENDBRANCH   1  25
TORSDOF 16
ENDMDL
MODEL 3
REMARK VINA RESULT:     -10.9      1.932      2.962
REMARK SMILES C[NH+](C)[C@@H]1CC[N@@H+](Cc2ccc(C(=O)NCCCCCCNC(=O)c3ccc(-c4c5nc(c(-c6c(F)c(F)c(F)c(F)c6F)c6ccc([nH]6)c(-c6c(F)c(F)c(F)c(F)c6F)c6nc(c(-c7c(F)c(F)c(F)c(F)c7F)c7ccc4[nH]7)C=C6)C=C5)cc3)cn2)C1
REMARK SMILES IDX 18 1 17 2 16 3 15 4 13 5 14 6 12 8 9 9 10 10 89 11 11 12
REMARK SMILES IDX 88 13 8 14 7 15 4 16 5 17 90 18 6 19 2 21 1 22 3 23 19 25
REMARK SMILES IDX 20 26 21 27 22 28 23 29 24 31 25 32 26 33 87 34 27 35 86 36
REMARK SMILES IDX 28 37 29 38 30 39 80 40 31 41 85 42 79 43 81 44 32 45 84 46
REMARK SMILES IDX 78 47 77 48 33 50 65 51 45 52 64 53 46 54 49 55 63 56 82 57
REMARK SMILES IDX 47 58 48 59 62 61 83 62 50 63 34 64 35 65 43 66 36 67 37 68
REMARK SMILES IDX 41 69 44 70 38 71 39 72 42 73 40 74 66 75 67 76 75 77 68 78
REMARK SMILES IDX 69 79 73 80 76 81 70 82 71 83 74 84 72 85 51 86 52 87 60 88
REMARK SMILES IDX 53 89 54 90 58 91 61 92 55 93 56 94 59 95 57 96
REMARK H PARENT 15 7 7 20 2 24 22 30 81 49 49 60
REMARK Flexibility Score: inf
ROOT
ATOM      1  C   UNL A   1      32.477  30.340  26.530  1.00  0.00     0.002 C 
ENDROOT
BRANCH   1   2
ATOM      2  C   UNL A   1      32.644  29.062  25.698  1.00  0.00     0.021 C 
BRANCH   2   3
ATOM      3  C   UNL A   1      33.105  29.328  24.263  1.00  0.00     0.116 C 
BRANCH   3   4
ATOM      4  N   UNL A   1      32.017  29.074  23.337  1.00  0.00    -0.352 N 
ATOM      5  C   UNL A   1      31.560  27.915  22.765  1.00  0.00     0.252 C 
ATOM      6  O   UNL A   1      30.591  27.973  22.012  1.00  0.00    -0.269 OA
ATOM      7  H   UNL A   1      31.517  29.879  23.071  1.00  0.00     0.163 HD
BRANCH   5   8
ATOM      8  C   UNL A   1      32.133  26.595  23.098  1.00  0.00     0.058 A 
ATOM      9  C   UNL A   1      33.144  24.251  24.134  1.00  0.00     0.095 A 
ATOM     10  C   UNL A   1      33.833  24.889  23.105  1.00  0.00     0.030 A 
ATOM     11  N   UNL A   1      31.930  24.682  24.563  1.00  0.00    -0.255 NA
ATOM     12  C   UNL A   1      33.310  26.068  22.571  1.00  0.00     0.017 A 
ATOM     13  C   UNL A   1      31.452  25.834  24.036  1.00  0.00     0.125 A 
BRANCH   9  14
ATOM     14  C   UNL A   1      33.786  23.116  24.909  1.00  0.00     0.319 C 
BRANCH  14  15
ATOM     15  N   UNL A   1      34.017  21.847  24.189  1.00  0.00    -0.325 N 
ATOM     16  C   UNL A   1      33.411  19.835  25.417  1.00  0.00     0.245 C 
ATOM     17  C   UNL A   1      32.243  20.250  24.515  1.00  0.00     0.132 C 
ATOM     18  C   UNL A   1      34.581  20.755  24.990  1.00  0.00     0.328 C 
ATOM     19  C   UNL A   1      32.821  21.283  23.555  1.00  0.00     0.269 C 
ATOM     20  H   UNL A   1      34.695  22.158  23.494  1.00  0.00     0.348 HD
BRANCH  16  21
ATOM     21  N   UNL A   1      33.784  18.406  25.459  1.00  0.00    -0.333 N 
ATOM     22  C   UNL A   1      32.612  17.549  25.628  1.00  0.00     0.332 C 
ATOM     23  C   UNL A   1      34.572  17.961  24.308  1.00  0.00     0.332 C 
ATOM     24  H   UNL A   1      34.387  18.318  26.278  1.00  0.00     0.348 HD
ENDBRANCH  16  21
ENDBRANCH  14  15
ENDBRANCH   9  14
ENDBRANCH   5   8
ENDBRANCH   3   4
ENDBRANCH   2   3
ENDBRANCH   1   2
BRANCH   1  25
ATOM     25  C   UNL A   1      31.220  31.159  26.212  1.00  0.00     0.002 C 
BRANCH  25  26
ATOM     26  C   UNL A   1      31.351  32.665  26.452  1.00  0.00     0.021 C 
BRANCH  26  27
ATOM     27  C   UNL A   1      32.525  33.062  27.342  1.00  0.00     0.116 C 
BRANCH  27  28
ATOM     28  N   UNL A   1      32.423  34.441  27.792  1.00  0.00    -0.352 N 
ATOM     29  C   UNL A   1      33.089  35.076  28.809  1.00  0.00     0.251 C 
ATOM     30  H   UNL A   1      31.783  35.000  27.294  1.00  0.00     0.163 HD
ATOM     31  O   UNL A   1      32.725  36.183  29.191  1.00  0.00    -0.269 OA
BRANCH  29  32
ATOM     32  C   UNL A   1      34.241  34.417  29.458  1.00  0.00     0.039 A 
ATOM     33  C   UNL A   1      34.018  33.612  30.578  1.00  0.00     0.014 A 
ATOM     34  C   UNL A   1      35.539  34.607  28.976  1.00  0.00     0.014 A 
ATOM     35  C   UNL A   1      35.091  32.957  31.184  1.00  0.00     0.010 A 
ATOM     36  C   UNL A   1      36.597  33.897  29.537  1.00  0.00     0.010 A 
ATOM     37  C   UNL A   1      36.386  33.071  30.650  1.00  0.00    -0.014 A 
BRANCH  37  38
ATOM     38  C   UNL A   1      37.531  32.340  31.249  1.00  0.00     0.031 A 
ATOM     39  C   UNL A   1      38.031  32.713  32.617  1.00  0.00     0.074 A 
ATOM     40  C   UNL A   1      38.157  31.384  30.536  1.00  0.00     0.049 A 
ATOM     41  N   UNL A   1      39.057  32.240  33.281  1.00  0.00    -0.248 NA
ATOM     42  C   UNL A   1      37.301  33.778  33.321  1.00  0.00     0.031 C 
ATOM     43  C   UNL A   1      37.793  30.966  29.182  1.00  0.00     0.029 A 
ATOM     44  N   UNL A   1      39.238  30.598  30.848  1.00  0.00    -0.354 N 
ATOM     45  C   UNL A   1      39.100  32.957  34.470  1.00  0.00     0.074 A 
ATOM     46  C   UNL A   1      38.034  33.935  34.412  1.00  0.00     0.031 C 
ATOM     47  C   UNL A   1      38.622  29.986  28.787  1.00  0.00     0.029 A 
ATOM     48  C   UNL A   1      39.597  29.733  29.843  1.00  0.00     0.049 A 
ATOM     49  H   UNL A   1      39.711  30.649  31.710  1.00  0.00     0.167 HD
ATOM     50  C   UNL A   1      39.937  32.799  35.522  1.00  0.00     0.037 A 
ATOM     51  C   UNL A   1      40.605  28.842  29.779  1.00  0.00     0.037 A 
ATOM     52  C   UNL A   1      40.980  31.808  35.584  1.00  0.00     0.049 A 
ATOM     53  C   UNL A   1      41.525  28.690  30.960  1.00  0.00     0.074 A 
ATOM     54  C   UNL A   1      41.842  31.527  36.629  1.00  0.00     0.029 A 
ATOM     55  N   UNL A   1      41.301  30.937  34.553  1.00  0.00    -0.354 N 
ATOM     56  N   UNL A   1      41.513  29.325  32.108  1.00  0.00    -0.248 NA
ATOM     57  C   UNL A   1      42.594  27.689  30.842  1.00  0.00     0.031 C 
ATOM     58  C   UNL A   1      42.718  30.519  36.213  1.00  0.00     0.029 A 
ATOM     59  C   UNL A   1      42.366  30.133  34.930  1.00  0.00     0.049 A 
ATOM     60  H   UNL A   1      40.843  30.895  33.683  1.00  0.00     0.167 HD
ATOM     61  C   UNL A   1      42.549  28.784  32.856  1.00  0.00     0.074 A 
ATOM     62  C   UNL A   1      43.160  27.756  32.039  1.00  0.00     0.031 C 
ATOM     63  C   UNL A   1      42.957  29.108  34.107  1.00  0.00     0.037 A 
BRANCH  50  64
ATOM     64  C   UNL A   1      39.758  33.717  36.697  1.00  0.00     0.064 A 
ATOM     65  C   UNL A   1      40.406  34.962  36.766  1.00  0.00     0.173 A 
ATOM     66  C   UNL A   1      38.901  33.367  37.751  1.00  0.00     0.173 A 
ATOM     67  F   UNL A   1      41.245  35.340  35.790  1.00  0.00    -0.203 F 
ATOM     68  C   UNL A   1      40.226  35.804  37.859  1.00  0.00     0.198 A 
ATOM     69  C   UNL A   1      38.698  34.227  38.827  1.00  0.00     0.198 A 
ATOM     70  F   UNL A   1      38.252  32.193  37.734  1.00  0.00    -0.203 F 
ATOM     71  F   UNL A   1      40.895  36.963  37.926  1.00  0.00    -0.200 F 
ATOM     72  C   UNL A   1      39.367  35.441  38.885  1.00  0.00     0.200 A 
ATOM     73  F   UNL A   1      37.857  33.880  39.811  1.00  0.00    -0.200 F 
ATOM     74  F   UNL A   1      39.189  36.257  39.933  1.00  0.00    -0.200 F 
ENDBRANCH  50  64
BRANCH  51  75
ATOM     75  C   UNL A   1      40.782  28.007  28.563  1.00  0.00     0.064 A 
ATOM     76  C   UNL A   1      41.563  28.458  27.488  1.00  0.00     0.173 A 
ATOM     77  C   UNL A   1      40.176  26.748  28.445  1.00  0.00     0.173 A 
ATOM     78  F   UNL A   1      42.147  29.664  27.546  1.00  0.00    -0.203 F 
ATOM     79  C   UNL A   1      41.711  27.692  26.334  1.00  0.00     0.198 A 
ATOM     80  C   UNL A   1      40.349  25.970  27.302  1.00  0.00     0.198 A 
ATOM     81  F   UNL A   1      39.425  26.268  29.447  1.00  0.00    -0.203 F 
ATOM     82  F   UNL A   1      42.422  28.168  25.303  1.00  0.00    -0.200 F 
ATOM     83  C   UNL A   1      41.108  26.447  26.244  1.00  0.00     0.200 A 
ATOM     84  F   UNL A   1      39.779  24.759  27.226  1.00  0.00    -0.200 F 
ATOM     85  F   UNL A   1      41.254  25.707  25.136  1.00  0.00    -0.200 F 
ENDBRANCH  51  75
BRANCH  63  86
ATOM     86  C   UNL A   1      44.094  28.317  34.687  1.00  0.00     0.064 A 
ATOM     87  C   UNL A   1      43.883  27.106  35.361  1.00  0.00     0.173 A 
ATOM     88  C   UNL A   1      45.417  28.759  34.528  1.00  0.00     0.173 A 
ATOM     89  F   UNL A   1      42.636  26.648  35.551  1.00  0.00    -0.203 F 
ATOM     90  C   UNL A   1      44.952  26.379  35.878  1.00  0.00     0.198 A 
ATOM     91  C   UNL A   1      46.485  28.015  35.019  1.00  0.00     0.198 A 
ATOM     92  F   UNL A   1      45.674  29.909  33.884  1.00  0.00    -0.203 F 
ATOM     93  F   UNL A   1      44.723  25.249  36.562  1.00  0.00    -0.200 F 
ATOM     94  C   UNL A   1      46.252  26.829  35.700  1.00  0.00     0.200 A 
ATOM     95  F   UNL A   1      47.741  28.443  34.832  1.00  0.00    -0.200 F 
ATOM     96  F   UNL A   1      47.280  26.124  36.192  1.00  0.00    -0.200 F 
ENDBRANCH  63  86
ENDBRANCH  37  38
ENDBRANCH  29  32
ENDBRANCH  27  28
ENDBRANCH  26  27
ENDBRANCH  25  26
ENDBRANCH   1  25
TORSDOF 16
ENDMDL
