MODEL 1
REMARK VINA RESULT:     -12.3      0.000      0.000
REMARK SMILES C/C(=C(\C#N)C(=O)NCCCCCCNC(=O)c1ccc(-c2c3nc(c(-c4c(F)c(F)c(F)c(F)c4F)c4ccc([nH]4)c(-c4c(F)c(F)c(F)c(F)c4F)c4nc(c(-c5c(F)c(F)c(F)c(F)c5F)c5ccc2[nH]5)C=C4)C=C3)cc1)c1cccc2ccccc12
REMARK SMILES IDX 12 1 11 2 10 3 9 4 8 5 6 6 7 7 3 9 1 10 2 11 81 12 82 13
REMARK SMILES IDX 90 14 83 15 85 16 89 17 84 18 86 19 88 20 87 21 4 22 5 23
REMARK SMILES IDX 13 24 14 25 15 26 16 27 17 29 18 30 19 31 80 32 20 33 79 34
REMARK SMILES IDX 21 35 22 36 23 37 73 38 24 39 78 40 72 41 74 42 25 43 77 44
REMARK SMILES IDX 71 45 70 46 26 48 58 49 38 50 57 51 39 52 42 53 56 54 75 55
REMARK SMILES IDX 40 56 41 57 55 59 76 60 43 61 27 62 28 63 36 64 29 65 30 66
REMARK SMILES IDX 34 67 37 68 31 69 32 70 35 71 33 72 59 73 60 74 68 75 61 76
REMARK SMILES IDX 62 77 66 78 69 79 63 80 64 81 67 82 65 83 44 84 45 85 53 86
REMARK SMILES IDX 46 87 47 88 51 89 54 90 48 91 49 92 52 93 50 94
REMARK H PARENT 8 8 15 28 74 47 42 58
REMARK Flexibility Score: inf
ROOT
ATOM      1  C   UNL A   1      31.794  30.625  26.407  1.00  0.00     0.002 C 
ENDROOT
BRANCH   1   2
ATOM      2  C   UNL A   1      33.034  29.996  27.059  1.00  0.00     0.002 C 
BRANCH   2   3
ATOM      3  C   UNL A   1      33.860  29.103  26.129  1.00  0.00     0.021 C 
BRANCH   3   4
ATOM      4  C   UNL A   1      33.728  27.624  26.467  1.00  0.00     0.116 C 
BRANCH   4   5
ATOM      5  N   UNL A   1      32.365  27.256  26.791  1.00  0.00    -0.351 N 
ATOM      6  C   UNL A   1      31.290  26.791  26.103  1.00  0.00     0.262 C 
ATOM      7  O   UNL A   1      30.389  26.376  26.832  1.00  0.00    -0.268 OA
ATOM      8  H   UNL A   1      32.169  27.370  27.749  1.00  0.00     0.163 HD
BRANCH   6   9
ATOM      9  C   UNL A   1      31.204  26.724  24.584  1.00  0.00     0.120 C 
ATOM     10  C   UNL A   1      31.860  25.757  22.355  1.00  0.00     0.046 C 
ATOM     11  C   UNL A   1      31.702  25.676  23.852  1.00  0.00    -0.020 C 
BRANCH  11  12
ATOM     12  C   UNL A   1      32.117  24.363  24.491  1.00  0.00    -0.013 A 
ATOM     13  C   UNL A   1      31.067  23.442  24.690  1.00  0.00     0.009 A 
ATOM     14  C   UNL A   1      33.424  24.011  24.990  1.00  0.00    -0.011 A 
ATOM     15  C   UNL A   1      31.194  22.375  25.571  1.00  0.00     0.001 A 
ATOM     16  C   UNL A   1      33.510  22.954  25.943  1.00  0.00    -0.018 A 
ATOM     17  C   UNL A   1      34.670  24.583  24.612  1.00  0.00     0.009 A 
ATOM     18  C   UNL A   1      32.386  22.186  26.255  1.00  0.00     0.009 A 
ATOM     19  C   UNL A   1      34.725  22.627  26.569  1.00  0.00     0.009 A 
ATOM     20  C   UNL A   1      35.895  24.156  25.152  1.00  0.00     0.001 A 
ATOM     21  C   UNL A   1      35.918  23.209  26.163  1.00  0.00     0.001 A 
ENDBRANCH  11  12
BRANCH   9  22
ATOM     22  C   UNL A   1      30.708  28.000  23.921  1.00  0.00     0.105 C 
ATOM     23  N   UNL A   1      30.296  29.057  23.370  1.00  0.00    -0.192 NA
ENDBRANCH   9  22
ENDBRANCH   6   9
ENDBRANCH   4   5
ENDBRANCH   3   4
ENDBRANCH   2   3
ENDBRANCH   1   2
BRANCH   1  24
ATOM     24  C   UNL A   1      31.510  32.069  26.832  1.00  0.00     0.021 C 
BRANCH  24  25
ATOM     25  C   UNL A   1      32.718  32.771  27.431  1.00  0.00     0.116 C 
BRANCH  25  26
ATOM     26  N   UNL A   1      32.455  34.186  27.642  1.00  0.00    -0.352 N 
ATOM     27  C   UNL A   1      32.987  35.023  28.591  1.00  0.00     0.251 C 
ATOM     28  H   UNL A   1      31.812  34.599  27.021  1.00  0.00     0.163 HD
ATOM     29  O   UNL A   1      32.502  36.121  28.811  1.00  0.00    -0.269 OA
BRANCH  27  30
ATOM     30  C   UNL A   1      34.160  34.553  29.353  1.00  0.00     0.039 A 
ATOM     31  C   UNL A   1      33.978  33.994  30.619  1.00  0.00     0.014 A 
ATOM     32  C   UNL A   1      35.432  34.632  28.780  1.00  0.00     0.014 A 
ATOM     33  C   UNL A   1      35.075  33.454  31.290  1.00  0.00     0.010 A 
ATOM     34  C   UNL A   1      36.504  34.022  29.412  1.00  0.00     0.010 A 
ATOM     35  C   UNL A   1      36.337  33.433  30.675  1.00  0.00    -0.014 A 
BRANCH  35  36
ATOM     36  C   UNL A   1      37.521  32.822  31.326  1.00  0.00     0.031 A 
ATOM     37  C   UNL A   1      38.222  31.678  30.653  1.00  0.00     0.074 A 
ATOM     38  C   UNL A   1      37.893  33.222  32.555  1.00  0.00     0.049 A 
ATOM     39  N   UNL A   1      39.163  30.893  31.111  1.00  0.00    -0.248 NA
ATOM     40  C   UNL A   1      37.777  31.352  29.288  1.00  0.00     0.031 C 
ATOM     41  C   UNL A   1      37.275  34.307  33.318  1.00  0.00     0.029 A 
ATOM     42  N   UNL A   1      38.871  32.744  33.390  1.00  0.00    -0.354 N 
ATOM     43  C   UNL A   1      39.406  29.972  30.102  1.00  0.00     0.074 A 
ATOM     44  C   UNL A   1      38.471  30.254  29.035  1.00  0.00     0.031 C 
ATOM     45  C   UNL A   1      37.901  34.424  34.500  1.00  0.00     0.029 A 
ATOM     46  C   UNL A   1      38.924  33.389  34.601  1.00  0.00     0.049 A 
ATOM     47  H   UNL A   1      39.477  32.007  33.144  1.00  0.00     0.167 HD
ATOM     48  C   UNL A   1      40.340  28.991  30.061  1.00  0.00     0.037 A 
ATOM     49  C   UNL A   1      39.701  33.155  35.675  1.00  0.00     0.037 A 
ATOM     50  C   UNL A   1      41.269  28.724  31.127  1.00  0.00     0.049 A 
ATOM     51  C   UNL A   1      40.696  32.026  35.629  1.00  0.00     0.074 A 
ATOM     52  C   UNL A   1      42.278  27.779  31.178  1.00  0.00     0.029 A 
ATOM     53  N   UNL A   1      41.296  29.403  32.338  1.00  0.00    -0.354 N 
ATOM     54  N   UNL A   1      40.953  31.186  34.656  1.00  0.00    -0.248 NA
ATOM     55  C   UNL A   1      41.508  31.812  36.834  1.00  0.00     0.031 C 
ATOM     56  C   UNL A   1      42.877  27.848  32.439  1.00  0.00     0.029 A 
ATOM     57  C   UNL A   1      42.289  28.882  33.150  1.00  0.00     0.049 A 
ATOM     58  H   UNL A   1      40.697  30.146  32.583  1.00  0.00     0.167 HD
ATOM     59  C   UNL A   1      41.984  30.376  35.110  1.00  0.00     0.074 A 
ATOM     60  C   UNL A   1      42.306  30.824  36.450  1.00  0.00     0.031 C 
ATOM     61  C   UNL A   1      42.611  29.356  34.474  1.00  0.00     0.037 A 
BRANCH  48  62
ATOM     62  C   UNL A   1      40.387  28.136  28.827  1.00  0.00     0.064 A 
ATOM     63  C   UNL A   1      39.687  26.921  28.742  1.00  0.00     0.173 A 
ATOM     64  C   UNL A   1      41.142  28.533  27.712  1.00  0.00     0.173 A 
ATOM     65  F   UNL A   1      38.958  26.488  29.783  1.00  0.00    -0.203 F 
ATOM     66  C   UNL A   1      39.780  26.115  27.612  1.00  0.00     0.198 A 
ATOM     67  C   UNL A   1      41.200  27.742  26.567  1.00  0.00     0.198 A 
ATOM     68  F   UNL A   1      41.825  29.687  27.732  1.00  0.00    -0.203 F 
ATOM     69  F   UNL A   1      39.162  24.926  27.586  1.00  0.00    -0.200 F 
ATOM     70  C   UNL A   1      40.532  26.529  26.523  1.00  0.00     0.200 A 
ATOM     71  F   UNL A   1      41.915  28.151  25.509  1.00  0.00    -0.200 F 
ATOM     72  F   UNL A   1      40.622  25.751  25.435  1.00  0.00    -0.200 F 
ENDBRANCH  48  62
BRANCH  49  73
ATOM     73  C   UNL A   1      39.591  34.028  36.874  1.00  0.00     0.064 A 
ATOM     74  C   UNL A   1      38.815  33.634  37.973  1.00  0.00     0.173 A 
ATOM     75  C   UNL A   1      40.252  35.262  36.951  1.00  0.00     0.173 A 
ATOM     76  F   UNL A   1      38.148  32.471  37.939  1.00  0.00    -0.203 F 
ATOM     77  C   UNL A   1      38.690  34.448  39.096  1.00  0.00     0.198 A 
ATOM     78  C   UNL A   1      40.151  36.062  38.088  1.00  0.00     0.198 A 
ATOM     79  F   UNL A   1      41.011  35.684  35.930  1.00  0.00    -0.203 F 
ATOM     80  F   UNL A   1      37.906  34.066  40.114  1.00  0.00    -0.200 F 
ATOM     81  C   UNL A   1      39.363  35.658  39.155  1.00  0.00     0.200 A 
ATOM     82  F   UNL A   1      40.816  37.224  38.148  1.00  0.00    -0.200 F 
ATOM     83  F   UNL A   1      39.249  36.439  40.239  1.00  0.00    -0.200 F 
ENDBRANCH  49  73
BRANCH  61  84
ATOM     84  C   UNL A   1      43.759  28.696  35.184  1.00  0.00     0.064 A 
ATOM     85  C   UNL A   1      45.081  29.138  35.035  1.00  0.00     0.173 A 
ATOM     86  C   UNL A   1      43.517  27.640  36.077  1.00  0.00     0.173 A 
ATOM     87  F   UNL A   1      45.368  30.134  34.182  1.00  0.00    -0.203 F 
ATOM     88  C   UNL A   1      46.121  28.536  35.738  1.00  0.00     0.198 A 
ATOM     89  C   UNL A   1      44.554  27.062  36.804  1.00  0.00     0.198 A 
ATOM     90  F   UNL A   1      42.270  27.183  36.262  1.00  0.00    -0.203 F 
ATOM     91  F   UNL A   1      47.382  28.945  35.545  1.00  0.00    -0.200 F 
ATOM     92  C   UNL A   1      45.856  27.505  36.629  1.00  0.00     0.200 A 
ATOM     93  F   UNL A   1      44.292  26.080  37.678  1.00  0.00    -0.200 F 
ATOM     94  F   UNL A   1      46.855  26.937  37.316  1.00  0.00    -0.200 F 
ENDBRANCH  61  84
ENDBRANCH  35  36
ENDBRANCH  27  30
ENDBRANCH  25  26
ENDBRANCH  24  25
ENDBRANCH   1  24
TORSDOF 15
ENDMDL
MODEL 2
REMARK VINA RESULT:     -12.3      0.860      2.086
REMARK SMILES C/C(=C(\C#N)C(=O)NCCCCCCNC(=O)c1ccc(-c2c3nc(c(-c4c(F)c(F)c(F)c(F)c4F)c4ccc([nH]4)c(-c4c(F)c(F)c(F)c(F)c4F)c4nc(c(-c5c(F)c(F)c(F)c(F)c5F)c5ccc2[nH]5)C=C4)C=C3)cc1)c1cccc2ccccc12
REMARK SMILES IDX 12 1 11 2 10 3 9 4 8 5 6 6 7 7 3 9 1 10 2 11 81 12 82 13
REMARK SMILES IDX 90 14 83 15 85 16 89 17 84 18 86 19 88 20 87 21 4 22 5 23
REMARK SMILES IDX 13 24 14 25 15 26 16 27 17 29 18 30 19 31 80 32 20 33 79 34
REMARK SMILES IDX 21 35 22 36 23 37 73 38 24 39 78 40 72 41 74 42 25 43 77 44
REMARK SMILES IDX 71 45 70 46 26 48 58 49 38 50 57 51 39 52 42 53 56 54 75 55
REMARK SMILES IDX 40 56 41 57 55 59 76 60 43 61 27 62 28 63 36 64 29 65 30 66
REMARK SMILES IDX 34 67 37 68 31 69 32 70 35 71 33 72 59 73 60 74 68 75 61 76
REMARK SMILES IDX 62 77 66 78 69 79 63 80 64 81 67 82 65 83 44 84 45 85 53 86
REMARK SMILES IDX 46 87 47 88 51 89 54 90 48 91 49 92 52 93 50 94
REMARK H PARENT 8 8 15 28 74 47 42 58
REMARK Flexibility Score: inf
ROOT
ATOM      1  C   UNL A   1      31.853  30.680  26.283  1.00  0.00     0.002 C 
ENDROOT
BRANCH   1   2
ATOM      2  C   UNL A   1      32.455  29.677  27.277  1.00  0.00     0.002 C 
BRANCH   2   3
ATOM      3  C   UNL A   1      31.650  28.385  27.446  1.00  0.00     0.021 C 
BRANCH   3   4
ATOM      4  C   UNL A   1      32.393  27.161  26.929  1.00  0.00     0.116 C 
BRANCH   4   5
ATOM      5  N   UNL A   1      31.500  26.051  26.663  1.00  0.00    -0.351 N 
ATOM      6  C   UNL A   1      31.246  25.234  25.608  1.00  0.00     0.262 C 
ATOM      7  O   UNL A   1      30.567  24.251  25.907  1.00  0.00    -0.268 OA
ATOM      8  H   UNL A   1      30.939  25.833  27.442  1.00  0.00     0.163 HD
BRANCH   6   9
ATOM      9  C   UNL A   1      31.782  25.455  24.200  1.00  0.00     0.120 C 
ATOM     10  C   UNL A   1      33.632  25.446  22.492  1.00  0.00     0.046 C 
ATOM     11  C   UNL A   1      33.000  24.982  23.781  1.00  0.00    -0.020 C 
BRANCH  11  12
ATOM     12  C   UNL A   1      33.791  23.957  24.573  1.00  0.00    -0.013 A 
ATOM     13  C   UNL A   1      34.856  24.488  25.332  1.00  0.00     0.009 A 
ATOM     14  C   UNL A   1      33.628  22.524  24.553  1.00  0.00    -0.011 A 
ATOM     15  C   UNL A   1      35.881  23.679  25.809  1.00  0.00     0.001 A 
ATOM     16  C   UNL A   1      34.725  21.724  24.988  1.00  0.00    -0.018 A 
ATOM     17  C   UNL A   1      32.466  21.798  24.174  1.00  0.00     0.009 A 
ATOM     18  C   UNL A   1      35.852  22.315  25.562  1.00  0.00     0.009 A 
ATOM     19  C   UNL A   1      34.695  20.322  24.888  1.00  0.00     0.009 A 
ATOM     20  C   UNL A   1      32.407  20.395  24.204  1.00  0.00     0.001 A 
ATOM     21  C   UNL A   1      33.536  19.655  24.517  1.00  0.00     0.001 A 
ENDBRANCH  11  12
BRANCH   9  22
ATOM     22  C   UNL A   1      30.961  26.413  23.352  1.00  0.00     0.105 C 
ATOM     23  N   UNL A   1      30.279  27.207  22.648  1.00  0.00    -0.192 NA
ENDBRANCH   9  22
ENDBRANCH   6   9
ENDBRANCH   4   5
ENDBRANCH   3   4
ENDBRANCH   2   3
ENDBRANCH   1   2
BRANCH   1  24
ATOM     24  C   UNL A   1      31.539  32.058  26.874  1.00  0.00     0.021 C 
BRANCH  24  25
ATOM     25  C   UNL A   1      32.763  32.776  27.419  1.00  0.00     0.116 C 
BRANCH  25  26
ATOM     26  N   UNL A   1      32.488  34.184  27.654  1.00  0.00    -0.352 N 
ATOM     27  C   UNL A   1      33.007  35.007  28.623  1.00  0.00     0.251 C 
ATOM     28  H   UNL A   1      31.846  34.604  27.036  1.00  0.00     0.163 HD
ATOM     29  O   UNL A   1      32.513  36.097  28.860  1.00  0.00    -0.269 OA
BRANCH  27  30
ATOM     30  C   UNL A   1      34.178  34.531  29.384  1.00  0.00     0.039 A 
ATOM     31  C   UNL A   1      33.988  33.910  30.620  1.00  0.00     0.014 A 
ATOM     32  C   UNL A   1      35.457  34.667  28.839  1.00  0.00     0.014 A 
ATOM     33  C   UNL A   1      35.086  33.367  31.287  1.00  0.00     0.010 A 
ATOM     34  C   UNL A   1      36.533  34.054  29.463  1.00  0.00     0.010 A 
ATOM     35  C   UNL A   1      36.359  33.404  30.694  1.00  0.00    -0.014 A 
BRANCH  35  36
ATOM     36  C   UNL A   1      37.546  32.793  31.339  1.00  0.00     0.031 A 
ATOM     37  C   UNL A   1      38.241  31.645  30.665  1.00  0.00     0.074 A 
ATOM     38  C   UNL A   1      37.928  33.197  32.564  1.00  0.00     0.049 A 
ATOM     39  N   UNL A   1      39.183  30.860  31.119  1.00  0.00    -0.248 NA
ATOM     40  C   UNL A   1      37.785  31.316  29.304  1.00  0.00     0.031 C 
ATOM     41  C   UNL A   1      37.318  34.285  33.327  1.00  0.00     0.029 A 
ATOM     42  N   UNL A   1      38.911  32.719  33.393  1.00  0.00    -0.354 N 
ATOM     43  C   UNL A   1      39.416  29.935  30.111  1.00  0.00     0.074 A 
ATOM     44  C   UNL A   1      38.475  30.216  29.049  1.00  0.00     0.031 C 
ATOM     45  C   UNL A   1      37.952  34.404  34.505  1.00  0.00     0.029 A 
ATOM     46  C   UNL A   1      38.975  33.368  34.602  1.00  0.00     0.049 A 
ATOM     47  H   UNL A   1      39.514  31.980  33.146  1.00  0.00     0.167 HD
ATOM     48  C   UNL A   1      40.349  28.953  30.066  1.00  0.00     0.037 A 
ATOM     49  C   UNL A   1      39.758  33.136  35.671  1.00  0.00     0.037 A 
ATOM     50  C   UNL A   1      41.285  28.687  31.127  1.00  0.00     0.049 A 
ATOM     51  C   UNL A   1      40.750  32.004  35.622  1.00  0.00     0.074 A 
ATOM     52  C   UNL A   1      42.292  27.740  31.173  1.00  0.00     0.029 A 
ATOM     53  N   UNL A   1      41.322  29.370  32.335  1.00  0.00    -0.354 N 
ATOM     54  N   UNL A   1      40.998  31.161  34.649  1.00  0.00    -0.248 NA
ATOM     55  C   UNL A   1      41.571  31.793  36.821  1.00  0.00     0.031 C 
ATOM     56  C   UNL A   1      42.900  27.812  32.430  1.00  0.00     0.029 A 
ATOM     57  C   UNL A   1      42.320  28.849  33.142  1.00  0.00     0.049 A 
ATOM     58  H   UNL A   1      40.726  30.115  32.582  1.00  0.00     0.167 HD
ATOM     59  C   UNL A   1      42.031  30.350  35.099  1.00  0.00     0.074 A 
ATOM     60  C   UNL A   1      42.364  30.803  36.435  1.00  0.00     0.031 C 
ATOM     61  C   UNL A   1      42.652  29.327  34.462  1.00  0.00     0.037 A 
BRANCH  48  62
ATOM     62  C   UNL A   1      40.385  28.094  28.834  1.00  0.00     0.064 A 
ATOM     63  C   UNL A   1      39.672  26.886  28.755  1.00  0.00     0.173 A 
ATOM     64  C   UNL A   1      41.142  28.479  27.718  1.00  0.00     0.173 A 
ATOM     65  F   UNL A   1      38.941  26.463  29.797  1.00  0.00    -0.203 F 
ATOM     66  C   UNL A   1      39.756  26.075  27.626  1.00  0.00     0.198 A 
ATOM     67  C   UNL A   1      41.191  27.684  26.575  1.00  0.00     0.198 A 
ATOM     68  F   UNL A   1      41.838  29.626  27.733  1.00  0.00    -0.203 F 
ATOM     69  F   UNL A   1      39.125  24.892  27.605  1.00  0.00    -0.200 F 
ATOM     70  C   UNL A   1      40.510  26.478  26.536  1.00  0.00     0.200 A 
ATOM     71  F   UNL A   1      41.908  28.082  25.515  1.00  0.00    -0.200 F 
ATOM     72  F   UNL A   1      40.591  25.696  25.450  1.00  0.00    -0.200 F 
ENDBRANCH  48  62
BRANCH  49  73
ATOM     73  C   UNL A   1      39.658  34.013  36.868  1.00  0.00     0.064 A 
ATOM     74  C   UNL A   1      40.357  35.227  36.921  1.00  0.00     0.173 A 
ATOM     75  C   UNL A   1      38.869  33.666  37.973  1.00  0.00     0.173 A 
ATOM     76  F   UNL A   1      41.140  35.594  35.897  1.00  0.00    -0.203 F 
ATOM     77  C   UNL A   1      40.286  36.051  38.042  1.00  0.00     0.198 A 
ATOM     78  C   UNL A   1      38.773  34.505  39.081  1.00  0.00     0.198 A 
ATOM     79  F   UNL A   1      38.176  32.517  37.972  1.00  0.00    -0.203 F 
ATOM     80  F   UNL A   1      40.999  37.185  38.085  1.00  0.00    -0.200 F 
ATOM     81  C   UNL A   1      39.488  35.693  39.118  1.00  0.00     0.200 A 
ATOM     82  F   UNL A   1      37.990  34.163  40.113  1.00  0.00    -0.200 F 
ATOM     83  F   UNL A   1      39.414  36.490  40.194  1.00  0.00    -0.200 F 
ENDBRANCH  49  73
BRANCH  61  84
ATOM     84  C   UNL A   1      43.803  28.667  35.166  1.00  0.00     0.064 A 
ATOM     85  C   UNL A   1      43.628  27.544  35.988  1.00  0.00     0.173 A 
ATOM     86  C   UNL A   1      45.112  29.132  34.962  1.00  0.00     0.173 A 
ATOM     87  F   UNL A   1      42.396  27.068  36.228  1.00  0.00    -0.203 F 
ATOM     88  C   UNL A   1      44.717  26.925  36.595  1.00  0.00     0.198 A 
ATOM     89  C   UNL A   1      46.201  28.491  35.543  1.00  0.00     0.198 A 
ATOM     90  F   UNL A   1      45.335  30.199  34.179  1.00  0.00    -0.203 F 
ATOM     91  F   UNL A   1      44.522  25.882  37.413  1.00  0.00    -0.200 F 
ATOM     92  C   UNL A   1      46.003  27.392  36.364  1.00  0.00     0.200 A 
ATOM     93  F   UNL A   1      47.444  28.933  35.303  1.00  0.00    -0.200 F 
ATOM     94  F   UNL A   1      47.052  26.785  36.937  1.00  0.00    -0.200 F 
ENDBRANCH  61  84
ENDBRANCH  35  36
ENDBRANCH  27  30
ENDBRANCH  25  26
ENDBRANCH  24  25
ENDBRANCH   1  24
TORSDOF 15
ENDMDL
MODEL 3
REMARK VINA RESULT:     -12.3      0.922      2.953
REMARK SMILES C/C(=C(\C#N)C(=O)NCCCCCCNC(=O)c1ccc(-c2c3nc(c(-c4c(F)c(F)c(F)c(F)c4F)c4ccc([nH]4)c(-c4c(F)c(F)c(F)c(F)c4F)c4nc(c(-c5c(F)c(F)c(F)c(F)c5F)c5ccc2[nH]5)C=C4)C=C3)cc1)c1cccc2ccccc12
REMARK SMILES IDX 12 1 11 2 10 3 9 4 8 5 6 6 7 7 3 9 1 10 2 11 81 12 82 13
REMARK SMILES IDX 90 14 83 15 85 16 89 17 84 18 86 19 88 20 87 21 4 22 5 23
REMARK SMILES IDX 13 24 14 25 15 26 16 27 17 29 18 30 19 31 80 32 20 33 79 34
REMARK SMILES IDX 21 35 22 36 23 37 73 38 24 39 78 40 72 41 74 42 25 43 77 44
REMARK SMILES IDX 71 45 70 46 26 48 58 49 38 50 57 51 39 52 42 53 56 54 75 55
REMARK SMILES IDX 40 56 41 57 55 59 76 60 43 61 27 62 28 63 36 64 29 65 30 66
REMARK SMILES IDX 34 67 37 68 31 69 32 70 35 71 33 72 59 73 60 74 68 75 61 76
REMARK SMILES IDX 62 77 66 78 69 79 63 80 64 81 67 82 65 83 44 84 45 85 53 86
REMARK SMILES IDX 46 87 47 88 51 89 54 90 48 91 49 92 52 93 50 94
REMARK H PARENT 8 8 15 28 74 47 42 58
REMARK Flexibility Score: inf
ROOT
ATOM      1  C   UNL A   1      31.850  30.730  25.953  1.00  0.00     0.002 C 
ENDROOT
BRANCH   1   2
ATOM      2  C   UNL A   1      32.392  29.486  26.670  1.00  0.00     0.002 C 
BRANCH   2   3
ATOM      3  C   UNL A   1      33.797  29.059  26.233  1.00  0.00     0.021 C 
BRANCH   3   4
ATOM      4  C   UNL A   1      33.993  27.550  26.284  1.00  0.00     0.116 C 
BRANCH   4   5
ATOM      5  N   UNL A   1      32.754  26.846  26.542  1.00  0.00    -0.351 N 
ATOM      6  C   UNL A   1      32.250  25.619  26.246  1.00  0.00     0.262 C 
ATOM      7  O   UNL A   1      31.232  25.346  26.884  1.00  0.00    -0.268 OA
ATOM      8  H   UNL A   1      32.120  27.390  27.062  1.00  0.00     0.163 HD
BRANCH   6   9
ATOM      9  C   UNL A   1      32.888  24.638  25.273  1.00  0.00     0.120 C 
ATOM     10  C   UNL A   1      33.297  23.744  22.955  1.00  0.00     0.046 C 
ATOM     11  C   UNL A   1      32.920  24.843  23.916  1.00  0.00    -0.020 C 
BRANCH  11  12
ATOM     12  C   UNL A   1      32.589  26.185  23.289  1.00  0.00    -0.013 A 
ATOM     13  C   UNL A   1      33.688  26.856  22.711  1.00  0.00     0.009 A 
ATOM     14  C   UNL A   1      31.319  26.868  23.310  1.00  0.00    -0.011 A 
ATOM     15  C   UNL A   1      33.642  28.217  22.431  1.00  0.00     0.001 A 
ATOM     16  C   UNL A   1      31.317  28.276  23.084  1.00  0.00    -0.018 A 
ATOM     17  C   UNL A   1      30.035  26.287  23.501  1.00  0.00     0.009 A 
ATOM     18  C   UNL A   1      32.485  28.934  22.696  1.00  0.00     0.009 A 
ATOM     19  C   UNL A   1      30.141  29.037  23.205  1.00  0.00     0.009 A 
ATOM     20  C   UNL A   1      28.852  27.045  23.490  1.00  0.00     0.001 A 
ATOM     21  C   UNL A   1      28.909  28.425  23.387  1.00  0.00     0.001 A 
ENDBRANCH  11  12
BRANCH   9  22
ATOM     22  C   UNL A   1      33.309  23.314  25.892  1.00  0.00     0.105 C 
ATOM     23  N   UNL A   1      33.658  22.216  26.405  1.00  0.00    -0.192 NA
ENDBRANCH   9  22
ENDBRANCH   6   9
ENDBRANCH   4   5
ENDBRANCH   3   4
ENDBRANCH   2   3
ENDBRANCH   1   2
BRANCH   1  24
ATOM     24  C   UNL A   1      31.507  31.903  26.877  1.00  0.00     0.021 C 
BRANCH  24  25
ATOM     25  C   UNL A   1      32.731  32.628  27.413  1.00  0.00     0.116 C 
BRANCH  25  26
ATOM     26  N   UNL A   1      32.465  34.045  27.603  1.00  0.00    -0.352 N 
ATOM     27  C   UNL A   1      32.990  34.895  28.545  1.00  0.00     0.251 C 
ATOM     28  H   UNL A   1      31.824  34.448  26.973  1.00  0.00     0.163 HD
ATOM     29  O   UNL A   1      32.502  35.995  28.747  1.00  0.00    -0.269 OA
BRANCH  27  30
ATOM     30  C   UNL A   1      34.160  34.438  29.319  1.00  0.00     0.039 A 
ATOM     31  C   UNL A   1      33.967  33.819  30.555  1.00  0.00     0.014 A 
ATOM     32  C   UNL A   1      35.442  34.588  28.785  1.00  0.00     0.014 A 
ATOM     33  C   UNL A   1      35.065  33.292  31.234  1.00  0.00     0.010 A 
ATOM     34  C   UNL A   1      36.520  33.992  29.421  1.00  0.00     0.010 A 
ATOM     35  C   UNL A   1      36.343  33.344  30.653  1.00  0.00    -0.014 A 
BRANCH  35  36
ATOM     36  C   UNL A   1      37.532  32.751  31.312  1.00  0.00     0.031 A 
ATOM     37  C   UNL A   1      38.249  31.612  30.647  1.00  0.00     0.074 A 
ATOM     38  C   UNL A   1      37.895  33.162  32.540  1.00  0.00     0.049 A 
ATOM     39  N   UNL A   1      39.197  30.841  31.112  1.00  0.00    -0.248 NA
ATOM     40  C   UNL A   1      37.812  31.274  29.282  1.00  0.00     0.031 C 
ATOM     41  C   UNL A   1      37.262  34.244  33.295  1.00  0.00     0.029 A 
ATOM     42  N   UNL A   1      38.876  32.700  33.380  1.00  0.00    -0.354 N 
ATOM     43  C   UNL A   1      39.455  29.918  30.109  1.00  0.00     0.074 A 
ATOM     44  C   UNL A   1      38.520  30.184  29.037  1.00  0.00     0.031 C 
ATOM     45  C   UNL A   1      37.882  34.373  34.479  1.00  0.00     0.029 A 
ATOM     46  C   UNL A   1      38.918  33.351  34.588  1.00  0.00     0.049 A 
ATOM     47  H   UNL A   1      39.492  31.969  33.140  1.00  0.00     0.167 HD
ATOM     48  C   UNL A   1      40.401  28.949  30.075  1.00  0.00     0.037 A 
ATOM     49  C   UNL A   1      39.693  33.133  35.666  1.00  0.00     0.037 A 
ATOM     50  C   UNL A   1      41.330  28.698  31.146  1.00  0.00     0.049 A 
ATOM     51  C   UNL A   1      40.702  32.015  35.629  1.00  0.00     0.074 A 
ATOM     52  C   UNL A   1      42.350  27.766  31.204  1.00  0.00     0.029 A 
ATOM     53  N   UNL A   1      41.345  29.384  32.353  1.00  0.00    -0.354 N 
ATOM     54  N   UNL A   1      40.972  31.174  34.661  1.00  0.00    -0.248 NA
ATOM     55  C   UNL A   1      41.513  31.817  36.837  1.00  0.00     0.031 C 
ATOM     56  C   UNL A   1      42.944  27.848  32.467  1.00  0.00     0.029 A 
ATOM     57  C   UNL A   1      42.341  28.878  33.172  1.00  0.00     0.049 A 
ATOM     58  H   UNL A   1      40.736  30.120  32.593  1.00  0.00     0.167 HD
ATOM     59  C   UNL A   1      42.011  30.378  35.123  1.00  0.00     0.074 A 
ATOM     60  C   UNL A   1      42.323  30.838  36.461  1.00  0.00     0.031 C 
ATOM     61  C   UNL A   1      42.653  29.363  34.494  1.00  0.00     0.037 A 
BRANCH  48  62
ATOM     62  C   UNL A   1      40.462  28.088  28.845  1.00  0.00     0.064 A 
ATOM     63  C   UNL A   1      41.223  28.456  27.723  1.00  0.00     0.173 A 
ATOM     64  C   UNL A   1      39.751  26.880  28.783  1.00  0.00     0.173 A 
ATOM     65  F   UNL A   1      41.914  29.606  27.723  1.00  0.00    -0.203 F 
ATOM     66  C   UNL A   1      41.229  27.674  26.572  1.00  0.00     0.198 A 
ATOM     67  C   UNL A   1      39.792  26.081  27.644  1.00  0.00     0.198 A 
ATOM     68  F   UNL A   1      39.013  26.474  29.828  1.00  0.00    -0.203 F 
ATOM     69  F   UNL A   1      41.904  28.085  25.488  1.00  0.00    -0.200 F 
ATOM     70  C   UNL A   1      40.519  26.484  26.535  1.00  0.00     0.200 A 
ATOM     71  F   UNL A   1      39.118  24.923  27.616  1.00  0.00    -0.200 F 
ATOM     72  F   UNL A   1      40.525  25.733  25.425  1.00  0.00    -0.200 F 
ENDBRANCH  48  62
BRANCH  49  73
ATOM     73  C   UNL A   1      39.568  34.010  36.860  1.00  0.00     0.064 A 
ATOM     74  C   UNL A   1      38.783  33.618  37.953  1.00  0.00     0.173 A 
ATOM     75  C   UNL A   1      40.226  35.246  36.939  1.00  0.00     0.173 A 
ATOM     76  F   UNL A   1      38.120  32.453  37.917  1.00  0.00    -0.203 F 
ATOM     77  C   UNL A   1      38.644  34.437  39.071  1.00  0.00     0.198 A 
ATOM     78  C   UNL A   1      40.111  36.051  38.071  1.00  0.00     0.198 A 
ATOM     79  F   UNL A   1      40.993  35.667  35.923  1.00  0.00    -0.203 F 
ATOM     80  F   UNL A   1      37.852  34.057  40.083  1.00  0.00    -0.200 F 
ATOM     81  C   UNL A   1      39.314  35.650  39.132  1.00  0.00     0.200 A 
ATOM     82  F   UNL A   1      40.771  37.216  38.133  1.00  0.00    -0.200 F 
ATOM     83  F   UNL A   1      39.186  36.434  40.212  1.00  0.00    -0.200 F 
ENDBRANCH  49  73
BRANCH  61  84
ATOM     84  C   UNL A   1      43.806  28.720  35.211  1.00  0.00     0.064 A 
ATOM     85  C   UNL A   1      43.630  27.631  36.077  1.00  0.00     0.173 A 
ATOM     86  C   UNL A   1      45.116  29.167  34.976  1.00  0.00     0.173 A 
ATOM     87  F   UNL A   1      42.397  27.175  36.347  1.00  0.00    -0.203 F 
ATOM     88  C   UNL A   1      44.720  27.026  36.697  1.00  0.00     0.198 A 
ATOM     89  C   UNL A   1      46.206  28.538  35.571  1.00  0.00     0.198 A 
ATOM     90  F   UNL A   1      45.340  30.200  34.151  1.00  0.00    -0.203 F 
ATOM     91  F   UNL A   1      44.525  26.017  37.556  1.00  0.00    -0.200 F 
ATOM     92  C   UNL A   1      46.008  27.474  36.435  1.00  0.00     0.200 A 
ATOM     93  F   UNL A   1      47.450  28.961  35.302  1.00  0.00    -0.200 F 
ATOM     94  F   UNL A   1      47.057  26.880  37.020  1.00  0.00    -0.200 F 
ENDBRANCH  61  84
ENDBRANCH  35  36
ENDBRANCH  27  30
ENDBRANCH  25  26
ENDBRANCH  24  25
ENDBRANCH   1  24
TORSDOF 15
ENDMDL
