MODEL 1
REMARK VINA RESULT:     -12.5      0.000      0.000
REMARK SMILES Cc1nn(C)c(=O)c(C(=O)N2CCCC[C@H]2C(=O)NCCCCCCNC(=O)c2ccc(-c3c4nc(c(-c5c(F)c(F)c(F)c(F)c5F)c5ccc([nH]5)c(-c5c(F)c(F)c(F)c(F)c5F)c5nc(c(-c6c(F)c(F)c(F)c(F)c6F)c6ccc3[nH]6)C=C5)C=C4)cc2)c1C
REMARK SMILES IDX 22 1 21 2 20 3 19 4 17 5 18 6 16 8 11 9 12 10 13 11 15 12
REMARK SMILES IDX 14 13 9 14 10 15 8 16 1 17 2 18 3 19 92 20 4 21 93 22 5 23
REMARK SMILES IDX 6 24 7 25 23 26 24 27 25 28 26 29 27 30 28 32 29 33 30 34
REMARK SMILES IDX 91 35 31 36 90 37 32 38 33 39 34 40 84 41 35 42 89 43 83 44
REMARK SMILES IDX 85 45 36 46 88 47 82 48 81 49 37 51 69 52 49 53 68 54 50 55
REMARK SMILES IDX 53 56 67 57 86 58 51 59 52 60 66 62 87 63 54 64 38 65 39 66
REMARK SMILES IDX 47 67 40 68 41 69 45 70 48 71 42 72 43 73 46 74 44 75 70 76
REMARK SMILES IDX 71 77 79 78 72 79 73 80 77 81 80 82 74 83 75 84 78 85 76 86
REMARK SMILES IDX 55 87 56 88 64 89 57 90 58 91 62 92 65 93 59 94 60 95 63 96
REMARK SMILES IDX 61 97
REMARK H PARENT 19 7 26 31 85 50 53 61
REMARK Flexibility Score: inf
ROOT
ATOM      1  C   UNL A   1      32.155  29.974  27.007  1.00  0.00     0.002 C 
ENDROOT
BRANCH   1   2
ATOM      2  C   UNL A   1      32.294  28.533  26.504  1.00  0.00     0.021 C 
BRANCH   2   3
ATOM      3  C   UNL A   1      31.353  28.188  25.353  1.00  0.00     0.116 C 
BRANCH   3   4
ATOM      4  N   UNL A   1      32.069  27.667  24.200  1.00  0.00    -0.354 N 
ATOM      5  C   UNL A   1      31.490  26.744  23.363  1.00  0.00     0.242 C 
ATOM      6  O   UNL A   1      30.654  27.132  22.545  1.00  0.00    -0.273 OA
ATOM      7  H   UNL A   1      32.983  27.982  24.016  1.00  0.00     0.163 HD
BRANCH   5   8
ATOM      8  C   UNL A   1      31.834  25.233  23.529  1.00  0.00     0.174 C 
ATOM      9  N   UNL A   1      33.125  24.844  24.148  1.00  0.00    -0.326 N 
ATOM     10  C   UNL A   1      33.195  24.883  25.602  1.00  0.00     0.120 C 
ATOM     11  C   UNL A   1      32.055  24.149  26.288  1.00  0.00     0.022 C 
ATOM     12  C   UNL A   1      30.655  24.513  24.219  1.00  0.00     0.035 C 
ATOM     13  C   UNL A   1      30.699  24.569  25.747  1.00  0.00     0.004 C 
BRANCH   9  14
ATOM     14  C   UNL A   1      34.042  23.989  23.540  1.00  0.00     0.260 C 
ATOM     15  O   UNL A   1      34.403  24.237  22.387  1.00  0.00    -0.269 OA
BRANCH  14  16
ATOM     16  C   UNL A   1      34.441  22.673  24.182  1.00  0.00     0.111 A 
ATOM     17  C   UNL A   1      33.468  19.092  25.018  1.00  0.00     0.069 C 
ATOM     18  C   UNL A   1      34.331  20.303  24.723  1.00  0.00     0.062 A 
ATOM     19  N   UNL A   1      35.584  20.180  25.001  1.00  0.00    -0.175 NA
ATOM     20  C   UNL A   1      33.704  21.539  24.155  1.00  0.00    -0.010 A 
ATOM     21  N   UNL A   1      36.369  21.283  24.873  1.00  0.00    -0.232 N 
ATOM     22  C   UNL A   1      32.368  21.326  23.526  1.00  0.00     0.047 C 
ATOM     23  C   UNL A   1      37.780  21.062  25.142  1.00  0.00     0.178 C 
ATOM     24  C   UNL A   1      35.874  22.565  24.660  1.00  0.00     0.279 A 
ATOM     25  O   UNL A   1      36.574  23.563  24.827  1.00  0.00    -0.267 OA
ENDBRANCH  14  16
ENDBRANCH   9  14
ENDBRANCH   5   8
ENDBRANCH   3   4
ENDBRANCH   2   3
ENDBRANCH   1   2
BRANCH   1  26
ATOM     26  C   UNL A   1      31.508  30.929  26.002  1.00  0.00     0.002 C 
BRANCH  26  27
ATOM     27  C   UNL A   1      31.340  32.363  26.510  1.00  0.00     0.021 C 
BRANCH  27  28
ATOM     28  C   UNL A   1      32.554  32.900  27.259  1.00  0.00     0.116 C 
BRANCH  28  29
ATOM     29  N   UNL A   1      32.384  34.295  27.626  1.00  0.00    -0.352 N 
ATOM     30  C   UNL A   1      32.945  34.975  28.676  1.00  0.00     0.251 C 
ATOM     31  H   UNL A   1      31.787  34.822  27.046  1.00  0.00     0.163 HD
ATOM     32  O   UNL A   1      32.529  36.083  29.004  1.00  0.00    -0.269 OA
BRANCH  30  33
ATOM     33  C   UNL A   1      34.051  34.347  29.426  1.00  0.00     0.039 A 
ATOM     34  C   UNL A   1      33.755  33.552  30.533  1.00  0.00     0.014 A 
ATOM     35  C   UNL A   1      35.375  34.530  29.014  1.00  0.00     0.014 A 
ATOM     36  C   UNL A   1      34.791  32.904  31.205  1.00  0.00     0.010 A 
ATOM     37  C   UNL A   1      36.394  33.814  29.631  1.00  0.00     0.010 A 
ATOM     38  C   UNL A   1      36.115  33.011  30.746  1.00  0.00    -0.014 A 
BRANCH  38  39
ATOM     39  C   UNL A   1      37.219  32.325  31.461  1.00  0.00     0.031 A 
ATOM     40  C   UNL A   1      37.950  31.194  30.796  1.00  0.00     0.074 A 
ATOM     41  C   UNL A   1      37.558  32.718  32.704  1.00  0.00     0.049 A 
ATOM     42  N   UNL A   1      38.967  30.496  31.234  1.00  0.00    -0.248 NA
ATOM     43  C   UNL A   1      37.465  30.773  29.470  1.00  0.00     0.031 C 
ATOM     44  C   UNL A   1      36.889  33.771  33.469  1.00  0.00     0.029 A 
ATOM     45  N   UNL A   1      38.558  32.286  33.539  1.00  0.00    -0.354 N 
ATOM     46  C   UNL A   1      39.243  29.568  30.241  1.00  0.00     0.074 A 
ATOM     47  C   UNL A   1      38.241  29.732  29.212  1.00  0.00     0.031 C 
ATOM     48  C   UNL A   1      37.526  33.937  34.639  1.00  0.00     0.029 A 
ATOM     49  C   UNL A   1      38.628  32.981  34.721  1.00  0.00     0.049 A 
ATOM     50  H   UNL A   1      39.168  31.547  33.312  1.00  0.00     0.167 HD
ATOM     51  C   UNL A   1      40.267  28.688  30.171  1.00  0.00     0.037 A 
ATOM     52  C   UNL A   1      39.492  32.869  35.749  1.00  0.00     0.037 A 
ATOM     53  C   UNL A   1      41.277  28.550  31.183  1.00  0.00     0.049 A 
ATOM     54  C   UNL A   1      40.600  31.852  35.666  1.00  0.00     0.074 A 
ATOM     55  C   UNL A   1      42.391  27.730  31.179  1.00  0.00     0.029 A 
ATOM     56  N   UNL A   1      41.294  29.248  32.381  1.00  0.00    -0.354 N 
ATOM     57  N   UNL A   1      40.903  31.042  34.681  1.00  0.00    -0.248 NA
ATOM     58  C   UNL A   1      41.484  31.733  36.834  1.00  0.00     0.031 C 
ATOM     59  C   UNL A   1      43.054  27.894  32.398  1.00  0.00     0.029 A 
ATOM     60  C   UNL A   1      42.379  28.849  33.142  1.00  0.00     0.049 A 
ATOM     61  H   UNL A   1      40.632  29.925  32.650  1.00  0.00     0.167 HD
ATOM     62  C   UNL A   1      42.016  30.327  35.103  1.00  0.00     0.074 A 
ATOM     63  C   UNL A   1      42.350  30.815  36.425  1.00  0.00     0.031 C 
ATOM     64  C   UNL A   1      42.695  29.349  34.456  1.00  0.00     0.037 A 
BRANCH  51  65
ATOM     65  C   UNL A   1      40.366  27.826  28.947  1.00  0.00     0.064 A 
ATOM     66  C   UNL A   1      39.649  26.623  28.842  1.00  0.00     0.173 A 
ATOM     67  C   UNL A   1      41.134  28.231  27.846  1.00  0.00     0.173 A 
ATOM     68  F   UNL A   1      38.910  26.185  29.873  1.00  0.00    -0.203 F 
ATOM     69  C   UNL A   1      39.716  25.847  27.689  1.00  0.00     0.198 A 
ATOM     70  C   UNL A   1      41.174  27.468  26.682  1.00  0.00     0.198 A 
ATOM     71  F   UNL A   1      41.833  29.374  27.893  1.00  0.00    -0.203 F 
ATOM     72  F   UNL A   1      39.057  24.682  27.628  1.00  0.00    -0.200 F 
ATOM     73  C   UNL A   1      40.469  26.274  26.606  1.00  0.00     0.200 A 
ATOM     74  F   UNL A   1      41.891  27.888  25.631  1.00  0.00    -0.200 F 
ATOM     75  F   UNL A   1      40.520  25.535  25.490  1.00  0.00    -0.200 F 
ENDBRANCH  51  65
BRANCH  52  76
ATOM     76  C   UNL A   1      39.366  33.771  36.924  1.00  0.00     0.064 A 
ATOM     77  C   UNL A   1      38.641  33.376  38.057  1.00  0.00     0.173 A 
ATOM     78  C   UNL A   1      39.980  35.032  36.950  1.00  0.00     0.173 A 
ATOM     79  F   UNL A   1      38.019  32.189  38.074  1.00  0.00    -0.203 F 
ATOM     80  C   UNL A   1      38.528  34.212  39.168  1.00  0.00     0.198 A 
ATOM     81  C   UNL A   1      39.889  35.855  38.071  1.00  0.00     0.198 A 
ATOM     82  F   UNL A   1      40.687  35.456  35.893  1.00  0.00    -0.203 F 
ATOM     83  F   UNL A   1      37.802  33.823  40.225  1.00  0.00    -0.200 F 
ATOM     84  C   UNL A   1      39.158  35.446  39.177  1.00  0.00     0.200 A 
ATOM     85  F   UNL A   1      40.513  37.041  38.081  1.00  0.00    -0.200 F 
ATOM     86  F   UNL A   1      39.060  36.244  40.249  1.00  0.00    -0.200 F 
ENDBRANCH  52  76
BRANCH  64  87
ATOM     87  C   UNL A   1      43.859  28.719  35.161  1.00  0.00     0.064 A 
ATOM     88  C   UNL A   1      45.145  29.270  35.068  1.00  0.00     0.173 A 
ATOM     89  C   UNL A   1      43.668  27.636  36.032  1.00  0.00     0.173 A 
ATOM     90  F   UNL A   1      45.379  30.298  34.239  1.00  0.00    -0.203 F 
ATOM     91  C   UNL A   1      46.197  28.760  35.824  1.00  0.00     0.198 A 
ATOM     92  C   UNL A   1      44.715  27.148  36.808  1.00  0.00     0.198 A 
ATOM     93  F   UNL A   1      42.452  27.081  36.164  1.00  0.00    -0.203 F 
ATOM     94  F   UNL A   1      47.421  29.293  35.707  1.00  0.00    -0.200 F 
ATOM     95  C   UNL A   1      45.977  27.711  36.704  1.00  0.00     0.200 A 
ATOM     96  F   UNL A   1      44.497  26.147  37.672  1.00  0.00    -0.200 F 
ATOM     97  F   UNL A   1      46.984  27.244  37.455  1.00  0.00    -0.200 F 
ENDBRANCH  64  87
ENDBRANCH  38  39
ENDBRANCH  30  33
ENDBRANCH  28  29
ENDBRANCH  27  28
ENDBRANCH  26  27
ENDBRANCH   1  26
TORSDOF 15
ENDMDL
MODEL 2
REMARK VINA RESULT:     -12.5      0.676      7.187
REMARK SMILES Cc1nn(C)c(=O)c(C(=O)N2CCCC[C@H]2C(=O)NCCCCCCNC(=O)c2ccc(-c3c4nc(c(-c5c(F)c(F)c(F)c(F)c5F)c5ccc([nH]5)c(-c5c(F)c(F)c(F)c(F)c5F)c5nc(c(-c6c(F)c(F)c(F)c(F)c6F)c6ccc3[nH]6)C=C5)C=C4)cc2)c1C
REMARK SMILES IDX 22 1 21 2 20 3 19 4 17 5 18 6 16 8 11 9 12 10 13 11 15 12
REMARK SMILES IDX 14 13 9 14 10 15 8 16 1 17 2 18 3 19 92 20 4 21 93 22 5 23
REMARK SMILES IDX 6 24 7 25 23 26 24 27 25 28 26 29 27 30 28 32 29 33 30 34
REMARK SMILES IDX 91 35 31 36 90 37 32 38 33 39 34 40 84 41 35 42 89 43 83 44
REMARK SMILES IDX 85 45 36 46 88 47 82 48 81 49 37 51 69 52 49 53 68 54 50 55
REMARK SMILES IDX 53 56 67 57 86 58 51 59 52 60 66 62 87 63 54 64 38 65 39 66
REMARK SMILES IDX 47 67 40 68 41 69 45 70 48 71 42 72 43 73 46 74 44 75 70 76
REMARK SMILES IDX 71 77 79 78 72 79 73 80 77 81 80 82 74 83 75 84 78 85 76 86
REMARK SMILES IDX 55 87 56 88 64 89 57 90 58 91 62 92 65 93 59 94 60 95 63 96
REMARK SMILES IDX 61 97
REMARK H PARENT 19 7 26 31 85 50 53 61
REMARK Flexibility Score: inf
ROOT
ATOM      1  C   UNL A   1      32.480  30.071  26.636  1.00  0.00     0.002 C 
ENDROOT
BRANCH   1   2
ATOM      2  C   UNL A   1      32.602  28.689  25.986  1.00  0.00     0.021 C 
BRANCH   2   3
ATOM      3  C   UNL A   1      31.590  28.439  24.872  1.00  0.00     0.116 C 
BRANCH   3   4
ATOM      4  N   UNL A   1      32.197  27.799  23.717  1.00  0.00    -0.354 N 
ATOM      5  C   UNL A   1      31.494  26.898  22.954  1.00  0.00     0.242 C 
ATOM      6  O   UNL A   1      30.660  27.325  22.155  1.00  0.00    -0.273 OA
ATOM      7  H   UNL A   1      33.127  28.015  23.477  1.00  0.00     0.163 HD
BRANCH   5   8
ATOM      8  C   UNL A   1      31.703  25.370  23.182  1.00  0.00     0.174 C 
ATOM      9  N   UNL A   1      32.968  24.891  23.791  1.00  0.00    -0.326 N 
ATOM     10  C   UNL A   1      33.077  24.986  25.240  1.00  0.00     0.120 C 
ATOM     11  C   UNL A   1      31.891  24.391  25.982  1.00  0.00     0.022 C 
ATOM     12  C   UNL A   1      30.480  24.793  23.928  1.00  0.00     0.035 C 
ATOM     13  C   UNL A   1      30.566  24.911  25.450  1.00  0.00     0.004 C 
BRANCH   9  14
ATOM     14  C   UNL A   1      33.788  23.929  23.205  1.00  0.00     0.260 C 
ATOM     15  O   UNL A   1      34.028  24.017  21.998  1.00  0.00    -0.269 OA
BRANCH  14  16
ATOM     16  C   UNL A   1      34.215  22.686  23.963  1.00  0.00     0.111 A 
ATOM     17  C   UNL A   1      33.309  19.189  25.154  1.00  0.00     0.069 C 
ATOM     18  C   UNL A   1      34.149  20.378  24.730  1.00  0.00     0.062 A 
ATOM     19  N   UNL A   1      35.408  20.299  24.999  1.00  0.00    -0.175 NA
ATOM     20  C   UNL A   1      33.495  21.545  24.057  1.00  0.00    -0.010 A 
ATOM     21  N   UNL A   1      36.174  21.395  24.753  1.00  0.00    -0.232 N 
ATOM     22  C   UNL A   1      32.154  21.254  23.472  1.00  0.00     0.047 C 
ATOM     23  C   UNL A   1      37.592  21.221  25.021  1.00  0.00     0.178 C 
ATOM     24  C   UNL A   1      35.657  22.644  24.426  1.00  0.00     0.279 A 
ATOM     25  O   UNL A   1      36.344  23.663  24.486  1.00  0.00    -0.267 OA
ENDBRANCH  14  16
ENDBRANCH   9  14
ENDBRANCH   5   8
ENDBRANCH   3   4
ENDBRANCH   2   3
ENDBRANCH   1   2
BRANCH   1  26
ATOM     26  C   UNL A   1      31.409  30.966  26.009  1.00  0.00     0.002 C 
BRANCH  26  27
ATOM     27  C   UNL A   1      31.251  32.331  26.682  1.00  0.00     0.021 C 
BRANCH  27  28
ATOM     28  C   UNL A   1      32.555  32.914  27.212  1.00  0.00     0.116 C 
BRANCH  28  29
ATOM     29  N   UNL A   1      32.392  34.293  27.639  1.00  0.00    -0.352 N 
ATOM     30  C   UNL A   1      33.033  34.952  28.657  1.00  0.00     0.251 C 
ATOM     31  H   UNL A   1      31.735  34.824  27.133  1.00  0.00     0.163 HD
ATOM     32  O   UNL A   1      32.627  36.040  29.057  1.00  0.00    -0.269 OA
BRANCH  30  33
ATOM     33  C   UNL A   1      34.213  34.325  29.283  1.00  0.00     0.039 A 
ATOM     34  C   UNL A   1      34.036  33.498  30.392  1.00  0.00     0.014 A 
ATOM     35  C   UNL A   1      35.490  34.542  28.753  1.00  0.00     0.014 A 
ATOM     36  C   UNL A   1      35.140  32.853  30.947  1.00  0.00     0.010 A 
ATOM     37  C   UNL A   1      36.574  33.829  29.252  1.00  0.00     0.010 A 
ATOM     38  C   UNL A   1      36.413  32.994  30.368  1.00  0.00    -0.014 A 
BRANCH  38  39
ATOM     39  C   UNL A   1      37.590  32.311  30.958  1.00  0.00     0.031 A 
ATOM     40  C   UNL A   1      38.054  32.678  32.339  1.00  0.00     0.074 A 
ATOM     41  C   UNL A   1      38.242  31.367  30.249  1.00  0.00     0.049 A 
ATOM     42  N   UNL A   1      39.032  32.170  33.044  1.00  0.00    -0.248 NA
ATOM     43  C   UNL A   1      37.338  33.775  33.013  1.00  0.00     0.031 C 
ATOM     44  C   UNL A   1      37.913  30.963  28.882  1.00  0.00     0.029 A 
ATOM     45  N   UNL A   1      39.306  30.569  30.585  1.00  0.00    -0.354 N 
ATOM     46  C   UNL A   1      39.041  32.877  34.238  1.00  0.00     0.074 A 
ATOM     47  C   UNL A   1      38.029  33.902  34.136  1.00  0.00     0.031 C 
ATOM     48  C   UNL A   1      38.726  29.960  28.514  1.00  0.00     0.029 A 
ATOM     49  C   UNL A   1      39.653  29.672  29.606  1.00  0.00     0.049 A 
ATOM     50  H   UNL A   1      39.777  30.634  31.448  1.00  0.00     0.167 HD
ATOM     51  C   UNL A   1      39.796  32.661  35.340  1.00  0.00     0.037 A 
ATOM     52  C   UNL A   1      40.604  28.717  29.595  1.00  0.00     0.037 A 
ATOM     53  C   UNL A   1      40.780  31.620  35.446  1.00  0.00     0.049 A 
ATOM     54  C   UNL A   1      41.459  28.523  30.819  1.00  0.00     0.074 A 
ATOM     55  C   UNL A   1      41.555  31.279  36.540  1.00  0.00     0.029 A 
ATOM     56  N   UNL A   1      41.126  30.753  34.420  1.00  0.00    -0.354 N 
ATOM     57  N   UNL A   1      41.398  29.139  31.974  1.00  0.00    -0.248 NA
ATOM     58  C   UNL A   1      42.516  27.504  30.739  1.00  0.00     0.031 C 
ATOM     59  C   UNL A   1      42.407  30.239  36.160  1.00  0.00     0.029 A 
ATOM     60  C   UNL A   1      42.133  29.903  34.844  1.00  0.00     0.049 A 
ATOM     61  H   UNL A   1      40.718  30.746  33.525  1.00  0.00     0.167 HD
ATOM     62  C   UNL A   1      42.394  28.577  32.761  1.00  0.00     0.074 A 
ATOM     63  C   UNL A   1      43.032  27.553  31.960  1.00  0.00     0.031 C 
ATOM     64  C   UNL A   1      42.753  28.888  34.030  1.00  0.00     0.037 A 
BRANCH  51  65
ATOM     65  C   UNL A   1      39.567  33.546  36.528  1.00  0.00     0.064 A 
ATOM     66  C   UNL A   1      38.721  33.152  37.579  1.00  0.00     0.173 A 
ATOM     67  C   UNL A   1      40.240  34.769  36.651  1.00  0.00     0.173 A 
ATOM     68  F   UNL A   1      38.044  31.996  37.503  1.00  0.00    -0.203 F 
ATOM     69  C   UNL A   1      38.542  33.962  38.696  1.00  0.00     0.198 A 
ATOM     70  C   UNL A   1      40.083  35.562  37.785  1.00  0.00     0.198 A 
ATOM     71  F   UNL A   1      41.063  35.189  35.679  1.00  0.00    -0.203 F 
ATOM     72  F   UNL A   1      37.698  33.585  39.666  1.00  0.00    -0.200 F 
ATOM     73  C   UNL A   1      39.231  35.161  38.804  1.00  0.00     0.200 A 
ATOM     74  F   UNL A   1      40.759  36.714  37.894  1.00  0.00    -0.200 F 
ATOM     75  F   UNL A   1      39.071  35.932  39.888  1.00  0.00    -0.200 F 
ENDBRANCH  51  65
BRANCH  52  76
ATOM     76  C   UNL A   1      40.765  27.847  28.400  1.00  0.00     0.064 A 
ATOM     77  C   UNL A   1      40.097  26.618  28.313  1.00  0.00     0.173 A 
ATOM     78  C   UNL A   1      41.569  28.230  27.317  1.00  0.00     0.173 A 
ATOM     79  F   UNL A   1      39.332  26.198  29.330  1.00  0.00    -0.203 F 
ATOM     80  C   UNL A   1      40.234  25.802  27.190  1.00  0.00     0.198 A 
ATOM     81  C   UNL A   1      41.683  27.427  26.185  1.00  0.00     0.198 A 
ATOM     82  F   UNL A   1      42.227  29.399  27.349  1.00  0.00    -0.203 F 
ATOM     83  F   UNL A   1      39.609  24.617  27.146  1.00  0.00    -0.200 F 
ATOM     84  C   UNL A   1      41.020  26.210  26.124  1.00  0.00     0.200 A 
ATOM     85  F   UNL A   1      42.432  27.833  25.150  1.00  0.00    -0.200 F 
ATOM     86  F   UNL A   1      41.141  25.432  25.041  1.00  0.00    -0.200 F 
ENDBRANCH  52  76
BRANCH  64  87
ATOM     87  C   UNL A   1      43.896  28.133  34.641  1.00  0.00     0.064 A 
ATOM     88  C   UNL A   1      43.688  26.908  35.291  1.00  0.00     0.173 A 
ATOM     89  C   UNL A   1      45.218  28.570  34.466  1.00  0.00     0.173 A 
ATOM     90  F   UNL A   1      42.442  26.455  35.492  1.00  0.00    -0.203 F 
ATOM     91  C   UNL A   1      44.763  26.148  35.743  1.00  0.00     0.198 A 
ATOM     92  C   UNL A   1      46.291  27.794  34.894  1.00  0.00     0.198 A 
ATOM     93  F   UNL A   1      45.469  29.731  33.840  1.00  0.00    -0.203 F 
ATOM     94  F   UNL A   1      44.540  24.988  36.377  1.00  0.00    -0.200 F 
ATOM     95  C   UNL A   1      46.063  26.584  35.530  1.00  0.00     0.200 A 
ATOM     96  F   UNL A   1      47.546  28.207  34.669  1.00  0.00    -0.200 F 
ATOM     97  F   UNL A   1      47.096  25.834  35.937  1.00  0.00    -0.200 F 
ENDBRANCH  64  87
ENDBRANCH  38  39
ENDBRANCH  30  33
ENDBRANCH  28  29
ENDBRANCH  27  28
ENDBRANCH  26  27
ENDBRANCH   1  26
TORSDOF 15
ENDMDL
MODEL 3
REMARK VINA RESULT:     -12.5      1.231      7.428
REMARK SMILES Cc1nn(C)c(=O)c(C(=O)N2CCCC[C@H]2C(=O)NCCCCCCNC(=O)c2ccc(-c3c4nc(c(-c5c(F)c(F)c(F)c(F)c5F)c5ccc([nH]5)c(-c5c(F)c(F)c(F)c(F)c5F)c5nc(c(-c6c(F)c(F)c(F)c(F)c6F)c6ccc3[nH]6)C=C5)C=C4)cc2)c1C
REMARK SMILES IDX 22 1 21 2 20 3 19 4 17 5 18 6 16 8 11 9 12 10 13 11 15 12
REMARK SMILES IDX 14 13 9 14 10 15 8 16 1 17 2 18 3 19 92 20 4 21 93 22 5 23
REMARK SMILES IDX 6 24 7 25 23 26 24 27 25 28 26 29 27 30 28 32 29 33 30 34
REMARK SMILES IDX 91 35 31 36 90 37 32 38 33 39 34 40 84 41 35 42 89 43 83 44
REMARK SMILES IDX 85 45 36 46 88 47 82 48 81 49 37 51 69 52 49 53 68 54 50 55
REMARK SMILES IDX 53 56 67 57 86 58 51 59 52 60 66 62 87 63 54 64 38 65 39 66
REMARK SMILES IDX 47 67 40 68 41 69 45 70 48 71 42 72 43 73 46 74 44 75 70 76
REMARK SMILES IDX 71 77 79 78 72 79 73 80 77 81 80 82 74 83 75 84 78 85 76 86
REMARK SMILES IDX 55 87 56 88 64 89 57 90 58 91 62 92 65 93 59 94 60 95 63 96
REMARK SMILES IDX 61 97
REMARK H PARENT 19 7 26 31 85 50 53 61
REMARK Flexibility Score: inf
ROOT
ATOM      1  C   UNL A   1      32.860  30.200  26.120  1.00  0.00     0.002 C 
ENDROOT
BRANCH   1   2
ATOM      2  C   UNL A   1      32.908  28.676  25.964  1.00  0.00     0.021 C 
BRANCH   2   3
ATOM      3  C   UNL A   1      33.171  28.210  24.535  1.00  0.00     0.116 C 
BRANCH   3   4
ATOM      4  N   UNL A   1      33.814  26.907  24.496  1.00  0.00    -0.354 N 
ATOM      5  C   UNL A   1      33.358  25.915  23.662  1.00  0.00     0.242 C 
ATOM      6  O   UNL A   1      33.635  25.978  22.464  1.00  0.00    -0.273 OA
ATOM      7  H   UNL A   1      34.590  26.732  25.077  1.00  0.00     0.163 HD
BRANCH   5   8
ATOM      8  C   UNL A   1      32.434  24.795  24.232  1.00  0.00     0.174 C 
ATOM      9  N   UNL A   1      32.305  24.636  25.701  1.00  0.00    -0.326 N 
ATOM     10  C   UNL A   1      31.397  25.547  26.384  1.00  0.00     0.120 C 
ATOM     11  C   UNL A   1      30.017  25.622  25.752  1.00  0.00     0.022 C 
ATOM     12  C   UNL A   1      31.045  24.891  23.564  1.00  0.00     0.035 C 
ATOM     13  C   UNL A   1      30.089  25.865  24.253  1.00  0.00     0.004 C 
BRANCH   9  14
ATOM     14  C   UNL A   1      32.539  23.435  26.367  1.00  0.00     0.260 C 
ATOM     15  O   UNL A   1      32.198  23.342  27.549  1.00  0.00    -0.269 OA
BRANCH  14  16
ATOM     16  C   UNL A   1      33.375  22.333  25.742  1.00  0.00     0.111 A 
ATOM     17  C   UNL A   1      36.832  21.126  24.713  1.00  0.00     0.069 C 
ATOM     18  C   UNL A   1      35.376  21.090  25.133  1.00  0.00     0.062 A 
ATOM     19  N   UNL A   1      34.780  19.955  24.994  1.00  0.00    -0.175 NA
ATOM     20  C   UNL A   1      34.725  22.333  25.658  1.00  0.00    -0.010 A 
ATOM     21  N   UNL A   1      33.443  19.911  25.237  1.00  0.00    -0.232 N 
ATOM     22  C   UNL A   1      35.676  23.382  26.127  1.00  0.00     0.047 C 
ATOM     23  C   UNL A   1      32.845  18.591  25.122  1.00  0.00     0.178 C 
ATOM     24  C   UNL A   1      32.652  21.040  25.425  1.00  0.00     0.279 A 
ATOM     25  O   UNL A   1      31.426  20.986  25.363  1.00  0.00    -0.267 OA
ENDBRANCH  14  16
ENDBRANCH   9  14
ENDBRANCH   5   8
ENDBRANCH   3   4
ENDBRANCH   2   3
ENDBRANCH   1   2
BRANCH   1  26
ATOM     26  C   UNL A   1      31.447  30.773  26.249  1.00  0.00     0.002 C 
BRANCH  26  27
ATOM     27  C   UNL A   1      31.397  32.282  26.496  1.00  0.00     0.021 C 
BRANCH  27  28
ATOM     28  C   UNL A   1      32.649  32.842  27.160  1.00  0.00     0.116 C 
BRANCH  28  29
ATOM     29  N   UNL A   1      32.438  34.194  27.650  1.00  0.00    -0.352 N 
ATOM     30  C   UNL A   1      33.043  34.821  28.708  1.00  0.00     0.251 C 
ATOM     31  H   UNL A   1      31.774  34.729  27.158  1.00  0.00     0.163 HD
ATOM     32  O   UNL A   1      32.599  35.876  29.152  1.00  0.00    -0.269 OA
BRANCH  30  33
ATOM     33  C   UNL A   1      34.232  34.200  29.324  1.00  0.00     0.039 A 
ATOM     34  C   UNL A   1      34.057  33.268  30.347  1.00  0.00     0.014 A 
ATOM     35  C   UNL A   1      35.513  34.527  28.869  1.00  0.00     0.014 A 
ATOM     36  C   UNL A   1      35.174  32.630  30.888  1.00  0.00     0.010 A 
ATOM     37  C   UNL A   1      36.615  33.826  29.347  1.00  0.00     0.010 A 
ATOM     38  C   UNL A   1      36.458  32.887  30.377  1.00  0.00    -0.014 A 
BRANCH  38  39
ATOM     39  C   UNL A   1      37.647  32.212  30.951  1.00  0.00     0.031 A 
ATOM     40  C   UNL A   1      38.122  32.578  32.329  1.00  0.00     0.074 A 
ATOM     41  C   UNL A   1      38.299  31.277  30.232  1.00  0.00     0.049 A 
ATOM     42  N   UNL A   1      39.112  32.076  33.022  1.00  0.00    -0.248 NA
ATOM     43  C   UNL A   1      37.404  33.666  33.015  1.00  0.00     0.031 C 
ATOM     44  C   UNL A   1      37.960  30.875  28.867  1.00  0.00     0.029 A 
ATOM     45  N   UNL A   1      39.375  30.488  30.554  1.00  0.00    -0.354 N 
ATOM     46  C   UNL A   1      39.128  32.779  34.218  1.00  0.00     0.074 A 
ATOM     47  C   UNL A   1      38.105  33.796  34.130  1.00  0.00     0.031 C 
ATOM     48  C   UNL A   1      38.779  29.880  28.486  1.00  0.00     0.029 A 
ATOM     49  C   UNL A   1      39.720  29.597  29.567  1.00  0.00     0.049 A 
ATOM     50  H   UNL A   1      39.854  30.553  31.412  1.00  0.00     0.167 HD
ATOM     51  C   UNL A   1      39.896  32.566  35.311  1.00  0.00     0.037 A 
ATOM     52  C   UNL A   1      40.679  28.651  29.543  1.00  0.00     0.037 A 
ATOM     53  C   UNL A   1      40.891  31.533  35.403  1.00  0.00     0.049 A 
ATOM     54  C   UNL A   1      41.549  28.460  30.757  1.00  0.00     0.074 A 
ATOM     55  C   UNL A   1      41.680  31.196  36.487  1.00  0.00     0.029 A 
ATOM     56  N   UNL A   1      41.234  30.674  34.370  1.00  0.00    -0.354 N 
ATOM     57  N   UNL A   1      41.494  29.071  31.916  1.00  0.00    -0.248 NA
ATOM     58  C   UNL A   1      42.613  27.451  30.662  1.00  0.00     0.031 C 
ATOM     59  C   UNL A   1      42.538  30.165  36.094  1.00  0.00     0.029 A 
ATOM     60  C   UNL A   1      42.252  29.831  34.780  1.00  0.00     0.049 A 
ATOM     61  H   UNL A   1      40.817  30.666  33.479  1.00  0.00     0.167 HD
ATOM     62  C   UNL A   1      42.504  28.515  32.690  1.00  0.00     0.074 A 
ATOM     63  C   UNL A   1      43.142  27.501  31.878  1.00  0.00     0.031 C 
ATOM     64  C   UNL A   1      42.874  28.825  33.956  1.00  0.00     0.037 A 
BRANCH  51  65
ATOM     65  C   UNL A   1      39.671  33.444  36.505  1.00  0.00     0.064 A 
ATOM     66  C   UNL A   1      40.295  34.697  36.617  1.00  0.00     0.173 A 
ATOM     67  C   UNL A   1      38.781  33.062  37.519  1.00  0.00     0.173 A 
ATOM     68  F   UNL A   1      41.165  35.104  35.679  1.00  0.00    -0.203 F 
ATOM     69  C   UNL A   1      40.053  35.524  37.711  1.00  0.00     0.198 A 
ATOM     70  C   UNL A   1      38.518  33.904  38.596  1.00  0.00     0.198 A 
ATOM     71  F   UNL A   1      38.156  31.877  37.458  1.00  0.00    -0.203 F 
ATOM     72  F   UNL A   1      40.692  36.697  37.815  1.00  0.00    -0.200 F 
ATOM     73  C   UNL A   1      39.158  35.132  38.693  1.00  0.00     0.200 A 
ATOM     74  F   UNL A   1      37.642  33.531  39.539  1.00  0.00    -0.200 F 
ATOM     75  F   UNL A   1      38.913  35.935  39.737  1.00  0.00    -0.200 F 
ENDBRANCH  51  65
BRANCH  52  76
ATOM     76  C   UNL A   1      40.836  27.787  28.344  1.00  0.00     0.064 A 
ATOM     77  C   UNL A   1      41.720  28.141  27.315  1.00  0.00     0.173 A 
ATOM     78  C   UNL A   1      40.127  26.585  28.207  1.00  0.00     0.173 A 
ATOM     79  F   UNL A   1      42.407  29.290  27.389  1.00  0.00    -0.203 F 
ATOM     80  C   UNL A   1      41.882  27.331  26.193  1.00  0.00     0.198 A 
ATOM     81  C   UNL A   1      40.309  25.762  27.098  1.00  0.00     0.198 A 
ATOM     82  F   UNL A   1      39.270  26.198  29.165  1.00  0.00    -0.203 F 
ATOM     83  F   UNL A   1      42.710  27.709  25.209  1.00  0.00    -0.200 F 
ATOM     84  C   UNL A   1      41.183  26.138  26.089  1.00  0.00     0.200 A 
ATOM     85  F   UNL A   1      39.643  24.602  27.009  1.00  0.00    -0.200 F 
ATOM     86  F   UNL A   1      41.348  25.353  25.016  1.00  0.00    -0.200 F 
ENDBRANCH  52  76
BRANCH  64  87
ATOM     87  C   UNL A   1      44.030  28.078  34.552  1.00  0.00     0.064 A 
ATOM     88  C   UNL A   1      45.323  28.619  34.540  1.00  0.00     0.173 A 
ATOM     89  C   UNL A   1      43.824  26.877  35.247  1.00  0.00     0.173 A 
ATOM     90  F   UNL A   1      45.572  29.759  33.879  1.00  0.00    -0.203 F 
ATOM     91  C   UNL A   1      46.369  27.985  35.206  1.00  0.00     0.198 A 
ATOM     92  C   UNL A   1      44.865  26.261  35.935  1.00  0.00     0.198 A 
ATOM     93  F   UNL A   1      42.601  26.325  35.296  1.00  0.00    -0.203 F 
ATOM     94  F   UNL A   1      47.600  28.511  35.168  1.00  0.00    -0.200 F 
ATOM     95  C   UNL A   1      46.135  26.815  35.914  1.00  0.00     0.200 A 
ATOM     96  F   UNL A   1      44.633  25.142  36.635  1.00  0.00    -0.200 F 
ATOM     97  F   UNL A   1      47.136  26.225  36.581  1.00  0.00    -0.200 F 
ENDBRANCH  64  87
ENDBRANCH  38  39
ENDBRANCH  30  33
ENDBRANCH  28  29
ENDBRANCH  27  28
ENDBRANCH  26  27
ENDBRANCH   1  26
TORSDOF 15
ENDMDL
