MODEL 1
REMARK VINA RESULT:     -12.6      0.000      0.000
REMARK SMILES O=C(NCCCCCCNC(=O)[C@@H]1CS[C@H](Cc2cccc(F)c2)C(=O)N1)c1ccc(-c2c3nc(c(-c4c(F)c(F)c(F)c(F)c4F)c4ccc([nH]4)c(-c4c(F)c(F)c(F)c(F)c4F)c4nc(c(-c5c(F)c(F)c(F)c(F)c5F)c5ccc2[nH]5)C=C4)C=C3)cc1
REMARK SMILES IDX 6 1 5 2 4 3 3 4 1 5 2 6 28 8 29 9 90 10 30 11 89 12 31 13
REMARK SMILES IDX 32 14 33 15 83 16 34 17 88 18 82 19 84 20 35 21 87 22 81 23
REMARK SMILES IDX 80 24 36 26 68 27 48 28 67 29 49 30 52 31 66 32 85 33 50 34
REMARK SMILES IDX 51 35 65 37 86 38 53 39 37 40 38 41 46 42 39 43 40 44 44 45
REMARK SMILES IDX 47 46 41 47 42 48 45 49 43 50 69 51 70 52 78 53 71 54 72 55
REMARK SMILES IDX 76 56 79 57 73 58 74 59 77 60 75 61 54 62 55 63 63 64 56 65
REMARK SMILES IDX 57 66 61 67 64 68 58 69 59 70 62 71 60 72 7 73 8 74 9 75
REMARK SMILES IDX 10 76 11 77 12 79 13 80 14 81 27 82 15 83 25 84 16 86 26 87
REMARK SMILES IDX 17 88 18 89 19 90 24 91 20 92 22 93 21 94 23 95
REMARK H PARENT 3 7 84 25 52 36 10 78 27 85
REMARK Flexibility Score: inf
ROOT
ATOM      1  C   UNL A   1      31.516  30.643  26.256  1.00  0.00     0.002 C 
ENDROOT
BRANCH   1   2
ATOM      2  C   UNL A   1      31.404  32.144  26.512  1.00  0.00     0.021 C 
BRANCH   2   3
ATOM      3  C   UNL A   1      32.635  32.770  27.148  1.00  0.00     0.116 C 
BRANCH   3   4
ATOM      4  N   UNL A   1      32.393  34.120  27.626  1.00  0.00    -0.352 N 
ATOM      5  O   UNL A   1      32.614  35.876  29.033  1.00  0.00    -0.269 OA
ATOM      6  C   UNL A   1      33.029  34.790  28.643  1.00  0.00     0.251 C 
ATOM      7  H   UNL A   1      31.682  34.618  27.162  1.00  0.00     0.163 HD
BRANCH   6   8
ATOM      8  C   UNL A   1      34.211  34.175  29.284  1.00  0.00     0.039 A 
ATOM      9  C   UNL A   1      35.500  34.524  28.873  1.00  0.00     0.014 A 
ATOM     10  C   UNL A   1      34.028  33.228  30.296  1.00  0.00     0.014 A 
ATOM     11  C   UNL A   1      36.593  33.828  29.371  1.00  0.00     0.010 A 
ATOM     12  C   UNL A   1      35.138  32.594  30.862  1.00  0.00     0.010 A 
ATOM     13  C   UNL A   1      36.428  32.871  30.387  1.00  0.00    -0.014 A 
BRANCH  13  14
ATOM     14  C   UNL A   1      37.636  32.244  30.979  1.00  0.00     0.031 A 
ATOM     15  C   UNL A   1      38.092  32.574  32.371  1.00  0.00     0.074 A 
ATOM     16  C   UNL A   1      38.285  31.311  30.255  1.00  0.00     0.049 A 
ATOM     17  N   UNL A   1      39.085  32.059  33.053  1.00  0.00    -0.248 NA
ATOM     18  C   UNL A   1      37.345  33.613  33.096  1.00  0.00     0.031 C 
ATOM     19  C   UNL A   1      37.935  30.918  28.888  1.00  0.00     0.029 A 
ATOM     20  N   UNL A   1      39.342  30.497  30.571  1.00  0.00    -0.354 N 
ATOM     21  C   UNL A   1      39.093  32.718  34.274  1.00  0.00     0.074 A 
ATOM     22  C   UNL A   1      38.018  33.686  34.239  1.00  0.00     0.031 C 
ATOM     23  C   UNL A   1      38.709  29.892  28.511  1.00  0.00     0.029 A 
ATOM     24  C   UNL A   1      39.654  29.597  29.582  1.00  0.00     0.049 A 
ATOM     25  H   UNL A   1      39.831  30.553  31.424  1.00  0.00     0.167 HD
ATOM     26  C   UNL A   1      39.919  32.521  35.330  1.00  0.00     0.037 A 
ATOM     27  C   UNL A   1      40.599  28.639  29.538  1.00  0.00     0.037 A 
ATOM     28  C   UNL A   1      40.974  31.541  35.365  1.00  0.00     0.049 A 
ATOM     29  C   UNL A   1      41.505  28.457  30.720  1.00  0.00     0.074 A 
ATOM     30  C   UNL A   1      41.852  31.258  36.399  1.00  0.00     0.029 A 
ATOM     31  N   UNL A   1      41.294  30.682  34.325  1.00  0.00    -0.354 N 
ATOM     32  N   UNL A   1      41.492  29.080  31.872  1.00  0.00    -0.248 NA
ATOM     33  C   UNL A   1      42.566  27.449  30.590  1.00  0.00     0.031 C 
ATOM     34  C   UNL A   1      42.724  30.253  35.970  1.00  0.00     0.029 A 
ATOM     35  C   UNL A   1      42.364  29.879  34.687  1.00  0.00     0.049 A 
ATOM     36  H   UNL A   1      40.829  30.647  33.458  1.00  0.00     0.167 HD
ATOM     37  C   UNL A   1      42.534  28.537  32.608  1.00  0.00     0.074 A 
ATOM     38  C   UNL A   1      43.142  27.514  31.783  1.00  0.00     0.031 C 
ATOM     39  C   UNL A   1      42.955  28.866  33.852  1.00  0.00     0.037 A 
BRANCH  26  40
ATOM     40  C   UNL A   1      39.727  33.371  36.550  1.00  0.00     0.064 A 
ATOM     41  C   UNL A   1      38.818  32.987  37.549  1.00  0.00     0.173 A 
ATOM     42  C   UNL A   1      40.353  34.620  36.676  1.00  0.00     0.173 A 
ATOM     43  F   UNL A   1      38.187  31.806  37.470  1.00  0.00    -0.203 F 
ATOM     44  C   UNL A   1      38.528  33.832  38.617  1.00  0.00     0.198 A 
ATOM     45  C   UNL A   1      40.076  35.453  37.758  1.00  0.00     0.198 A 
ATOM     46  F   UNL A   1      41.236  35.028  35.753  1.00  0.00    -0.203 F 
ATOM     47  F   UNL A   1      37.628  33.461  39.539  1.00  0.00    -0.200 F 
ATOM     48  C   UNL A   1      39.155  35.064  38.720  1.00  0.00     0.200 A 
ATOM     49  F   UNL A   1      40.695  36.636  37.865  1.00  0.00    -0.200 F 
ATOM     50  F   UNL A   1      38.871  35.879  39.746  1.00  0.00    -0.200 F 
ENDBRANCH  26  40
BRANCH  27  51
ATOM     51  C   UNL A   1      40.718  27.778  28.334  1.00  0.00     0.064 A 
ATOM     52  C   UNL A   1      40.068  26.537  28.257  1.00  0.00     0.173 A 
ATOM     53  C   UNL A   1      41.507  28.171  27.245  1.00  0.00     0.173 A 
ATOM     54  F   UNL A   1      39.305  26.114  29.275  1.00  0.00    -0.203 F 
ATOM     55  C   UNL A   1      40.222  25.712  27.145  1.00  0.00     0.198 A 
ATOM     56  C   UNL A   1      41.637  27.358  26.121  1.00  0.00     0.198 A 
ATOM     57  F   UNL A   1      42.134  29.357  27.266  1.00  0.00    -0.203 F 
ATOM     58  F   UNL A   1      39.622  24.514  27.115  1.00  0.00    -0.200 F 
ATOM     59  C   UNL A   1      41.002  26.125  26.076  1.00  0.00     0.200 A 
ATOM     60  F   UNL A   1      42.372  27.771  25.080  1.00  0.00    -0.200 F 
ATOM     61  F   UNL A   1      41.138  25.338  25.001  1.00  0.00    -0.200 F 
ENDBRANCH  27  51
BRANCH  39  62
ATOM     62  C   UNL A   1      44.124  28.105  34.403  1.00  0.00     0.064 A 
ATOM     63  C   UNL A   1      43.926  26.912  35.113  1.00  0.00     0.173 A 
ATOM     64  C   UNL A   1      45.435  28.584  34.268  1.00  0.00     0.173 A 
ATOM     65  F   UNL A   1      42.689  26.417  35.275  1.00  0.00    -0.203 F 
ATOM     66  C   UNL A   1      45.000  26.228  35.675  1.00  0.00     0.198 A 
ATOM     67  C   UNL A   1      46.509  27.884  34.808  1.00  0.00     0.198 A 
ATOM     68  F   UNL A   1      45.673  29.712  33.583  1.00  0.00    -0.203 F 
ATOM     69  F   UNL A   1      44.788  25.103  36.370  1.00  0.00    -0.200 F 
ATOM     70  C   UNL A   1      46.291  26.712  35.517  1.00  0.00     0.200 A 
ATOM     71  F   UNL A   1      47.758  28.339  34.633  1.00  0.00    -0.200 F 
ATOM     72  F   UNL A   1      47.326  26.044  36.045  1.00  0.00    -0.200 F 
ENDBRANCH  39  62
ENDBRANCH  13  14
ENDBRANCH   6   8
ENDBRANCH   3   4
ENDBRANCH   2   3
ENDBRANCH   1   2
BRANCH   1  73
ATOM     73  C   UNL A   1      32.445  29.886  27.211  1.00  0.00     0.002 C 
BRANCH  73  74
ATOM     74  C   UNL A   1      33.008  28.561  26.675  1.00  0.00     0.021 C 
BRANCH  74  75
ATOM     75  C   UNL A   1      32.003  27.721  25.891  1.00  0.00     0.116 C 
BRANCH  75  76
ATOM     76  N   UNL A   1      31.608  26.561  26.659  1.00  0.00    -0.354 N 
ATOM     77  C   UNL A   1      31.908  25.244  26.501  1.00  0.00     0.243 C 
ATOM     78  H   UNL A   1      31.025  26.759  27.426  1.00  0.00     0.163 HD
ATOM     79  O   UNL A   1      31.292  24.454  27.218  1.00  0.00    -0.273 OA
BRANCH  77  80
ATOM     80  C   UNL A   1      33.111  24.833  25.631  1.00  0.00     0.181 C 
ATOM     81  C   UNL A   1      32.737  24.576  24.179  1.00  0.00     0.105 C 
ATOM     82  N   UNL A   1      33.727  23.705  26.319  1.00  0.00    -0.343 N 
ATOM     83  S   UNL A   1      31.743  23.086  23.962  1.00  0.00    -0.146 SA
ATOM     84  C   UNL A   1      33.377  22.393  26.167  1.00  0.00     0.234 C 
ATOM     85  H   UNL A   1      34.459  23.905  26.947  1.00  0.00     0.164 HD
ATOM     86  C   UNL A   1      32.840  21.897  24.823  1.00  0.00     0.140 C 
ATOM     87  O   UNL A   1      33.680  21.624  27.083  1.00  0.00    -0.274 OA
BRANCH  86  88
ATOM     88  C   UNL A   1      32.133  20.537  25.001  1.00  0.00     0.060 C 
BRANCH  88  89
ATOM     89  C   UNL A   1      32.850  19.409  24.292  1.00  0.00    -0.043 A 
ATOM     90  C   UNL A   1      32.298  18.834  23.138  1.00  0.00     0.004 A 
ATOM     91  C   UNL A   1      34.020  18.862  24.836  1.00  0.00     0.043 A 
ATOM     92  C   UNL A   1      32.880  17.703  22.562  1.00  0.00     0.003 A 
ATOM     93  C   UNL A   1      34.593  17.739  24.251  1.00  0.00     0.123 A 
ATOM     94  C   UNL A   1      34.028  17.150  23.126  1.00  0.00     0.039 A 
ATOM     95  F   UNL A   1      35.693  17.201  24.794  1.00  0.00    -0.207 F 
ENDBRANCH  88  89
ENDBRANCH  86  88
ENDBRANCH  77  80
ENDBRANCH  75  76
ENDBRANCH  74  75
ENDBRANCH  73  74
ENDBRANCH   1  73
TORSDOF 15
ENDMDL
MODEL 2
REMARK VINA RESULT:     -12.3      0.320      1.615
REMARK SMILES O=C(NCCCCCCNC(=O)[C@@H]1CS[C@H](Cc2cccc(F)c2)C(=O)N1)c1ccc(-c2c3nc(c(-c4c(F)c(F)c(F)c(F)c4F)c4ccc([nH]4)c(-c4c(F)c(F)c(F)c(F)c4F)c4nc(c(-c5c(F)c(F)c(F)c(F)c5F)c5ccc2[nH]5)C=C4)C=C3)cc1
REMARK SMILES IDX 6 1 5 2 4 3 3 4 1 5 2 6 28 8 29 9 90 10 30 11 89 12 31 13
REMARK SMILES IDX 32 14 33 15 83 16 34 17 88 18 82 19 84 20 35 21 87 22 81 23
REMARK SMILES IDX 80 24 36 26 68 27 48 28 67 29 49 30 52 31 66 32 85 33 50 34
REMARK SMILES IDX 51 35 65 37 86 38 53 39 37 40 38 41 46 42 39 43 40 44 44 45
REMARK SMILES IDX 47 46 41 47 42 48 45 49 43 50 69 51 70 52 78 53 71 54 72 55
REMARK SMILES IDX 76 56 79 57 73 58 74 59 77 60 75 61 54 62 55 63 63 64 56 65
REMARK SMILES IDX 57 66 61 67 64 68 58 69 59 70 62 71 60 72 7 73 8 74 9 75
REMARK SMILES IDX 10 76 11 77 12 79 13 80 14 81 27 82 15 83 25 84 16 86 26 87
REMARK SMILES IDX 17 88 18 89 19 90 24 91 20 92 22 93 21 94 23 95
REMARK H PARENT 3 7 84 25 52 36 10 78 27 85
REMARK Flexibility Score: inf
ROOT
ATOM      1  C   UNL A   1      31.538  30.518  26.054  1.00  0.00     0.002 C 
ENDROOT
BRANCH   1   2
ATOM      2  C   UNL A   1      31.369  31.969  26.498  1.00  0.00     0.021 C 
BRANCH   2   3
ATOM      3  C   UNL A   1      32.585  32.564  27.189  1.00  0.00     0.116 C 
BRANCH   3   4
ATOM      4  N   UNL A   1      32.396  33.956  27.556  1.00  0.00    -0.352 N 
ATOM      5  O   UNL A   1      32.695  35.813  28.810  1.00  0.00    -0.269 OA
ATOM      6  C   UNL A   1      33.069  34.686  28.507  1.00  0.00     0.251 C 
ATOM      7  H   UNL A   1      31.696  34.439  27.061  1.00  0.00     0.163 HD
BRANCH   6   8
ATOM      8  C   UNL A   1      34.238  34.085  29.183  1.00  0.00     0.039 A 
ATOM      9  C   UNL A   1      35.524  34.576  28.941  1.00  0.00     0.014 A 
ATOM     10  C   UNL A   1      34.049  33.011  30.056  1.00  0.00     0.014 A 
ATOM     11  C   UNL A   1      36.625  33.907  29.458  1.00  0.00     0.010 A 
ATOM     12  C   UNL A   1      35.155  32.395  30.650  1.00  0.00     0.010 A 
ATOM     13  C   UNL A   1      36.454  32.822  30.336  1.00  0.00    -0.014 A 
BRANCH  13  14
ATOM     14  C   UNL A   1      37.655  32.218  30.966  1.00  0.00     0.031 A 
ATOM     15  C   UNL A   1      38.060  32.555  32.372  1.00  0.00     0.074 A 
ATOM     16  C   UNL A   1      38.344  31.298  30.261  1.00  0.00     0.049 A 
ATOM     17  N   UNL A   1      39.041  32.059  33.083  1.00  0.00    -0.248 NA
ATOM     18  C   UNL A   1      37.271  33.579  33.073  1.00  0.00     0.031 C 
ATOM     19  C   UNL A   1      38.044  30.901  28.884  1.00  0.00     0.029 A 
ATOM     20  N   UNL A   1      39.406  30.505  30.611  1.00  0.00    -0.354 N 
ATOM     21  C   UNL A   1      38.998  32.716  34.305  1.00  0.00     0.074 A 
ATOM     22  C   UNL A   1      37.906  33.663  34.237  1.00  0.00     0.031 C 
ATOM     23  C   UNL A   1      38.849  29.890  28.531  1.00  0.00     0.029 A 
ATOM     24  C   UNL A   1      39.766  29.612  29.631  1.00  0.00     0.049 A 
ATOM     25  H   UNL A   1      39.867  30.569  31.478  1.00  0.00     0.167 HD
ATOM     26  C   UNL A   1      39.794  32.534  35.386  1.00  0.00     0.037 A 
ATOM     27  C   UNL A   1      40.729  28.672  29.616  1.00  0.00     0.037 A 
ATOM     28  C   UNL A   1      40.866  31.574  35.454  1.00  0.00     0.049 A 
ATOM     29  C   UNL A   1      41.602  28.507  30.825  1.00  0.00     0.074 A 
ATOM     30  C   UNL A   1      41.717  31.307  36.514  1.00  0.00     0.029 A 
ATOM     31  N   UNL A   1      41.235  30.723  34.423  1.00  0.00    -0.354 N 
ATOM     32  N   UNL A   1      41.541  29.128  31.977  1.00  0.00    -0.248 NA
ATOM     33  C   UNL A   1      42.685  27.519  30.728  1.00  0.00     0.031 C 
ATOM     34  C   UNL A   1      42.622  30.320  36.112  1.00  0.00     0.029 A 
ATOM     35  C   UNL A   1      42.309  29.941  34.818  1.00  0.00     0.049 A 
ATOM     36  H   UNL A   1      40.799  30.680  33.542  1.00  0.00     0.167 HD
ATOM     37  C   UNL A   1      42.570  28.604  32.745  1.00  0.00     0.074 A 
ATOM     38  C   UNL A   1      43.222  27.594  31.938  1.00  0.00     0.031 C 
ATOM     39  C   UNL A   1      42.945  28.939  34.002  1.00  0.00     0.037 A 
BRANCH  26  40
ATOM     40  C   UNL A   1      39.548  33.379  36.600  1.00  0.00     0.064 A 
ATOM     41  C   UNL A   1      40.269  34.567  36.797  1.00  0.00     0.173 A 
ATOM     42  C   UNL A   1      38.684  32.958  37.620  1.00  0.00     0.173 A 
ATOM     43  F   UNL A   1      41.115  35.008  35.854  1.00  0.00    -0.203 F 
ATOM     44  C   UNL A   1      40.152  35.289  37.983  1.00  0.00     0.198 A 
ATOM     45  C   UNL A   1      38.552  33.694  38.796  1.00  0.00     0.198 A 
ATOM     46  F   UNL A   1      37.965  31.835  37.475  1.00  0.00    -0.203 F 
ATOM     47  F   UNL A   1      40.881  36.398  38.166  1.00  0.00    -0.200 F 
ATOM     48  C   UNL A   1      39.295  34.851  38.981  1.00  0.00     0.200 A 
ATOM     49  F   UNL A   1      37.712  33.280  39.754  1.00  0.00    -0.200 F 
ATOM     50  F   UNL A   1      39.186  35.543  40.124  1.00  0.00    -0.200 F 
ENDBRANCH  26  40
BRANCH  27  51
ATOM     51  C   UNL A   1      40.902  27.815  28.416  1.00  0.00     0.064 A 
ATOM     52  C   UNL A   1      41.718  28.212  27.347  1.00  0.00     0.173 A 
ATOM     53  C   UNL A   1      40.231  26.589  28.307  1.00  0.00     0.173 A 
ATOM     54  F   UNL A   1      42.377  29.378  27.401  1.00  0.00    -0.203 F 
ATOM     55  C   UNL A   1      41.838  27.425  26.203  1.00  0.00     0.198 A 
ATOM     56  C   UNL A   1      40.376  25.789  27.175  1.00  0.00     0.198 A 
ATOM     57  F   UNL A   1      39.453  26.159  29.311  1.00  0.00    -0.203 F 
ATOM     58  F   UNL A   1      42.593  27.847  25.179  1.00  0.00    -0.200 F 
ATOM     59  C   UNL A   1      41.172  26.213  26.120  1.00  0.00     0.200 A 
ATOM     60  F   UNL A   1      39.749  24.607  27.109  1.00  0.00    -0.200 F 
ATOM     61  F   UNL A   1      41.299  25.450  25.027  1.00  0.00    -0.200 F 
ENDBRANCH  27  51
BRANCH  39  62
ATOM     62  C   UNL A   1      44.110  28.200  34.588  1.00  0.00     0.064 A 
ATOM     63  C   UNL A   1      43.912  27.014  35.309  1.00  0.00     0.173 A 
ATOM     64  C   UNL A   1      45.418  28.694  34.476  1.00  0.00     0.173 A 
ATOM     65  F   UNL A   1      42.678  26.506  35.450  1.00  0.00    -0.203 F 
ATOM     66  C   UNL A   1      44.981  26.352  35.904  1.00  0.00     0.198 A 
ATOM     67  C   UNL A   1      46.489  28.016  35.050  1.00  0.00     0.198 A 
ATOM     68  F   UNL A   1      45.658  29.817  33.782  1.00  0.00    -0.203 F 
ATOM     69  F   UNL A   1      44.767  25.233  36.609  1.00  0.00    -0.200 F 
ATOM     70  C   UNL A   1      46.269  26.850  35.769  1.00  0.00     0.200 A 
ATOM     71  F   UNL A   1      47.735  28.483  34.897  1.00  0.00    -0.200 F 
ATOM     72  F   UNL A   1      47.300  26.202  36.328  1.00  0.00    -0.200 F 
ENDBRANCH  39  62
ENDBRANCH  13  14
ENDBRANCH   6   8
ENDBRANCH   3   4
ENDBRANCH   2   3
ENDBRANCH   1   2
BRANCH   1  73
ATOM     73  C   UNL A   1      32.010  29.552  27.146  1.00  0.00     0.002 C 
BRANCH  73  74
ATOM     74  C   UNL A   1      32.718  28.283  26.647  1.00  0.00     0.021 C 
BRANCH  74  75
ATOM     75  C   UNL A   1      31.819  27.325  25.871  1.00  0.00     0.116 C 
BRANCH  75  76
ATOM     76  N   UNL A   1      31.496  26.171  26.680  1.00  0.00    -0.354 N 
ATOM     77  C   UNL A   1      31.863  24.868  26.560  1.00  0.00     0.243 C 
ATOM     78  H   UNL A   1      30.911  26.362  27.448  1.00  0.00     0.163 HD
ATOM     79  O   UNL A   1      31.299  24.070  27.309  1.00  0.00    -0.273 OA
BRANCH  77  80
ATOM     80  C   UNL A   1      33.077  24.493  25.688  1.00  0.00     0.181 C 
ATOM     81  C   UNL A   1      32.691  24.082  24.275  1.00  0.00     0.105 C 
ATOM     82  N   UNL A   1      33.811  23.486  26.445  1.00  0.00    -0.343 N 
ATOM     83  S   UNL A   1      31.832  22.496  24.213  1.00  0.00    -0.146 SA
ATOM     84  C   UNL A   1      33.578  22.140  26.412  1.00  0.00     0.234 C 
ATOM     85  H   UNL A   1      34.536  23.803  27.030  1.00  0.00     0.164 HD
ATOM     86  C   UNL A   1      33.055  21.486  25.132  1.00  0.00     0.140 C 
ATOM     87  O   UNL A   1      33.973  21.482  27.378  1.00  0.00    -0.274 OA
BRANCH  86  88
ATOM     88  C   UNL A   1      32.480  20.090  25.444  1.00  0.00     0.060 C 
BRANCH  88  89
ATOM     89  C   UNL A   1      33.021  19.017  24.524  1.00  0.00    -0.043 A 
ATOM     90  C   UNL A   1      32.492  18.858  23.234  1.00  0.00     0.004 A 
ATOM     91  C   UNL A   1      33.985  18.110  24.984  1.00  0.00     0.043 A 
ATOM     92  C   UNL A   1      32.887  17.784  22.434  1.00  0.00     0.003 A 
ATOM     93  C   UNL A   1      34.373  17.047  24.177  1.00  0.00     0.123 A 
ATOM     94  C   UNL A   1      33.825  16.872  22.911  1.00  0.00     0.039 A 
ATOM     95  F   UNL A   1      35.270  16.164  24.634  1.00  0.00    -0.207 F 
ENDBRANCH  88  89
ENDBRANCH  86  88
ENDBRANCH  77  80
ENDBRANCH  75  76
ENDBRANCH  74  75
ENDBRANCH  73  74
ENDBRANCH   1  73
TORSDOF 15
ENDMDL
MODEL 3
REMARK VINA RESULT:     -12.2      1.811      2.634
REMARK SMILES O=C(NCCCCCCNC(=O)[C@@H]1CS[C@H](Cc2cccc(F)c2)C(=O)N1)c1ccc(-c2c3nc(c(-c4c(F)c(F)c(F)c(F)c4F)c4ccc([nH]4)c(-c4c(F)c(F)c(F)c(F)c4F)c4nc(c(-c5c(F)c(F)c(F)c(F)c5F)c5ccc2[nH]5)C=C4)C=C3)cc1
REMARK SMILES IDX 6 1 5 2 4 3 3 4 1 5 2 6 28 8 29 9 90 10 30 11 89 12 31 13
REMARK SMILES IDX 32 14 33 15 83 16 34 17 88 18 82 19 84 20 35 21 87 22 81 23
REMARK SMILES IDX 80 24 36 26 68 27 48 28 67 29 49 30 52 31 66 32 85 33 50 34
REMARK SMILES IDX 51 35 65 37 86 38 53 39 37 40 38 41 46 42 39 43 40 44 44 45
REMARK SMILES IDX 47 46 41 47 42 48 45 49 43 50 69 51 70 52 78 53 71 54 72 55
REMARK SMILES IDX 76 56 79 57 73 58 74 59 77 60 75 61 54 62 55 63 63 64 56 65
REMARK SMILES IDX 57 66 61 67 64 68 58 69 59 70 62 71 60 72 7 73 8 74 9 75
REMARK SMILES IDX 10 76 11 77 12 79 13 80 14 81 27 82 15 83 25 84 16 86 26 87
REMARK SMILES IDX 17 88 18 89 19 90 24 91 20 92 22 93 21 94 23 95
REMARK H PARENT 3 7 84 25 52 36 10 78 27 85
REMARK Flexibility Score: inf
ROOT
ATOM      1  C   UNL A   1      31.099  30.899  25.378  1.00  0.00     0.002 C 
ENDROOT
BRANCH   1   2
ATOM      2  C   UNL A   1      31.148  31.689  26.684  1.00  0.00     0.021 C 
BRANCH   2   3
ATOM      3  C   UNL A   1      32.456  32.424  26.929  1.00  0.00     0.116 C 
BRANCH   3   4
ATOM      4  N   UNL A   1      32.255  33.783  27.401  1.00  0.00    -0.352 N 
ATOM      5  O   UNL A   1      32.582  35.560  28.759  1.00  0.00    -0.269 OA
ATOM      6  C   UNL A   1      32.964  34.466  28.359  1.00  0.00     0.251 C 
ATOM      7  H   UNL A   1      31.515  34.278  26.980  1.00  0.00     0.163 HD
BRANCH   6   8
ATOM      8  C   UNL A   1      34.185  33.855  28.925  1.00  0.00     0.039 A 
ATOM      9  C   UNL A   1      34.091  32.774  29.805  1.00  0.00     0.014 A 
ATOM     10  C   UNL A   1      35.436  34.378  28.585  1.00  0.00     0.014 A 
ATOM     11  C   UNL A   1      35.230  32.311  30.451  1.00  0.00     0.010 A 
ATOM     12  C   UNL A   1      36.592  33.848  29.166  1.00  0.00     0.010 A 
ATOM     13  C   UNL A   1      36.496  32.827  30.123  1.00  0.00    -0.014 A 
BRANCH  13  14
ATOM     14  C   UNL A   1      37.698  32.214  30.743  1.00  0.00     0.031 A 
ATOM     15  C   UNL A   1      38.132  32.570  32.136  1.00  0.00     0.074 A 
ATOM     16  C   UNL A   1      38.361  31.272  30.043  1.00  0.00     0.049 A 
ATOM     17  N   UNL A   1      39.117  32.070  32.839  1.00  0.00    -0.248 NA
ATOM     18  C   UNL A   1      37.372  33.618  32.832  1.00  0.00     0.031 C 
ATOM     19  C   UNL A   1      38.031  30.856  28.678  1.00  0.00     0.029 A 
ATOM     20  N   UNL A   1      39.416  30.468  30.388  1.00  0.00    -0.354 N 
ATOM     21  C   UNL A   1      39.105  32.749  34.050  1.00  0.00     0.074 A 
ATOM     22  C   UNL A   1      38.028  33.712  33.984  1.00  0.00     0.031 C 
ATOM     23  C   UNL A   1      38.814  29.826  28.330  1.00  0.00     0.029 A 
ATOM     24  C   UNL A   1      39.745  29.553  29.418  1.00  0.00     0.049 A 
ATOM     25  H   UNL A   1      39.893  30.540  31.247  1.00  0.00     0.167 HD
ATOM     26  C   UNL A   1      39.917  32.572  35.120  1.00  0.00     0.037 A 
ATOM     27  C   UNL A   1      40.694  28.598  29.404  1.00  0.00     0.037 A 
ATOM     28  C   UNL A   1      40.975  31.597  35.187  1.00  0.00     0.049 A 
ATOM     29  C   UNL A   1      41.584  28.439  30.601  1.00  0.00     0.074 A 
ATOM     30  C   UNL A   1      41.839  31.335  36.238  1.00  0.00     0.029 A 
ATOM     31  N   UNL A   1      41.313  30.722  34.165  1.00  0.00    -0.354 N 
ATOM     32  N   UNL A   1      41.553  29.081  31.742  1.00  0.00    -0.248 NA
ATOM     33  C   UNL A   1      42.650  27.433  30.503  1.00  0.00     0.031 C 
ATOM     34  C   UNL A   1      42.722  30.327  35.838  1.00  0.00     0.029 A 
ATOM     35  C   UNL A   1      42.381  29.930  34.556  1.00  0.00     0.049 A 
ATOM     36  H   UNL A   1      40.861  30.671  33.292  1.00  0.00     0.167 HD
ATOM     37  C   UNL A   1      42.586  28.554  32.502  1.00  0.00     0.074 A 
ATOM     38  C   UNL A   1      43.209  27.520  31.703  1.00  0.00     0.031 C 
ATOM     39  C   UNL A   1      42.988  28.905  33.747  1.00  0.00     0.037 A 
BRANCH  26  40
ATOM     40  C   UNL A   1      39.704  33.442  36.323  1.00  0.00     0.064 A 
ATOM     41  C   UNL A   1      38.816  33.050  37.337  1.00  0.00     0.173 A 
ATOM     42  C   UNL A   1      40.289  34.713  36.418  1.00  0.00     0.173 A 
ATOM     43  F   UNL A   1      38.224  31.847  37.288  1.00  0.00    -0.203 F 
ATOM     44  C   UNL A   1      38.504  33.907  38.389  1.00  0.00     0.198 A 
ATOM     45  C   UNL A   1      39.992  35.560  37.483  1.00  0.00     0.198 A 
ATOM     46  F   UNL A   1      41.152  35.131  35.480  1.00  0.00    -0.203 F 
ATOM     47  F   UNL A   1      37.623  33.526  39.324  1.00  0.00    -0.200 F 
ATOM     48  C   UNL A   1      39.091  35.162  38.460  1.00  0.00     0.200 A 
ATOM     49  F   UNL A   1      40.571  36.766  37.561  1.00  0.00    -0.200 F 
ATOM     50  F   UNL A   1      38.787  35.989  39.471  1.00  0.00    -0.200 F 
ENDBRANCH  26  40
BRANCH  27  51
ATOM     51  C   UNL A   1      40.833  27.717  28.216  1.00  0.00     0.064 A 
ATOM     52  C   UNL A   1      40.216  26.459  28.165  1.00  0.00     0.173 A 
ATOM     53  C   UNL A   1      41.611  28.110  27.118  1.00  0.00     0.173 A 
ATOM     54  F   UNL A   1      39.466  26.036  29.192  1.00  0.00    -0.203 F 
ATOM     55  C   UNL A   1      40.390  25.617  27.068  1.00  0.00     0.198 A 
ATOM     56  C   UNL A   1      41.759  27.279  26.009  1.00  0.00     0.198 A 
ATOM     57  F   UNL A   1      42.206  29.312  27.115  1.00  0.00    -0.203 F 
ATOM     58  F   UNL A   1      39.820  24.404  27.062  1.00  0.00    -0.200 F 
ATOM     59  C   UNL A   1      41.156  26.030  25.990  1.00  0.00     0.200 A 
ATOM     60  F   UNL A   1      42.481  27.692  24.959  1.00  0.00    -0.200 F 
ATOM     61  F   UNL A   1      41.311  25.226  24.929  1.00  0.00    -0.200 F 
ENDBRANCH  27  51
BRANCH  39  62
ATOM     62  C   UNL A   1      44.151  28.158  34.326  1.00  0.00     0.064 A 
ATOM     63  C   UNL A   1      45.460  28.626  34.143  1.00  0.00     0.173 A 
ATOM     64  C   UNL A   1      43.971  26.953  35.021  1.00  0.00     0.173 A 
ATOM     65  F   UNL A   1      45.684  29.770  33.478  1.00  0.00    -0.203 F 
ATOM     66  C   UNL A   1      46.550  27.909  34.628  1.00  0.00     0.198 A 
ATOM     67  C   UNL A   1      45.061  26.253  35.528  1.00  0.00     0.198 A 
ATOM     68  F   UNL A   1      42.736  26.476  35.234  1.00  0.00    -0.203 F 
ATOM     69  F   UNL A   1      47.795  28.360  34.422  1.00  0.00    -0.200 F 
ATOM     70  C   UNL A   1      46.348  26.726  35.326  1.00  0.00     0.200 A 
ATOM     71  F   UNL A   1      44.864  25.124  36.224  1.00  0.00    -0.200 F 
ATOM     72  F   UNL A   1      47.398  26.046  35.808  1.00  0.00    -0.200 F 
ENDBRANCH  39  62
ENDBRANCH  13  14
ENDBRANCH   6   8
ENDBRANCH   3   4
ENDBRANCH   2   3
ENDBRANCH   1   2
BRANCH   1  73
ATOM     73  C   UNL A   1      29.981  31.305  24.412  1.00  0.00     0.002 C 
BRANCH  73  74
ATOM     74  C   UNL A   1      29.414  30.172  23.542  1.00  0.00     0.021 C 
BRANCH  74  75
ATOM     75  C   UNL A   1      29.930  30.163  22.105  1.00  0.00     0.116 C 
BRANCH  75  76
ATOM     76  N   UNL A   1      31.315  29.749  22.071  1.00  0.00    -0.354 N 
ATOM     77  C   UNL A   1      31.891  28.547  22.339  1.00  0.00     0.243 C 
ATOM     78  H   UNL A   1      31.946  30.456  21.809  1.00  0.00     0.163 HD
ATOM     79  O   UNL A   1      33.122  28.530  22.385  1.00  0.00    -0.273 OA
BRANCH  77  80
ATOM     80  C   UNL A   1      31.029  27.269  22.350  1.00  0.00     0.181 C 
ATOM     81  C   UNL A   1      30.883  26.661  23.737  1.00  0.00     0.105 C 
ATOM     82  N   UNL A   1      31.616  26.389  21.348  1.00  0.00    -0.343 N 
ATOM     83  S   UNL A   1      32.417  25.939  24.353  1.00  0.00    -0.146 SA
ATOM     84  C   UNL A   1      32.636  25.506  21.565  1.00  0.00     0.234 C 
ATOM     85  H   UNL A   1      31.246  26.433  20.437  1.00  0.00     0.164 HD
ATOM     86  C   UNL A   1      32.793  24.842  22.934  1.00  0.00     0.140 C 
ATOM     87  O   UNL A   1      33.285  25.149  20.579  1.00  0.00    -0.274 OA
BRANCH  86  88
ATOM     88  C   UNL A   1      34.206  24.238  23.075  1.00  0.00     0.060 C 
BRANCH  88  89
ATOM     89  C   UNL A   1      34.198  22.891  23.762  1.00  0.00    -0.043 A 
ATOM     90  C   UNL A   1      35.365  22.398  24.367  1.00  0.00     0.004 A 
ATOM     91  C   UNL A   1      33.058  22.078  23.716  1.00  0.00     0.043 A 
ATOM     92  C   UNL A   1      35.404  21.099  24.877  1.00  0.00     0.003 A 
ATOM     93  C   UNL A   1      33.107  20.789  24.232  1.00  0.00     0.123 A 
ATOM     94  C   UNL A   1      34.273  20.290  24.802  1.00  0.00     0.039 A 
ATOM     95  F   UNL A   1      32.023  20.005  24.155  1.00  0.00    -0.207 F 
ENDBRANCH  88  89
ENDBRANCH  86  88
ENDBRANCH  77  80
ENDBRANCH  75  76
ENDBRANCH  74  75
ENDBRANCH  73  74
ENDBRANCH   1  73
TORSDOF 15
ENDMDL
