MODEL 1
REMARK VINA RESULT:     -13.0      0.000      0.000
REMARK SMILES CCOC(=O)c1cccc(Nc2c(-c3ccc(C(=O)NCCCCCCNC(=O)c4ccc(-c5c6nc(c(-c7c(F)c(F)c(F)c(F)c7F)c7ccc([nH]7)c(-c7c(F)c(F)c(F)c(F)c7F)c7nc(c(-c8c(F)c(F)c(F)c(F)c8F)c8ccc5[nH]8)C=C7)C=C6)cc4)cc3)nc3cnccn23)c1
REMARK SMILES IDX 21 1 20 2 18 3 19 4 17 6 14 7 15 8 94 9 16 10 93 11 13 12
REMARK SMILES IDX 12 13 101 14 95 15 96 16 100 17 97 18 99 19 98 20 11 21
REMARK SMILES IDX 10 23 6 24 7 25 102 26 8 27 9 28 4 29 5 30 3 31 2 32 1 33
REMARK SMILES IDX 22 34 23 35 24 36 25 37 26 38 27 39 28 40 29 42 30 43 31 44
REMARK SMILES IDX 92 45 32 46 91 47 33 48 34 49 35 50 85 51 36 52 90 53 84 54
REMARK SMILES IDX 86 55 37 56 89 57 83 58 82 59 38 61 70 62 50 63 69 64 51 65
REMARK SMILES IDX 54 66 68 67 87 68 52 69 53 70 67 72 88 73 55 74 39 75 40 76
REMARK SMILES IDX 48 77 41 78 42 79 46 80 49 81 43 82 44 83 47 84 45 85 71 86
REMARK SMILES IDX 72 87 80 88 73 89 74 90 78 91 81 92 75 93 76 94 79 95 77 96
REMARK SMILES IDX 56 97 57 98 65 99 58 100 59 101 63 102 66 103 60 104 61 105
REMARK SMILES IDX 64 106 62 107
REMARK H PARENT 20 5 11 22 27 41 86 60 54 71
REMARK Flexibility Score: inf
ROOT
ATOM      1  C   UNL A   1      32.805  28.420  24.602  1.00  0.00     0.116 C 
ENDROOT
BRANCH   1   2
ATOM      2  N   UNL A   1      31.823  28.458  23.536  1.00  0.00    -0.352 N 
ATOM      3  C   UNL A   1      31.301  27.479  22.733  1.00  0.00     0.251 C 
ATOM      4  O   UNL A   1      30.454  27.809  21.901  1.00  0.00    -0.269 OA
ATOM      5  H   UNL A   1      31.464  29.356  23.356  1.00  0.00     0.163 HD
BRANCH   3   6
ATOM      6  C   UNL A   1      31.673  26.043  22.851  1.00  0.00     0.039 A 
ATOM      7  C   UNL A   1      32.191  23.294  23.118  1.00  0.00     0.004 A 
ATOM      8  C   UNL A   1      30.967  23.819  23.541  1.00  0.00     0.011 A 
ATOM      9  C   UNL A   1      33.147  24.137  22.549  1.00  0.00     0.011 A 
ATOM     10  C   UNL A   1      30.714  25.186  23.414  1.00  0.00     0.014 A 
ATOM     11  C   UNL A   1      32.874  25.499  22.385  1.00  0.00     0.014 A 
BRANCH   7  12
ATOM     12  C   UNL A   1      32.433  21.871  23.170  1.00  0.00     0.114 A 
ATOM     13  C   UNL A   1      33.156  21.251  24.180  1.00  0.00     0.143 A 
ATOM     14  N   UNL A   1      33.083  19.910  23.870  1.00  0.00    -0.283 N 
ATOM     15  N   UNL A   1      31.962  20.976  22.241  1.00  0.00    -0.225 NA
ATOM     16  C   UNL A   1      32.384  19.814  22.690  1.00  0.00     0.157 A 
ATOM     17  C   UNL A   1      33.513  18.759  24.508  1.00  0.00     0.115 A 
ATOM     18  C   UNL A   1      32.164  18.510  22.129  1.00  0.00     0.158 A 
ATOM     19  C   UNL A   1      33.255  17.573  23.927  1.00  0.00     0.129 A 
ATOM     20  N   UNL A   1      32.587  17.424  22.723  1.00  0.00    -0.259 NA
BRANCH  13  21
ATOM     21  N   UNL A   1      33.715  21.760  25.310  1.00  0.00    -0.339 N 
ATOM     22  H   UNL A   1      33.160  21.757  26.123  1.00  0.00     0.168 HD
BRANCH  21  23
ATOM     23  C   UNL A   1      35.020  22.298  25.427  1.00  0.00     0.040 A 
ATOM     24  C   UNL A   1      37.417  21.880  25.573  1.00  0.00     0.062 A 
ATOM     25  C   UNL A   1      37.661  23.247  25.712  1.00  0.00     0.016 A 
ATOM     26  C   UNL A   1      36.108  21.410  25.410  1.00  0.00     0.041 A 
ATOM     27  C   UNL A   1      36.596  24.143  25.675  1.00  0.00     0.003 A 
ATOM     28  C   UNL A   1      35.287  23.671  25.536  1.00  0.00     0.026 A 
BRANCH  24  29
ATOM     29  C   UNL A   1      38.556  20.947  25.683  1.00  0.00     0.338 C 
ATOM     30  O   UNL A   1      38.597  19.871  25.112  1.00  0.00    -0.246 OA
BRANCH  29  31
ATOM     31  O   UNL A   1      39.483  21.454  26.533  1.00  0.00    -0.462 OA
BRANCH  31  32
ATOM     32  C   UNL A   1      40.847  21.139  26.215  1.00  0.00     0.230 C 
ATOM     33  C   UNL A   1      41.712  22.385  26.142  1.00  0.00     0.049 C 
ENDBRANCH  31  32
ENDBRANCH  29  31
ENDBRANCH  24  29
ENDBRANCH  21  23
ENDBRANCH  13  21
ENDBRANCH   7  12
ENDBRANCH   3   6
ENDBRANCH   1   2
BRANCH   1  34
ATOM     34  C   UNL A   1      32.105  28.258  25.953  1.00  0.00     0.021 C 
BRANCH  34  35
ATOM     35  C   UNL A   1      31.997  29.569  26.743  1.00  0.00     0.002 C 
BRANCH  35  36
ATOM     36  C   UNL A   1      31.527  30.778  25.926  1.00  0.00     0.002 C 
BRANCH  36  37
ATOM     37  C   UNL A   1      31.315  32.062  26.731  1.00  0.00     0.021 C 
BRANCH  37  38
ATOM     38  C   UNL A   1      32.604  32.757  27.161  1.00  0.00     0.116 C 
BRANCH  38  39
ATOM     39  N   UNL A   1      32.370  34.140  27.545  1.00  0.00    -0.352 N 
ATOM     40  C   UNL A   1      32.949  34.870  28.553  1.00  0.00     0.251 C 
ATOM     41  H   UNL A   1      31.701  34.622  27.006  1.00  0.00     0.163 HD
ATOM     42  O   UNL A   1      32.486  35.957  28.878  1.00  0.00    -0.269 OA
BRANCH  40  43
ATOM     43  C   UNL A   1      34.133  34.334  29.258  1.00  0.00     0.039 A 
ATOM     44  C   UNL A   1      33.950  33.635  30.454  1.00  0.00     0.014 A 
ATOM     45  C   UNL A   1      35.418  34.539  28.749  1.00  0.00     0.014 A 
ATOM     46  C   UNL A   1      35.054  33.092  31.113  1.00  0.00     0.010 A 
ATOM     47  C   UNL A   1      36.512  33.948  29.375  1.00  0.00     0.010 A 
ATOM     48  C   UNL A   1      36.340  33.222  30.563  1.00  0.00    -0.014 A 
BRANCH  48  49
ATOM     49  C   UNL A   1      37.522  32.609  31.217  1.00  0.00     0.031 A 
ATOM     50  C   UNL A   1      38.248  31.474  30.550  1.00  0.00     0.074 A 
ATOM     51  C   UNL A   1      37.893  33.022  32.444  1.00  0.00     0.049 A 
ATOM     52  N   UNL A   1      39.239  30.747  31.000  1.00  0.00    -0.248 NA
ATOM     53  C   UNL A   1      37.778  31.090  29.211  1.00  0.00     0.031 C 
ATOM     54  C   UNL A   1      37.239  34.082  33.211  1.00  0.00     0.029 A 
ATOM     55  N   UNL A   1      38.900  32.586  33.268  1.00  0.00    -0.354 N 
ATOM     56  C   UNL A   1      39.497  29.809  30.009  1.00  0.00     0.074 A 
ATOM     57  C   UNL A   1      38.532  30.031  28.954  1.00  0.00     0.031 C 
ATOM     58  C   UNL A   1      37.869  34.224  34.389  1.00  0.00     0.029 A 
ATOM     59  C   UNL A   1      38.947  33.243  34.472  1.00  0.00     0.049 A 
ATOM     60  H   UNL A   1      39.529  31.871  33.018  1.00  0.00     0.167 HD
ATOM     61  C   UNL A   1      40.463  28.861  29.977  1.00  0.00     0.037 A 
ATOM     62  C   UNL A   1      39.761  33.066  35.530  1.00  0.00     0.037 A 
ATOM     63  C   UNL A   1      41.442  28.666  31.014  1.00  0.00     0.049 A 
ATOM     64  C   UNL A   1      40.833  32.012  35.464  1.00  0.00     0.074 A 
ATOM     65  C   UNL A   1      42.505  27.780  31.042  1.00  0.00     0.029 A 
ATOM     66  N   UNL A   1      41.475  29.368  32.209  1.00  0.00    -0.354 N 
ATOM     67  N   UNL A   1      41.109  31.174  34.496  1.00  0.00    -0.248 NA
ATOM     68  C   UNL A   1      41.708  31.884  36.638  1.00  0.00     0.031 C 
ATOM     69  C   UNL A   1      43.159  27.921  32.271  1.00  0.00     0.029 A 
ATOM     70  C   UNL A   1      42.527  28.923  32.991  1.00  0.00     0.049 A 
ATOM     71  H   UNL A   1      40.843  30.079  32.464  1.00  0.00     0.167 HD
ATOM     72  C   UNL A   1      42.201  30.436  34.930  1.00  0.00     0.074 A 
ATOM     73  C   UNL A   1      42.546  30.934  36.245  1.00  0.00     0.031 C 
ATOM     74  C   UNL A   1      42.859  29.434  34.296  1.00  0.00     0.037 A 
BRANCH  61  75
ATOM     75  C   UNL A   1      40.513  27.963  28.776  1.00  0.00     0.064 A 
ATOM     76  C   UNL A   1      41.250  28.304  27.632  1.00  0.00     0.173 A 
ATOM     77  C   UNL A   1      39.842  26.731  28.781  1.00  0.00     0.173 A 
ATOM     78  F   UNL A   1      41.900  29.476  27.573  1.00  0.00    -0.203 F 
ATOM     79  C   UNL A   1      41.291  27.459  26.527  1.00  0.00     0.198 A 
ATOM     80  C   UNL A   1      39.907  25.874  27.685  1.00  0.00     0.198 A 
ATOM     81  F   UNL A   1      39.126  26.354  29.851  1.00  0.00    -0.203 F 
ATOM     82  F   UNL A   1      41.964  27.826  25.428  1.00  0.00    -0.200 F 
ATOM     83  C   UNL A   1      40.625  26.241  26.556  1.00  0.00     0.200 A 
ATOM     84  F   UNL A   1      39.272  24.695  27.718  1.00  0.00    -0.200 F 
ATOM     85  F   UNL A   1      40.670  25.426  25.493  1.00  0.00    -0.200 F 
ENDBRANCH  61  75
BRANCH  62  86
ATOM     86  C   UNL A   1      39.609  33.925  36.731  1.00  0.00     0.064 A 
ATOM     87  C   UNL A   1      38.828  33.507  37.818  1.00  0.00     0.173 A 
ATOM     88  C   UNL A   1      40.245  35.171  36.824  1.00  0.00     0.173 A 
ATOM     89  F   UNL A   1      38.186  32.331  37.765  1.00  0.00    -0.203 F 
ATOM     90  C   UNL A   1      38.676  34.310  38.945  1.00  0.00     0.198 A 
ATOM     91  C   UNL A   1      40.111  35.962  37.962  1.00  0.00     0.198 A 
ATOM     92  F   UNL A   1      41.006  35.613  35.813  1.00  0.00    -0.203 F 
ATOM     93  F   UNL A   1      37.895  33.903  39.955  1.00  0.00    -0.200 F 
ATOM     94  C   UNL A   1      39.323  35.534  39.020  1.00  0.00     0.200 A 
ATOM     95  F   UNL A   1      40.748  37.140  38.036  1.00  0.00    -0.200 F 
ATOM     96  F   UNL A   1      39.182  36.304  40.108  1.00  0.00    -0.200 F 
ENDBRANCH  62  86
BRANCH  74  97
ATOM     97  C   UNL A   1      44.034  28.829  35.004  1.00  0.00     0.064 A 
ATOM     98  C   UNL A   1      45.321  29.371  34.882  1.00  0.00     0.173 A 
ATOM     99  C   UNL A   1      43.861  27.724  35.851  1.00  0.00     0.173 A 
ATOM    100  F   UNL A   1      45.539  30.418  34.073  1.00  0.00    -0.203 F 
ATOM    101  C   UNL A   1      46.398  28.814  35.567  1.00  0.00     0.198 A 
ATOM    102  C   UNL A   1      44.935  27.186  36.553  1.00  0.00     0.198 A 
ATOM    103  F   UNL A   1      42.648  27.173  36.005  1.00  0.00    -0.203 F 
ATOM    104  F   UNL A   1      47.628  29.323  35.404  1.00  0.00    -0.200 F 
ATOM    105  C   UNL A   1      46.203  27.728  36.406  1.00  0.00     0.200 A 
ATOM    106  F   UNL A   1      44.743  26.143  37.373  1.00  0.00    -0.200 F 
ATOM    107  F   UNL A   1      47.240  27.199  37.070  1.00  0.00    -0.200 F 
ENDBRANCH  74  97
ENDBRANCH  48  49
ENDBRANCH  40  43
ENDBRANCH  38  39
ENDBRANCH  37  38
ENDBRANCH  36  37
ENDBRANCH  35  36
ENDBRANCH  34  35
ENDBRANCH   1  34
TORSDOF 19
ENDMDL
MODEL 2
REMARK VINA RESULT:     -12.8      5.629     10.740
REMARK SMILES CCOC(=O)c1cccc(Nc2c(-c3ccc(C(=O)NCCCCCCNC(=O)c4ccc(-c5c6nc(c(-c7c(F)c(F)c(F)c(F)c7F)c7ccc([nH]7)c(-c7c(F)c(F)c(F)c(F)c7F)c7nc(c(-c8c(F)c(F)c(F)c(F)c8F)c8ccc5[nH]8)C=C7)C=C6)cc4)cc3)nc3cnccn23)c1
REMARK SMILES IDX 21 1 20 2 18 3 19 4 17 6 14 7 15 8 94 9 16 10 93 11 13 12
REMARK SMILES IDX 12 13 101 14 95 15 96 16 100 17 97 18 99 19 98 20 11 21
REMARK SMILES IDX 10 23 6 24 7 25 102 26 8 27 9 28 4 29 5 30 3 31 2 32 1 33
REMARK SMILES IDX 22 34 23 35 24 36 25 37 26 38 27 39 28 40 29 42 30 43 31 44
REMARK SMILES IDX 92 45 32 46 91 47 33 48 34 49 35 50 85 51 36 52 90 53 84 54
REMARK SMILES IDX 86 55 37 56 89 57 83 58 82 59 38 61 70 62 50 63 69 64 51 65
REMARK SMILES IDX 54 66 68 67 87 68 52 69 53 70 67 72 88 73 55 74 39 75 40 76
REMARK SMILES IDX 48 77 41 78 42 79 46 80 49 81 43 82 44 83 47 84 45 85 71 86
REMARK SMILES IDX 72 87 80 88 73 89 74 90 78 91 81 92 75 93 76 94 79 95 77 96
REMARK SMILES IDX 56 97 57 98 65 99 58 100 59 101 63 102 66 103 60 104 61 105
REMARK SMILES IDX 64 106 62 107
REMARK H PARENT 20 5 11 22 27 41 86 60 54 71
REMARK Flexibility Score: inf
ROOT
ATOM      1  C   UNL A   1      39.432  22.785  26.429  1.00  0.00     0.116 C 
ENDROOT
BRANCH   1   2
ATOM      2  N   UNL A   1      38.946  21.551  25.843  1.00  0.00    -0.352 N 
ATOM      3  C   UNL A   1      37.790  21.244  25.177  1.00  0.00     0.251 C 
ATOM      4  O   UNL A   1      37.649  20.089  24.772  1.00  0.00    -0.269 OA
ATOM      5  H   UNL A   1      39.565  20.792  25.940  1.00  0.00     0.163 HD
BRANCH   3   6
ATOM      6  C   UNL A   1      36.727  22.243  24.885  1.00  0.00     0.039 A 
ATOM      7  C   UNL A   1      34.713  24.171  24.525  1.00  0.00     0.004 A 
ATOM      8  C   UNL A   1      35.052  23.746  25.813  1.00  0.00     0.011 A 
ATOM      9  C   UNL A   1      35.388  23.644  23.422  1.00  0.00     0.011 A 
ATOM     10  C   UNL A   1      36.048  22.784  25.989  1.00  0.00     0.014 A 
ATOM     11  C   UNL A   1      36.414  22.711  23.606  1.00  0.00     0.014 A 
BRANCH   7  12
ATOM     12  C   UNL A   1      33.742  25.222  24.334  1.00  0.00     0.114 A 
ATOM     13  C   UNL A   1      32.370  25.019  24.378  1.00  0.00     0.143 A 
ATOM     14  N   UNL A   1      31.838  26.280  24.212  1.00  0.00    -0.283 N 
ATOM     15  N   UNL A   1      34.067  26.537  24.105  1.00  0.00    -0.225 NA
ATOM     16  C   UNL A   1      32.899  27.134  24.026  1.00  0.00     0.157 A 
ATOM     17  C   UNL A   1      30.548  26.782  24.243  1.00  0.00     0.115 A 
ATOM     18  C   UNL A   1      32.624  28.530  23.820  1.00  0.00     0.158 A 
ATOM     19  C   UNL A   1      30.374  28.103  24.057  1.00  0.00     0.129 A 
ATOM     20  N   UNL A   1      31.404  29.001  23.831  1.00  0.00    -0.259 NA
BRANCH  13  21
ATOM     21  N   UNL A   1      31.649  23.899  24.652  1.00  0.00    -0.339 N 
ATOM     22  H   UNL A   1      30.931  23.983  25.320  1.00  0.00     0.168 HD
BRANCH  21  23
ATOM     23  C   UNL A   1      31.834  22.621  24.069  1.00  0.00     0.040 A 
ATOM     24  C   UNL A   1      32.288  20.250  24.401  1.00  0.00     0.062 A 
ATOM     25  C   UNL A   1      32.274  20.040  23.021  1.00  0.00     0.016 A 
ATOM     26  C   UNL A   1      32.048  21.527  24.923  1.00  0.00     0.041 A 
ATOM     27  C   UNL A   1      32.008  21.106  22.167  1.00  0.00     0.003 A 
ATOM     28  C   UNL A   1      31.792  22.386  22.687  1.00  0.00     0.026 A 
BRANCH  24  29
ATOM     29  C   UNL A   1      32.639  19.118  25.282  1.00  0.00     0.338 C 
ATOM     30  O   UNL A   1      33.341  19.233  26.271  1.00  0.00    -0.246 OA
BRANCH  29  31
ATOM     31  O   UNL A   1      32.107  17.972  24.790  1.00  0.00    -0.462 OA
BRANCH  31  32
ATOM     32  C   UNL A   1      32.966  16.823  24.839  1.00  0.00     0.230 C 
ATOM     33  C   UNL A   1      33.804  16.690  23.578  1.00  0.00     0.049 C 
ENDBRANCH  31  32
ENDBRANCH  29  31
ENDBRANCH  24  29
ENDBRANCH  21  23
ENDBRANCH  13  21
ENDBRANCH   7  12
ENDBRANCH   3   6
ENDBRANCH   1   2
BRANCH   1  34
ATOM     34  C   UNL A   1      40.635  22.498  27.331  1.00  0.00     0.021 C 
BRANCH  34  35
ATOM     35  C   UNL A   1      41.673  21.571  26.684  1.00  0.00     0.002 C 
BRANCH  35  36
ATOM     36  C   UNL A   1      42.132  20.402  27.564  1.00  0.00     0.002 C 
BRANCH  36  37
ATOM     37  C   UNL A   1      42.515  19.130  26.805  1.00  0.00     0.021 C 
BRANCH  37  38
ATOM     38  C   UNL A   1      42.505  19.275  25.286  1.00  0.00     0.116 C 
BRANCH  38  39
ATOM     39  N   UNL A   1      43.769  18.867  24.695  1.00  0.00    -0.352 N 
ATOM     40  C   UNL A   1      44.856  19.634  24.359  1.00  0.00     0.251 C 
ATOM     41  H   UNL A   1      43.858  17.904  24.508  1.00  0.00     0.163 HD
ATOM     42  O   UNL A   1      45.760  19.166  23.673  1.00  0.00    -0.269 OA
BRANCH  40  43
ATOM     43  C   UNL A   1      44.934  21.037  24.818  1.00  0.00     0.039 A 
ATOM     44  C   UNL A   1      45.400  21.303  26.108  1.00  0.00     0.014 A 
ATOM     45  C   UNL A   1      44.528  22.083  23.984  1.00  0.00     0.014 A 
ATOM     46  C   UNL A   1      45.514  22.624  26.543  1.00  0.00     0.010 A 
ATOM     47  C   UNL A   1      44.697  23.401  24.398  1.00  0.00     0.010 A 
ATOM     48  C   UNL A   1      45.188  23.684  25.681  1.00  0.00    -0.014 A 
BRANCH  48  49
ATOM     49  C   UNL A   1      45.350  25.096  26.103  1.00  0.00     0.031 A 
ATOM     50  C   UNL A   1      46.700  25.753  26.032  1.00  0.00     0.074 A 
ATOM     51  C   UNL A   1      44.299  25.761  26.619  1.00  0.00     0.049 A 
ATOM     52  N   UNL A   1      47.064  26.943  26.440  1.00  0.00    -0.248 NA
ATOM     53  C   UNL A   1      47.790  24.956  25.451  1.00  0.00     0.031 C 
ATOM     54  C   UNL A   1      42.951  25.215  26.782  1.00  0.00     0.029 A 
ATOM     55  N   UNL A   1      44.206  27.035  27.121  1.00  0.00    -0.354 N 
ATOM     56  C   UNL A   1      48.425  27.028  26.183  1.00  0.00     0.074 A 
ATOM     57  C   UNL A   1      48.832  25.756  25.625  1.00  0.00     0.031 C 
ATOM     58  C   UNL A   1      42.162  26.152  27.332  1.00  0.00     0.029 A 
ATOM     59  C   UNL A   1      42.955  27.349  27.592  1.00  0.00     0.049 A 
ATOM     60  H   UNL A   1      44.963  27.663  27.141  1.00  0.00     0.167 HD
ATOM     61  C   UNL A   1      49.257  28.079  26.379  1.00  0.00     0.037 A 
ATOM     62  C   UNL A   1      42.502  28.473  28.179  1.00  0.00     0.037 A 
ATOM     63  C   UNL A   1      48.841  29.353  26.904  1.00  0.00     0.049 A 
ATOM     64  C   UNL A   1      43.444  29.630  28.377  1.00  0.00     0.074 A 
ATOM     65  C   UNL A   1      49.592  30.503  27.073  1.00  0.00     0.029 A 
ATOM     66  N   UNL A   1      47.560  29.643  27.346  1.00  0.00    -0.354 N 
ATOM     67  N   UNL A   1      44.715  29.722  28.071  1.00  0.00    -0.248 NA
ATOM     68  C   UNL A   1      42.886  30.839  28.997  1.00  0.00     0.031 C 
ATOM     69  C   UNL A   1      48.774  31.478  27.653  1.00  0.00     0.029 A 
ATOM     70  C   UNL A   1      47.502  30.948  27.807  1.00  0.00     0.049 A 
ATOM     71  H   UNL A   1      46.802  29.015  27.334  1.00  0.00     0.167 HD
ATOM     72  C   UNL A   1      45.103  31.002  28.438  1.00  0.00     0.074 A 
ATOM     73  C   UNL A   1      43.930  31.657  28.978  1.00  0.00     0.031 C 
ATOM     74  C   UNL A   1      46.324  31.585  28.337  1.00  0.00     0.037 A 
BRANCH  61  75
ATOM     75  C   UNL A   1      50.702  27.896  26.019  1.00  0.00     0.064 A 
ATOM     76  C   UNL A   1      51.666  27.573  26.986  1.00  0.00     0.173 A 
ATOM     77  C   UNL A   1      51.123  28.014  24.686  1.00  0.00     0.173 A 
ATOM     78  F   UNL A   1      51.317  27.460  28.276  1.00  0.00    -0.203 F 
ATOM     79  C   UNL A   1      53.002  27.402  26.636  1.00  0.00     0.198 A 
ATOM     80  C   UNL A   1      52.455  27.815  24.335  1.00  0.00     0.198 A 
ATOM     81  F   UNL A   1      50.241  28.318  23.722  1.00  0.00    -0.203 F 
ATOM     82  F   UNL A   1      53.913  27.139  27.583  1.00  0.00    -0.200 F 
ATOM     83  C   UNL A   1      53.395  27.517  25.310  1.00  0.00     0.200 A 
ATOM     84  F   UNL A   1      52.832  27.916  23.053  1.00  0.00    -0.200 F 
ATOM     85  F   UNL A   1      54.682  27.347  24.974  1.00  0.00    -0.200 F 
ENDBRANCH  61  75
BRANCH  62  86
ATOM     86  C   UNL A   1      41.082  28.567  28.599  1.00  0.00     0.064 A 
ATOM     87  C   UNL A   1      40.103  29.047  27.717  1.00  0.00     0.173 A 
ATOM     88  C   UNL A   1      40.671  28.173  29.880  1.00  0.00     0.173 A 
ATOM     89  F   UNL A   1      40.453  29.454  26.488  1.00  0.00    -0.203 F 
ATOM     90  C   UNL A   1      38.769  29.143  28.107  1.00  0.00     0.198 A 
ATOM     91  C   UNL A   1      39.333  28.247  30.260  1.00  0.00     0.198 A 
ATOM     92  F   UNL A   1      41.569  27.702  30.757  1.00  0.00    -0.203 F 
ATOM     93  F   UNL A   1      37.859  29.639  27.257  1.00  0.00    -0.200 F 
ATOM     94  C   UNL A   1      38.384  28.737  29.375  1.00  0.00     0.200 A 
ATOM     95  F   UNL A   1      38.962  27.842  31.483  1.00  0.00    -0.200 F 
ATOM     96  F   UNL A   1      37.099  28.824  29.748  1.00  0.00    -0.200 F 
ENDBRANCH  62  86
BRANCH  74  97
ATOM     97  C   UNL A   1      46.446  33.007  28.796  1.00  0.00     0.064 A 
ATOM     98  C   UNL A   1      46.200  34.080  27.928  1.00  0.00     0.173 A 
ATOM     99  C   UNL A   1      46.766  33.298  30.130  1.00  0.00     0.173 A 
ATOM    100  F   UNL A   1      45.906  33.852  26.639  1.00  0.00    -0.203 F 
ATOM    101  C   UNL A   1      46.292  35.395  28.374  1.00  0.00     0.198 A 
ATOM    102  C   UNL A   1      46.832  34.614  30.579  1.00  0.00     0.198 A 
ATOM    103  F   UNL A   1      47.005  32.306  31.000  1.00  0.00    -0.203 F 
ATOM    104  F   UNL A   1      46.093  36.407  27.518  1.00  0.00    -0.200 F 
ATOM    105  C   UNL A   1      46.600  35.661  29.700  1.00  0.00     0.200 A 
ATOM    106  F   UNL A   1      47.118  34.868  31.863  1.00  0.00    -0.200 F 
ATOM    107  F   UNL A   1      46.679  36.927  30.130  1.00  0.00    -0.200 F 
ENDBRANCH  74  97
ENDBRANCH  48  49
ENDBRANCH  40  43
ENDBRANCH  38  39
ENDBRANCH  37  38
ENDBRANCH  36  37
ENDBRANCH  35  36
ENDBRANCH  34  35
ENDBRANCH   1  34
TORSDOF 19
ENDMDL
MODEL 3
REMARK VINA RESULT:     -12.6      4.876     11.431
REMARK SMILES CCOC(=O)c1cccc(Nc2c(-c3ccc(C(=O)NCCCCCCNC(=O)c4ccc(-c5c6nc(c(-c7c(F)c(F)c(F)c(F)c7F)c7ccc([nH]7)c(-c7c(F)c(F)c(F)c(F)c7F)c7nc(c(-c8c(F)c(F)c(F)c(F)c8F)c8ccc5[nH]8)C=C7)C=C6)cc4)cc3)nc3cnccn23)c1
REMARK SMILES IDX 21 1 20 2 18 3 19 4 17 6 14 7 15 8 94 9 16 10 93 11 13 12
REMARK SMILES IDX 12 13 101 14 95 15 96 16 100 17 97 18 99 19 98 20 11 21
REMARK SMILES IDX 10 23 6 24 7 25 102 26 8 27 9 28 4 29 5 30 3 31 2 32 1 33
REMARK SMILES IDX 22 34 23 35 24 36 25 37 26 38 27 39 28 40 29 42 30 43 31 44
REMARK SMILES IDX 92 45 32 46 91 47 33 48 34 49 35 50 85 51 36 52 90 53 84 54
REMARK SMILES IDX 86 55 37 56 89 57 83 58 82 59 38 61 70 62 50 63 69 64 51 65
REMARK SMILES IDX 54 66 68 67 87 68 52 69 53 70 67 72 88 73 55 74 39 75 40 76
REMARK SMILES IDX 48 77 41 78 42 79 46 80 49 81 43 82 44 83 47 84 45 85 71 86
REMARK SMILES IDX 72 87 80 88 73 89 74 90 78 91 81 92 75 93 76 94 79 95 77 96
REMARK SMILES IDX 56 97 57 98 65 99 58 100 59 101 63 102 66 103 60 104 61 105
REMARK SMILES IDX 64 106 62 107
REMARK H PARENT 20 5 11 22 27 41 86 60 54 71
REMARK Flexibility Score: inf
ROOT
ATOM      1  C   UNL A   1      33.027  19.596  24.995  1.00  0.00     0.116 C 
ENDROOT
BRANCH   1   2
ATOM      2  N   UNL A   1      32.542  19.862  23.654  1.00  0.00    -0.352 N 
ATOM      3  C   UNL A   1      32.230  21.026  23.005  1.00  0.00     0.251 C 
ATOM      4  O   UNL A   1      31.845  20.948  21.838  1.00  0.00    -0.269 OA
ATOM      5  H   UNL A   1      32.415  19.053  23.108  1.00  0.00     0.163 HD
BRANCH   3   6
ATOM      6  C   UNL A   1      32.378  22.370  23.625  1.00  0.00     0.039 A 
ATOM      7  C   UNL A   1      32.788  24.953  24.657  1.00  0.00     0.004 A 
ATOM      8  C   UNL A   1      33.634  24.455  23.663  1.00  0.00     0.011 A 
ATOM      9  C   UNL A   1      31.731  24.169  25.124  1.00  0.00     0.011 A 
ATOM     10  C   UNL A   1      33.434  23.169  23.156  1.00  0.00     0.014 A 
ATOM     11  C   UNL A   1      31.508  22.897  24.584  1.00  0.00     0.014 A 
BRANCH   7  12
ATOM     12  C   UNL A   1      32.935  26.308  25.131  1.00  0.00     0.114 A 
ATOM     13  C   UNL A   1      32.367  27.408  24.504  1.00  0.00     0.143 A 
ATOM     14  N   UNL A   1      32.704  28.470  25.316  1.00  0.00    -0.283 N 
ATOM     15  N   UNL A   1      33.635  26.656  26.260  1.00  0.00    -0.225 NA
ATOM     16  C   UNL A   1      33.482  27.961  26.328  1.00  0.00     0.157 A 
ATOM     17  C   UNL A   1      32.382  29.817  25.308  1.00  0.00     0.115 A 
ATOM     18  C   UNL A   1      33.981  28.865  27.327  1.00  0.00     0.158 A 
ATOM     19  C   UNL A   1      32.876  30.597  26.287  1.00  0.00     0.129 A 
ATOM     20  N   UNL A   1      33.694  30.141  27.309  1.00  0.00    -0.259 NA
BRANCH  13  21
ATOM     21  N   UNL A   1      31.548  27.485  23.420  1.00  0.00    -0.339 N 
ATOM     22  H   UNL A   1      31.975  27.441  22.535  1.00  0.00     0.168 HD
BRANCH  21  23
ATOM     23  C   UNL A   1      30.139  27.626  23.446  1.00  0.00     0.040 A 
ATOM     24  C   UNL A   1      28.207  29.086  23.167  1.00  0.00     0.062 A 
ATOM     25  C   UNL A   1      27.350  28.042  23.519  1.00  0.00     0.016 A 
ATOM     26  C   UNL A   1      29.591  28.875  23.110  1.00  0.00     0.041 A 
ATOM     27  C   UNL A   1      27.878  26.785  23.800  1.00  0.00     0.003 A 
ATOM     28  C   UNL A   1      29.261  26.581  23.766  1.00  0.00     0.026 A 
BRANCH  24  29
ATOM     29  C   UNL A   1      27.629  30.426  22.939  1.00  0.00     0.338 C 
ATOM     30  O   UNL A   1      27.036  31.053  23.799  1.00  0.00    -0.246 OA
BRANCH  29  31
ATOM     31  O   UNL A   1      27.824  30.795  21.649  1.00  0.00    -0.462 OA
BRANCH  31  32
ATOM     32  C   UNL A   1      28.379  32.106  21.461  1.00  0.00     0.230 C 
ATOM     33  C   UNL A   1      27.691  32.853  20.331  1.00  0.00     0.049 C 
ENDBRANCH  31  32
ENDBRANCH  29  31
ENDBRANCH  24  29
ENDBRANCH  21  23
ENDBRANCH  13  21
ENDBRANCH   7  12
ENDBRANCH   3   6
ENDBRANCH   1   2
BRANCH   1  34
ATOM     34  C   UNL A   1      34.316  20.379  25.251  1.00  0.00     0.021 C 
BRANCH  34  35
ATOM     35  C   UNL A   1      35.584  19.608  24.858  1.00  0.00     0.002 C 
BRANCH  35  36
ATOM     36  C   UNL A   1      36.880  20.426  24.912  1.00  0.00     0.002 C 
BRANCH  36  37
ATOM     37  C   UNL A   1      38.169  19.602  24.881  1.00  0.00     0.021 C 
BRANCH  37  38
ATOM     38  C   UNL A   1      39.173  19.960  25.973  1.00  0.00     0.116 C 
BRANCH  38  39
ATOM     39  N   UNL A   1      40.329  19.078  25.954  1.00  0.00    -0.352 N 
ATOM     40  C   UNL A   1      41.662  19.394  26.021  1.00  0.00     0.251 C 
ATOM     41  H   UNL A   1      40.127  18.116  25.883  1.00  0.00     0.163 HD
ATOM     42  O   UNL A   1      42.516  18.548  25.778  1.00  0.00    -0.269 OA
BRANCH  40  43
ATOM     43  C   UNL A   1      42.072  20.769  26.377  1.00  0.00     0.039 A 
ATOM     44  C   UNL A   1      42.329  21.073  27.717  1.00  0.00     0.014 A 
ATOM     45  C   UNL A   1      42.183  21.758  25.395  1.00  0.00     0.014 A 
ATOM     46  C   UNL A   1      42.752  22.357  28.065  1.00  0.00     0.010 A 
ATOM     47  C   UNL A   1      42.660  23.020  25.735  1.00  0.00     0.010 A 
ATOM     48  C   UNL A   1      42.946  23.332  27.073  1.00  0.00    -0.014 A 
BRANCH  48  49
ATOM     49  C   UNL A   1      43.445  24.687  27.412  1.00  0.00     0.031 A 
ATOM     50  C   UNL A   1      42.511  25.709  27.998  1.00  0.00     0.074 A 
ATOM     51  C   UNL A   1      44.717  25.019  27.122  1.00  0.00     0.049 A 
ATOM     52  N   UNL A   1      42.731  26.970  28.272  1.00  0.00    -0.248 NA
ATOM     53  C   UNL A   1      41.141  25.260  28.285  1.00  0.00     0.031 C 
ATOM     54  C   UNL A   1      45.705  24.128  26.512  1.00  0.00     0.029 A 
ATOM     55  N   UNL A   1      45.392  26.203  27.286  1.00  0.00    -0.354 N 
ATOM     56  C   UNL A   1      41.524  27.467  28.746  1.00  0.00     0.074 A 
ATOM     57  C   UNL A   1      40.565  26.385  28.681  1.00  0.00     0.031 C 
ATOM     58  C   UNL A   1      46.862  24.793  26.364  1.00  0.00     0.029 A 
ATOM     59  C   UNL A   1      46.688  26.162  26.837  1.00  0.00     0.049 A 
ATOM     60  H   UNL A   1      44.984  27.004  27.688  1.00  0.00     0.167 HD
ATOM     61  C   UNL A   1      41.248  28.709  29.210  1.00  0.00     0.037 A 
ATOM     62  C   UNL A   1      47.628  27.126  26.800  1.00  0.00     0.037 A 
ATOM     63  C   UNL A   1      42.213  29.772  29.304  1.00  0.00     0.049 A 
ATOM     64  C   UNL A   1      47.298  28.496  27.330  1.00  0.00     0.074 A 
ATOM     65  C   UNL A   1      42.050  31.043  29.826  1.00  0.00     0.029 A 
ATOM     66  N   UNL A   1      43.525  29.686  28.864  1.00  0.00    -0.354 N 
ATOM     67  N   UNL A   1      46.172  28.936  27.835  1.00  0.00    -0.248 NA
ATOM     68  C   UNL A   1      48.371  29.497  27.288  1.00  0.00     0.031 C 
ATOM     69  C   UNL A   1      43.252  31.740  29.667  1.00  0.00     0.029 A 
ATOM     70  C   UNL A   1      44.178  30.888  29.083  1.00  0.00     0.049 A 
ATOM     71  H   UNL A   1      43.933  28.889  28.455  1.00  0.00     0.167 HD
ATOM     72  C   UNL A   1      46.406  30.256  28.193  1.00  0.00     0.074 A 
ATOM     73  C   UNL A   1      47.786  30.542  27.859  1.00  0.00     0.031 C 
ATOM     74  C   UNL A   1      45.554  31.153  28.748  1.00  0.00     0.037 A 
BRANCH  61  75
ATOM     75  C   UNL A   1      39.842  28.985  29.657  1.00  0.00     0.064 A 
ATOM     76  C   UNL A   1      39.432  28.755  30.979  1.00  0.00     0.173 A 
ATOM     77  C   UNL A   1      38.903  29.516  28.761  1.00  0.00     0.173 A 
ATOM     78  F   UNL A   1      40.290  28.237  31.871  1.00  0.00    -0.203 F 
ATOM     79  C   UNL A   1      38.126  29.021  31.381  1.00  0.00     0.198 A 
ATOM     80  C   UNL A   1      37.604  29.807  29.172  1.00  0.00     0.198 A 
ATOM     81  F   UNL A   1      39.244  29.758  27.486  1.00  0.00    -0.203 F 
ATOM     82  F   UNL A   1      37.744  28.750  32.636  1.00  0.00    -0.200 F 
ATOM     83  C   UNL A   1      37.215  29.553  30.479  1.00  0.00     0.200 A 
ATOM     84  F   UNL A   1      36.729  30.330  28.304  1.00  0.00    -0.200 F 
ATOM     85  F   UNL A   1      35.959  29.812  30.869  1.00  0.00    -0.200 F 
ENDBRANCH  61  75
BRANCH  62  86
ATOM     86  C   UNL A   1      48.978  26.822  26.263  1.00  0.00     0.064 A 
ATOM     87  C   UNL A   1      49.979  26.298  27.092  1.00  0.00     0.173 A 
ATOM     88  C   UNL A   1      49.292  27.039  24.913  1.00  0.00     0.173 A 
ATOM     89  F   UNL A   1      49.729  26.093  28.393  1.00  0.00    -0.203 F 
ATOM     90  C   UNL A   1      51.249  26.016  26.595  1.00  0.00     0.198 A 
ATOM     91  C   UNL A   1      50.556  26.733  24.413  1.00  0.00     0.198 A 
ATOM     92  F   UNL A   1      48.367  27.534  24.079  1.00  0.00    -0.203 F 
ATOM     93  F   UNL A   1      52.199  25.550  27.417  1.00  0.00    -0.200 F 
ATOM     94  C   UNL A   1      51.535  26.228  25.255  1.00  0.00     0.200 A 
ATOM     95  F   UNL A   1      50.825  26.928  23.115  1.00  0.00    -0.200 F 
ATOM     96  F   UNL A   1      52.756  25.951  24.777  1.00  0.00    -0.200 F 
ENDBRANCH  62  86
BRANCH  74  97
ATOM     97  C   UNL A   1      46.096  32.517  29.054  1.00  0.00     0.064 A 
ATOM     98  C   UNL A   1      46.678  32.812  30.294  1.00  0.00     0.173 A 
ATOM     99  C   UNL A   1      46.074  33.525  28.078  1.00  0.00     0.173 A 
ATOM    100  F   UNL A   1      46.708  31.886  31.264  1.00  0.00    -0.203 F 
ATOM    101  C   UNL A   1      47.201  34.076  30.555  1.00  0.00     0.198 A 
ATOM    102  C   UNL A   1      46.620  34.779  28.334  1.00  0.00     0.198 A 
ATOM    103  F   UNL A   1      45.532  33.289  26.874  1.00  0.00    -0.203 F 
ATOM    104  F   UNL A   1      47.716  34.350  31.762  1.00  0.00    -0.200 F 
ATOM    105  C   UNL A   1      47.178  35.055  29.573  1.00  0.00     0.200 A 
ATOM    106  F   UNL A   1      46.608  35.720  27.380  1.00  0.00    -0.200 F 
ATOM    107  F   UNL A   1      47.690  36.268  29.823  1.00  0.00    -0.200 F 
ENDBRANCH  74  97
ENDBRANCH  48  49
ENDBRANCH  40  43
ENDBRANCH  38  39
ENDBRANCH  37  38
ENDBRANCH  36  37
ENDBRANCH  35  36
ENDBRANCH  34  35
ENDBRANCH   1  34
TORSDOF 19
ENDMDL
