MODEL 1
REMARK VINA RESULT:     -12.7      0.000      0.000
REMARK SMILES C=Cc1cc(Cl)cc2c1O[C@H](C(F)(F)F)C(C(=O)NCCCCCCNC(=O)c1ccc(-c3c4nc(c(-c5c(F)c(F)c(F)c(F)c5F)c5ccc([nH]5)c(-c5c(F)c(F)c(F)c(F)c5F)c5nc(c(-c6c(F)c(F)c(F)c(F)c6F)c6ccc3[nH]6)C=C5)C=C4)cc1)=C2
REMARK SMILES IDX 23 1 22 2 21 3 20 4 19 5 17 6 18 7 16 9 3 10 4 11 9 12 5 13
REMARK SMILES IDX 8 14 10 15 6 16 7 17 92 18 11 19 2 20 1 21 12 22 13 23 14 24
REMARK SMILES IDX 15 25 24 26 25 27 26 28 27 29 28 31 29 32 30 33 91 34 31 35
REMARK SMILES IDX 90 36 32 37 33 38 34 39 84 40 35 41 89 42 83 43 85 44 36 45
REMARK SMILES IDX 88 46 82 47 81 48 37 50 69 51 49 52 68 53 50 54 53 55 67 56
REMARK SMILES IDX 86 57 51 58 52 59 66 61 87 62 54 63 38 64 39 65 47 66 40 67
REMARK SMILES IDX 41 68 45 69 48 70 42 71 43 72 46 73 44 74 70 75 71 76 79 77
REMARK SMILES IDX 72 78 73 79 77 80 80 81 74 82 75 83 78 84 76 85 55 86 56 87
REMARK SMILES IDX 64 88 57 89 58 90 62 91 65 92 59 93 60 94 63 95 61 96
REMARK H PARENT 19 8 26 30 85 49 53 60
REMARK Flexibility Score: inf
ROOT
ATOM      1  C   UNL A   1      35.657  23.315  23.564  1.00  0.00     0.002 C 
ENDROOT
BRANCH   1   2
ATOM      2  C   UNL A   1      34.261  22.828  23.148  1.00  0.00     0.002 C 
BRANCH   2   3
ATOM      3  C   UNL A   1      33.430  22.169  24.253  1.00  0.00     0.021 C 
BRANCH   3   4
ATOM      4  C   UNL A   1      31.931  22.440  24.159  1.00  0.00     0.116 C 
BRANCH   4   5
ATOM      5  N   UNL A   1      31.332  22.642  25.466  1.00  0.00    -0.352 N 
ATOM      6  C   UNL A   1      30.940  23.688  26.230  1.00  0.00     0.251 C 
ATOM      7  O   UNL A   1      30.424  23.380  27.310  1.00  0.00    -0.270 OA
ATOM      8  H   UNL A   1      31.164  21.785  25.919  1.00  0.00     0.163 HD
BRANCH   6   9
ATOM      9  C   UNL A   1      31.088  25.131  25.873  1.00  0.00     0.067 C 
ATOM     10  C   UNL A   1      31.178  29.241  24.914  1.00  0.00     0.018 A 
ATOM     11  C   UNL A   1      30.366  29.714  23.877  1.00  0.00     0.032 A 
ATOM     12  C   UNL A   1      31.130  27.874  25.245  1.00  0.00     0.135 A 
ATOM     13  C   UNL A   1      29.509  28.841  23.207  1.00  0.00     0.042 A 
ATOM     14  C   UNL A   1      30.261  27.003  24.580  1.00  0.00     0.019 A 
ATOM     15  O   UNL A   1      31.914  27.452  26.283  1.00  0.00    -0.475 OA
ATOM     16  Cl  UNL A   1      28.509  29.439  21.939  1.00  0.00    -0.084 Cl
ATOM     17  C   UNL A   1      29.447  27.493  23.555  1.00  0.00     0.032 A 
ATOM     18  C   UNL A   1      30.184  25.607  24.996  1.00  0.00     0.025 C 
ATOM     19  C   UNL A   1      32.169  26.030  26.396  1.00  0.00     0.314 C 
BRANCH  10  20
ATOM     20  C   UNL A   1      32.107  30.141  25.615  1.00  0.00     0.004 C 
ATOM     21  C   UNL A   1      31.729  31.019  26.551  1.00  0.00     0.009 C 
ENDBRANCH  10  20
BRANCH  19  22
ATOM     22  C   UNL A   1      33.550  25.722  25.790  1.00  0.00     0.429 C 
ATOM     23  F   UNL A   1      34.421  26.727  26.059  1.00  0.00    -0.167 F 
ATOM     24  F   UNL A   1      34.101  24.595  26.297  1.00  0.00    -0.167 F 
ATOM     25  F   UNL A   1      33.504  25.572  24.449  1.00  0.00    -0.167 F 
ENDBRANCH  19  22
ENDBRANCH   6   9
ENDBRANCH   4   5
ENDBRANCH   3   4
ENDBRANCH   2   3
ENDBRANCH   1   2
BRANCH   1  26
ATOM     26  C   UNL A   1      36.677  22.219  23.883  1.00  0.00     0.021 C 
BRANCH  26  27
ATOM     27  C   UNL A   1      37.048  22.093  25.356  1.00  0.00     0.116 C 
BRANCH  27  28
ATOM     28  N   UNL A   1      38.039  21.057  25.599  1.00  0.00    -0.352 N 
ATOM     29  C   UNL A   1      39.302  21.170  26.127  1.00  0.00     0.251 C 
ATOM     30  H   UNL A   1      37.766  20.145  25.348  1.00  0.00     0.163 HD
ATOM     31  O   UNL A   1      40.063  20.209  26.129  1.00  0.00    -0.269 OA
BRANCH  29  32
ATOM     32  C   UNL A   1      39.756  22.471  26.665  1.00  0.00     0.039 A 
ATOM     33  C   UNL A   1      39.259  23.669  26.148  1.00  0.00     0.014 A 
ATOM     34  C   UNL A   1      40.708  22.487  27.688  1.00  0.00     0.014 A 
ATOM     35  C   UNL A   1      39.828  24.876  26.539  1.00  0.00     0.010 A 
ATOM     36  C   UNL A   1      41.223  23.707  28.137  1.00  0.00     0.010 A 
ATOM     37  C   UNL A   1      40.823  24.908  27.532  1.00  0.00    -0.014 A 
BRANCH  37  38
ATOM     38  C   UNL A   1      41.434  26.207  27.911  1.00  0.00     0.031 A 
ATOM     39  C   UNL A   1      42.857  26.524  27.538  1.00  0.00     0.074 A 
ATOM     40  C   UNL A   1      40.682  27.130  28.542  1.00  0.00     0.049 A 
ATOM     41  N   UNL A   1      43.548  27.613  27.768  1.00  0.00    -0.248 NA
ATOM     42  C   UNL A   1      43.606  25.485  26.813  1.00  0.00     0.031 C 
ATOM     43  C   UNL A   1      39.287  26.943  28.943  1.00  0.00     0.029 A 
ATOM     44  N   UNL A   1      40.972  28.412  28.932  1.00  0.00    -0.354 N 
ATOM     45  C   UNL A   1      44.809  27.384  27.233  1.00  0.00     0.074 A 
ATOM     46  C   UNL A   1      44.801  26.045  26.689  1.00  0.00     0.031 C 
ATOM     47  C   UNL A   1      38.825  28.086  29.473  1.00  0.00     0.029 A 
ATOM     48  C   UNL A   1      39.908  29.065  29.503  1.00  0.00     0.049 A 
ATOM     49  H   UNL A   1      41.858  28.825  28.813  1.00  0.00     0.167 HD
ATOM     50  C   UNL A   1      45.870  28.225  27.186  1.00  0.00     0.037 A 
ATOM     51  C   UNL A   1      39.814  30.311  30.006  1.00  0.00     0.037 A 
ATOM     52  C   UNL A   1      45.867  29.569  27.704  1.00  0.00     0.049 A 
ATOM     53  C   UNL A   1      41.021  31.205  29.979  1.00  0.00     0.074 A 
ATOM     54  C   UNL A   1      46.891  30.501  27.686  1.00  0.00     0.029 A 
ATOM     55  N   UNL A   1      44.787  30.173  28.329  1.00  0.00    -0.354 N 
ATOM     56  N   UNL A   1      42.205  30.976  29.468  1.00  0.00    -0.248 NA
ATOM     57  C   UNL A   1      40.881  32.526  30.607  1.00  0.00     0.031 C 
ATOM     58  C   UNL A   1      46.441  31.656  28.332  1.00  0.00     0.029 A 
ATOM     59  C   UNL A   1      45.125  31.459  28.716  1.00  0.00     0.049 A 
ATOM     60  H   UNL A   1      43.910  29.750  28.475  1.00  0.00     0.167 HD
ATOM     61  C   UNL A   1      42.950  32.123  29.704  1.00  0.00     0.074 A 
ATOM     62  C   UNL A   1      42.076  33.056  30.384  1.00  0.00     0.031 C 
ATOM     63  C   UNL A   1      44.243  32.375  29.391  1.00  0.00     0.037 A 
BRANCH  50  64
ATOM     64  C   UNL A   1      47.136  27.725  26.554  1.00  0.00     0.064 A 
ATOM     65  C   UNL A   1      48.113  27.055  27.304  1.00  0.00     0.173 A 
ATOM     66  C   UNL A   1      47.335  27.844  25.170  1.00  0.00     0.173 A 
ATOM     67  F   UNL A   1      47.974  26.924  28.632  1.00  0.00    -0.203 F 
ATOM     68  C   UNL A   1      49.249  26.530  26.692  1.00  0.00     0.198 A 
ATOM     69  C   UNL A   1      48.460  27.298  24.558  1.00  0.00     0.198 A 
ATOM     70  F   UNL A   1      46.427  28.470  24.408  1.00  0.00    -0.203 F 
ATOM     71  F   UNL A   1      50.183  25.915  27.432  1.00  0.00    -0.200 F 
ATOM     72  C   UNL A   1      49.417  26.642  25.320  1.00  0.00     0.200 A 
ATOM     73  F   UNL A   1      48.616  27.396  23.231  1.00  0.00    -0.200 F 
ATOM     74  F   UNL A   1      50.502  26.121  24.731  1.00  0.00    -0.200 F 
ENDBRANCH  50  64
BRANCH  51  75
ATOM     75  C   UNL A   1      38.524  30.780  30.571  1.00  0.00     0.064 A 
ATOM     76  C   UNL A   1      38.301  30.775  31.954  1.00  0.00     0.173 A 
ATOM     77  C   UNL A   1      37.500  31.268  29.745  1.00  0.00     0.173 A 
ATOM     78  F   UNL A   1      39.242  30.299  32.783  1.00  0.00    -0.203 F 
ATOM     79  C   UNL A   1      37.100  31.235  32.490  1.00  0.00     0.198 A 
ATOM     80  C   UNL A   1      36.311  31.753  30.283  1.00  0.00     0.198 A 
ATOM     81  F   UNL A   1      37.668  31.296  28.415  1.00  0.00    -0.203 F 
ATOM     82  F   UNL A   1      36.899  31.191  33.814  1.00  0.00    -0.200 F 
ATOM     83  C   UNL A   1      36.110  31.732  31.655  1.00  0.00     0.200 A 
ATOM     84  F   UNL A   1      35.364  32.247  29.475  1.00  0.00    -0.200 F 
ATOM     85  F   UNL A   1      34.960  32.187  32.172  1.00  0.00    -0.200 F 
ENDBRANCH  51  75
BRANCH  63  86
ATOM     86  C   UNL A   1      44.797  33.716  29.773  1.00  0.00     0.064 A 
ATOM     87  C   UNL A   1      45.459  33.910  30.991  1.00  0.00     0.173 A 
ATOM     88  C   UNL A   1      44.719  34.797  28.882  1.00  0.00     0.173 A 
ATOM     89  F   UNL A   1      45.546  32.910  31.880  1.00  0.00    -0.203 F 
ATOM     90  C   UNL A   1      46.018  35.145  31.312  1.00  0.00     0.198 A 
ATOM     91  C   UNL A   1      45.299  36.023  29.195  1.00  0.00     0.198 A 
ATOM     92  F   UNL A   1      44.100  34.658  27.700  1.00  0.00    -0.203 F 
ATOM     93  F   UNL A   1      46.620  35.319  32.496  1.00  0.00    -0.200 F 
ATOM     94  C   UNL A   1      45.944  36.197  30.411  1.00  0.00     0.200 A 
ATOM     95  F   UNL A   1      45.240  37.035  28.318  1.00  0.00    -0.200 F 
ATOM     96  F   UNL A   1      46.494  37.380  30.715  1.00  0.00    -0.200 F 
ENDBRANCH  63  86
ENDBRANCH  37  38
ENDBRANCH  29  32
ENDBRANCH  27  28
ENDBRANCH  26  27
ENDBRANCH   1  26
TORSDOF 15
ENDMDL
MODEL 2
REMARK VINA RESULT:     -12.6      4.764     10.167
REMARK SMILES C=Cc1cc(Cl)cc2c1O[C@H](C(F)(F)F)C(C(=O)NCCCCCCNC(=O)c1ccc(-c3c4nc(c(-c5c(F)c(F)c(F)c(F)c5F)c5ccc([nH]5)c(-c5c(F)c(F)c(F)c(F)c5F)c5nc(c(-c6c(F)c(F)c(F)c(F)c6F)c6ccc3[nH]6)C=C5)C=C4)cc1)=C2
REMARK SMILES IDX 23 1 22 2 21 3 20 4 19 5 17 6 18 7 16 9 3 10 4 11 9 12 5 13
REMARK SMILES IDX 8 14 10 15 6 16 7 17 92 18 11 19 2 20 1 21 12 22 13 23 14 24
REMARK SMILES IDX 15 25 24 26 25 27 26 28 27 29 28 31 29 32 30 33 91 34 31 35
REMARK SMILES IDX 90 36 32 37 33 38 34 39 84 40 35 41 89 42 83 43 85 44 36 45
REMARK SMILES IDX 88 46 82 47 81 48 37 50 69 51 49 52 68 53 50 54 53 55 67 56
REMARK SMILES IDX 86 57 51 58 52 59 66 61 87 62 54 63 38 64 39 65 47 66 40 67
REMARK SMILES IDX 41 68 45 69 48 70 42 71 43 72 46 73 44 74 70 75 71 76 79 77
REMARK SMILES IDX 72 78 73 79 77 80 80 81 74 82 75 83 78 84 76 85 55 86 56 87
REMARK SMILES IDX 64 88 57 89 58 90 62 91 65 92 59 93 60 94 63 95 61 96
REMARK H PARENT 19 8 26 30 85 49 53 60
REMARK Flexibility Score: inf
ROOT
ATOM      1  C   UNL A   1      31.740  30.671  25.947  1.00  0.00     0.002 C 
ENDROOT
BRANCH   1   2
ATOM      2  C   UNL A   1      32.333  29.577  26.846  1.00  0.00     0.002 C 
BRANCH   2   3
ATOM      3  C   UNL A   1      33.621  28.923  26.335  1.00  0.00     0.021 C 
BRANCH   3   4
ATOM      4  C   UNL A   1      33.416  27.559  25.681  1.00  0.00     0.116 C 
BRANCH   4   5
ATOM      5  N   UNL A   1      32.154  26.955  26.067  1.00  0.00    -0.352 N 
ATOM      6  C   UNL A   1      31.630  25.710  26.151  1.00  0.00     0.251 C 
ATOM      7  O   UNL A   1      30.474  25.659  26.584  1.00  0.00    -0.270 OA
ATOM      8  H   UNL A   1      31.501  27.637  26.345  1.00  0.00     0.163 HD
BRANCH   6   9
ATOM      9  C   UNL A   1      32.327  24.445  25.765  1.00  0.00     0.067 C 
ATOM     10  C   UNL A   1      34.425  20.868  24.983  1.00  0.00     0.018 A 
ATOM     11  C   UNL A   1      35.817  20.851  25.128  1.00  0.00     0.032 A 
ATOM     12  C   UNL A   1      33.727  22.056  25.265  1.00  0.00     0.135 A 
ATOM     13  C   UNL A   1      36.487  21.992  25.572  1.00  0.00     0.042 A 
ATOM     14  C   UNL A   1      34.398  23.195  25.720  1.00  0.00     0.019 A 
ATOM     15  O   UNL A   1      32.365  22.027  25.140  1.00  0.00    -0.475 OA
ATOM     16  Cl  UNL A   1      38.198  21.955  25.756  1.00  0.00    -0.084 Cl
ATOM     17  C   UNL A   1      35.787  23.159  25.873  1.00  0.00     0.032 A 
ATOM     18  C   UNL A   1      33.636  24.388  26.072  1.00  0.00     0.025 C 
ATOM     19  C   UNL A   1      31.673  23.298  25.054  1.00  0.00     0.314 C 
BRANCH  10  20
ATOM     20  C   UNL A   1      33.705  19.683  24.492  1.00  0.00     0.004 C 
ATOM     21  C   UNL A   1      34.159  18.431  24.618  1.00  0.00     0.009 C 
ENDBRANCH  10  20
BRANCH  19  22
ATOM     22  C   UNL A   1      31.373  23.602  23.576  1.00  0.00     0.429 C 
ATOM     23  F   UNL A   1      32.304  24.448  23.067  1.00  0.00    -0.167 F 
ATOM     24  F   UNL A   1      31.402  22.495  22.799  1.00  0.00    -0.167 F 
ATOM     25  F   UNL A   1      30.163  24.178  23.401  1.00  0.00    -0.167 F 
ENDBRANCH  19  22
ENDBRANCH   6   9
ENDBRANCH   4   5
ENDBRANCH   3   4
ENDBRANCH   2   3
ENDBRANCH   1   2
BRANCH   1  26
ATOM     26  C   UNL A   1      31.422  32.000  26.636  1.00  0.00     0.021 C 
BRANCH  26  27
ATOM     27  C   UNL A   1      32.615  32.691  27.287  1.00  0.00     0.116 C 
BRANCH  27  28
ATOM     28  N   UNL A   1      32.351  34.085  27.605  1.00  0.00    -0.352 N 
ATOM     29  C   UNL A   1      32.963  34.896  28.530  1.00  0.00     0.251 C 
ATOM     30  H   UNL A   1      31.631  34.508  27.083  1.00  0.00     0.163 HD
ATOM     31  O   UNL A   1      32.518  36.013  28.769  1.00  0.00    -0.269 OA
BRANCH  29  32
ATOM     32  C   UNL A   1      34.148  34.402  29.265  1.00  0.00     0.039 A 
ATOM     33  C   UNL A   1      35.433  34.578  28.747  1.00  0.00     0.014 A 
ATOM     34  C   UNL A   1      33.964  33.735  30.479  1.00  0.00     0.014 A 
ATOM     35  C   UNL A   1      36.513  33.951  29.358  1.00  0.00     0.010 A 
ATOM     36  C   UNL A   1      35.063  33.173  31.134  1.00  0.00     0.010 A 
ATOM     37  C   UNL A   1      36.339  33.234  30.554  1.00  0.00    -0.014 A 
BRANCH  37  38
ATOM     38  C   UNL A   1      37.504  32.550  31.172  1.00  0.00     0.031 A 
ATOM     39  C   UNL A   1      37.950  32.902  32.566  1.00  0.00     0.074 A 
ATOM     40  C   UNL A   1      38.125  31.564  30.495  1.00  0.00     0.049 A 
ATOM     41  N   UNL A   1      38.931  32.396  33.271  1.00  0.00    -0.248 NA
ATOM     42  C   UNL A   1      37.199  33.960  33.261  1.00  0.00     0.031 C 
ATOM     43  C   UNL A   1      37.774  31.125  29.144  1.00  0.00     0.029 A 
ATOM     44  N   UNL A   1      39.158  30.738  30.856  1.00  0.00    -0.354 N 
ATOM     45  C   UNL A   1      38.924  33.081  34.479  1.00  0.00     0.074 A 
ATOM     46  C   UNL A   1      37.861  34.058  34.406  1.00  0.00     0.031 C 
ATOM     47  C   UNL A   1      38.541  30.076  28.810  1.00  0.00     0.029 A 
ATOM     48  C   UNL A   1      39.475  29.806  29.899  1.00  0.00     0.049 A 
ATOM     49  H   UNL A   1      39.626  30.805  31.720  1.00  0.00     0.167 HD
ATOM     50  C   UNL A   1      39.725  32.897  35.557  1.00  0.00     0.037 A 
ATOM     51  C   UNL A   1      40.420  28.847  29.892  1.00  0.00     0.037 A 
ATOM     52  C   UNL A   1      40.766  31.906  35.638  1.00  0.00     0.049 A 
ATOM     53  C   UNL A   1      41.321  28.696  31.085  1.00  0.00     0.074 A 
ATOM     54  C   UNL A   1      41.616  31.634  36.696  1.00  0.00     0.029 A 
ATOM     55  N   UNL A   1      41.094  31.021  34.623  1.00  0.00    -0.354 N 
ATOM     56  N   UNL A   1      41.301  29.350  32.220  1.00  0.00    -0.248 NA
ATOM     57  C   UNL A   1      42.380  27.683  30.991  1.00  0.00     0.031 C 
ATOM     58  C   UNL A   1      42.483  30.609  36.309  1.00  0.00     0.029 A 
ATOM     59  C   UNL A   1      42.147  30.214  35.025  1.00  0.00     0.049 A 
ATOM     60  H   UNL A   1      40.647  30.972  33.748  1.00  0.00     0.167 HD
ATOM     61  C   UNL A   1      42.337  28.824  32.980  1.00  0.00     0.074 A 
ATOM     62  C   UNL A   1      42.951  27.781  32.185  1.00  0.00     0.031 C 
ATOM     63  C   UNL A   1      42.746  29.180  34.221  1.00  0.00     0.037 A 
BRANCH  50  64
ATOM     64  C   UNL A   1      39.515  33.787  36.747  1.00  0.00     0.064 A 
ATOM     65  C   UNL A   1      38.707  33.391  37.823  1.00  0.00     0.173 A 
ATOM     66  C   UNL A   1      40.194  35.011  36.849  1.00  0.00     0.173 A 
ATOM     67  F   UNL A   1      38.029  32.235  37.769  1.00  0.00    -0.203 F 
ATOM     68  C   UNL A   1      38.580  34.194  38.954  1.00  0.00     0.198 A 
ATOM     69  C   UNL A   1      40.083  35.799  37.991  1.00  0.00     0.198 A 
ATOM     70  F   UNL A   1      40.984  35.431  35.850  1.00  0.00    -0.203 F 
ATOM     71  F   UNL A   1      37.782  33.808  39.960  1.00  0.00    -0.200 F 
ATOM     72  C   UNL A   1      39.275  35.391  39.042  1.00  0.00     0.200 A 
ATOM     73  F   UNL A   1      40.764  36.950  38.080  1.00  0.00    -0.200 F 
ATOM     74  F   UNL A   1      39.164  36.153  40.139  1.00  0.00    -0.200 F 
ENDBRANCH  50  64
BRANCH  51  75
ATOM     75  C   UNL A   1      40.553  27.955  28.713  1.00  0.00     0.064 A 
ATOM     76  C   UNL A   1      39.876  26.730  28.657  1.00  0.00     0.173 A 
ATOM     77  C   UNL A   1      41.337  28.321  27.607  1.00  0.00     0.173 A 
ATOM     78  F   UNL A   1      39.131  26.329  29.698  1.00  0.00    -0.203 F 
ATOM     79  C   UNL A   1      39.981  25.901  27.543  1.00  0.00     0.198 A 
ATOM     80  C   UNL A   1      41.420  27.503  26.483  1.00  0.00     0.198 A 
ATOM     81  F   UNL A   1      42.002  29.485  27.612  1.00  0.00    -0.203 F 
ATOM     82  F   UNL A   1      39.347  24.720  27.527  1.00  0.00    -0.200 F 
ATOM     83  C   UNL A   1      40.745  26.292  26.453  1.00  0.00     0.200 A 
ATOM     84  F   UNL A   1      42.146  27.892  25.426  1.00  0.00    -0.200 F 
ATOM     85  F   UNL A   1      40.835  25.500  25.376  1.00  0.00    -0.200 F 
ENDBRANCH  51  75
BRANCH  63  86
ATOM     86  C   UNL A   1      43.908  28.434  34.805  1.00  0.00     0.064 A 
ATOM     87  C   UNL A   1      45.217  28.916  34.686  1.00  0.00     0.173 A 
ATOM     88  C   UNL A   1      43.700  27.260  35.546  1.00  0.00     0.173 A 
ATOM     89  F   UNL A   1      45.466  30.026  33.975  1.00  0.00    -0.203 F 
ATOM     90  C   UNL A   1      46.283  28.244  35.279  1.00  0.00     0.198 A 
ATOM     91  C   UNL A   1      44.764  26.605  36.158  1.00  0.00     0.198 A 
ATOM     92  F   UNL A   1      42.463  26.763  35.694  1.00  0.00    -0.203 F 
ATOM     93  F   UNL A   1      47.532  28.705  35.127  1.00  0.00    -0.200 F 
ATOM     94  C   UNL A   1      46.054  27.095  36.021  1.00  0.00     0.200 A 
ATOM     95  F   UNL A   1      44.541  25.502  36.886  1.00  0.00    -0.200 F 
ATOM     96  F   UNL A   1      47.080  26.457  36.602  1.00  0.00    -0.200 F 
ENDBRANCH  63  86
ENDBRANCH  37  38
ENDBRANCH  29  32
ENDBRANCH  27  28
ENDBRANCH  26  27
ENDBRANCH   1  26
TORSDOF 15
ENDMDL
MODEL 3
REMARK VINA RESULT:     -12.6      4.871      8.719
REMARK SMILES C=Cc1cc(Cl)cc2c1O[C@H](C(F)(F)F)C(C(=O)NCCCCCCNC(=O)c1ccc(-c3c4nc(c(-c5c(F)c(F)c(F)c(F)c5F)c5ccc([nH]5)c(-c5c(F)c(F)c(F)c(F)c5F)c5nc(c(-c6c(F)c(F)c(F)c(F)c6F)c6ccc3[nH]6)C=C5)C=C4)cc1)=C2
REMARK SMILES IDX 23 1 22 2 21 3 20 4 19 5 17 6 18 7 16 9 3 10 4 11 9 12 5 13
REMARK SMILES IDX 8 14 10 15 6 16 7 17 92 18 11 19 2 20 1 21 12 22 13 23 14 24
REMARK SMILES IDX 15 25 24 26 25 27 26 28 27 29 28 31 29 32 30 33 91 34 31 35
REMARK SMILES IDX 90 36 32 37 33 38 34 39 84 40 35 41 89 42 83 43 85 44 36 45
REMARK SMILES IDX 88 46 82 47 81 48 37 50 69 51 49 52 68 53 50 54 53 55 67 56
REMARK SMILES IDX 86 57 51 58 52 59 66 61 87 62 54 63 38 64 39 65 47 66 40 67
REMARK SMILES IDX 41 68 45 69 48 70 42 71 43 72 46 73 44 74 70 75 71 76 79 77
REMARK SMILES IDX 72 78 73 79 77 80 80 81 74 82 75 83 78 84 76 85 55 86 56 87
REMARK SMILES IDX 64 88 57 89 58 90 62 91 65 92 59 93 60 94 63 95 61 96
REMARK H PARENT 19 8 26 30 85 49 53 60
REMARK Flexibility Score: inf
ROOT
ATOM      1  C   UNL A   1      31.722  30.692  26.200  1.00  0.00     0.002 C 
ENDROOT
BRANCH   1   2
ATOM      2  C   UNL A   1      32.373  29.689  27.162  1.00  0.00     0.002 C 
BRANCH   2   3
ATOM      3  C   UNL A   1      31.536  28.449  27.496  1.00  0.00     0.021 C 
BRANCH   3   4
ATOM      4  C   UNL A   1      32.056  27.155  26.877  1.00  0.00     0.116 C 
BRANCH   4   5
ATOM      5  N   UNL A   1      32.845  27.402  25.683  1.00  0.00    -0.352 N 
ATOM      6  C   UNL A   1      33.497  26.668  24.752  1.00  0.00     0.251 C 
ATOM      7  O   UNL A   1      34.028  27.324  23.850  1.00  0.00    -0.270 OA
ATOM      8  H   UNL A   1      32.926  28.365  25.501  1.00  0.00     0.163 HD
BRANCH   6   9
ATOM      9  C   UNL A   1      33.618  25.178  24.745  1.00  0.00     0.067 C 
ATOM     10  C   UNL A   1      34.144  20.998  25.001  1.00  0.00     0.018 A 
ATOM     11  C   UNL A   1      35.443  20.476  25.009  1.00  0.00     0.032 A 
ATOM     12  C   UNL A   1      33.973  22.393  24.936  1.00  0.00     0.135 A 
ATOM     13  C   UNL A   1      36.541  21.336  24.981  1.00  0.00     0.042 A 
ATOM     14  C   UNL A   1      35.075  23.254  24.920  1.00  0.00     0.019 A 
ATOM     15  O   UNL A   1      32.691  22.869  24.960  1.00  0.00    -0.475 OA
ATOM     16  Cl  UNL A   1      38.133  20.681  25.001  1.00  0.00    -0.084 Cl
ATOM     17  C   UNL A   1      36.366  22.719  24.942  1.00  0.00     0.032 A 
ATOM     18  C   UNL A   1      34.862  24.697  24.926  1.00  0.00     0.025 C 
ATOM     19  C   UNL A   1      32.474  24.234  24.523  1.00  0.00     0.314 C 
BRANCH  10  20
ATOM     20  C   UNL A   1      32.974  20.107  25.004  1.00  0.00     0.004 C 
ATOM     21  C   UNL A   1      32.527  19.461  23.920  1.00  0.00     0.009 C 
ENDBRANCH  10  20
BRANCH  19  22
ATOM     22  C   UNL A   1      31.986  24.218  23.063  1.00  0.00     0.429 C 
ATOM     23  F   UNL A   1      33.038  24.286  22.210  1.00  0.00    -0.167 F 
ATOM     24  F   UNL A   1      31.316  23.084  22.751  1.00  0.00    -0.167 F 
ATOM     25  F   UNL A   1      31.166  25.254  22.780  1.00  0.00    -0.167 F 
ENDBRANCH  19  22
ENDBRANCH   6   9
ENDBRANCH   4   5
ENDBRANCH   3   4
ENDBRANCH   2   3
ENDBRANCH   1   2
BRANCH   1  26
ATOM     26  C   UNL A   1      31.466  32.090  26.768  1.00  0.00     0.021 C 
BRANCH  26  27
ATOM     27  C   UNL A   1      32.697  32.795  27.326  1.00  0.00     0.116 C 
BRANCH  27  28
ATOM     28  N   UNL A   1      32.454  34.197  27.626  1.00  0.00    -0.352 N 
ATOM     29  C   UNL A   1      33.036  34.995  28.581  1.00  0.00     0.251 C 
ATOM     30  H   UNL A   1      31.776  34.637  27.064  1.00  0.00     0.163 HD
ATOM     31  O   UNL A   1      32.608  36.124  28.792  1.00  0.00    -0.269 OA
BRANCH  29  32
ATOM     32  C   UNL A   1      34.165  34.472  29.381  1.00  0.00     0.039 A 
ATOM     33  C   UNL A   1      35.473  34.539  28.898  1.00  0.00     0.014 A 
ATOM     34  C   UNL A   1      33.903  33.889  30.624  1.00  0.00     0.014 A 
ATOM     35  C   UNL A   1      36.493  33.883  29.578  1.00  0.00     0.010 A 
ATOM     36  C   UNL A   1      34.944  33.298  31.345  1.00  0.00     0.010 A 
ATOM     37  C   UNL A   1      36.239  33.248  30.806  1.00  0.00    -0.014 A 
BRANCH  37  38
ATOM     38  C   UNL A   1      37.340  32.531  31.499  1.00  0.00     0.031 A 
ATOM     39  C   UNL A   1      38.106  31.441  30.799  1.00  0.00     0.074 A 
ATOM     40  C   UNL A   1      37.689  32.908  32.744  1.00  0.00     0.049 A 
ATOM     41  N   UNL A   1      39.108  30.723  31.241  1.00  0.00    -0.248 NA
ATOM     42  C   UNL A   1      37.695  31.111  29.425  1.00  0.00     0.031 C 
ATOM     43  C   UNL A   1      37.030  33.961  33.518  1.00  0.00     0.029 A 
ATOM     44  N   UNL A   1      38.697  32.472  33.565  1.00  0.00    -0.354 N 
ATOM     45  C   UNL A   1      39.435  29.851  30.210  1.00  0.00     0.074 A 
ATOM     46  C   UNL A   1      38.510  30.108  29.129  1.00  0.00     0.031 C 
ATOM     47  C   UNL A   1      37.683  34.126  34.679  1.00  0.00     0.029 A 
ATOM     48  C   UNL A   1      38.768  33.153  34.756  1.00  0.00     0.049 A 
ATOM     49  H   UNL A   1      39.312  31.741  33.324  1.00  0.00     0.167 HD
ATOM     50  C   UNL A   1      40.429  28.931  30.168  1.00  0.00     0.037 A 
ATOM     51  C   UNL A   1      39.607  33.005  35.799  1.00  0.00     0.037 A 
ATOM     52  C   UNL A   1      41.367  28.696  31.235  1.00  0.00     0.049 A 
ATOM     53  C   UNL A   1      40.672  31.947  35.739  1.00  0.00     0.074 A 
ATOM     54  C   UNL A   1      42.419  27.797  31.274  1.00  0.00     0.029 A 
ATOM     55  N   UNL A   1      41.367  29.366  32.448  1.00  0.00    -0.354 N 
ATOM     56  N   UNL A   1      40.970  31.132  34.758  1.00  0.00    -0.248 NA
ATOM     57  C   UNL A   1      41.509  31.782  36.935  1.00  0.00     0.031 C 
ATOM     58  C   UNL A   1      43.034  27.898  32.526  1.00  0.00     0.029 A 
ATOM     59  C   UNL A   1      42.391  28.888  33.250  1.00  0.00     0.049 A 
ATOM     60  H   UNL A   1      40.735  30.077  32.702  1.00  0.00     0.167 HD
ATOM     61  C   UNL A   1      42.033  30.363  35.212  1.00  0.00     0.074 A 
ATOM     62  C   UNL A   1      42.342  30.824  36.548  1.00  0.00     0.031 C 
ATOM     63  C   UNL A   1      42.686  29.359  34.578  1.00  0.00     0.037 A 
BRANCH  50  64
ATOM     64  C   UNL A   1      40.564  28.100  28.926  1.00  0.00     0.064 A 
ATOM     65  C   UNL A   1      39.861  26.896  28.771  1.00  0.00     0.173 A 
ATOM     66  C   UNL A   1      41.339  28.553  27.847  1.00  0.00     0.173 A 
ATOM     67  F   UNL A   1      39.115  26.415  29.777  1.00  0.00    -0.203 F 
ATOM     68  C   UNL A   1      39.937  26.171  27.584  1.00  0.00     0.198 A 
ATOM     69  C   UNL A   1      41.394  27.837  26.654  1.00  0.00     0.198 A 
ATOM     70  F   UNL A   1      42.024  29.701  27.942  1.00  0.00    -0.203 F 
ATOM     71  F   UNL A   1      39.277  25.010  27.467  1.00  0.00    -0.200 F 
ATOM     72  C   UNL A   1      40.694  26.647  26.524  1.00  0.00     0.200 A 
ATOM     73  F   UNL A   1      42.116  28.304  25.626  1.00  0.00    -0.200 F 
ATOM     74  F   UNL A   1      40.752  25.956  25.376  1.00  0.00    -0.200 F 
ENDBRANCH  50  64
BRANCH  51  75
ATOM     75  C   UNL A   1      39.468  33.888  36.984  1.00  0.00     0.064 A 
ATOM     76  C   UNL A   1      40.067  35.155  37.010  1.00  0.00     0.173 A 
ATOM     77  C   UNL A   1      38.714  33.497  38.101  1.00  0.00     0.173 A 
ATOM     78  F   UNL A   1      40.813  35.564  35.975  1.00  0.00    -0.203 F 
ATOM     79  C   UNL A   1      39.920  35.995  38.112  1.00  0.00     0.198 A 
ATOM     80  C   UNL A   1      38.546  34.348  39.190  1.00  0.00     0.198 A 
ATOM     81  F   UNL A   1      38.120  32.295  38.121  1.00  0.00    -0.203 F 
ATOM     82  F   UNL A   1      40.528  37.189  38.125  1.00  0.00    -0.200 F 
ATOM     83  C   UNL A   1      39.153  35.595  39.196  1.00  0.00     0.200 A 
ATOM     84  F   UNL A   1      37.792  33.965  40.228  1.00  0.00    -0.200 F 
ATOM     85  F   UNL A   1      39.002  36.410  40.250  1.00  0.00    -0.200 F 
ENDBRANCH  51  75
BRANCH  63  86
ATOM     86  C   UNL A   1      43.809  28.694  35.317  1.00  0.00     0.064 A 
ATOM     87  C   UNL A   1      45.130  29.142  35.191  1.00  0.00     0.173 A 
ATOM     88  C   UNL A   1      43.550  27.640  36.207  1.00  0.00     0.173 A 
ATOM     89  F   UNL A   1      45.427  30.137  34.342  1.00  0.00    -0.203 F 
ATOM     90  C   UNL A   1      46.157  28.552  35.923  1.00  0.00     0.198 A 
ATOM     91  C   UNL A   1      44.575  27.069  36.955  1.00  0.00     0.198 A 
ATOM     92  F   UNL A   1      42.299  27.180  36.366  1.00  0.00    -0.203 F 
ATOM     93  F   UNL A   1      47.418  28.975  35.765  1.00  0.00    -0.200 F 
ATOM     94  C   UNL A   1      45.877  27.522  36.810  1.00  0.00     0.200 A 
ATOM     95  F   UNL A   1      44.301  26.083  37.821  1.00  0.00    -0.200 F 
ATOM     96  F   UNL A   1      46.865  26.965  37.523  1.00  0.00    -0.200 F 
ENDBRANCH  63  86
ENDBRANCH  37  38
ENDBRANCH  29  32
ENDBRANCH  27  28
ENDBRANCH  26  27
ENDBRANCH   1  26
TORSDOF 15
ENDMDL
