MODEL 1
REMARK VINA RESULT:     -12.5      0.000      0.000
REMARK SMILES CC1=NN(c2ccc(Cl)cc2)C(=O)/C1=C/c1ccccc1OCC(=O)NCCCCCCNC(=O)c1ccc(-c2c3nc(c(-c4c(F)c(F)c(F)c(F)c4F)c4ccc([nH]4)c(-c4c(F)c(F)c(F)c(F)c4F)c4nc(c(-c5c(F)c(F)c(F)c(F)c5F)c5ccc2[nH]5)C=C4)C=C3)cc1
REMARK SMILES IDX 28 1 27 2 26 3 24 4 25 5 23 7 22 8 21 9 16 10 17 11 18 12
REMARK SMILES IDX 20 13 19 14 15 15 1 16 2 17 3 18 14 19 4 20 12 21 13 22 5 23
REMARK SMILES IDX 6 24 11 25 7 26 10 27 8 28 9 29 29 30 30 31 31 32 32 33
REMARK SMILES IDX 33 34 34 35 35 37 36 38 37 39 98 40 38 41 97 42 39 43 40 44
REMARK SMILES IDX 41 45 91 46 42 47 96 48 90 49 92 50 43 51 95 52 89 53 88 54
REMARK SMILES IDX 44 56 76 57 56 58 75 59 57 60 60 61 74 62 93 63 58 64 59 65
REMARK SMILES IDX 73 67 94 68 61 69 45 70 46 71 54 72 47 73 48 74 52 75 55 76
REMARK SMILES IDX 49 77 50 78 53 79 51 80 77 81 78 82 86 83 79 84 80 85 84 86
REMARK SMILES IDX 87 87 81 88 82 89 85 90 83 91 62 92 63 93 71 94 64 95 65 96
REMARK SMILES IDX 69 97 72 98 66 99 67 100 70 101 68 102
REMARK H PARENT 26 6 33 36 92 55 60 66
REMARK Flexibility Score: inf
ROOT
ATOM      1  C   UNL A   1      35.297  31.206  28.057  1.00  0.00     0.021 C 
ENDROOT
BRANCH   1   2
ATOM      2  C   UNL A   1      34.644  30.093  27.243  1.00  0.00     0.116 C 
BRANCH   2   3
ATOM      3  N   UNL A   1      33.442  29.542  27.832  1.00  0.00    -0.353 N 
ATOM      4  C   UNL A   1      32.211  29.445  27.250  1.00  0.00     0.257 C 
ATOM      5  O   UNL A   1      31.458  28.546  27.630  1.00  0.00    -0.271 OA
ATOM      6  H   UNL A   1      33.521  29.201  28.751  1.00  0.00     0.163 HD
BRANCH   4   7
ATOM      7  C   UNL A   1      31.786  30.401  26.132  1.00  0.00     0.329 C 
BRANCH   7   8
ATOM      8  O   UNL A   1      31.946  29.945  24.808  1.00  0.00    -0.483 OA
BRANCH   8   9
ATOM      9  C   UNL A   1      30.909  29.702  23.955  1.00  0.00     0.127 A 
ATOM     10  C   UNL A   1      30.750  28.733  22.950  1.00  0.00     0.017 A 
ATOM     11  C   UNL A   1      29.533  28.678  22.239  1.00  0.00     0.012 A 
ATOM     12  C   UNL A   1      28.492  29.566  22.514  1.00  0.00     0.001 A 
ATOM     13  C   UNL A   1      29.847  30.590  24.211  1.00  0.00     0.047 A 
ATOM     14  C   UNL A   1      28.651  30.528  23.500  1.00  0.00     0.004 A 
BRANCH  10  15
ATOM     15  C   UNL A   1      31.761  27.755  22.548  1.00  0.00     0.027 C 
ATOM     16  C   UNL A   1      30.351  26.362  25.132  1.00  0.00     0.069 C 
ATOM     17  C   UNL A   1      31.609  25.988  24.428  1.00  0.00     0.071 C 
ATOM     18  N   UNL A   1      32.416  25.044  24.840  1.00  0.00    -0.169 NA
ATOM     19  C   UNL A   1      32.090  26.633  23.197  1.00  0.00     0.066 C 
ATOM     20  N   UNL A   1      33.469  25.011  23.920  1.00  0.00    -0.196 N 
ATOM     21  C   UNL A   1      33.301  25.867  22.818  1.00  0.00     0.280 C 
ATOM     22  O   UNL A   1      33.944  26.028  21.801  1.00  0.00    -0.267 OA
BRANCH  20  23
ATOM     23  C   UNL A   1      34.638  24.284  24.247  1.00  0.00     0.069 A 
ATOM     24  C   UNL A   1      35.268  24.453  25.491  1.00  0.00     0.030 A 
ATOM     25  C   UNL A   1      35.156  23.327  23.363  1.00  0.00     0.030 A 
ATOM     26  C   UNL A   1      36.384  23.689  25.843  1.00  0.00     0.023 A 
ATOM     27  C   UNL A   1      36.289  22.577  23.703  1.00  0.00     0.023 A 
ATOM     28  C   UNL A   1      36.896  22.760  24.944  1.00  0.00     0.041 A 
ATOM     29  Cl  UNL A   1      38.276  21.827  25.372  1.00  0.00    -0.084 Cl
ENDBRANCH  20  23
ENDBRANCH  10  15
ENDBRANCH   8   9
ENDBRANCH   7   8
ENDBRANCH   4   7
ENDBRANCH   2   3
ENDBRANCH   1   2
BRANCH   1  30
ATOM     30  C   UNL A   1      34.373  32.030  28.962  1.00  0.00     0.002 C 
BRANCH  30  31
ATOM     31  C   UNL A   1      34.657  33.527  29.075  1.00  0.00     0.002 C 
BRANCH  31  32
ATOM     32  C   UNL A   1      33.467  34.454  28.849  1.00  0.00     0.021 C 
BRANCH  32  33
ATOM     33  C   UNL A   1      33.602  35.843  29.456  1.00  0.00     0.116 C 
BRANCH  33  34
ATOM     34  N   UNL A   1      32.602  36.119  30.476  1.00  0.00    -0.352 N 
ATOM     35  C   UNL A   1      32.594  35.735  31.797  1.00  0.00     0.251 C 
ATOM     36  H   UNL A   1      31.828  36.650  30.182  1.00  0.00     0.163 HD
ATOM     37  O   UNL A   1      31.611  35.934  32.503  1.00  0.00    -0.269 OA
BRANCH  35  38
ATOM     38  C   UNL A   1      33.775  35.043  32.356  1.00  0.00     0.039 A 
ATOM     39  C   UNL A   1      33.638  33.732  32.818  1.00  0.00     0.014 A 
ATOM     40  C   UNL A   1      35.021  35.674  32.382  1.00  0.00     0.014 A 
ATOM     41  C   UNL A   1      34.768  33.028  33.238  1.00  0.00     0.010 A 
ATOM     42  C   UNL A   1      36.156  34.945  32.723  1.00  0.00     0.010 A 
ATOM     43  C   UNL A   1      36.041  33.616  33.156  1.00  0.00    -0.014 A 
BRANCH  43  44
ATOM     44  C   UNL A   1      37.265  32.856  33.518  1.00  0.00     0.031 A 
ATOM     45  C   UNL A   1      38.000  33.172  34.790  1.00  0.00     0.074 A 
ATOM     46  C   UNL A   1      37.761  31.940  32.663  1.00  0.00     0.049 A 
ATOM     47  N   UNL A   1      39.121  32.673  35.247  1.00  0.00    -0.248 NA
ATOM     48  C   UNL A   1      37.414  34.215  35.647  1.00  0.00     0.031 C 
ATOM     49  C   UNL A   1      37.176  31.591  31.368  1.00  0.00     0.029 A 
ATOM     50  N   UNL A   1      38.878  31.147  32.748  1.00  0.00    -0.354 N 
ATOM     51  C   UNL A   1      39.384  33.354  36.428  1.00  0.00     0.074 A 
ATOM     52  C   UNL A   1      38.337  34.339  36.588  1.00  0.00     0.031 C 
ATOM     53  C   UNL A   1      37.930  30.644  30.786  1.00  0.00     0.029 A 
ATOM     54  C   UNL A   1      39.069  30.346  31.650  1.00  0.00     0.049 A 
ATOM     55  H   UNL A   1      39.485  31.152  33.524  1.00  0.00     0.167 HD
ATOM     56  C   UNL A   1      40.394  33.160  37.308  1.00  0.00     0.037 A 
ATOM     57  C   UNL A   1      40.057  29.476  31.364  1.00  0.00     0.037 A 
ATOM     58  C   UNL A   1      41.415  32.157  37.156  1.00  0.00     0.049 A 
ATOM     59  C   UNL A   1      41.159  29.260  32.367  1.00  0.00     0.074 A 
ATOM     60  C   UNL A   1      42.428  31.817  38.034  1.00  0.00     0.029 A 
ATOM     61  N   UNL A   1      41.557  31.337  36.045  1.00  0.00    -0.354 N 
ATOM     62  N   UNL A   1      41.346  29.844  33.525  1.00  0.00    -0.248 NA
ATOM     63  C   UNL A   1      42.179  28.259  32.027  1.00  0.00     0.031 C 
ATOM     64  C   UNL A   1      43.220  30.835  37.430  1.00  0.00     0.029 A 
ATOM     65  C   UNL A   1      42.664  30.516  36.201  1.00  0.00     0.049 A 
ATOM     66  H   UNL A   1      40.961  31.339  35.262  1.00  0.00     0.167 HD
ATOM     67  C   UNL A   1      42.490  29.268  34.063  1.00  0.00     0.074 A 
ATOM     68  C   UNL A   1      42.944  28.277  33.110  1.00  0.00     0.031 C 
ATOM     69  C   UNL A   1      43.106  29.536  35.241  1.00  0.00     0.037 A 
BRANCH  56  70
ATOM     70  C   UNL A   1      40.447  34.058  38.511  1.00  0.00     0.064 A 
ATOM     71  C   UNL A   1      39.777  33.744  39.704  1.00  0.00     0.173 A 
ATOM     72  C   UNL A   1      41.195  35.246  38.476  1.00  0.00     0.173 A 
ATOM     73  F   UNL A   1      39.039  32.626  39.789  1.00  0.00    -0.203 F 
ATOM     74  C   UNL A   1      39.818  34.603  40.799  1.00  0.00     0.198 A 
ATOM     75  C   UNL A   1      41.263  36.085  39.585  1.00  0.00     0.198 A 
ATOM     76  F   UNL A   1      41.861  35.594  37.365  1.00  0.00    -0.203 F 
ATOM     77  F   UNL A   1      39.115  34.312  41.903  1.00  0.00    -0.200 F 
ATOM     78  C   UNL A   1      40.565  35.769  40.742  1.00  0.00     0.200 A 
ATOM     79  F   UNL A   1      41.997  37.205  39.532  1.00  0.00    -0.200 F 
ATOM     80  F   UNL A   1      40.605  36.595  41.797  1.00  0.00    -0.200 F 
ENDBRANCH  56  70
BRANCH  57  81
ATOM     81  C   UNL A   1      40.032  28.731  30.078  1.00  0.00     0.064 A 
ATOM     82  C   UNL A   1      40.622  29.262  28.923  1.00  0.00     0.173 A 
ATOM     83  C   UNL A   1      39.438  27.464  29.984  1.00  0.00     0.173 A 
ATOM     84  F   UNL A   1      41.186  30.478  28.958  1.00  0.00    -0.203 F 
ATOM     85  C   UNL A   1      40.609  28.559  27.720  1.00  0.00     0.198 A 
ATOM     86  C   UNL A   1      39.450  26.750  28.788  1.00  0.00     0.198 A 
ATOM     87  F   UNL A   1      38.865  26.909  31.063  1.00  0.00    -0.203 F 
ATOM     88  F   UNL A   1      41.149  29.105  26.622  1.00  0.00    -0.200 F 
ATOM     89  C   UNL A   1      40.030  27.300  27.655  1.00  0.00     0.200 A 
ATOM     90  F   UNL A   1      38.905  25.527  28.734  1.00  0.00    -0.200 F 
ATOM     91  F   UNL A   1      40.028  26.620  26.501  1.00  0.00    -0.200 F 
ENDBRANCH  57  81
BRANCH  69  92
ATOM     92  C   UNL A   1      44.328  28.731  35.579  1.00  0.00     0.064 A 
ATOM     93  C   UNL A   1      45.615  29.157  35.219  1.00  0.00     0.173 A 
ATOM     94  C   UNL A   1      44.212  27.541  36.314  1.00  0.00     0.173 A 
ATOM     95  F   UNL A   1      45.779  30.280  34.504  1.00  0.00    -0.203 F 
ATOM     96  C   UNL A   1      46.738  28.409  35.562  1.00  0.00     0.198 A 
ATOM     97  C   UNL A   1      45.340  26.813  36.683  1.00  0.00     0.198 A 
ATOM     98  F   UNL A   1      43.005  27.093  36.690  1.00  0.00    -0.203 F 
ATOM     99  F   UNL A   1      47.954  28.811  35.168  1.00  0.00    -0.200 F 
ATOM    100  C   UNL A   1      46.601  27.243  36.300  1.00  0.00     0.200 A 
ATOM    101  F   UNL A   1      45.205  25.695  37.411  1.00  0.00    -0.200 F 
ATOM    102  F   UNL A   1      47.684  26.530  36.638  1.00  0.00    -0.200 F 
ENDBRANCH  69  92
ENDBRANCH  43  44
ENDBRANCH  35  38
ENDBRANCH  33  34
ENDBRANCH  32  33
ENDBRANCH  31  32
ENDBRANCH  30  31
ENDBRANCH   1  30
TORSDOF 17
ENDMDL
MODEL 2
REMARK VINA RESULT:     -12.4      1.263      2.162
REMARK SMILES CC1=NN(c2ccc(Cl)cc2)C(=O)/C1=C/c1ccccc1OCC(=O)NCCCCCCNC(=O)c1ccc(-c2c3nc(c(-c4c(F)c(F)c(F)c(F)c4F)c4ccc([nH]4)c(-c4c(F)c(F)c(F)c(F)c4F)c4nc(c(-c5c(F)c(F)c(F)c(F)c5F)c5ccc2[nH]5)C=C4)C=C3)cc1
REMARK SMILES IDX 28 1 27 2 26 3 24 4 25 5 23 7 22 8 21 9 16 10 17 11 18 12
REMARK SMILES IDX 20 13 19 14 15 15 1 16 2 17 3 18 14 19 4 20 12 21 13 22 5 23
REMARK SMILES IDX 6 24 11 25 7 26 10 27 8 28 9 29 29 30 30 31 31 32 32 33
REMARK SMILES IDX 33 34 34 35 35 37 36 38 37 39 98 40 38 41 97 42 39 43 40 44
REMARK SMILES IDX 41 45 91 46 42 47 96 48 90 49 92 50 43 51 95 52 89 53 88 54
REMARK SMILES IDX 44 56 76 57 56 58 75 59 57 60 60 61 74 62 93 63 58 64 59 65
REMARK SMILES IDX 73 67 94 68 61 69 45 70 46 71 54 72 47 73 48 74 52 75 55 76
REMARK SMILES IDX 49 77 50 78 53 79 51 80 77 81 78 82 86 83 79 84 80 85 84 86
REMARK SMILES IDX 87 87 81 88 82 89 85 90 83 91 62 92 63 93 71 94 64 95 65 96
REMARK SMILES IDX 69 97 72 98 66 99 67 100 70 101 68 102
REMARK H PARENT 26 6 33 36 92 55 60 66
REMARK Flexibility Score: inf
ROOT
ATOM      1  C   UNL A   1      35.454  31.123  27.990  1.00  0.00     0.021 C 
ENDROOT
BRANCH   1   2
ATOM      2  C   UNL A   1      34.852  29.851  27.399  1.00  0.00     0.116 C 
BRANCH   2   3
ATOM      3  N   UNL A   1      33.535  29.520  27.899  1.00  0.00    -0.353 N 
ATOM      4  C   UNL A   1      32.395  29.351  27.168  1.00  0.00     0.257 C 
ATOM      5  O   UNL A   1      31.520  28.609  27.618  1.00  0.00    -0.271 OA
ATOM      6  H   UNL A   1      33.453  29.403  28.873  1.00  0.00     0.163 HD
BRANCH   4   7
ATOM      7  C   UNL A   1      32.219  30.036  25.809  1.00  0.00     0.329 C 
BRANCH   7   8
ATOM      8  O   UNL A   1      32.161  29.199  24.676  1.00  0.00    -0.483 OA
BRANCH   8   9
ATOM      9  C   UNL A   1      31.017  28.612  24.221  1.00  0.00     0.127 A 
ATOM     10  C   UNL A   1      30.519  27.307  24.390  1.00  0.00     0.017 A 
ATOM     11  C   UNL A   1      29.264  26.979  23.839  1.00  0.00     0.012 A 
ATOM     12  C   UNL A   1      28.512  27.918  23.131  1.00  0.00     0.001 A 
ATOM     13  C   UNL A   1      30.244  29.540  23.499  1.00  0.00     0.047 A 
ATOM     14  C   UNL A   1      29.007  29.202  22.957  1.00  0.00     0.004 A 
BRANCH  10  15
ATOM     15  C   UNL A   1      31.205  26.223  25.091  1.00  0.00     0.027 C 
ATOM     16  C   UNL A   1      32.512  26.138  22.109  1.00  0.00     0.069 C 
ATOM     17  C   UNL A   1      32.606  25.138  23.209  1.00  0.00     0.071 C 
ATOM     18  N   UNL A   1      33.188  23.973  23.080  1.00  0.00    -0.169 NA
ATOM     19  C   UNL A   1      32.058  25.340  24.558  1.00  0.00     0.066 C 
ATOM     20  N   UNL A   1      33.058  23.341  24.321  1.00  0.00    -0.196 N 
ATOM     21  C   UNL A   1      32.481  24.142  25.320  1.00  0.00     0.280 C 
ATOM     22  O   UNL A   1      32.306  23.968  26.510  1.00  0.00    -0.267 OA
BRANCH  20  23
ATOM     23  C   UNL A   1      33.341  21.957  24.414  1.00  0.00     0.069 A 
ATOM     24  C   UNL A   1      32.393  20.998  24.021  1.00  0.00     0.030 A 
ATOM     25  C   UNL A   1      34.603  21.513  24.835  1.00  0.00     0.030 A 
ATOM     26  C   UNL A   1      32.694  19.634  24.050  1.00  0.00     0.023 A 
ATOM     27  C   UNL A   1      34.899  20.145  24.888  1.00  0.00     0.023 A 
ATOM     28  C   UNL A   1      33.944  19.212  24.491  1.00  0.00     0.041 A 
ATOM     29  Cl  UNL A   1      34.312  17.533  24.537  1.00  0.00    -0.084 Cl
ENDBRANCH  20  23
ENDBRANCH  10  15
ENDBRANCH   8   9
ENDBRANCH   7   8
ENDBRANCH   4   7
ENDBRANCH   2   3
ENDBRANCH   1   2
BRANCH   1  30
ATOM     30  C   UNL A   1      34.521  31.996  28.838  1.00  0.00     0.002 C 
BRANCH  30  31
ATOM     31  C   UNL A   1      34.678  33.512  28.714  1.00  0.00     0.002 C 
BRANCH  31  32
ATOM     32  C   UNL A   1      33.402  34.332  28.879  1.00  0.00     0.021 C 
BRANCH  32  33
ATOM     33  C   UNL A   1      33.595  35.721  29.467  1.00  0.00     0.116 C 
BRANCH  33  34
ATOM     34  N   UNL A   1      32.631  36.039  30.508  1.00  0.00    -0.352 N 
ATOM     35  C   UNL A   1      32.661  35.697  31.840  1.00  0.00     0.251 C 
ATOM     36  H   UNL A   1      31.854  36.570  30.223  1.00  0.00     0.163 HD
ATOM     37  O   UNL A   1      31.703  35.927  32.570  1.00  0.00    -0.269 OA
BRANCH  35  38
ATOM     38  C   UNL A   1      33.853  35.009  32.383  1.00  0.00     0.039 A 
ATOM     39  C   UNL A   1      33.720  33.710  32.878  1.00  0.00     0.014 A 
ATOM     40  C   UNL A   1      35.103  35.632  32.360  1.00  0.00     0.014 A 
ATOM     41  C   UNL A   1      34.857  33.008  33.284  1.00  0.00     0.010 A 
ATOM     42  C   UNL A   1      36.242  34.904  32.687  1.00  0.00     0.010 A 
ATOM     43  C   UNL A   1      36.131  33.585  33.154  1.00  0.00    -0.014 A 
BRANCH  43  44
ATOM     44  C   UNL A   1      37.359  32.826  33.500  1.00  0.00     0.031 A 
ATOM     45  C   UNL A   1      38.103  33.132  34.769  1.00  0.00     0.074 A 
ATOM     46  C   UNL A   1      37.851  31.918  32.633  1.00  0.00     0.049 A 
ATOM     47  N   UNL A   1      39.228  32.632  35.214  1.00  0.00    -0.248 NA
ATOM     48  C   UNL A   1      37.521  34.166  35.640  1.00  0.00     0.031 C 
ATOM     49  C   UNL A   1      37.258  31.579  31.339  1.00  0.00     0.029 A 
ATOM     50  N   UNL A   1      38.972  31.128  32.703  1.00  0.00    -0.354 N 
ATOM     51  C   UNL A   1      39.499  33.303  36.399  1.00  0.00     0.074 A 
ATOM     52  C   UNL A   1      38.450  34.284  36.576  1.00  0.00     0.031 C 
ATOM     53  C   UNL A   1      38.010  30.640  30.744  1.00  0.00     0.029 A 
ATOM     54  C   UNL A   1      39.157  30.337  31.597  1.00  0.00     0.049 A 
ATOM     55  H   UNL A   1      39.584  31.128  33.475  1.00  0.00     0.167 HD
ATOM     56  C   UNL A   1      40.516  33.104  37.270  1.00  0.00     0.037 A 
ATOM     57  C   UNL A   1      40.145  29.472  31.296  1.00  0.00     0.037 A 
ATOM     58  C   UNL A   1      41.538  32.105  37.102  1.00  0.00     0.049 A 
ATOM     59  C   UNL A   1      41.254  29.251  32.289  1.00  0.00     0.074 A 
ATOM     60  C   UNL A   1      42.559  31.760  37.969  1.00  0.00     0.029 A 
ATOM     61  N   UNL A   1      41.674  31.296  35.982  1.00  0.00    -0.354 N 
ATOM     62  N   UNL A   1      41.449  29.825  33.451  1.00  0.00    -0.248 NA
ATOM     63  C   UNL A   1      42.274  28.255  31.933  1.00  0.00     0.031 C 
ATOM     64  C   UNL A   1      43.348  30.786  37.350  1.00  0.00     0.029 A 
ATOM     65  C   UNL A   1      42.784  30.476  36.123  1.00  0.00     0.049 A 
ATOM     66  H   UNL A   1      41.072  31.303  35.203  1.00  0.00     0.167 HD
ATOM     67  C   UNL A   1      42.598  29.247  33.975  1.00  0.00     0.074 A 
ATOM     68  C   UNL A   1      43.047  28.266  33.010  1.00  0.00     0.031 C 
ATOM     69  C   UNL A   1      43.222  29.506  35.151  1.00  0.00     0.037 A 
BRANCH  56  70
ATOM     70  C   UNL A   1      40.575  33.992  38.480  1.00  0.00     0.064 A 
ATOM     71  C   UNL A   1      41.315  35.185  38.491  1.00  0.00     0.173 A 
ATOM     72  C   UNL A   1      39.868  33.652  39.644  1.00  0.00     0.173 A 
ATOM     73  F   UNL A   1      42.018  35.553  37.409  1.00  0.00    -0.203 F 
ATOM     74  C   UNL A   1      41.378  35.981  39.632  1.00  0.00     0.198 A 
ATOM     75  C   UNL A   1      39.905  34.468  40.772  1.00  0.00     0.198 A 
ATOM     76  F   UNL A   1      39.140  32.526  39.689  1.00  0.00    -0.203 F 
ATOM     77  F   UNL A   1      42.144  37.081  39.638  1.00  0.00    -0.200 F 
ATOM     78  C   UNL A   1      40.669  35.626  40.769  1.00  0.00     0.200 A 
ATOM     79  F   UNL A   1      39.207  34.130  41.865  1.00  0.00    -0.200 F 
ATOM     80  F   UNL A   1      40.729  36.393  41.866  1.00  0.00    -0.200 F 
ENDBRANCH  56  70
BRANCH  57  81
ATOM     81  C   UNL A   1      40.112  28.739  30.004  1.00  0.00     0.064 A 
ATOM     82  C   UNL A   1      40.705  29.275  28.853  1.00  0.00     0.173 A 
ATOM     83  C   UNL A   1      39.508  27.477  29.899  1.00  0.00     0.173 A 
ATOM     84  F   UNL A   1      41.279  30.486  28.897  1.00  0.00    -0.203 F 
ATOM     85  C   UNL A   1      40.686  28.582  27.644  1.00  0.00     0.198 A 
ATOM     86  C   UNL A   1      39.512  26.773  28.697  1.00  0.00     0.198 A 
ATOM     87  F   UNL A   1      38.931  26.918  30.974  1.00  0.00    -0.203 F 
ATOM     88  F   UNL A   1      41.228  29.133  26.550  1.00  0.00    -0.200 F 
ATOM     89  C   UNL A   1      40.096  27.329  27.568  1.00  0.00     0.200 A 
ATOM     90  F   UNL A   1      38.957  25.555  28.633  1.00  0.00    -0.200 F 
ATOM     91  F   UNL A   1      40.087  26.658  26.409  1.00  0.00    -0.200 F 
ENDBRANCH  57  81
BRANCH  69  92
ATOM     92  C   UNL A   1      44.449  28.701  35.473  1.00  0.00     0.064 A 
ATOM     93  C   UNL A   1      44.371  27.482  36.160  1.00  0.00     0.173 A 
ATOM     94  C   UNL A   1      45.714  29.137  35.048  1.00  0.00     0.173 A 
ATOM     95  F   UNL A   1      43.189  27.028  36.601  1.00  0.00    -0.203 F 
ATOM     96  C   UNL A   1      45.517  26.738  36.429  1.00  0.00     0.198 A 
ATOM     97  C   UNL A   1      46.853  28.374  35.290  1.00  0.00     0.198 A 
ATOM     98  F   UNL A   1      45.843  30.293  34.380  1.00  0.00    -0.203 F 
ATOM     99  F   UNL A   1      45.425  25.597  37.127  1.00  0.00    -0.200 F 
ATOM    100  C   UNL A   1      46.755  27.180  35.987  1.00  0.00     0.200 A 
ATOM    101  F   UNL A   1      48.046  28.796  34.847  1.00  0.00    -0.200 F 
ATOM    102  F   UNL A   1      47.856  26.457  36.238  1.00  0.00    -0.200 F 
ENDBRANCH  69  92
ENDBRANCH  43  44
ENDBRANCH  35  38
ENDBRANCH  33  34
ENDBRANCH  32  33
ENDBRANCH  31  32
ENDBRANCH  30  31
ENDBRANCH   1  30
TORSDOF 17
ENDMDL
MODEL 3
REMARK VINA RESULT:     -12.2      6.036     10.241
REMARK SMILES CC1=NN(c2ccc(Cl)cc2)C(=O)/C1=C/c1ccccc1OCC(=O)NCCCCCCNC(=O)c1ccc(-c2c3nc(c(-c4c(F)c(F)c(F)c(F)c4F)c4ccc([nH]4)c(-c4c(F)c(F)c(F)c(F)c4F)c4nc(c(-c5c(F)c(F)c(F)c(F)c5F)c5ccc2[nH]5)C=C4)C=C3)cc1
REMARK SMILES IDX 28 1 27 2 26 3 24 4 25 5 23 7 22 8 21 9 16 10 17 11 18 12
REMARK SMILES IDX 20 13 19 14 15 15 1 16 2 17 3 18 14 19 4 20 12 21 13 22 5 23
REMARK SMILES IDX 6 24 11 25 7 26 10 27 8 28 9 29 29 30 30 31 31 32 32 33
REMARK SMILES IDX 33 34 34 35 35 37 36 38 37 39 98 40 38 41 97 42 39 43 40 44
REMARK SMILES IDX 41 45 91 46 42 47 96 48 90 49 92 50 43 51 95 52 89 53 88 54
REMARK SMILES IDX 44 56 76 57 56 58 75 59 57 60 60 61 74 62 93 63 58 64 59 65
REMARK SMILES IDX 73 67 94 68 61 69 45 70 46 71 54 72 47 73 48 74 52 75 55 76
REMARK SMILES IDX 49 77 50 78 53 79 51 80 77 81 78 82 86 83 79 84 80 85 84 86
REMARK SMILES IDX 87 87 81 88 82 89 85 90 83 91 62 92 63 93 71 94 64 95 65 96
REMARK SMILES IDX 69 97 72 98 66 99 67 100 70 101 68 102
REMARK H PARENT 26 6 33 36 92 55 60 66
REMARK Flexibility Score: inf
ROOT
ATOM      1  C   UNL A   1      36.270  23.820  25.659  1.00  0.00     0.021 C 
ENDROOT
BRANCH   1   2
ATOM      2  C   UNL A   1      34.999  24.340  24.994  1.00  0.00     0.116 C 
BRANCH   2   3
ATOM      3  N   UNL A   1      33.881  24.524  25.894  1.00  0.00    -0.353 N 
ATOM      4  C   UNL A   1      33.213  25.687  26.150  1.00  0.00     0.257 C 
ATOM      5  O   UNL A   1      32.035  25.615  26.505  1.00  0.00    -0.271 OA
ATOM      6  H   UNL A   1      33.568  23.724  26.374  1.00  0.00     0.163 HD
BRANCH   4   7
ATOM      7  C   UNL A   1      33.894  27.047  25.968  1.00  0.00     0.329 C 
BRANCH   7   8
ATOM      8  O   UNL A   1      33.919  27.578  24.662  1.00  0.00    -0.483 OA
BRANCH   8   9
ATOM      9  C   UNL A   1      32.800  27.860  23.934  1.00  0.00     0.127 A 
ATOM     10  C   UNL A   1      32.136  27.118  22.940  1.00  0.00     0.017 A 
ATOM     11  C   UNL A   1      30.953  27.638  22.376  1.00  0.00     0.012 A 
ATOM     12  C   UNL A   1      30.434  28.868  22.783  1.00  0.00     0.001 A 
ATOM     13  C   UNL A   1      32.261  29.099  24.324  1.00  0.00     0.047 A 
ATOM     14  C   UNL A   1      31.093  29.603  23.757  1.00  0.00     0.004 A 
BRANCH  10  15
ATOM     15  C   UNL A   1      32.575  25.829  22.409  1.00  0.00     0.027 C 
ATOM     16  C   UNL A   1      29.915  25.069  24.128  1.00  0.00     0.069 C 
ATOM     17  C   UNL A   1      30.956  24.171  23.554  1.00  0.00     0.071 C 
ATOM     18  N   UNL A   1      30.990  22.879  23.759  1.00  0.00    -0.169 NA
ATOM     19  C   UNL A   1      32.061  24.628  22.699  1.00  0.00     0.066 C 
ATOM     20  N   UNL A   1      32.109  22.410  23.063  1.00  0.00    -0.196 N 
ATOM     21  C   UNL A   1      32.761  23.387  22.292  1.00  0.00     0.280 C 
ATOM     22  O   UNL A   1      33.682  23.326  21.502  1.00  0.00    -0.267 OA
BRANCH  20  23
ATOM     23  C   UNL A   1      32.570  21.097  23.319  1.00  0.00     0.069 A 
ATOM     24  C   UNL A   1      33.450  20.836  24.383  1.00  0.00     0.030 A 
ATOM     25  C   UNL A   1      32.105  20.014  22.559  1.00  0.00     0.030 A 
ATOM     26  C   UNL A   1      33.855  19.531  24.679  1.00  0.00     0.023 A 
ATOM     27  C   UNL A   1      32.529  18.709  22.838  1.00  0.00     0.023 A 
ATOM     28  C   UNL A   1      33.399  18.474  23.900  1.00  0.00     0.041 A 
ATOM     29  Cl  UNL A   1      33.905  16.869  24.256  1.00  0.00    -0.084 Cl
ENDBRANCH  20  23
ENDBRANCH  10  15
ENDBRANCH   8   9
ENDBRANCH   7   8
ENDBRANCH   4   7
ENDBRANCH   2   3
ENDBRANCH   1   2
BRANCH   1  30
ATOM     30  C   UNL A   1      36.424  22.297  25.753  1.00  0.00     0.002 C 
BRANCH  30  31
ATOM     31  C   UNL A   1      37.168  21.598  24.616  1.00  0.00     0.002 C 
BRANCH  31  32
ATOM     32  C   UNL A   1      37.915  20.321  24.989  1.00  0.00     0.021 C 
BRANCH  32  33
ATOM     33  C   UNL A   1      39.046  20.500  25.990  1.00  0.00     0.116 C 
BRANCH  33  34
ATOM     34  N   UNL A   1      39.988  19.392  25.990  1.00  0.00    -0.352 N 
ATOM     35  C   UNL A   1      41.357  19.428  26.126  1.00  0.00     0.251 C 
ATOM     36  H   UNL A   1      39.595  18.497  25.878  1.00  0.00     0.163 HD
ATOM     37  O   UNL A   1      42.030  18.414  25.972  1.00  0.00    -0.269 OA
BRANCH  35  38
ATOM     38  C   UNL A   1      42.020  20.715  26.425  1.00  0.00     0.039 A 
ATOM     39  C   UNL A   1      42.369  21.560  25.369  1.00  0.00     0.014 A 
ATOM     40  C   UNL A   1      42.254  21.103  27.747  1.00  0.00     0.014 A 
ATOM     41  C   UNL A   1      42.887  22.827  25.643  1.00  0.00     0.010 A 
ATOM     42  C   UNL A   1      42.693  22.394  28.019  1.00  0.00     0.010 A 
ATOM     43  C   UNL A   1      43.015  23.269  26.971  1.00  0.00    -0.014 A 
BRANCH  43  44
ATOM     44  C   UNL A   1      43.485  24.643  27.283  1.00  0.00     0.031 A 
ATOM     45  C   UNL A   1      42.514  25.676  27.782  1.00  0.00     0.074 A 
ATOM     46  C   UNL A   1      44.766  24.984  27.039  1.00  0.00     0.049 A 
ATOM     47  N   UNL A   1      42.713  26.944  28.043  1.00  0.00    -0.248 NA
ATOM     48  C   UNL A   1      41.126  25.234  27.982  1.00  0.00     0.031 C 
ATOM     49  C   UNL A   1      45.787  24.090  26.493  1.00  0.00     0.029 A 
ATOM     50  N   UNL A   1      45.422  26.179  27.204  1.00  0.00    -0.354 N 
ATOM     51  C   UNL A   1      41.476  27.452  28.414  1.00  0.00     0.074 A 
ATOM     52  C   UNL A   1      40.522  26.371  28.291  1.00  0.00     0.031 C 
ATOM     53  C   UNL A   1      46.945  24.762  26.382  1.00  0.00     0.029 A 
ATOM     54  C   UNL A   1      46.738  26.141  26.815  1.00  0.00     0.049 A 
ATOM     55  H   UNL A   1      44.991  26.985  27.568  1.00  0.00     0.167 HD
ATOM     56  C   UNL A   1      41.167  28.700  28.839  1.00  0.00     0.037 A 
ATOM     57  C   UNL A   1      47.672  27.112  26.797  1.00  0.00     0.037 A 
ATOM     58  C   UNL A   1      42.126  29.762  28.988  1.00  0.00     0.049 A 
ATOM     59  C   UNL A   1      47.313  28.486  27.294  1.00  0.00     0.074 A 
ATOM     60  C   UNL A   1      41.935  31.034  29.497  1.00  0.00     0.029 A 
ATOM     61  N   UNL A   1      43.461  29.677  28.616  1.00  0.00    -0.354 N 
ATOM     62  N   UNL A   1      46.160  28.930  27.732  1.00  0.00    -0.248 NA
ATOM     63  C   UNL A   1      48.385  29.489  27.305  1.00  0.00     0.031 C 
ATOM     64  C   UNL A   1      43.137  31.739  29.378  1.00  0.00     0.029 A 
ATOM     65  C   UNL A   1      44.096  30.887  28.853  1.00  0.00     0.049 A 
ATOM     66  H   UNL A   1      43.893  28.877  28.239  1.00  0.00     0.167 HD
ATOM     67  C   UNL A   1      46.371  30.255  28.090  1.00  0.00     0.074 A 
ATOM     68  C   UNL A   1      47.768  30.537  27.833  1.00  0.00     0.031 C 
ATOM     69  C   UNL A   1      45.487  31.155  28.588  1.00  0.00     0.037 A 
BRANCH  56  70
ATOM     70  C   UNL A   1      39.728  28.985  29.166  1.00  0.00     0.064 A 
ATOM     71  C   UNL A   1      39.221  28.847  30.468  1.00  0.00     0.173 A 
ATOM     72  C   UNL A   1      38.846  29.419  28.164  1.00  0.00     0.173 A 
ATOM     73  F   UNL A   1      40.018  28.426  31.462  1.00  0.00    -0.203 F 
ATOM     74  C   UNL A   1      37.878  29.091  30.745  1.00  0.00     0.198 A 
ATOM     75  C   UNL A   1      37.512  29.695  28.452  1.00  0.00     0.198 A 
ATOM     76  F   UNL A   1      39.277  29.573  26.904  1.00  0.00    -0.203 F 
ATOM     77  F   UNL A   1      37.404  28.889  31.983  1.00  0.00    -0.200 F 
ATOM     78  C   UNL A   1      37.026  29.521  29.739  1.00  0.00     0.200 A 
ATOM     79  F   UNL A   1      36.694  30.125  27.481  1.00  0.00    -0.200 F 
ATOM     80  F   UNL A   1      35.735  29.757  30.008  1.00  0.00    -0.200 F 
ENDBRANCH  56  70
BRANCH  57  81
ATOM     81  C   UNL A   1      49.042  26.805  26.308  1.00  0.00     0.064 A 
ATOM     82  C   UNL A   1      50.033  26.337  27.181  1.00  0.00     0.173 A 
ATOM     83  C   UNL A   1      49.380  26.953  24.955  1.00  0.00     0.173 A 
ATOM     84  F   UNL A   1      49.764  26.197  28.487  1.00  0.00    -0.203 F 
ATOM     85  C   UNL A   1      51.314  26.038  26.721  1.00  0.00     0.198 A 
ATOM     86  C   UNL A   1      50.653  26.628  24.491  1.00  0.00     0.198 A 
ATOM     87  F   UNL A   1      48.465  27.392  24.078  1.00  0.00    -0.203 F 
ATOM     88  F   UNL A   1      52.254  25.626  27.583  1.00  0.00    -0.200 F 
ATOM     89  C   UNL A   1      51.621  26.176  25.375  1.00  0.00     0.200 A 
ATOM     90  F   UNL A   1      50.940  26.746  23.187  1.00  0.00    -0.200 F 
ATOM     91  F   UNL A   1      52.849  25.878  24.932  1.00  0.00    -0.200 F 
ENDBRANCH  57  81
BRANCH  69  92
ATOM     92  C   UNL A   1      46.007  32.527  28.911  1.00  0.00     0.064 A 
ATOM     93  C   UNL A   1      45.951  33.574  27.980  1.00  0.00     0.173 A 
ATOM     94  C   UNL A   1      46.526  32.807  30.184  1.00  0.00     0.173 A 
ATOM     95  F   UNL A   1      45.478  33.356  26.744  1.00  0.00    -0.203 F 
ATOM     96  C   UNL A   1      46.417  34.846  28.305  1.00  0.00     0.198 A 
ATOM     97  C   UNL A   1      46.960  34.087  30.516  1.00  0.00     0.198 A 
ATOM     98  F   UNL A   1      46.595  31.842  31.114  1.00  0.00    -0.203 F 
ATOM     99  F   UNL A   1      46.396  35.820  27.385  1.00  0.00    -0.200 F 
ATOM    100  C   UNL A   1      46.912  35.103  29.574  1.00  0.00     0.200 A 
ATOM    101  F   UNL A   1      47.423  34.337  31.749  1.00  0.00    -0.200 F 
ATOM    102  F   UNL A   1      47.349  36.331  29.889  1.00  0.00    -0.200 F 
ENDBRANCH  69  92
ENDBRANCH  43  44
ENDBRANCH  35  38
ENDBRANCH  33  34
ENDBRANCH  32  33
ENDBRANCH  31  32
ENDBRANCH  30  31
ENDBRANCH   1  30
TORSDOF 17
ENDMDL
