MODEL 1
REMARK VINA RESULT:     -11.1      0.000      0.000
REMARK SMILES C[C@](NC(=O)NCCC[NH3+])(C(=O)NCCCCCCNC(=O)c1ccc(-c2c3nc(c(-c4c(F)c(F)c(F)c(F)c4F)c4ccc([nH]4)c(-c4c(F)c(F)c(F)c(F)c4F)c4nc(c(-c5c(F)c(F)c(F)c(F)c5F)c5ccc2[nH]5)C=C4)C=C3)cc1)C(F)(F)F
REMARK SMILES IDX 15 1 14 2 13 3 11 4 12 5 2 7 1 8 86 9 87 10 88 11 89 12 3 13
REMARK SMILES IDX 4 14 5 16 6 17 7 19 8 20 9 21 10 22 16 26 17 27 18 28 19 29
REMARK SMILES IDX 20 30 21 31 22 33 23 34 24 35 85 36 25 37 84 38 26 39 27 40
REMARK SMILES IDX 28 41 78 42 29 43 83 44 77 45 79 46 30 47 82 48 76 49 75 50
REMARK SMILES IDX 31 52 63 53 43 54 62 55 44 56 47 57 61 58 80 59 45 60 46 61
REMARK SMILES IDX 60 63 81 64 48 65 32 66 33 67 41 68 34 69 35 70 39 71 42 72
REMARK SMILES IDX 36 73 37 74 40 75 38 76 64 77 65 78 73 79 66 80 67 81 71 82
REMARK SMILES IDX 74 83 68 84 69 85 72 86 70 87 49 88 50 89 58 90 51 91 52 92
REMARK SMILES IDX 56 93 59 94 53 95 54 96 57 97 55 98
REMARK H PARENT 13 6 3 15 6 18 10 23 10 24 10 25 20 32 79 51 47 62
REMARK Flexibility Score: inf
ROOT
ATOM      1  C   UNL A   1      33.655  28.980  27.267  1.00  0.00     0.021 C 
ENDROOT
BRANCH   1   2
ATOM      2  C   UNL A   1      33.139  27.640  26.748  1.00  0.00     0.116 C 
BRANCH   2   3
ATOM      3  N   UNL A   1      33.480  27.501  25.352  1.00  0.00    -0.354 N 
ATOM      4  C   UNL A   1      33.385  26.501  24.451  1.00  0.00     0.255 C 
ATOM      5  O   UNL A   1      33.617  26.868  23.291  1.00  0.00    -0.272 OA
ATOM      6  H   UNL A   1      33.869  28.322  24.972  1.00  0.00     0.163 HD
BRANCH   4   7
ATOM      7  C   UNL A   1      32.723  25.141  24.749  1.00  0.00     0.213 C 
ATOM      8  C   UNL A   1      32.166  24.790  23.343  1.00  0.00     0.056 C 
BRANCH   7   9
ATOM      9  C   UNL A   1      33.928  24.321  25.306  1.00  0.00     0.420 C 
ATOM     10  F   UNL A   1      35.075  25.036  25.414  1.00  0.00    -0.168 F 
ATOM     11  F   UNL A   1      33.707  23.920  26.583  1.00  0.00    -0.168 F 
ATOM     12  F   UNL A   1      34.186  23.210  24.585  1.00  0.00    -0.168 F 
ENDBRANCH   7   9
BRANCH   7  13
ATOM     13  N   UNL A   1      31.590  25.108  25.712  1.00  0.00    -0.316 N 
ATOM     14  C   UNL A   1      30.342  25.607  25.663  1.00  0.00     0.315 C 
ATOM     15  H   UNL A   1      31.793  24.625  26.547  1.00  0.00     0.166 HD
ATOM     16  O   UNL A   1      29.590  25.308  26.595  1.00  0.00    -0.249 OA
ATOM     17  N   UNL A   1      29.844  26.390  24.693  1.00  0.00    -0.338 N 
ATOM     18  H   UNL A   1      28.878  26.535  24.821  1.00  0.00     0.165 HD
BRANCH  17  19
ATOM     19  C   UNL A   1      30.323  27.091  23.500  1.00  0.00     0.123 C 
BRANCH  19  20
ATOM     20  C   UNL A   1      30.416  28.614  23.610  1.00  0.00     0.082 C 
BRANCH  20  21
ATOM     21  C   UNL A   1      29.885  29.400  22.424  1.00  0.00     0.260 C 
BRANCH  21  22
ATOM     22  N   UNL A   1      30.962  29.971  21.625  1.00  0.00    -0.358 N 
ATOM     23  H   UNL A   1      30.889  29.633  20.666  1.00  0.00     0.344 HD
ATOM     24  H   UNL A   1      31.861  29.692  22.016  1.00  0.00     0.344 HD
ATOM     25  H   UNL A   1      30.888  30.988  21.633  1.00  0.00     0.344 HD
ENDBRANCH  21  22
ENDBRANCH  20  21
ENDBRANCH  19  20
ENDBRANCH  17  19
ENDBRANCH   7  13
ENDBRANCH   4   7
ENDBRANCH   2   3
ENDBRANCH   1   2
BRANCH   1  26
ATOM     26  C   UNL A   1      33.265  30.181  26.387  1.00  0.00     0.002 C 
BRANCH  26  27
ATOM     27  C   UNL A   1      31.780  30.564  26.424  1.00  0.00     0.002 C 
BRANCH  27  28
ATOM     28  C   UNL A   1      31.510  32.025  26.775  1.00  0.00     0.021 C 
BRANCH  28  29
ATOM     29  C   UNL A   1      32.718  32.759  27.336  1.00  0.00     0.116 C 
BRANCH  29  30
ATOM     30  N   UNL A   1      32.427  34.155  27.615  1.00  0.00    -0.352 N 
ATOM     31  C   UNL A   1      32.969  34.970  28.576  1.00  0.00     0.251 C 
ATOM     32  H   UNL A   1      31.747  34.572  27.036  1.00  0.00     0.163 HD
ATOM     33  O   UNL A   1      32.483  36.066  28.814  1.00  0.00    -0.269 OA
BRANCH  31  34
ATOM     34  C   UNL A   1      34.136  34.490  29.343  1.00  0.00     0.039 A 
ATOM     35  C   UNL A   1      33.926  33.922  30.600  1.00  0.00     0.014 A 
ATOM     36  C   UNL A   1      35.424  34.571  28.805  1.00  0.00     0.014 A 
ATOM     37  C   UNL A   1      35.006  33.377  31.294  1.00  0.00     0.010 A 
ATOM     38  C   UNL A   1      36.484  33.952  29.459  1.00  0.00     0.010 A 
ATOM     39  C   UNL A   1      36.285  33.352  30.710  1.00  0.00    -0.014 A 
BRANCH  39  40
ATOM     40  C   UNL A   1      37.420  32.686  31.392  1.00  0.00     0.031 A 
ATOM     41  C   UNL A   1      38.107  31.514  30.755  1.00  0.00     0.074 A 
ATOM     42  C   UNL A   1      37.788  33.102  32.620  1.00  0.00     0.049 A 
ATOM     43  N   UNL A   1      39.086  30.776  31.216  1.00  0.00    -0.248 NA
ATOM     44  C   UNL A   1      37.611  31.098  29.434  1.00  0.00     0.031 C 
ATOM     45  C   UNL A   1      37.157  34.190  33.366  1.00  0.00     0.029 A 
ATOM     46  N   UNL A   1      38.774  32.649  33.459  1.00  0.00    -0.354 N 
ATOM     47  C   UNL A   1      39.317  29.809  30.247  1.00  0.00     0.074 A 
ATOM     48  C   UNL A   1      38.332  30.012  29.205  1.00  0.00     0.031 C 
ATOM     49  C   UNL A   1      37.784  34.337  34.543  1.00  0.00     0.029 A 
ATOM     50  C   UNL A   1      38.831  33.326  34.653  1.00  0.00     0.049 A 
ATOM     51  H   UNL A   1      39.383  31.910  33.229  1.00  0.00     0.167 HD
ATOM     52  C   UNL A   1      40.280  28.858  30.215  1.00  0.00     0.037 A 
ATOM     53  C   UNL A   1      39.629  33.143  35.722  1.00  0.00     0.037 A 
ATOM     54  C   UNL A   1      41.256  28.664  31.257  1.00  0.00     0.049 A 
ATOM     55  C   UNL A   1      40.677  32.066  35.677  1.00  0.00     0.074 A 
ATOM     56  C   UNL A   1      42.307  27.767  31.299  1.00  0.00     0.029 A 
ATOM     57  N   UNL A   1      41.288  29.373  32.451  1.00  0.00    -0.354 N 
ATOM     58  N   UNL A   1      40.942  31.210  34.721  1.00  0.00    -0.248 NA
ATOM     59  C   UNL A   1      41.540  31.935  36.858  1.00  0.00     0.031 C 
ATOM     60  C   UNL A   1      42.937  27.888  32.544  1.00  0.00     0.029 A 
ATOM     61  C   UNL A   1      42.319  28.907  33.252  1.00  0.00     0.049 A 
ATOM     62  H   UNL A   1      40.668  30.099  32.693  1.00  0.00     0.167 HD
ATOM     63  C   UNL A   1      42.011  30.449  35.175  1.00  0.00     0.074 A 
ATOM     64  C   UNL A   1      42.359  30.962  36.484  1.00  0.00     0.031 C 
ATOM     65  C   UNL A   1      42.645  29.418  34.561  1.00  0.00     0.037 A 
BRANCH  52  66
ATOM     66  C   UNL A   1      40.313  27.951  29.017  1.00  0.00     0.064 A 
ATOM     67  C   UNL A   1      41.047  28.274  27.864  1.00  0.00     0.173 A 
ATOM     68  C   UNL A   1      39.604  26.740  29.019  1.00  0.00     0.173 A 
ATOM     69  F   UNL A   1      41.737  29.424  27.804  1.00  0.00    -0.203 F 
ATOM     70  C   UNL A   1      41.031  27.446  26.745  1.00  0.00     0.198 A 
ATOM     71  C   UNL A   1      39.620  25.896  27.912  1.00  0.00     0.198 A 
ATOM     72  F   UNL A   1      38.890  26.374  30.095  1.00  0.00    -0.203 F 
ATOM     73  F   UNL A   1      41.681  27.814  25.633  1.00  0.00    -0.200 F 
ATOM     74  C   UNL A   1      40.322  26.255  26.771  1.00  0.00     0.200 A 
ATOM     75  F   UNL A   1      38.948  24.736  27.944  1.00  0.00    -0.200 F 
ATOM     76  F   UNL A   1      40.306  25.459  25.693  1.00  0.00    -0.200 F 
ENDBRANCH  52  66
BRANCH  53  77
ATOM     77  C   UNL A   1      39.466  34.017  36.913  1.00  0.00     0.064 A 
ATOM     78  C   UNL A   1      38.722  33.596  38.024  1.00  0.00     0.173 A 
ATOM     79  C   UNL A   1      40.077  35.278  36.977  1.00  0.00     0.173 A 
ATOM     80  F   UNL A   1      38.104  32.405  38.003  1.00  0.00    -0.203 F 
ATOM     81  C   UNL A   1      38.588  34.407  39.149  1.00  0.00     0.198 A 
ATOM     82  C   UNL A   1      39.967  36.075  38.114  1.00  0.00     0.198 A 
ATOM     83  F   UNL A   1      40.807  35.724  35.944  1.00  0.00    -0.203 F 
ATOM     84  F   UNL A   1      37.843  33.994  40.183  1.00  0.00    -0.200 F 
ATOM     85  C   UNL A   1      39.218  35.641  39.197  1.00  0.00     0.200 A 
ATOM     86  F   UNL A   1      40.595  37.258  38.163  1.00  0.00    -0.200 F 
ATOM     87  F   UNL A   1      39.102  36.414  40.285  1.00  0.00    -0.200 F 
ENDBRANCH  53  77
BRANCH  65  88
ATOM     88  C   UNL A   1      43.790  28.781  35.297  1.00  0.00     0.064 A 
ATOM     89  C   UNL A   1      45.108  29.237  35.144  1.00  0.00     0.173 A 
ATOM     90  C   UNL A   1      43.562  27.727  36.195  1.00  0.00     0.173 A 
ATOM     91  F   UNL A   1      45.385  30.231  34.287  1.00  0.00    -0.203 F 
ATOM     92  C   UNL A   1      46.158  28.642  35.841  1.00  0.00     0.198 A 
ATOM     93  C   UNL A   1      44.608  27.158  36.916  1.00  0.00     0.198 A 
ATOM     94  F   UNL A   1      42.320  27.257  36.384  1.00  0.00    -0.203 F 
ATOM     95  F   UNL A   1      47.416  29.058  35.638  1.00  0.00    -0.200 F 
ATOM     96  C   UNL A   1      45.906  27.610  36.732  1.00  0.00     0.200 A 
ATOM     97  F   UNL A   1      44.360  26.172  37.788  1.00  0.00    -0.200 F 
ATOM     98  F   UNL A   1      46.915  27.045  37.408  1.00  0.00    -0.200 F 
ENDBRANCH  65  88
ENDBRANCH  39  40
ENDBRANCH  31  34
ENDBRANCH  29  30
ENDBRANCH  28  29
ENDBRANCH  27  28
ENDBRANCH  26  27
ENDBRANCH   1  26
TORSDOF 19
ENDMDL
MODEL 2
REMARK VINA RESULT:     -11.1      1.361      2.885
REMARK SMILES C[C@](NC(=O)NCCC[NH3+])(C(=O)NCCCCCCNC(=O)c1ccc(-c2c3nc(c(-c4c(F)c(F)c(F)c(F)c4F)c4ccc([nH]4)c(-c4c(F)c(F)c(F)c(F)c4F)c4nc(c(-c5c(F)c(F)c(F)c(F)c5F)c5ccc2[nH]5)C=C4)C=C3)cc1)C(F)(F)F
REMARK SMILES IDX 15 1 14 2 13 3 11 4 12 5 2 7 1 8 86 9 87 10 88 11 89 12 3 13
REMARK SMILES IDX 4 14 5 16 6 17 7 19 8 20 9 21 10 22 16 26 17 27 18 28 19 29
REMARK SMILES IDX 20 30 21 31 22 33 23 34 24 35 85 36 25 37 84 38 26 39 27 40
REMARK SMILES IDX 28 41 78 42 29 43 83 44 77 45 79 46 30 47 82 48 76 49 75 50
REMARK SMILES IDX 31 52 63 53 43 54 62 55 44 56 47 57 61 58 80 59 45 60 46 61
REMARK SMILES IDX 60 63 81 64 48 65 32 66 33 67 41 68 34 69 35 70 39 71 42 72
REMARK SMILES IDX 36 73 37 74 40 75 38 76 64 77 65 78 73 79 66 80 67 81 71 82
REMARK SMILES IDX 74 83 68 84 69 85 72 86 70 87 49 88 50 89 58 90 51 91 52 92
REMARK SMILES IDX 56 93 59 94 53 95 54 96 57 97 55 98
REMARK H PARENT 13 6 3 15 6 18 10 23 10 24 10 25 20 32 79 51 47 62
REMARK Flexibility Score: inf
ROOT
ATOM      1  C   UNL A   1      33.668  28.725  26.783  1.00  0.00     0.021 C 
ENDROOT
BRANCH   1   2
ATOM      2  C   UNL A   1      33.637  27.667  25.684  1.00  0.00     0.116 C 
BRANCH   2   3
ATOM      3  N   UNL A   1      33.227  26.401  26.245  1.00  0.00    -0.354 N 
ATOM      4  C   UNL A   1      32.358  25.438  25.870  1.00  0.00     0.255 C 
ATOM      5  O   UNL A   1      32.452  24.408  26.551  1.00  0.00    -0.272 OA
ATOM      6  H   UNL A   1      33.684  26.194  27.092  1.00  0.00     0.163 HD
BRANCH   4   7
ATOM      7  C   UNL A   1      31.581  25.458  24.539  1.00  0.00     0.213 C 
ATOM      8  C   UNL A   1      31.323  23.939  24.348  1.00  0.00     0.056 C 
BRANCH   7   9
ATOM      9  C   UNL A   1      30.378  26.387  24.890  1.00  0.00     0.420 C 
ATOM     10  F   UNL A   1      29.214  26.025  24.297  1.00  0.00    -0.168 F 
ATOM     11  F   UNL A   1      30.071  26.323  26.210  1.00  0.00    -0.168 F 
ATOM     12  F   UNL A   1      30.616  27.684  24.605  1.00  0.00    -0.168 F 
ENDBRANCH   7   9
BRANCH   7  13
ATOM     13  N   UNL A   1      32.281  25.960  23.326  1.00  0.00    -0.316 N 
ATOM     14  C   UNL A   1      33.382  25.544  22.676  1.00  0.00     0.315 C 
ATOM     15  H   UNL A   1      31.853  26.749  22.919  1.00  0.00     0.166 HD
ATOM     16  O   UNL A   1      33.647  26.115  21.614  1.00  0.00    -0.249 OA
ATOM     17  N   UNL A   1      34.209  24.563  23.073  1.00  0.00    -0.338 N 
ATOM     18  H   UNL A   1      34.879  24.366  22.378  1.00  0.00     0.165 HD
BRANCH  17  19
ATOM     19  C   UNL A   1      34.401  23.702  24.242  1.00  0.00     0.123 C 
BRANCH  19  20
ATOM     20  C   UNL A   1      35.838  23.256  24.515  1.00  0.00     0.082 C 
BRANCH  20  21
ATOM     21  C   UNL A   1      36.060  22.477  25.801  1.00  0.00     0.260 C 
BRANCH  21  22
ATOM     22  N   UNL A   1      35.193  22.944  26.875  1.00  0.00    -0.358 N 
ATOM     23  H   UNL A   1      35.754  23.417  27.583  1.00  0.00     0.344 HD
ATOM     24  H   UNL A   1      34.713  22.148  27.296  1.00  0.00     0.344 HD
ATOM     25  H   UNL A   1      34.504  23.594  26.497  1.00  0.00     0.344 HD
ENDBRANCH  21  22
ENDBRANCH  20  21
ENDBRANCH  19  20
ENDBRANCH  17  19
ENDBRANCH   7  13
ENDBRANCH   4   7
ENDBRANCH   2   3
ENDBRANCH   1   2
BRANCH   1  26
ATOM     26  C   UNL A   1      32.297  29.360  27.075  1.00  0.00     0.002 C 
BRANCH  26  27
ATOM     27  C   UNL A   1      31.864  30.459  26.097  1.00  0.00     0.002 C 
BRANCH  27  28
ATOM     28  C   UNL A   1      31.543  31.802  26.751  1.00  0.00     0.021 C 
BRANCH  28  29
ATOM     29  C   UNL A   1      32.764  32.543  27.271  1.00  0.00     0.116 C 
BRANCH  29  30
ATOM     30  N   UNL A   1      32.477  33.940  27.550  1.00  0.00    -0.352 N 
ATOM     31  C   UNL A   1      33.020  34.753  28.513  1.00  0.00     0.251 C 
ATOM     32  H   UNL A   1      31.801  34.359  26.970  1.00  0.00     0.163 HD
ATOM     33  O   UNL A   1      32.537  35.850  28.750  1.00  0.00    -0.269 OA
BRANCH  31  34
ATOM     34  C   UNL A   1      34.184  34.268  29.282  1.00  0.00     0.039 A 
ATOM     35  C   UNL A   1      33.961  33.585  30.477  1.00  0.00     0.014 A 
ATOM     36  C   UNL A   1      35.484  34.460  28.803  1.00  0.00     0.014 A 
ATOM     37  C   UNL A   1      35.044  33.039  31.166  1.00  0.00     0.010 A 
ATOM     38  C   UNL A   1      36.551  33.841  29.444  1.00  0.00     0.010 A 
ATOM     39  C   UNL A   1      36.342  33.128  30.632  1.00  0.00    -0.014 A 
BRANCH  39  40
ATOM     40  C   UNL A   1      37.487  32.464  31.301  1.00  0.00     0.031 A 
ATOM     41  C   UNL A   1      38.177  31.302  30.648  1.00  0.00     0.074 A 
ATOM     42  C   UNL A   1      37.860  32.872  32.529  1.00  0.00     0.049 A 
ATOM     43  N   UNL A   1      39.164  30.567  31.096  1.00  0.00    -0.248 NA
ATOM     44  C   UNL A   1      37.675  30.894  29.328  1.00  0.00     0.031 C 
ATOM     45  C   UNL A   1      37.227  33.949  33.289  1.00  0.00     0.029 A 
ATOM     46  N   UNL A   1      38.855  32.419  33.358  1.00  0.00    -0.354 N 
ATOM     47  C   UNL A   1      39.396  29.611  30.117  1.00  0.00     0.074 A 
ATOM     48  C   UNL A   1      38.402  29.815  29.084  1.00  0.00     0.031 C 
ATOM     49  C   UNL A   1      37.861  34.090  34.463  1.00  0.00     0.029 A 
ATOM     50  C   UNL A   1      38.916  33.086  34.556  1.00  0.00     0.049 A 
ATOM     51  H   UNL A   1      39.468  31.686  33.117  1.00  0.00     0.167 HD
ATOM     52  C   UNL A   1      40.365  28.667  30.070  1.00  0.00     0.037 A 
ATOM     53  C   UNL A   1      39.723  32.900  35.618  1.00  0.00     0.037 A 
ATOM     54  C   UNL A   1      41.350  28.471  31.103  1.00  0.00     0.049 A 
ATOM     55  C   UNL A   1      40.778  31.831  35.557  1.00  0.00     0.074 A 
ATOM     56  C   UNL A   1      42.408  27.581  31.130  1.00  0.00     0.029 A 
ATOM     57  N   UNL A   1      41.385  29.170  32.303  1.00  0.00    -0.354 N 
ATOM     58  N   UNL A   1      41.043  30.985  34.591  1.00  0.00    -0.248 NA
ATOM     59  C   UNL A   1      41.651  31.696  36.730  1.00  0.00     0.031 C 
ATOM     60  C   UNL A   1      43.045  27.696  32.371  1.00  0.00     0.029 A 
ATOM     61  C   UNL A   1      42.425  28.705  33.093  1.00  0.00     0.049 A 
ATOM     62  H   UNL A   1      40.762  29.889  32.556  1.00  0.00     0.167 HD
ATOM     63  C   UNL A   1      42.120  30.227  35.031  1.00  0.00     0.074 A 
ATOM     64  C   UNL A   1      42.474  30.732  36.342  1.00  0.00     0.031 C 
ATOM     65  C   UNL A   1      42.757  29.206  34.404  1.00  0.00     0.037 A 
BRANCH  52  66
ATOM     66  C   UNL A   1      40.396  27.770  28.864  1.00  0.00     0.064 A 
ATOM     67  C   UNL A   1      41.166  28.081  27.731  1.00  0.00     0.173 A 
ATOM     68  C   UNL A   1      39.649  26.582  28.838  1.00  0.00     0.173 A 
ATOM     69  F   UNL A   1      41.892  29.209  27.697  1.00  0.00    -0.203 F 
ATOM     70  C   UNL A   1      41.148  27.264  26.603  1.00  0.00     0.198 A 
ATOM     71  C   UNL A   1      39.663  25.749  27.723  1.00  0.00     0.198 A 
ATOM     72  F   UNL A   1      38.901  26.230  29.895  1.00  0.00    -0.203 F 
ATOM     73  F   UNL A   1      41.834  27.622  25.509  1.00  0.00    -0.200 F 
ATOM     74  C   UNL A   1      40.402  26.097  26.602  1.00  0.00     0.200 A 
ATOM     75  F   UNL A   1      38.954  24.611  27.729  1.00  0.00    -0.200 F 
ATOM     76  F   UNL A   1      40.384  25.312  25.516  1.00  0.00    -0.200 F 
ENDBRANCH  52  66
BRANCH  53  77
ATOM     77  C   UNL A   1      39.562  33.762  36.818  1.00  0.00     0.064 A 
ATOM     78  C   UNL A   1      40.187  35.014  36.900  1.00  0.00     0.173 A 
ATOM     79  C   UNL A   1      38.754  33.363  37.894  1.00  0.00     0.173 A 
ATOM     80  F   UNL A   1      40.983  35.430  35.905  1.00  0.00    -0.203 F 
ATOM     81  C   UNL A   1      40.018  35.830  38.017  1.00  0.00     0.198 A 
ATOM     82  C   UNL A   1      38.563  34.193  38.996  1.00  0.00     0.198 A 
ATOM     83  F   UNL A   1      38.128  32.178  37.861  1.00  0.00    -0.203 F 
ATOM     84  F   UNL A   1      40.654  37.007  38.084  1.00  0.00    -0.200 F 
ATOM     85  C   UNL A   1      39.199  35.424  39.060  1.00  0.00     0.200 A 
ATOM     86  F   UNL A   1      37.754  33.805  39.992  1.00  0.00    -0.200 F 
ATOM     87  F   UNL A   1      39.024  36.216  40.125  1.00  0.00    -0.200 F 
ENDBRANCH  53  77
BRANCH  65  88
ATOM     88  C   UNL A   1      43.912  28.572  35.126  1.00  0.00     0.064 A 
ATOM     89  C   UNL A   1      43.737  27.455  35.957  1.00  0.00     0.173 A 
ATOM     90  C   UNL A   1      45.216  29.063  34.956  1.00  0.00     0.173 A 
ATOM     91  F   UNL A   1      42.510  26.954  36.168  1.00  0.00    -0.203 F 
ATOM     92  C   UNL A   1      44.819  26.872  36.613  1.00  0.00     0.198 A 
ATOM     93  C   UNL A   1      46.300  28.456  35.584  1.00  0.00     0.198 A 
ATOM     94  F   UNL A   1      45.440  30.125  34.167  1.00  0.00    -0.203 F 
ATOM     95  F   UNL A   1      44.621  25.840  37.444  1.00  0.00    -0.200 F 
ATOM     96  C   UNL A   1      46.100  27.368  36.419  1.00  0.00     0.200 A 
ATOM     97  F   UNL A   1      47.538  28.927  35.383  1.00  0.00    -0.200 F 
ATOM     98  F   UNL A   1      47.141  26.800  37.042  1.00  0.00    -0.200 F 
ENDBRANCH  65  88
ENDBRANCH  39  40
ENDBRANCH  31  34
ENDBRANCH  29  30
ENDBRANCH  28  29
ENDBRANCH  27  28
ENDBRANCH  26  27
ENDBRANCH   1  26
TORSDOF 19
ENDMDL
MODEL 3
REMARK VINA RESULT:     -11.1      5.657     10.925
REMARK SMILES C[C@](NC(=O)NCCC[NH3+])(C(=O)NCCCCCCNC(=O)c1ccc(-c2c3nc(c(-c4c(F)c(F)c(F)c(F)c4F)c4ccc([nH]4)c(-c4c(F)c(F)c(F)c(F)c4F)c4nc(c(-c5c(F)c(F)c(F)c(F)c5F)c5ccc2[nH]5)C=C4)C=C3)cc1)C(F)(F)F
REMARK SMILES IDX 15 1 14 2 13 3 11 4 12 5 2 7 1 8 86 9 87 10 88 11 89 12 3 13
REMARK SMILES IDX 4 14 5 16 6 17 7 19 8 20 9 21 10 22 16 26 17 27 18 28 19 29
REMARK SMILES IDX 20 30 21 31 22 33 23 34 24 35 85 36 25 37 84 38 26 39 27 40
REMARK SMILES IDX 28 41 78 42 29 43 83 44 77 45 79 46 30 47 82 48 76 49 75 50
REMARK SMILES IDX 31 52 63 53 43 54 62 55 44 56 47 57 61 58 80 59 45 60 46 61
REMARK SMILES IDX 60 63 81 64 48 65 32 66 33 67 41 68 34 69 35 70 39 71 42 72
REMARK SMILES IDX 36 73 37 74 40 75 38 76 64 77 65 78 73 79 66 80 67 81 71 82
REMARK SMILES IDX 74 83 68 84 69 85 72 86 70 87 49 88 50 89 58 90 51 91 52 92
REMARK SMILES IDX 56 93 59 94 53 95 54 96 57 97 55 98
REMARK H PARENT 13 6 3 15 6 18 10 23 10 24 10 25 20 32 79 51 47 62
REMARK Flexibility Score: inf
ROOT
ATOM      1  C   UNL A   1      36.572  23.102  24.391  1.00  0.00     0.021 C 
ENDROOT
BRANCH   1   2
ATOM      2  C   UNL A   1      35.377  22.907  23.462  1.00  0.00     0.116 C 
BRANCH   2   3
ATOM      3  N   UNL A   1      34.216  22.544  24.239  1.00  0.00    -0.354 N 
ATOM      4  C   UNL A   1      33.026  23.130  24.492  1.00  0.00     0.255 C 
ATOM      5  O   UNL A   1      32.226  22.377  25.064  1.00  0.00    -0.272 OA
ATOM      6  H   UNL A   1      34.314  21.672  24.685  1.00  0.00     0.163 HD
BRANCH   4   7
ATOM      7  C   UNL A   1      32.568  24.451  23.843  1.00  0.00     0.213 C 
ATOM      8  C   UNL A   1      31.028  24.260  23.886  1.00  0.00     0.056 C 
BRANCH   7   9
ATOM      9  C   UNL A   1      33.221  25.507  24.787  1.00  0.00     0.420 C 
ATOM     10  F   UNL A   1      33.920  24.966  25.816  1.00  0.00    -0.168 F 
ATOM     11  F   UNL A   1      34.163  26.237  24.139  1.00  0.00    -0.168 F 
ATOM     12  F   UNL A   1      32.327  26.382  25.295  1.00  0.00    -0.168 F 
ENDBRANCH   7   9
BRANCH   7  13
ATOM     13  N   UNL A   1      32.959  24.712  22.432  1.00  0.00    -0.316 N 
ATOM     14  C   UNL A   1      32.621  25.680  21.561  1.00  0.00     0.315 C 
ATOM     15  H   UNL A   1      33.587  24.048  22.064  1.00  0.00     0.166 HD
ATOM     16  O   UNL A   1      33.213  25.681  20.478  1.00  0.00    -0.249 OA
ATOM     17  N   UNL A   1      31.708  26.643  21.767  1.00  0.00    -0.338 N 
ATOM     18  H   UNL A   1      31.717  27.298  21.032  1.00  0.00     0.165 HD
BRANCH  17  19
ATOM     19  C   UNL A   1      30.703  26.998  22.771  1.00  0.00     0.123 C 
BRANCH  19  20
ATOM     20  C   UNL A   1      30.753  28.437  23.288  1.00  0.00     0.082 C 
BRANCH  20  21
ATOM     21  C   UNL A   1      29.963  29.460  22.490  1.00  0.00     0.260 C 
BRANCH  21  22
ATOM     22  N   UNL A   1      30.785  30.109  21.476  1.00  0.00    -0.358 N 
ATOM     23  H   UNL A   1      31.248  29.400  20.909  1.00  0.00     0.344 HD
ATOM     24  H   UNL A   1      31.487  30.693  21.929  1.00  0.00     0.344 HD
ATOM     25  H   UNL A   1      30.194  30.688  20.880  1.00  0.00     0.344 HD
ENDBRANCH  21  22
ENDBRANCH  20  21
ENDBRANCH  19  20
ENDBRANCH  17  19
ENDBRANCH   7  13
ENDBRANCH   4   7
ENDBRANCH   2   3
ENDBRANCH   1   2
BRANCH   1  26
ATOM     26  C   UNL A   1      36.664  22.054  25.515  1.00  0.00     0.002 C 
BRANCH  26  27
ATOM     27  C   UNL A   1      36.719  20.595  25.045  1.00  0.00     0.002 C 
BRANCH  27  28
ATOM     28  C   UNL A   1      38.120  20.090  24.705  1.00  0.00     0.021 C 
BRANCH  28  29
ATOM     29  C   UNL A   1      39.149  20.341  25.796  1.00  0.00     0.116 C 
BRANCH  29  30
ATOM     30  N   UNL A   1      40.093  19.243  25.919  1.00  0.00    -0.352 N 
ATOM     31  C   UNL A   1      41.451  19.295  26.104  1.00  0.00     0.251 C 
ATOM     32  H   UNL A   1      39.705  18.340  25.860  1.00  0.00     0.163 HD
ATOM     33  O   UNL A   1      42.136  18.289  25.993  1.00  0.00    -0.269 OA
BRANCH  31  34
ATOM     34  C   UNL A   1      42.080  20.596  26.412  1.00  0.00     0.039 A 
ATOM     35  C   UNL A   1      42.468  21.420  25.356  1.00  0.00     0.014 A 
ATOM     36  C   UNL A   1      42.252  21.008  27.737  1.00  0.00     0.014 A 
ATOM     37  C   UNL A   1      42.974  22.690  25.630  1.00  0.00     0.010 A 
ATOM     38  C   UNL A   1      42.675  22.305  28.005  1.00  0.00     0.010 A 
ATOM     39  C   UNL A   1      43.043  23.156  26.954  1.00  0.00    -0.014 A 
BRANCH  39  40
ATOM     40  C   UNL A   1      43.483  24.541  27.252  1.00  0.00     0.031 A 
ATOM     41  C   UNL A   1      42.505  25.552  27.775  1.00  0.00     0.074 A 
ATOM     42  C   UNL A   1      44.754  24.900  26.988  1.00  0.00     0.049 A 
ATOM     43  N   UNL A   1      42.692  26.819  28.051  1.00  0.00    -0.248 NA
ATOM     44  C   UNL A   1      41.127  25.086  27.991  1.00  0.00     0.031 C 
ATOM     45  C   UNL A   1      45.778  24.023  26.423  1.00  0.00     0.029 A 
ATOM     46  N   UNL A   1      45.396  26.102  27.149  1.00  0.00    -0.354 N 
ATOM     47  C   UNL A   1      41.457  27.298  28.467  1.00  0.00     0.074 A 
ATOM     48  C   UNL A   1      40.516  26.207  28.342  1.00  0.00     0.031 C 
ATOM     49  C   UNL A   1      46.926  24.707  26.304  1.00  0.00     0.029 A 
ATOM     50  C   UNL A   1      46.707  26.082  26.743  1.00  0.00     0.049 A 
ATOM     51  H   UNL A   1      44.959  26.902  27.520  1.00  0.00     0.167 HD
ATOM     52  C   UNL A   1      41.144  28.529  28.938  1.00  0.00     0.037 A 
ATOM     53  C   UNL A   1      47.627  27.064  26.715  1.00  0.00     0.037 A 
ATOM     54  C   UNL A   1      42.089  29.609  29.060  1.00  0.00     0.049 A 
ATOM     55  C   UNL A   1      47.253  28.431  27.220  1.00  0.00     0.074 A 
ATOM     56  C   UNL A   1      41.889  30.877  29.574  1.00  0.00     0.029 A 
ATOM     57  N   UNL A   1      43.413  29.552  28.644  1.00  0.00    -0.354 N 
ATOM     58  N   UNL A   1      46.105  28.853  27.690  1.00  0.00    -0.248 NA
ATOM     59  C   UNL A   1      48.306  29.454  27.197  1.00  0.00     0.031 C 
ATOM     60  C   UNL A   1      43.072  31.608  29.413  1.00  0.00     0.029 A 
ATOM     61  C   UNL A   1      44.031  30.774  28.857  1.00  0.00     0.049 A 
ATOM     62  H   UNL A   1      43.848  28.759  28.254  1.00  0.00     0.167 HD
ATOM     63  C   UNL A   1      46.298  30.184  28.033  1.00  0.00     0.074 A 
ATOM     64  C   UNL A   1      47.683  30.492  27.738  1.00  0.00     0.031 C 
ATOM     65  C   UNL A   1      45.408  31.071  28.545  1.00  0.00     0.037 A 
BRANCH  52  66
ATOM     66  C   UNL A   1      39.717  28.768  29.345  1.00  0.00     0.064 A 
ATOM     67  C   UNL A   1      38.762  29.257  28.439  1.00  0.00     0.173 A 
ATOM     68  C   UNL A   1      39.294  28.501  30.656  1.00  0.00     0.173 A 
ATOM     69  F   UNL A   1      39.112  29.538  27.174  1.00  0.00    -0.203 F 
ATOM     70  C   UNL A   1      37.454  29.517  28.843  1.00  0.00     0.198 A 
ATOM     71  C   UNL A   1      37.977  28.726  31.046  1.00  0.00     0.198 A 
ATOM     72  F   UNL A   1      40.161  28.025  31.564  1.00  0.00    -0.203 F 
ATOM     73  F   UNL A   1      36.583  30.052  27.977  1.00  0.00    -0.200 F 
ATOM     74  C   UNL A   1      37.062  29.246  30.143  1.00  0.00     0.200 A 
ATOM     75  F   UNL A   1      37.594  28.449  32.301  1.00  0.00    -0.200 F 
ATOM     76  F   UNL A   1      35.803  29.497  30.531  1.00  0.00    -0.200 F 
ENDBRANCH  52  66
BRANCH  53  77
ATOM     77  C   UNL A   1      48.991  26.775  26.201  1.00  0.00     0.064 A 
ATOM     78  C   UNL A   1      49.968  26.197  27.023  1.00  0.00     0.173 A 
ATOM     79  C   UNL A   1      49.334  27.041  24.866  1.00  0.00     0.173 A 
ATOM     80  F   UNL A   1      49.693  25.941  28.310  1.00  0.00    -0.203 F 
ATOM     81  C   UNL A   1      51.240  25.907  26.533  1.00  0.00     0.198 A 
ATOM     82  C   UNL A   1      50.596  26.723  24.371  1.00  0.00     0.198 A 
ATOM     83  F   UNL A   1      48.432  27.586  24.037  1.00  0.00    -0.203 F 
ATOM     84  F   UNL A   1      52.166  25.387  27.350  1.00  0.00    -0.200 F 
ATOM     85  C   UNL A   1      51.550  26.161  25.205  1.00  0.00     0.200 A 
ATOM     86  F   UNL A   1      50.884  26.951  23.082  1.00  0.00    -0.200 F 
ATOM     87  F   UNL A   1      52.767  25.867  24.731  1.00  0.00    -0.200 F 
ENDBRANCH  53  77
BRANCH  65  88
ATOM     88  C   UNL A   1      45.908  32.459  28.830  1.00  0.00     0.064 A 
ATOM     89  C   UNL A   1      46.505  32.790  30.056  1.00  0.00     0.173 A 
ATOM     90  C   UNL A   1      45.824  33.461  27.851  1.00  0.00     0.173 A 
ATOM     91  F   UNL A   1      46.597  31.873  31.033  1.00  0.00    -0.203 F 
ATOM     92  C   UNL A   1      46.973  34.079  30.302  1.00  0.00     0.198 A 
ATOM     93  C   UNL A   1      46.325  34.739  28.087  1.00  0.00     0.198 A 
ATOM     94  F   UNL A   1      45.268  33.198  26.660  1.00  0.00    -0.203 F 
ATOM     95  F   UNL A   1      47.490  34.385  31.499  1.00  0.00    -0.200 F 
ATOM     96  C   UNL A   1      46.890  35.049  29.315  1.00  0.00     0.200 A 
ATOM     97  F   UNL A   1      46.257  35.671  27.127  1.00  0.00    -0.200 F 
ATOM     98  F   UNL A   1      47.349  36.286  29.549  1.00  0.00    -0.200 F 
ENDBRANCH  65  88
ENDBRANCH  39  40
ENDBRANCH  31  34
ENDBRANCH  29  30
ENDBRANCH  28  29
ENDBRANCH  27  28
ENDBRANCH  26  27
ENDBRANCH   1  26
TORSDOF 19
ENDMDL
