MODEL 1
REMARK VINA RESULT:     -11.4      0.000      0.000
REMARK SMILES COCC[C@@H](C)NC(=O)N1Cc2nc[nH]c2C[C@@H]1C(=O)NCCCCCCNC(=O)c1ccc(-c2c3nc(c(-c4c(F)c(F)c(F)c(F)c4F)c4ccc([nH]4)c(-c4c(F)c(F)c(F)c(F)c4F)c4nc(c(-c5c(F)c(F)c(F)c(F)c5F)c5ccc2[nH]5)C=C4)C=C3)cc1
REMARK SMILES IDX 23 1 22 2 21 3 19 4 20 5 18 7 10 8 11 9 12 10 17 11 13 12
REMARK SMILES IDX 16 13 14 14 15 15 8 17 7 18 9 20 5 21 6 22 4 23 3 24 2 25
REMARK SMILES IDX 1 26 24 27 25 28 26 29 27 30 28 31 29 32 30 34 31 35 32 36
REMARK SMILES IDX 93 37 33 38 92 39 34 40 35 41 36 42 86 43 37 44 91 45 85 46
REMARK SMILES IDX 87 47 38 48 90 49 84 50 83 51 39 53 71 54 51 55 70 56 52 57
REMARK SMILES IDX 55 58 69 59 88 60 53 61 54 62 68 64 89 65 56 66 40 67 41 68
REMARK SMILES IDX 49 69 42 70 43 71 47 72 50 73 44 74 45 75 48 76 46 77 72 78
REMARK SMILES IDX 73 79 81 80 74 81 75 82 79 83 82 84 76 85 77 86 80 87 78 88
REMARK SMILES IDX 57 89 58 90 66 91 59 92 60 93 64 94 67 95 61 96 62 97 65 98
REMARK SMILES IDX 63 99
REMARK H PARENT 21 6 15 16 7 19 28 33 87 52 55 63
REMARK Flexibility Score: inf
ROOT
ATOM      1  C   UNL A   1      38.954  21.823  25.933  1.00  0.00     0.021 C 
ENDROOT
BRANCH   1   2
ATOM      2  C   UNL A   1      37.852  22.881  26.008  1.00  0.00     0.116 C 
BRANCH   2   3
ATOM      3  N   UNL A   1      37.424  23.268  24.682  1.00  0.00    -0.354 N 
ATOM      4  C   UNL A   1      36.204  23.380  24.100  1.00  0.00     0.243 C 
ATOM      5  O   UNL A   1      36.220  23.186  22.877  1.00  0.00    -0.273 OA
ATOM      6  H   UNL A   1      38.169  23.496  24.080  1.00  0.00     0.163 HD
BRANCH   4   7
ATOM      7  C   UNL A   1      34.890  23.790  24.842  1.00  0.00     0.182 C 
ATOM      8  N   UNL A   1      33.622  23.017  24.575  1.00  0.00    -0.306 N 
ATOM      9  C   UNL A   1      32.378  23.382  25.310  1.00  0.00     0.180 C 
ATOM     10  C   UNL A   1      32.425  24.768  25.861  1.00  0.00     0.081 A 
ATOM     11  C   UNL A   1      34.665  25.309  24.896  1.00  0.00     0.091 C 
ATOM     12  N   UNL A   1      31.413  25.411  26.526  1.00  0.00    -0.240 NA
ATOM     13  C   UNL A   1      33.487  25.616  25.711  1.00  0.00     0.042 A 
ATOM     14  C   UNL A   1      31.870  26.624  26.767  1.00  0.00     0.197 A 
ATOM     15  N   UNL A   1      33.155  26.783  26.321  1.00  0.00    -0.348 N 
ATOM     16  H   UNL A   1      33.722  27.582  26.422  1.00  0.00     0.167 HD
BRANCH   8  17
ATOM     17  C   UNL A   1      33.414  22.320  23.415  1.00  0.00     0.318 C 
ATOM     18  N   UNL A   1      33.383  20.959  23.512  1.00  0.00    -0.335 N 
ATOM     19  H   UNL A   1      33.105  20.485  22.697  1.00  0.00     0.165 HD
ATOM     20  O   UNL A   1      33.102  22.856  22.355  1.00  0.00    -0.249 OA
BRANCH  18  21
ATOM     21  C   UNL A   1      33.704  20.108  24.656  1.00  0.00     0.083 C 
ATOM     22  C   UNL A   1      35.210  20.182  24.916  1.00  0.00     0.031 C 
BRANCH  21  23
ATOM     23  C   UNL A   1      33.191  18.670  24.516  1.00  0.00     0.053 C 
BRANCH  23  24
ATOM     24  C   UNL A   1      32.652  18.077  25.830  1.00  0.00     0.162 C 
BRANCH  24  25
ATOM     25  O   UNL A   1      32.799  16.661  25.942  1.00  0.00    -0.385 OA
ATOM     26  C   UNL A   1      33.479  16.035  24.864  1.00  0.00     0.194 C 
ENDBRANCH  24  25
ENDBRANCH  23  24
ENDBRANCH  21  23
ENDBRANCH  18  21
ENDBRANCH   8  17
ENDBRANCH   4   7
ENDBRANCH   2   3
ENDBRANCH   1   2
BRANCH   1  27
ATOM     27  C   UNL A   1      40.259  22.261  26.599  1.00  0.00     0.002 C 
BRANCH  27  28
ATOM     28  C   UNL A   1      40.804  21.289  27.660  1.00  0.00     0.002 C 
BRANCH  28  29
ATOM     29  C   UNL A   1      42.013  20.431  27.242  1.00  0.00     0.021 C 
BRANCH  29  30
ATOM     30  C   UNL A   1      42.050  20.150  25.756  1.00  0.00     0.116 C 
BRANCH  30  31
ATOM     31  N   UNL A   1      43.420  19.970  25.264  1.00  0.00    -0.352 N 
ATOM     32  C   UNL A   1      44.349  20.936  24.906  1.00  0.00     0.251 C 
ATOM     33  H   UNL A   1      43.721  19.038  25.176  1.00  0.00     0.163 HD
ATOM     34  O   UNL A   1      45.311  20.676  24.212  1.00  0.00    -0.269 OA
BRANCH  32  35
ATOM     35  C   UNL A   1      44.142  22.295  25.429  1.00  0.00     0.039 A 
ATOM     36  C   UNL A   1      43.292  23.233  24.835  1.00  0.00     0.014 A 
ATOM     37  C   UNL A   1      44.808  22.584  26.609  1.00  0.00     0.014 A 
ATOM     38  C   UNL A   1      43.116  24.459  25.474  1.00  0.00     0.010 A 
ATOM     39  C   UNL A   1      44.363  23.606  27.377  1.00  0.00     0.010 A 
ATOM     40  C   UNL A   1      43.676  24.628  26.745  1.00  0.00    -0.014 A 
BRANCH  40  41
ATOM     41  C   UNL A   1      43.591  25.847  27.529  1.00  0.00     0.031 A 
ATOM     42  C   UNL A   1      44.558  26.897  27.129  1.00  0.00     0.074 A 
ATOM     43  C   UNL A   1      42.482  26.071  28.275  1.00  0.00     0.049 A 
ATOM     44  N   UNL A   1      45.474  27.453  27.849  1.00  0.00    -0.248 NA
ATOM     45  C   UNL A   1      44.610  27.280  25.705  1.00  0.00     0.031 C 
ATOM     46  C   UNL A   1      41.302  25.203  28.450  1.00  0.00     0.029 A 
ATOM     47  N   UNL A   1      42.105  27.200  28.932  1.00  0.00    -0.354 N 
ATOM     48  C   UNL A   1      46.076  28.402  27.027  1.00  0.00     0.074 A 
ATOM     49  C   UNL A   1      45.662  28.097  25.686  1.00  0.00     0.031 C 
ATOM     50  C   UNL A   1      40.273  25.917  28.956  1.00  0.00     0.029 A 
ATOM     51  C   UNL A   1      40.758  27.237  29.299  1.00  0.00     0.049 A 
ATOM     52  H   UNL A   1      42.731  27.932  29.134  1.00  0.00     0.167 HD
ATOM     53  C   UNL A   1      46.631  29.528  27.554  1.00  0.00     0.037 A 
ATOM     54  C   UNL A   1      40.102  28.315  29.798  1.00  0.00     0.037 A 
ATOM     55  C   UNL A   1      46.860  29.371  28.970  1.00  0.00     0.049 A 
ATOM     56  C   UNL A   1      41.146  29.246  30.304  1.00  0.00     0.074 A 
ATOM     57  C   UNL A   1      47.618  28.509  29.738  1.00  0.00     0.029 A 
ATOM     58  N   UNL A   1      45.941  29.922  29.832  1.00  0.00    -0.354 N 
ATOM     59  N   UNL A   1      41.938  28.961  31.304  1.00  0.00    -0.248 NA
ATOM     60  C   UNL A   1      41.647  30.246  29.373  1.00  0.00     0.031 C 
ATOM     61  C   UNL A   1      46.801  28.213  30.870  1.00  0.00     0.029 A 
ATOM     62  C   UNL A   1      45.634  28.972  30.771  1.00  0.00     0.049 A 
ATOM     63  H   UNL A   1      45.572  30.833  29.783  1.00  0.00     0.167 HD
ATOM     64  C   UNL A   1      43.187  29.422  30.912  1.00  0.00     0.074 A 
ATOM     65  C   UNL A   1      42.935  30.246  29.730  1.00  0.00     0.031 C 
ATOM     66  C   UNL A   1      44.334  28.849  31.388  1.00  0.00     0.037 A 
BRANCH  53  67
ATOM     67  C   UNL A   1      46.590  30.891  26.896  1.00  0.00     0.064 A 
ATOM     68  C   UNL A   1      47.775  31.654  26.855  1.00  0.00     0.173 A 
ATOM     69  C   UNL A   1      45.406  31.599  26.593  1.00  0.00     0.173 A 
ATOM     70  F   UNL A   1      48.962  31.088  27.121  1.00  0.00    -0.203 F 
ATOM     71  C   UNL A   1      47.759  33.034  26.638  1.00  0.00     0.198 A 
ATOM     72  C   UNL A   1      45.401  32.967  26.324  1.00  0.00     0.198 A 
ATOM     73  F   UNL A   1      44.193  31.039  26.650  1.00  0.00    -0.203 F 
ATOM     74  F   UNL A   1      48.894  33.737  26.750  1.00  0.00    -0.200 F 
ATOM     75  C   UNL A   1      46.569  33.692  26.386  1.00  0.00     0.200 A 
ATOM     76  F   UNL A   1      44.234  33.585  26.094  1.00  0.00    -0.200 F 
ATOM     77  F   UNL A   1      46.540  35.024  26.252  1.00  0.00    -0.200 F 
ENDBRANCH  53  67
BRANCH  54  78
ATOM     78  C   UNL A   1      38.707  28.739  29.518  1.00  0.00     0.064 A 
ATOM     79  C   UNL A   1      37.804  29.033  30.552  1.00  0.00     0.173 A 
ATOM     80  C   UNL A   1      38.315  29.130  28.221  1.00  0.00     0.173 A 
ATOM     81  F   UNL A   1      38.122  28.745  31.823  1.00  0.00    -0.203 F 
ATOM     82  C   UNL A   1      36.591  29.689  30.306  1.00  0.00     0.198 A 
ATOM     83  C   UNL A   1      37.105  29.781  27.976  1.00  0.00     0.198 A 
ATOM     84  F   UNL A   1      39.144  28.977  27.178  1.00  0.00    -0.203 F 
ATOM     85  F   UNL A   1      35.778  30.001  31.326  1.00  0.00    -0.200 F 
ATOM     86  C   UNL A   1      36.246  30.070  29.019  1.00  0.00     0.200 A 
ATOM     87  F   UNL A   1      36.808  30.184  26.732  1.00  0.00    -0.200 F 
ATOM     88  F   UNL A   1      35.114  30.751  28.791  1.00  0.00    -0.200 F 
ENDBRANCH  54  78
BRANCH  66  89
ATOM     89  C   UNL A   1      44.208  27.837  32.497  1.00  0.00     0.064 A 
ATOM     90  C   UNL A   1      44.135  26.448  32.288  1.00  0.00     0.173 A 
ATOM     91  C   UNL A   1      44.348  28.276  33.818  1.00  0.00     0.173 A 
ATOM     92  F   UNL A   1      44.100  25.939  31.053  1.00  0.00    -0.203 F 
ATOM     93  C   UNL A   1      44.166  25.546  33.352  1.00  0.00     0.198 A 
ATOM     94  C   UNL A   1      44.411  27.374  34.877  1.00  0.00     0.198 A 
ATOM     95  F   UNL A   1      44.482  29.586  34.077  1.00  0.00    -0.203 F 
ATOM     96  F   UNL A   1      44.095  24.227  33.119  1.00  0.00    -0.200 F 
ATOM     97  C   UNL A   1      44.313  26.011  34.646  1.00  0.00     0.200 A 
ATOM     98  F   UNL A   1      44.605  27.827  36.123  1.00  0.00    -0.200 F 
ATOM     99  F   UNL A   1      44.391  25.147  35.667  1.00  0.00    -0.200 F 
ENDBRANCH  66  89
ENDBRANCH  40  41
ENDBRANCH  32  35
ENDBRANCH  30  31
ENDBRANCH  29  30
ENDBRANCH  28  29
ENDBRANCH  27  28
ENDBRANCH   1  27
TORSDOF 18
ENDMDL
MODEL 2
REMARK VINA RESULT:     -11.2      1.087      2.076
REMARK SMILES COCC[C@@H](C)NC(=O)N1Cc2nc[nH]c2C[C@@H]1C(=O)NCCCCCCNC(=O)c1ccc(-c2c3nc(c(-c4c(F)c(F)c(F)c(F)c4F)c4ccc([nH]4)c(-c4c(F)c(F)c(F)c(F)c4F)c4nc(c(-c5c(F)c(F)c(F)c(F)c5F)c5ccc2[nH]5)C=C4)C=C3)cc1
REMARK SMILES IDX 23 1 22 2 21 3 19 4 20 5 18 7 10 8 11 9 12 10 17 11 13 12
REMARK SMILES IDX 16 13 14 14 15 15 8 17 7 18 9 20 5 21 6 22 4 23 3 24 2 25
REMARK SMILES IDX 1 26 24 27 25 28 26 29 27 30 28 31 29 32 30 34 31 35 32 36
REMARK SMILES IDX 93 37 33 38 92 39 34 40 35 41 36 42 86 43 37 44 91 45 85 46
REMARK SMILES IDX 87 47 38 48 90 49 84 50 83 51 39 53 71 54 51 55 70 56 52 57
REMARK SMILES IDX 55 58 69 59 88 60 53 61 54 62 68 64 89 65 56 66 40 67 41 68
REMARK SMILES IDX 49 69 42 70 43 71 47 72 50 73 44 74 45 75 48 76 46 77 72 78
REMARK SMILES IDX 73 79 81 80 74 81 75 82 79 83 82 84 76 85 77 86 80 87 78 88
REMARK SMILES IDX 57 89 58 90 66 91 59 92 60 93 64 94 67 95 61 96 62 97 65 98
REMARK SMILES IDX 63 99
REMARK H PARENT 21 6 15 16 7 19 28 33 87 52 55 63
REMARK Flexibility Score: inf
ROOT
ATOM      1  C   UNL A   1      39.281  21.819  26.119  1.00  0.00     0.021 C 
ENDROOT
BRANCH   1   2
ATOM      2  C   UNL A   1      38.249  22.941  26.248  1.00  0.00     0.116 C 
BRANCH   2   3
ATOM      3  N   UNL A   1      37.760  23.337  24.946  1.00  0.00    -0.354 N 
ATOM      4  C   UNL A   1      36.514  23.457  24.424  1.00  0.00     0.243 C 
ATOM      5  O   UNL A   1      36.470  23.270  23.201  1.00  0.00    -0.273 OA
ATOM      6  H   UNL A   1      38.476  23.567  24.311  1.00  0.00     0.163 HD
BRANCH   4   7
ATOM      7  C   UNL A   1      35.238  23.867  25.231  1.00  0.00     0.182 C 
ATOM      8  N   UNL A   1      34.144  22.851  25.445  1.00  0.00    -0.306 N 
ATOM      9  C   UNL A   1      32.946  23.228  26.247  1.00  0.00     0.180 C 
ATOM     10  C   UNL A   1      32.757  24.706  26.332  1.00  0.00     0.081 A 
ATOM     11  C   UNL A   1      34.699  25.258  24.861  1.00  0.00     0.091 C 
ATOM     12  N   UNL A   1      31.717  25.357  26.943  1.00  0.00    -0.240 NA
ATOM     13  C   UNL A   1      33.588  25.619  25.743  1.00  0.00     0.042 A 
ATOM     14  C   UNL A   1      31.927  26.639  26.717  1.00  0.00     0.197 A 
ATOM     15  N   UNL A   1      33.086  26.851  26.019  1.00  0.00    -0.348 N 
ATOM     16  H   UNL A   1      33.476  27.720  25.769  1.00  0.00     0.167 HD
BRANCH   8  17
ATOM     17  C   UNL A   1      33.957  21.783  24.609  1.00  0.00     0.318 C 
ATOM     18  N   UNL A   1      33.276  22.020  23.451  1.00  0.00    -0.335 N 
ATOM     19  H   UNL A   1      33.264  21.276  22.808  1.00  0.00     0.165 HD
ATOM     20  O   UNL A   1      34.500  20.694  24.777  1.00  0.00    -0.249 OA
BRANCH  18  21
ATOM     21  C   UNL A   1      32.561  23.224  23.031  1.00  0.00     0.083 C 
ATOM     22  C   UNL A   1      31.065  22.913  22.976  1.00  0.00     0.031 C 
BRANCH  21  23
ATOM     23  C   UNL A   1      33.094  23.833  21.728  1.00  0.00     0.053 C 
BRANCH  23  24
ATOM     24  C   UNL A   1      33.483  25.316  21.855  1.00  0.00     0.162 C 
BRANCH  24  25
ATOM     25  O   UNL A   1      33.167  26.109  20.710  1.00  0.00    -0.385 OA
ATOM     26  C   UNL A   1      32.440  25.439  19.691  1.00  0.00     0.194 C 
ENDBRANCH  24  25
ENDBRANCH  23  24
ENDBRANCH  21  23
ENDBRANCH  18  21
ENDBRANCH   8  17
ENDBRANCH   4   7
ENDBRANCH   2   3
ENDBRANCH   1   2
BRANCH   1  27
ATOM     27  C   UNL A   1      40.587  22.109  26.858  1.00  0.00     0.002 C 
BRANCH  27  28
ATOM     28  C   UNL A   1      41.089  20.970  27.762  1.00  0.00     0.002 C 
BRANCH  28  29
ATOM     29  C   UNL A   1      42.245  20.117  27.208  1.00  0.00     0.021 C 
BRANCH  29  30
ATOM     30  C   UNL A   1      42.239  20.026  25.698  1.00  0.00     0.116 C 
BRANCH  30  31
ATOM     31  N   UNL A   1      43.592  19.888  25.149  1.00  0.00    -0.352 N 
ATOM     32  C   UNL A   1      44.479  20.881  24.762  1.00  0.00     0.251 C 
ATOM     33  H   UNL A   1      43.915  18.965  25.042  1.00  0.00     0.163 HD
ATOM     34  O   UNL A   1      45.419  20.652  24.026  1.00  0.00    -0.269 OA
BRANCH  32  35
ATOM     35  C   UNL A   1      44.257  22.231  25.302  1.00  0.00     0.039 A 
ATOM     36  C   UNL A   1      43.376  23.158  24.736  1.00  0.00     0.014 A 
ATOM     37  C   UNL A   1      44.942  22.521  26.471  1.00  0.00     0.014 A 
ATOM     38  C   UNL A   1      43.190  24.374  25.391  1.00  0.00     0.010 A 
ATOM     39  C   UNL A   1      44.493  23.527  27.259  1.00  0.00     0.010 A 
ATOM     40  C   UNL A   1      43.773  24.541  26.652  1.00  0.00    -0.014 A 
BRANCH  40  41
ATOM     41  C   UNL A   1      43.681  25.750  27.449  1.00  0.00     0.031 A 
ATOM     42  C   UNL A   1      44.650  26.806  27.070  1.00  0.00     0.074 A 
ATOM     43  C   UNL A   1      42.565  25.964  28.190  1.00  0.00     0.049 A 
ATOM     44  N   UNL A   1      45.559  27.354  27.804  1.00  0.00    -0.248 NA
ATOM     45  C   UNL A   1      44.711  27.207  25.651  1.00  0.00     0.031 C 
ATOM     46  C   UNL A   1      41.385  25.093  28.345  1.00  0.00     0.029 A 
ATOM     47  N   UNL A   1      42.182  27.085  28.858  1.00  0.00    -0.354 N 
ATOM     48  C   UNL A   1      46.167  28.314  26.998  1.00  0.00     0.074 A 
ATOM     49  C   UNL A   1      45.763  28.024  25.650  1.00  0.00     0.031 C 
ATOM     50  C   UNL A   1      40.351  25.800  28.852  1.00  0.00     0.029 A 
ATOM     51  C   UNL A   1      40.833  27.115  29.214  1.00  0.00     0.049 A 
ATOM     52  H   UNL A   1      42.806  27.815  29.073  1.00  0.00     0.167 HD
ATOM     53  C   UNL A   1      46.716  29.434  27.542  1.00  0.00     0.037 A 
ATOM     54  C   UNL A   1      40.172  28.187  29.722  1.00  0.00     0.037 A 
ATOM     55  C   UNL A   1      46.935  29.260  28.958  1.00  0.00     0.049 A 
ATOM     56  C   UNL A   1      41.211  29.113  30.247  1.00  0.00     0.074 A 
ATOM     57  C   UNL A   1      47.687  28.390  29.721  1.00  0.00     0.029 A 
ATOM     58  N   UNL A   1      46.009  29.799  29.819  1.00  0.00    -0.354 N 
ATOM     59  N   UNL A   1      41.995  28.816  31.249  1.00  0.00    -0.248 NA
ATOM     60  C   UNL A   1      41.718  30.125  29.332  1.00  0.00     0.031 C 
ATOM     61  C   UNL A   1      46.862  28.079  30.844  1.00  0.00     0.029 A 
ATOM     62  C   UNL A   1      45.695  28.837  30.745  1.00  0.00     0.049 A 
ATOM     63  H   UNL A   1      45.639  30.711  29.779  1.00  0.00     0.167 HD
ATOM     64  C   UNL A   1      43.247  29.283  30.872  1.00  0.00     0.074 A 
ATOM     65  C   UNL A   1      43.003  30.121  29.698  1.00  0.00     0.031 C 
ATOM     66  C   UNL A   1      44.390  28.706  31.350  1.00  0.00     0.037 A 
BRANCH  53  67
ATOM     67  C   UNL A   1      46.679  30.804  26.900  1.00  0.00     0.064 A 
ATOM     68  C   UNL A   1      47.863  31.570  26.880  1.00  0.00     0.173 A 
ATOM     69  C   UNL A   1      45.496  31.514  26.596  1.00  0.00     0.173 A 
ATOM     70  F   UNL A   1      49.048  31.004  27.150  1.00  0.00    -0.203 F 
ATOM     71  C   UNL A   1      47.846  32.953  26.680  1.00  0.00     0.198 A 
ATOM     72  C   UNL A   1      45.491  32.885  26.343  1.00  0.00     0.198 A 
ATOM     73  F   UNL A   1      44.284  30.952  26.635  1.00  0.00    -0.203 F 
ATOM     74  F   UNL A   1      48.978  33.657  26.810  1.00  0.00    -0.200 F 
ATOM     75  C   UNL A   1      46.657  33.612  26.424  1.00  0.00     0.200 A 
ATOM     76  F   UNL A   1      44.324  33.505  26.110  1.00  0.00    -0.200 F 
ATOM     77  F   UNL A   1      46.627  34.945  26.307  1.00  0.00    -0.200 F 
ENDBRANCH  53  67
BRANCH  54  78
ATOM     78  C   UNL A   1      38.779  28.613  29.436  1.00  0.00     0.064 A 
ATOM     79  C   UNL A   1      37.858  28.863  30.467  1.00  0.00     0.173 A 
ATOM     80  C   UNL A   1      38.404  29.050  28.148  1.00  0.00     0.173 A 
ATOM     81  F   UNL A   1      38.159  28.530  31.730  1.00  0.00    -0.203 F 
ATOM     82  C   UNL A   1      36.644  29.520  30.227  1.00  0.00     0.198 A 
ATOM     83  C   UNL A   1      37.193  29.702  27.909  1.00  0.00     0.198 A 
ATOM     84  F   UNL A   1      39.249  28.939  27.113  1.00  0.00    -0.203 F 
ATOM     85  F   UNL A   1      35.814  29.790  31.245  1.00  0.00    -0.200 F 
ATOM     86  C   UNL A   1      36.316  29.947  28.949  1.00  0.00     0.200 A 
ATOM     87  F   UNL A   1      36.912  30.149  26.676  1.00  0.00    -0.200 F 
ATOM     88  F   UNL A   1      35.184  30.629  28.729  1.00  0.00    -0.200 F 
ENDBRANCH  54  78
BRANCH  66  89
ATOM     89  C   UNL A   1      44.258  27.681  32.446  1.00  0.00     0.064 A 
ATOM     90  C   UNL A   1      44.191  26.294  32.220  1.00  0.00     0.173 A 
ATOM     91  C   UNL A   1      44.383  28.104  33.773  1.00  0.00     0.173 A 
ATOM     92  F   UNL A   1      44.170  25.800  30.979  1.00  0.00    -0.203 F 
ATOM     93  C   UNL A   1      44.215  25.380  33.273  1.00  0.00     0.198 A 
ATOM     94  C   UNL A   1      44.439  27.189  34.823  1.00  0.00     0.198 A 
ATOM     95  F   UNL A   1      44.510  29.412  34.049  1.00  0.00    -0.203 F 
ATOM     96  F   UNL A   1      44.150  24.063  33.023  1.00  0.00    -0.200 F 
ATOM     97  C   UNL A   1      44.348  25.829  34.574  1.00  0.00     0.200 A 
ATOM     98  F   UNL A   1      44.620  27.628  36.076  1.00  0.00    -0.200 F 
ATOM     99  F   UNL A   1      44.418  24.953  35.586  1.00  0.00    -0.200 F 
ENDBRANCH  66  89
ENDBRANCH  40  41
ENDBRANCH  32  35
ENDBRANCH  30  31
ENDBRANCH  29  30
ENDBRANCH  28  29
ENDBRANCH  27  28
ENDBRANCH   1  27
TORSDOF 18
ENDMDL
MODEL 3
REMARK VINA RESULT:     -11.0      2.771      8.285
REMARK SMILES COCC[C@@H](C)NC(=O)N1Cc2nc[nH]c2C[C@@H]1C(=O)NCCCCCCNC(=O)c1ccc(-c2c3nc(c(-c4c(F)c(F)c(F)c(F)c4F)c4ccc([nH]4)c(-c4c(F)c(F)c(F)c(F)c4F)c4nc(c(-c5c(F)c(F)c(F)c(F)c5F)c5ccc2[nH]5)C=C4)C=C3)cc1
REMARK SMILES IDX 23 1 22 2 21 3 19 4 20 5 18 7 10 8 11 9 12 10 17 11 13 12
REMARK SMILES IDX 16 13 14 14 15 15 8 17 7 18 9 20 5 21 6 22 4 23 3 24 2 25
REMARK SMILES IDX 1 26 24 27 25 28 26 29 27 30 28 31 29 32 30 34 31 35 32 36
REMARK SMILES IDX 93 37 33 38 92 39 34 40 35 41 36 42 86 43 37 44 91 45 85 46
REMARK SMILES IDX 87 47 38 48 90 49 84 50 83 51 39 53 71 54 51 55 70 56 52 57
REMARK SMILES IDX 55 58 69 59 88 60 53 61 54 62 68 64 89 65 56 66 40 67 41 68
REMARK SMILES IDX 49 69 42 70 43 71 47 72 50 73 44 74 45 75 48 76 46 77 72 78
REMARK SMILES IDX 73 79 81 80 74 81 75 82 79 83 82 84 76 85 77 86 80 87 78 88
REMARK SMILES IDX 57 89 58 90 66 91 59 92 60 93 64 94 67 95 61 96 62 97 65 98
REMARK SMILES IDX 63 99
REMARK H PARENT 21 6 15 16 7 19 28 33 87 52 55 63
REMARK Flexibility Score: inf
ROOT
ATOM      1  C   UNL A   1      31.470  28.512  27.393  1.00  0.00     0.021 C 
ENDROOT
BRANCH   1   2
ATOM      2  C   UNL A   1      31.493  27.387  26.356  1.00  0.00     0.116 C 
BRANCH   2   3
ATOM      3  N   UNL A   1      31.548  26.096  27.004  1.00  0.00    -0.354 N 
ATOM      4  C   UNL A   1      31.945  24.867  26.586  1.00  0.00     0.243 C 
ATOM      5  O   UNL A   1      31.361  23.938  27.159  1.00  0.00    -0.273 OA
ATOM      6  H   UNL A   1      31.234  26.111  27.937  1.00  0.00     0.163 HD
BRANCH   4   7
ATOM      7  C   UNL A   1      33.081  24.597  25.545  1.00  0.00     0.182 C 
ATOM      8  N   UNL A   1      32.738  24.555  24.077  1.00  0.00    -0.306 N 
ATOM      9  C   UNL A   1      33.825  24.336  23.081  1.00  0.00     0.180 C 
ATOM     10  C   UNL A   1      35.037  23.711  23.686  1.00  0.00     0.081 A 
ATOM     11  C   UNL A   1      34.046  23.479  25.968  1.00  0.00     0.091 C 
ATOM     12  N   UNL A   1      36.172  23.330  23.019  1.00  0.00    -0.240 NA
ATOM     13  C   UNL A   1      35.146  23.373  25.007  1.00  0.00     0.042 A 
ATOM     14  C   UNL A   1      36.944  22.773  23.932  1.00  0.00     0.197 A 
ATOM     15  N   UNL A   1      36.373  22.813  25.176  1.00  0.00    -0.348 N 
ATOM     16  H   UNL A   1      36.770  22.500  26.020  1.00  0.00     0.167 HD
BRANCH   8  17
ATOM     17  C   UNL A   1      31.481  24.259  23.622  1.00  0.00     0.318 C 
ATOM     18  N   UNL A   1      31.233  22.956  23.300  1.00  0.00    -0.335 N 
ATOM     19  H   UNL A   1      30.295  22.742  23.101  1.00  0.00     0.165 HD
ATOM     20  O   UNL A   1      30.551  25.061  23.646  1.00  0.00    -0.249 OA
BRANCH  18  21
ATOM     21  C   UNL A   1      32.167  21.835  23.211  1.00  0.00     0.083 C 
ATOM     22  C   UNL A   1      31.896  21.073  21.913  1.00  0.00     0.031 C 
BRANCH  21  23
ATOM     23  C   UNL A   1      32.161  20.930  24.449  1.00  0.00     0.053 C 
BRANCH  23  24
ATOM     24  C   UNL A   1      32.423  19.447  24.130  1.00  0.00     0.162 C 
BRANCH  24  25
ATOM     25  O   UNL A   1      33.446  18.845  24.925  1.00  0.00    -0.385 OA
ATOM     26  C   UNL A   1      34.751  19.368  24.730  1.00  0.00     0.194 C 
ENDBRANCH  24  25
ENDBRANCH  23  24
ENDBRANCH  21  23
ENDBRANCH  18  21
ENDBRANCH   8  17
ENDBRANCH   4   7
ENDBRANCH   2   3
ENDBRANCH   1   2
BRANCH   1  27
ATOM     27  C   UNL A   1      31.711  29.896  26.790  1.00  0.00     0.002 C 
BRANCH  27  28
ATOM     28  C   UNL A   1      33.173  30.195  26.414  1.00  0.00     0.002 C 
BRANCH  28  29
ATOM     29  C   UNL A   1      34.219  29.993  27.526  1.00  0.00     0.021 C 
BRANCH  29  30
ATOM     30  C   UNL A   1      35.146  31.178  27.684  1.00  0.00     0.116 C 
BRANCH  30  31
ATOM     31  N   UNL A   1      34.886  31.919  28.923  1.00  0.00    -0.352 N 
ATOM     32  C   UNL A   1      35.383  31.685  30.196  1.00  0.00     0.251 C 
ATOM     33  H   UNL A   1      34.276  32.686  28.840  1.00  0.00     0.163 HD
ATOM     34  O   UNL A   1      34.852  32.145  31.188  1.00  0.00    -0.269 OA
BRANCH  32  35
ATOM     35  C   UNL A   1      36.608  30.878  30.303  1.00  0.00     0.039 A 
ATOM     36  C   UNL A   1      36.610  29.487  30.453  1.00  0.00     0.014 A 
ATOM     37  C   UNL A   1      37.795  31.582  30.184  1.00  0.00     0.014 A 
ATOM     38  C   UNL A   1      37.837  28.827  30.457  1.00  0.00     0.010 A 
ATOM     39  C   UNL A   1      38.921  30.913  29.842  1.00  0.00     0.010 A 
ATOM     40  C   UNL A   1      38.987  29.568  30.161  1.00  0.00    -0.014 A 
BRANCH  40  41
ATOM     41  C   UNL A   1      40.334  29.028  30.140  1.00  0.00     0.031 A 
ATOM     42  C   UNL A   1      40.947  28.865  31.480  1.00  0.00     0.074 A 
ATOM     43  C   UNL A   1      40.776  28.412  29.016  1.00  0.00     0.049 A 
ATOM     44  N   UNL A   1      42.032  29.400  31.929  1.00  0.00    -0.248 NA
ATOM     45  C   UNL A   1      40.182  28.127  32.502  1.00  0.00     0.031 C 
ATOM     46  C   UNL A   1      40.074  28.231  27.731  1.00  0.00     0.029 A 
ATOM     47  N   UNL A   1      41.909  27.685  28.827  1.00  0.00    -0.354 N 
ATOM     48  C   UNL A   1      42.194  28.898  33.218  1.00  0.00     0.074 A 
ATOM     49  C   UNL A   1      40.935  28.313  33.586  1.00  0.00     0.031 C 
ATOM     50  C   UNL A   1      40.682  27.270  27.002  1.00  0.00     0.029 A 
ATOM     51  C   UNL A   1      41.902  26.887  27.680  1.00  0.00     0.049 A 
ATOM     52  H   UNL A   1      42.673  27.718  29.447  1.00  0.00     0.167 HD
ATOM     53  C   UNL A   1      43.435  28.753  33.759  1.00  0.00     0.037 A 
ATOM     54  C   UNL A   1      42.826  25.944  27.366  1.00  0.00     0.037 A 
ATOM     55  C   UNL A   1      44.405  29.535  33.030  1.00  0.00     0.049 A 
ATOM     56  C   UNL A   1      44.032  26.246  28.183  1.00  0.00     0.074 A 
ATOM     57  C   UNL A   1      44.559  30.881  32.765  1.00  0.00     0.029 A 
ATOM     58  N   UNL A   1      45.186  28.885  32.106  1.00  0.00    -0.354 N 
ATOM     59  N   UNL A   1      44.740  27.336  28.041  1.00  0.00    -0.248 NA
ATOM     60  C   UNL A   1      44.126  25.603  29.486  1.00  0.00     0.031 C 
ATOM     61  C   UNL A   1      45.003  30.939  31.409  1.00  0.00     0.029 A 
ATOM     62  C   UNL A   1      45.173  29.630  30.955  1.00  0.00     0.049 A 
ATOM     63  H   UNL A   1      45.669  28.038  32.245  1.00  0.00     0.167 HD
ATOM     64  C   UNL A   1      45.033  27.742  29.336  1.00  0.00     0.074 A 
ATOM     65  C   UNL A   1      44.666  26.608  30.183  1.00  0.00     0.031 C 
ATOM     66  C   UNL A   1      45.253  29.058  29.631  1.00  0.00     0.037 A 
BRANCH  53  67
ATOM     67  C   UNL A   1      43.845  27.615  34.668  1.00  0.00     0.064 A 
ATOM     68  C   UNL A   1      44.409  27.926  35.923  1.00  0.00     0.173 A 
ATOM     69  C   UNL A   1      44.001  26.274  34.252  1.00  0.00     0.173 A 
ATOM     70  F   UNL A   1      44.321  29.167  36.424  1.00  0.00    -0.203 F 
ATOM     71  C   UNL A   1      45.161  26.997  36.646  1.00  0.00     0.198 A 
ATOM     72  C   UNL A   1      44.708  25.336  35.003  1.00  0.00     0.198 A 
ATOM     73  F   UNL A   1      43.583  25.832  33.062  1.00  0.00    -0.203 F 
ATOM     74  F   UNL A   1      45.795  27.380  37.763  1.00  0.00    -0.200 F 
ATOM     75  C   UNL A   1      45.321  25.705  36.179  1.00  0.00     0.200 A 
ATOM     76  F   UNL A   1      44.860  24.092  34.524  1.00  0.00    -0.200 F 
ATOM     77  F   UNL A   1      46.102  24.834  36.830  1.00  0.00    -0.200 F 
ENDBRANCH  53  67
BRANCH  54  78
ATOM     78  C   UNL A   1      42.596  24.627  26.722  1.00  0.00     0.064 A 
ATOM     79  C   UNL A   1      43.291  24.241  25.563  1.00  0.00     0.173 A 
ATOM     80  C   UNL A   1      41.888  23.606  27.390  1.00  0.00     0.173 A 
ATOM     81  F   UNL A   1      44.034  25.138  24.897  1.00  0.00    -0.203 F 
ATOM     82  C   UNL A   1      43.287  22.917  25.109  1.00  0.00     0.198 A 
ATOM     83  C   UNL A   1      41.882  22.286  26.935  1.00  0.00     0.198 A 
ATOM     84  F   UNL A   1      41.267  23.850  28.553  1.00  0.00    -0.203 F 
ATOM     85  F   UNL A   1      44.005  22.575  24.029  1.00  0.00    -0.200 F 
ATOM     86  C   UNL A   1      42.590  21.937  25.800  1.00  0.00     0.200 A 
ATOM     87  F   UNL A   1      41.241  21.344  27.641  1.00  0.00    -0.200 F 
ATOM     88  F   UNL A   1      42.635  20.659  25.401  1.00  0.00    -0.200 F 
ENDBRANCH  54  78
BRANCH  66  89
ATOM     89  C   UNL A   1      45.362  30.029  28.484  1.00  0.00     0.064 A 
ATOM     90  C   UNL A   1      44.281  30.777  27.983  1.00  0.00     0.173 A 
ATOM     91  C   UNL A   1      46.634  30.346  27.998  1.00  0.00     0.173 A 
ATOM     92  F   UNL A   1      43.046  30.608  28.465  1.00  0.00    -0.203 F 
ATOM     93  C   UNL A   1      44.462  31.767  27.018  1.00  0.00     0.198 A 
ATOM     94  C   UNL A   1      46.820  31.357  27.058  1.00  0.00     0.198 A 
ATOM     95  F   UNL A   1      47.713  29.709  28.481  1.00  0.00    -0.203 F 
ATOM     96  F   UNL A   1      43.410  32.463  26.561  1.00  0.00    -0.200 F 
ATOM     97  C   UNL A   1      45.735  32.063  26.563  1.00  0.00     0.200 A 
ATOM     98  F   UNL A   1      48.059  31.673  26.660  1.00  0.00    -0.200 F 
ATOM     99  F   UNL A   1      45.920  33.045  25.671  1.00  0.00    -0.200 F 
ENDBRANCH  66  89
ENDBRANCH  40  41
ENDBRANCH  32  35
ENDBRANCH  30  31
ENDBRANCH  29  30
ENDBRANCH  28  29
ENDBRANCH  27  28
ENDBRANCH   1  27
TORSDOF 18
ENDMDL
