MODEL 1
REMARK VINA RESULT:     -10.5      0.000      0.000
REMARK SMILES O=C(COc1ccccc1/C=N/NC(=O)C1CC1)NCCCCCCNC(=O)c1ccc(-c2c3nc(c(-c4c(F)c(F)c(F)c(F)c4F)c4ccc([nH]4)c(-c4c(F)c(F)c(F)c(F)c4F)c4nc(c(-c5c(F)c(F)c(F)c(F)c5F)c5ccc2[nH]5)C=C4)C=C3)cc1
REMARK SMILES IDX 21 1 20 2 19 3 1 4 2 5 3 7 4 8 5 9 6 10 10 11 7 12 9 13 8 14
REMARK SMILES IDX 11 15 12 16 13 17 14 18 15 20 16 21 17 22 18 23 22 24 23 25
REMARK SMILES IDX 24 26 25 27 26 28 27 29 28 31 29 32 30 33 91 34 31 35 90 36
REMARK SMILES IDX 32 37 33 38 34 39 84 40 35 41 89 42 83 43 85 44 36 45 88 46
REMARK SMILES IDX 82 47 81 48 37 50 69 51 49 52 68 53 50 54 53 55 67 56 86 57
REMARK SMILES IDX 51 58 52 59 66 61 87 62 54 63 38 64 39 65 47 66 40 67 41 68
REMARK SMILES IDX 45 69 48 70 42 71 43 72 46 73 44 74 70 75 71 76 79 77 72 78
REMARK SMILES IDX 73 79 77 80 80 81 74 82 75 83 78 84 76 85 55 86 56 87 64 88
REMARK SMILES IDX 57 89 58 90 62 91 65 92 59 93 60 94 63 95 61 96
REMARK H PARENT 19 6 13 19 26 30 85 49 53 60
REMARK Flexibility Score: inf
ROOT
ATOM      1  C   UNL A   1      43.732  22.827  33.258  1.00  0.00     0.021 C 
ENDROOT
BRANCH   1   2
ATOM      2  C   UNL A   1      43.978  23.761  32.094  1.00  0.00     0.116 C 
BRANCH   2   3
ATOM      3  N   UNL A   1      44.521  23.152  30.903  1.00  0.00    -0.353 N 
ATOM      4  O   UNL A   1      42.720  23.157  29.447  1.00  0.00    -0.271 OA
ATOM      5  C   UNL A   1      43.895  23.368  29.678  1.00  0.00     0.257 C 
ATOM      6  H   UNL A   1      45.326  22.588  30.956  1.00  0.00     0.163 HD
BRANCH   5   7
ATOM      7  C   UNL A   1      44.832  23.947  28.634  1.00  0.00     0.329 C 
BRANCH   7   8
ATOM      8  O   UNL A   1      44.884  22.951  27.605  1.00  0.00    -0.483 OA
BRANCH   8   9
ATOM      9  C   UNL A   1      45.757  23.247  26.599  1.00  0.00     0.128 A 
ATOM     10  C   UNL A   1      46.325  24.525  26.635  1.00  0.00     0.047 A 
ATOM     11  C   UNL A   1      45.868  22.465  25.442  1.00  0.00     0.037 A 
ATOM     12  C   UNL A   1      46.951  25.047  25.504  1.00  0.00     0.004 A 
ATOM     13  C   UNL A   1      46.470  23.008  24.300  1.00  0.00     0.013 A 
ATOM     14  C   UNL A   1      47.000  24.299  24.329  1.00  0.00     0.001 A 
BRANCH  11  15
ATOM     15  C   UNL A   1      45.296  21.119  25.257  1.00  0.00     0.145 C 
ATOM     16  N   UNL A   1      44.171  20.883  24.647  1.00  0.00    -0.181 NA
BRANCH  16  17
ATOM     17  N   UNL A   1      43.754  19.575  24.757  1.00  0.00    -0.247 N 
ATOM     18  C   UNL A   1      42.865  19.078  25.695  1.00  0.00     0.243 C 
ATOM     19  H   UNL A   1      44.122  18.934  24.106  1.00  0.00     0.193 HD
ATOM     20  O   UNL A   1      42.507  17.902  25.625  1.00  0.00    -0.273 OA
BRANCH  18  21
ATOM     21  C   UNL A   1      42.278  19.992  26.713  1.00  0.00     0.080 C 
ATOM     22  C   UNL A   1      40.857  20.495  26.521  1.00  0.00     0.014 C 
ATOM     23  C   UNL A   1      41.155  19.535  27.626  1.00  0.00     0.014 C 
ENDBRANCH  18  21
ENDBRANCH  16  17
ENDBRANCH  11  15
ENDBRANCH   8   9
ENDBRANCH   7   8
ENDBRANCH   5   7
ENDBRANCH   2   3
ENDBRANCH   1   2
BRANCH   1  24
ATOM     24  C   UNL A   1      44.881  22.764  34.254  1.00  0.00     0.002 C 
BRANCH  24  25
ATOM     25  C   UNL A   1      46.105  23.606  33.883  1.00  0.00     0.002 C 
BRANCH  25  26
ATOM     26  C   UNL A   1      47.349  23.384  34.749  1.00  0.00     0.021 C 
BRANCH  26  27
ATOM     27  C   UNL A   1      48.273  24.593  34.873  1.00  0.00     0.116 C 
BRANCH  27  28
ATOM     28  N   UNL A   1      48.231  25.174  36.207  1.00  0.00    -0.352 N 
ATOM     29  C   UNL A   1      47.480  26.217  36.681  1.00  0.00     0.251 C 
ATOM     30  H   UNL A   1      48.831  24.756  36.865  1.00  0.00     0.163 HD
ATOM     31  O   UNL A   1      47.735  26.724  37.768  1.00  0.00    -0.269 OA
BRANCH  29  32
ATOM     32  C   UNL A   1      46.362  26.734  35.872  1.00  0.00     0.039 A 
ATOM     33  C   UNL A   1      45.109  26.125  35.981  1.00  0.00     0.014 A 
ATOM     34  C   UNL A   1      46.557  27.808  34.998  1.00  0.00     0.014 A 
ATOM     35  C   UNL A   1      44.035  26.627  35.245  1.00  0.00     0.010 A 
ATOM     36  C   UNL A   1      45.472  28.347  34.317  1.00  0.00     0.010 A 
ATOM     37  C   UNL A   1      44.204  27.757  34.428  1.00  0.00    -0.014 A 
BRANCH  37  38
ATOM     38  C   UNL A   1      43.064  28.331  33.673  1.00  0.00     0.031 A 
ATOM     39  C   UNL A   1      42.874  27.987  32.223  1.00  0.00     0.074 A 
ATOM     40  C   UNL A   1      42.242  29.207  34.278  1.00  0.00     0.049 A 
ATOM     41  N   UNL A   1      41.976  28.429  31.378  1.00  0.00    -0.248 NA
ATOM     42  C   UNL A   1      43.836  27.042  31.635  1.00  0.00     0.031 C 
ATOM     43  C   UNL A   1      42.359  29.653  35.667  1.00  0.00     0.029 A 
ATOM     44  N   UNL A   1      41.151  29.887  33.801  1.00  0.00    -0.354 N 
ATOM     45  C   UNL A   1      42.275  27.829  30.163  1.00  0.00     0.074 A 
ATOM     46  C   UNL A   1      43.467  27.033  30.363  1.00  0.00     0.031 C 
ATOM     47  C   UNL A   1      41.367  30.517  35.936  1.00  0.00     0.029 A 
ATOM     48  C   UNL A   1      40.567  30.712  34.731  1.00  0.00     0.049 A 
ATOM     49  H   UNL A   1      40.817  29.792  32.879  1.00  0.00     0.167 HD
ATOM     50  C   UNL A   1      41.601  27.915  28.991  1.00  0.00     0.037 A 
ATOM     51  C   UNL A   1      39.508  31.536  34.619  1.00  0.00     0.037 A 
ATOM     52  C   UNL A   1      40.404  28.690  28.805  1.00  0.00     0.049 A 
ATOM     53  C   UNL A   1      38.778  31.614  33.305  1.00  0.00     0.074 A 
ATOM     54  C   UNL A   1      39.609  28.795  27.677  1.00  0.00     0.029 A 
ATOM     55  N   UNL A   1      39.829  29.498  29.776  1.00  0.00    -0.354 N 
ATOM     56  N   UNL A   1      39.023  30.983  32.183  1.00  0.00    -0.248 NA
ATOM     57  C   UNL A   1      37.617  32.513  33.247  1.00  0.00     0.031 C 
ATOM     58  C   UNL A   1      38.580  29.703  27.950  1.00  0.00     0.029 A 
ATOM     59  C   UNL A   1      38.702  30.123  29.265  1.00  0.00     0.049 A 
ATOM     60  H   UNL A   1      40.171  29.611  30.692  1.00  0.00     0.167 HD
ATOM     61  C   UNL A   1      38.035  31.385  31.295  1.00  0.00     0.074 A 
ATOM     62  C   UNL A   1      37.176  32.303  32.015  1.00  0.00     0.031 C 
ATOM     63  C   UNL A   1      37.855  31.028  29.999  1.00  0.00     0.037 A 
BRANCH  50  64
ATOM     64  C   UNL A   1      42.143  27.147  27.820  1.00  0.00     0.064 A 
ATOM     65  C   UNL A   1      43.124  27.690  26.974  1.00  0.00     0.173 A 
ATOM     66  C   UNL A   1      41.704  25.840  27.558  1.00  0.00     0.173 A 
ATOM     67  F   UNL A   1      43.570  28.940  27.174  1.00  0.00    -0.203 F 
ATOM     68  C   UNL A   1      43.621  26.966  25.894  1.00  0.00     0.198 A 
ATOM     69  C   UNL A   1      42.228  25.107  26.496  1.00  0.00     0.198 A 
ATOM     70  F   UNL A   1      40.774  25.270  28.337  1.00  0.00    -0.203 F 
ATOM     71  F   UNL A   1      44.520  27.525  25.072  1.00  0.00    -0.200 F 
ATOM     72  C   UNL A   1      43.179  25.673  25.660  1.00  0.00     0.200 A 
ATOM     73  F   UNL A   1      41.808  23.852  26.279  1.00  0.00    -0.200 F 
ATOM     74  F   UNL A   1      43.665  24.974  24.625  1.00  0.00    -0.200 F 
ENDBRANCH  50  64
BRANCH  51  75
ATOM     75  C   UNL A   1      39.060  32.330  35.792  1.00  0.00     0.064 A 
ATOM     76  C   UNL A   1      38.210  31.770  36.757  1.00  0.00     0.173 A 
ATOM     77  C   UNL A   1      39.467  33.659  35.974  1.00  0.00     0.173 A 
ATOM     78  F   UNL A   1      37.778  30.507  36.616  1.00  0.00    -0.203 F 
ATOM     79  C   UNL A   1      37.770  32.515  37.849  1.00  0.00     0.198 A 
ATOM     80  C   UNL A   1      39.049  34.395  37.082  1.00  0.00     0.198 A 
ATOM     81  F   UNL A   1      40.284  34.240  35.084  1.00  0.00    -0.203 F 
ATOM     82  F   UNL A   1      36.924  31.969  38.732  1.00  0.00    -0.200 F 
ATOM     83  C   UNL A   1      38.194  33.825  38.013  1.00  0.00     0.200 A 
ATOM     84  F   UNL A   1      39.473  35.655  37.246  1.00  0.00    -0.200 F 
ATOM     85  F   UNL A   1      37.774  34.540  39.066  1.00  0.00    -0.200 F 
ENDBRANCH  51  75
BRANCH  63  86
ATOM     86  C   UNL A   1      36.666  31.604  29.288  1.00  0.00     0.064 A 
ATOM     87  C   UNL A   1      35.545  30.822  28.976  1.00  0.00     0.173 A 
ATOM     88  C   UNL A   1      36.634  32.966  28.949  1.00  0.00     0.173 A 
ATOM     89  F   UNL A   1      35.533  29.512  29.265  1.00  0.00    -0.203 F 
ATOM     90  C   UNL A   1      34.444  31.377  28.329  1.00  0.00     0.198 A 
ATOM     91  C   UNL A   1      35.519  33.524  28.331  1.00  0.00     0.198 A 
ATOM     92  F   UNL A   1      37.679  33.758  29.232  1.00  0.00    -0.203 F 
ATOM     93  F   UNL A   1      33.403  30.601  27.997  1.00  0.00    -0.200 F 
ATOM     94  C   UNL A   1      34.429  32.728  28.014  1.00  0.00     0.200 A 
ATOM     95  F   UNL A   1      35.502  34.832  28.039  1.00  0.00    -0.200 F 
ATOM     96  F   UNL A   1      33.365  33.261  27.398  1.00  0.00    -0.200 F 
ENDBRANCH  63  86
ENDBRANCH  37  38
ENDBRANCH  29  32
ENDBRANCH  27  28
ENDBRANCH  26  27
ENDBRANCH  25  26
ENDBRANCH  24  25
ENDBRANCH   1  24
TORSDOF 18
ENDMDL
MODEL 2
REMARK VINA RESULT:     -10.4      5.466     13.097
REMARK SMILES O=C(COc1ccccc1/C=N/NC(=O)C1CC1)NCCCCCCNC(=O)c1ccc(-c2c3nc(c(-c4c(F)c(F)c(F)c(F)c4F)c4ccc([nH]4)c(-c4c(F)c(F)c(F)c(F)c4F)c4nc(c(-c5c(F)c(F)c(F)c(F)c5F)c5ccc2[nH]5)C=C4)C=C3)cc1
REMARK SMILES IDX 21 1 20 2 19 3 1 4 2 5 3 7 4 8 5 9 6 10 10 11 7 12 9 13 8 14
REMARK SMILES IDX 11 15 12 16 13 17 14 18 15 20 16 21 17 22 18 23 22 24 23 25
REMARK SMILES IDX 24 26 25 27 26 28 27 29 28 31 29 32 30 33 91 34 31 35 90 36
REMARK SMILES IDX 32 37 33 38 34 39 84 40 35 41 89 42 83 43 85 44 36 45 88 46
REMARK SMILES IDX 82 47 81 48 37 50 69 51 49 52 68 53 50 54 53 55 67 56 86 57
REMARK SMILES IDX 51 58 52 59 66 61 87 62 54 63 38 64 39 65 47 66 40 67 41 68
REMARK SMILES IDX 45 69 48 70 42 71 43 72 46 73 44 74 70 75 71 76 79 77 72 78
REMARK SMILES IDX 73 79 77 80 80 81 74 82 75 83 78 84 76 85 55 86 56 87 64 88
REMARK SMILES IDX 57 89 58 90 62 91 65 92 59 93 60 94 63 95 61 96
REMARK H PARENT 19 6 13 19 26 30 85 49 53 60
REMARK Flexibility Score: inf
ROOT
ATOM      1  C   UNL A   1      35.490  32.463  28.185  1.00  0.00     0.021 C 
ENDROOT
BRANCH   1   2
ATOM      2  C   UNL A   1      34.108  31.873  28.016  1.00  0.00     0.116 C 
BRANCH   2   3
ATOM      3  N   UNL A   1      34.041  30.432  27.962  1.00  0.00    -0.353 N 
ATOM      4  O   UNL A   1      31.877  30.037  27.239  1.00  0.00    -0.271 OA
ATOM      5  C   UNL A   1      33.072  29.822  27.170  1.00  0.00     0.257 C 
ATOM      6  H   UNL A   1      34.675  29.886  28.480  1.00  0.00     0.163 HD
BRANCH   5   7
ATOM      7  C   UNL A   1      33.663  28.861  26.155  1.00  0.00     0.329 C 
BRANCH   7   8
ATOM      8  O   UNL A   1      32.551  28.068  25.720  1.00  0.00    -0.483 OA
BRANCH   8   9
ATOM      9  C   UNL A   1      32.915  26.933  25.054  1.00  0.00     0.128 A 
ATOM     10  C   UNL A   1      33.643  25.995  25.793  1.00  0.00     0.047 A 
ATOM     11  C   UNL A   1      32.841  26.820  23.660  1.00  0.00     0.037 A 
ATOM     12  C   UNL A   1      34.343  24.980  25.142  1.00  0.00     0.004 A 
ATOM     13  C   UNL A   1      33.573  25.818  23.011  1.00  0.00     0.013 A 
ATOM     14  C   UNL A   1      34.330  24.908  23.750  1.00  0.00     0.001 A 
BRANCH  11  15
ATOM     15  C   UNL A   1      32.136  27.750  22.758  1.00  0.00     0.145 C 
ATOM     16  N   UNL A   1      30.967  28.263  23.011  1.00  0.00    -0.181 NA
BRANCH  16  17
ATOM     17  N   UNL A   1      30.434  28.956  21.947  1.00  0.00    -0.247 N 
ATOM     18  C   UNL A   1      29.410  29.886  22.009  1.00  0.00     0.243 C 
ATOM     19  H   UNL A   1      30.816  28.772  21.058  1.00  0.00     0.193 HD
ATOM     20  O   UNL A   1      29.087  30.501  20.992  1.00  0.00    -0.273 OA
BRANCH  18  21
ATOM     21  C   UNL A   1      28.781  30.204  23.321  1.00  0.00     0.080 C 
ATOM     22  C   UNL A   1      29.024  31.569  23.944  1.00  0.00     0.014 C 
ATOM     23  C   UNL A   1      27.664  31.227  23.430  1.00  0.00     0.014 C 
ENDBRANCH  18  21
ENDBRANCH  16  17
ENDBRANCH  11  15
ENDBRANCH   8   9
ENDBRANCH   7   8
ENDBRANCH   5   7
ENDBRANCH   2   3
ENDBRANCH   1   2
BRANCH   1  24
ATOM     24  C   UNL A   1      35.504  33.816  28.881  1.00  0.00     0.002 C 
BRANCH  24  25
ATOM     25  C   UNL A   1      34.704  34.914  28.174  1.00  0.00     0.002 C 
BRANCH  25  26
ATOM     26  C   UNL A   1      33.388  35.314  28.851  1.00  0.00     0.021 C 
BRANCH  26  27
ATOM     27  C   UNL A   1      33.496  36.470  29.841  1.00  0.00     0.116 C 
BRANCH  27  28
ATOM     28  N   UNL A   1      32.496  36.378  30.895  1.00  0.00    -0.352 N 
ATOM     29  C   UNL A   1      32.487  35.605  32.025  1.00  0.00     0.251 C 
ATOM     30  H   UNL A   1      31.709  36.957  30.778  1.00  0.00     0.163 HD
ATOM     31  O   UNL A   1      31.463  35.481  32.688  1.00  0.00    -0.269 OA
BRANCH  29  32
ATOM     32  C   UNL A   1      33.721  34.914  32.442  1.00  0.00     0.039 A 
ATOM     33  C   UNL A   1      33.634  33.609  32.932  1.00  0.00     0.014 A 
ATOM     34  C   UNL A   1      34.958  35.562  32.363  1.00  0.00     0.014 A 
ATOM     35  C   UNL A   1      34.798  32.933  33.299  1.00  0.00     0.010 A 
ATOM     36  C   UNL A   1      36.121  34.865  32.666  1.00  0.00     0.010 A 
ATOM     37  C   UNL A   1      36.052  33.548  33.144  1.00  0.00    -0.014 A 
BRANCH  37  38
ATOM     38  C   UNL A   1      37.302  32.830  33.487  1.00  0.00     0.031 A 
ATOM     39  C   UNL A   1      38.024  33.145  34.767  1.00  0.00     0.074 A 
ATOM     40  C   UNL A   1      37.817  31.941  32.617  1.00  0.00     0.049 A 
ATOM     41  N   UNL A   1      39.158  32.669  35.217  1.00  0.00    -0.248 NA
ATOM     42  C   UNL A   1      37.403  34.149  35.645  1.00  0.00     0.031 C 
ATOM     43  C   UNL A   1      37.230  31.591  31.322  1.00  0.00     0.029 A 
ATOM     44  N   UNL A   1      38.954  31.178  32.684  1.00  0.00    -0.354 N 
ATOM     45  C   UNL A   1      39.391  33.324  36.418  1.00  0.00     0.074 A 
ATOM     46  C   UNL A   1      38.310  34.269  36.604  1.00  0.00     0.031 C 
ATOM     47  C   UNL A   1      38.001  30.668  30.726  1.00  0.00     0.029 A 
ATOM     48  C   UNL A   1      39.152  30.387  31.579  1.00  0.00     0.049 A 
ATOM     49  H   UNL A   1      39.570  31.195  33.452  1.00  0.00     0.167 HD
ATOM     50  C   UNL A   1      40.402  33.136  37.299  1.00  0.00     0.037 A 
ATOM     51  C   UNL A   1      40.153  29.536  31.287  1.00  0.00     0.037 A 
ATOM     52  C   UNL A   1      41.460  32.179  37.119  1.00  0.00     0.049 A 
ATOM     53  C   UNL A   1      41.266  29.347  32.283  1.00  0.00     0.074 A 
ATOM     54  C   UNL A   1      42.498  31.866  37.979  1.00  0.00     0.029 A 
ATOM     55  N   UNL A   1      41.618  31.380  35.995  1.00  0.00    -0.354 N 
ATOM     56  N   UNL A   1      41.437  29.916  33.451  1.00  0.00    -0.248 NA
ATOM     57  C   UNL A   1      42.321  28.390  31.921  1.00  0.00     0.031 C 
ATOM     58  C   UNL A   1      43.309  30.912  37.357  1.00  0.00     0.029 A 
ATOM     59  C   UNL A   1      42.749  30.590  36.131  1.00  0.00     0.049 A 
ATOM     60  H   UNL A   1      41.015  31.375  35.216  1.00  0.00     0.167 HD
ATOM     61  C   UNL A   1      42.599  29.368  33.976  1.00  0.00     0.074 A 
ATOM     62  C   UNL A   1      43.083  28.409  33.005  1.00  0.00     0.031 C 
ATOM     63  C   UNL A   1      43.211  29.636  35.156  1.00  0.00     0.037 A 
BRANCH  50  64
ATOM     64  C   UNL A   1      40.409  33.983  38.540  1.00  0.00     0.064 A 
ATOM     65  C   UNL A   1      41.119  35.193  38.600  1.00  0.00     0.173 A 
ATOM     66  C   UNL A   1      39.671  33.599  39.669  1.00  0.00     0.173 A 
ATOM     67  F   UNL A   1      41.850  35.600  37.551  1.00  0.00    -0.203 F 
ATOM     68  C   UNL A   1      41.113  35.970  39.756  1.00  0.00     0.198 A 
ATOM     69  C   UNL A   1      39.642  34.396  40.811  1.00  0.00     0.198 A 
ATOM     70  F   UNL A   1      38.970  32.456  39.663  1.00  0.00    -0.203 F 
ATOM     71  F   UNL A   1      41.839  37.096  39.806  1.00  0.00    -0.200 F 
ATOM     72  C   UNL A   1      40.370  35.576  40.857  1.00  0.00     0.200 A 
ATOM     73  F   UNL A   1      38.912  34.019  41.871  1.00  0.00    -0.200 F 
ATOM     74  F   UNL A   1      40.358  36.330  41.965  1.00  0.00    -0.200 F 
ENDBRANCH  50  64
BRANCH  51  75
ATOM     75  C   UNL A   1      40.133  28.779  30.009  1.00  0.00     0.064 A 
ATOM     76  C   UNL A   1      39.530  27.516  29.931  1.00  0.00     0.173 A 
ATOM     77  C   UNL A   1      40.714  29.297  28.843  1.00  0.00     0.173 A 
ATOM     78  F   UNL A   1      38.977  26.970  31.025  1.00  0.00    -0.203 F 
ATOM     79  C   UNL A   1      39.525  26.791  28.741  1.00  0.00     0.198 A 
ATOM     80  C   UNL A   1      40.684  28.584  27.645  1.00  0.00     0.198 A 
ATOM     81  F   UNL A   1      41.299  30.504  28.861  1.00  0.00    -0.203 F 
ATOM     82  F   UNL A   1      38.980  25.568  28.706  1.00  0.00    -0.200 F 
ATOM     83  C   UNL A   1      40.097  27.329  27.598  1.00  0.00     0.200 A 
ATOM     84  F   UNL A   1      41.223  29.112  26.539  1.00  0.00    -0.200 F 
ATOM     85  F   UNL A   1      40.088  26.634  26.452  1.00  0.00    -0.200 F 
ENDBRANCH  51  75
BRANCH  63  86
ATOM     86  C   UNL A   1      44.453  28.856  35.477  1.00  0.00     0.064 A 
ATOM     87  C   UNL A   1      45.730  29.344  35.162  1.00  0.00     0.173 A 
ATOM     88  C   UNL A   1      44.364  27.624  36.143  1.00  0.00     0.173 A 
ATOM     89  F   UNL A   1      45.867  30.508  34.512  1.00  0.00    -0.203 F 
ATOM     90  C   UNL A   1      46.872  28.613  35.481  1.00  0.00     0.198 A 
ATOM     91  C   UNL A   1      45.509  26.912  36.488  1.00  0.00     0.198 A 
ATOM     92  F   UNL A   1      43.166  27.118  36.472  1.00  0.00    -0.203 F 
ATOM     93  F   UNL A   1      48.079  29.074  35.127  1.00  0.00    -0.200 F 
ATOM     94  C   UNL A   1      46.761  27.403  36.150  1.00  0.00     0.200 A 
ATOM     95  F   UNL A   1      45.400  25.750  37.146  1.00  0.00    -0.200 F 
ATOM     96  F   UNL A   1      47.861  26.706  36.462  1.00  0.00    -0.200 F 
ENDBRANCH  63  86
ENDBRANCH  37  38
ENDBRANCH  29  32
ENDBRANCH  27  28
ENDBRANCH  26  27
ENDBRANCH  25  26
ENDBRANCH  24  25
ENDBRANCH   1  24
TORSDOF 18
ENDMDL
MODEL 3
REMARK VINA RESULT:     -10.4      5.652     13.376
REMARK SMILES O=C(COc1ccccc1/C=N/NC(=O)C1CC1)NCCCCCCNC(=O)c1ccc(-c2c3nc(c(-c4c(F)c(F)c(F)c(F)c4F)c4ccc([nH]4)c(-c4c(F)c(F)c(F)c(F)c4F)c4nc(c(-c5c(F)c(F)c(F)c(F)c5F)c5ccc2[nH]5)C=C4)C=C3)cc1
REMARK SMILES IDX 21 1 20 2 19 3 1 4 2 5 3 7 4 8 5 9 6 10 10 11 7 12 9 13 8 14
REMARK SMILES IDX 11 15 12 16 13 17 14 18 15 20 16 21 17 22 18 23 22 24 23 25
REMARK SMILES IDX 24 26 25 27 26 28 27 29 28 31 29 32 30 33 91 34 31 35 90 36
REMARK SMILES IDX 32 37 33 38 34 39 84 40 35 41 89 42 83 43 85 44 36 45 88 46
REMARK SMILES IDX 82 47 81 48 37 50 69 51 49 52 68 53 50 54 53 55 67 56 86 57
REMARK SMILES IDX 51 58 52 59 66 61 87 62 54 63 38 64 39 65 47 66 40 67 41 68
REMARK SMILES IDX 45 69 48 70 42 71 43 72 46 73 44 74 70 75 71 76 79 77 72 78
REMARK SMILES IDX 73 79 77 80 80 81 74 82 75 83 78 84 76 85 55 86 56 87 64 88
REMARK SMILES IDX 57 89 58 90 62 91 65 92 59 93 60 94 63 95 61 96
REMARK H PARENT 19 6 13 19 26 30 85 49 53 60
REMARK Flexibility Score: inf
ROOT
ATOM      1  C   UNL A   1      32.710  28.173  26.124  1.00  0.00     0.021 C 
ENDROOT
BRANCH   1   2
ATOM      2  C   UNL A   1      31.564  27.366  26.692  1.00  0.00     0.116 C 
BRANCH   2   3
ATOM      3  N   UNL A   1      31.697  25.932  26.597  1.00  0.00    -0.353 N 
ATOM      4  O   UNL A   1      29.499  25.203  26.600  1.00  0.00    -0.271 OA
ATOM      5  C   UNL A   1      30.623  25.175  26.137  1.00  0.00     0.257 C 
ATOM      6  H   UNL A   1      32.539  25.493  26.857  1.00  0.00     0.163 HD
BRANCH   5   7
ATOM      7  C   UNL A   1      30.983  24.311  24.943  1.00  0.00     0.329 C 
BRANCH   7   8
ATOM      8  O   UNL A   1      30.338  24.945  23.831  1.00  0.00    -0.483 OA
BRANCH   8   9
ATOM      9  C   UNL A   1      31.170  25.732  23.090  1.00  0.00     0.128 A 
ATOM     10  C   UNL A   1      32.355  25.131  22.653  1.00  0.00     0.047 A 
ATOM     11  C   UNL A   1      31.022  27.123  23.011  1.00  0.00     0.037 A 
ATOM     12  C   UNL A   1      33.412  25.916  22.191  1.00  0.00     0.004 A 
ATOM     13  C   UNL A   1      32.098  27.907  22.577  1.00  0.00     0.013 A 
ATOM     14  C   UNL A   1      33.292  27.304  22.178  1.00  0.00     0.001 A 
BRANCH  11  15
ATOM     15  C   UNL A   1      29.844  27.888  23.461  1.00  0.00     0.145 C 
ATOM     16  N   UNL A   1      29.094  28.600  22.672  1.00  0.00    -0.181 NA
BRANCH  16  17
ATOM     17  N   UNL A   1      28.167  29.366  23.344  1.00  0.00    -0.247 N 
ATOM     18  C   UNL A   1      27.892  30.703  23.115  1.00  0.00     0.243 C 
ATOM     19  H   UNL A   1      27.650  28.919  24.054  1.00  0.00     0.193 HD
ATOM     20  O   UNL A   1      26.973  31.246  23.728  1.00  0.00    -0.273 OA
BRANCH  18  21
ATOM     21  C   UNL A   1      28.644  31.441  22.062  1.00  0.00     0.080 C 
ATOM     22  C   UNL A   1      28.091  31.472  20.646  1.00  0.00     0.014 C 
ATOM     23  C   UNL A   1      28.099  32.724  21.461  1.00  0.00     0.014 C 
ENDBRANCH  18  21
ENDBRANCH  16  17
ENDBRANCH  11  15
ENDBRANCH   8   9
ENDBRANCH   7   8
ENDBRANCH   5   7
ENDBRANCH   2   3
ENDBRANCH   1   2
BRANCH   1  24
ATOM     24  C   UNL A   1      32.355  29.621  25.818  1.00  0.00     0.002 C 
BRANCH  24  25
ATOM     25  C   UNL A   1      31.591  30.348  26.928  1.00  0.00     0.002 C 
BRANCH  25  26
ATOM     26  C   UNL A   1      31.489  31.869  26.775  1.00  0.00     0.021 C 
BRANCH  26  27
ATOM     27  C   UNL A   1      32.800  32.627  26.963  1.00  0.00     0.116 C 
BRANCH  27  28
ATOM     28  N   UNL A   1      32.583  33.967  27.490  1.00  0.00    -0.352 N 
ATOM     29  C   UNL A   1      33.133  34.575  28.586  1.00  0.00     0.251 C 
ATOM     30  H   UNL A   1      31.945  34.518  26.981  1.00  0.00     0.163 HD
ATOM     31  O   UNL A   1      32.667  35.624  29.016  1.00  0.00    -0.269 OA
BRANCH  29  32
ATOM     32  C   UNL A   1      34.291  33.955  29.255  1.00  0.00     0.039 A 
ATOM     33  C   UNL A   1      34.068  32.996  30.245  1.00  0.00     0.014 A 
ATOM     34  C   UNL A   1      35.593  34.335  28.914  1.00  0.00     0.014 A 
ATOM     35  C   UNL A   1      35.157  32.379  30.862  1.00  0.00     0.010 A 
ATOM     36  C   UNL A   1      36.675  33.673  29.482  1.00  0.00     0.010 A 
ATOM     37  C   UNL A   1      36.467  32.695  30.467  1.00  0.00    -0.014 A 
BRANCH  37  38
ATOM     38  C   UNL A   1      37.635  32.018  31.080  1.00  0.00     0.031 A 
ATOM     39  C   UNL A   1      38.103  32.419  32.450  1.00  0.00     0.074 A 
ATOM     40  C   UNL A   1      38.308  31.089  30.376  1.00  0.00     0.049 A 
ATOM     41  N   UNL A   1      39.134  31.989  33.133  1.00  0.00    -0.248 NA
ATOM     42  C   UNL A   1      37.323  33.463  33.136  1.00  0.00     0.031 C 
ATOM     43  C   UNL A   1      37.976  30.655  29.018  1.00  0.00     0.029 A 
ATOM     44  N   UNL A   1      39.416  30.349  30.701  1.00  0.00    -0.354 N 
ATOM     45  C   UNL A   1      39.134  32.717  34.314  1.00  0.00     0.074 A 
ATOM     46  C   UNL A   1      38.034  33.653  34.237  1.00  0.00     0.031 C 
ATOM     47  C   UNL A   1      38.850  29.711  28.634  1.00  0.00     0.029 A 
ATOM     48  C   UNL A   1      39.821  29.499  29.702  1.00  0.00     0.049 A 
ATOM     49  H   UNL A   1      39.877  30.421  31.568  1.00  0.00     0.167 HD
ATOM     50  C   UNL A   1      39.963  32.597  35.379  1.00  0.00     0.037 A 
ATOM     51  C   UNL A   1      40.864  28.648  29.654  1.00  0.00     0.037 A 
ATOM     52  C   UNL A   1      41.041  31.647  35.458  1.00  0.00     0.049 A 
ATOM     53  C   UNL A   1      41.771  28.535  30.850  1.00  0.00     0.074 A 
ATOM     54  C   UNL A   1      41.901  31.402  36.514  1.00  0.00     0.029 A 
ATOM     55  N   UNL A   1      41.410  30.787  34.433  1.00  0.00    -0.354 N 
ATOM     56  N   UNL A   1      41.717  29.174  31.993  1.00  0.00    -0.248 NA
ATOM     57  C   UNL A   1      42.879  27.576  30.750  1.00  0.00     0.031 C 
ATOM     58  C   UNL A   1      42.819  30.426  36.113  1.00  0.00     0.029 A 
ATOM     59  C   UNL A   1      42.500  30.025  34.825  1.00  0.00     0.049 A 
ATOM     60  H   UNL A   1      40.965  30.726  33.558  1.00  0.00     0.167 HD
ATOM     61  C   UNL A   1      42.763  28.676  32.758  1.00  0.00     0.074 A 
ATOM     62  C   UNL A   1      43.425  27.670  31.955  1.00  0.00     0.031 C 
ATOM     63  C   UNL A   1      43.141  29.022  34.014  1.00  0.00     0.037 A 
BRANCH  50  64
ATOM     64  C   UNL A   1      39.734  33.514  36.545  1.00  0.00     0.064 A 
ATOM     65  C   UNL A   1      40.341  34.778  36.618  1.00  0.00     0.173 A 
ATOM     66  C   UNL A   1      38.870  33.141  37.586  1.00  0.00     0.173 A 
ATOM     67  F   UNL A   1      41.184  35.178  35.654  1.00  0.00    -0.203 F 
ATOM     68  C   UNL A   1      40.115  35.621  37.703  1.00  0.00     0.198 A 
ATOM     69  C   UNL A   1      38.623  34.001  38.654  1.00  0.00     0.198 A 
ATOM     70  F   UNL A   1      38.259  31.948  37.565  1.00  0.00    -0.203 F 
ATOM     71  F   UNL A   1      40.746  36.802  37.774  1.00  0.00    -0.200 F 
ATOM     72  C   UNL A   1      39.252  35.235  38.717  1.00  0.00     0.200 A 
ATOM     73  F   UNL A   1      37.777  33.632  39.627  1.00  0.00    -0.200 F 
ATOM     74  F   UNL A   1      39.029  36.051  39.756  1.00  0.00    -0.200 F 
ENDBRANCH  50  64
BRANCH  51  75
ATOM     75  C   UNL A   1      41.087  27.817  28.443  1.00  0.00     0.064 A 
ATOM     76  C   UNL A   1      41.930  28.260  27.413  1.00  0.00     0.173 A 
ATOM     77  C   UNL A   1      40.468  26.569  28.288  1.00  0.00     0.173 A 
ATOM     78  F   UNL A   1      42.530  29.456  27.508  1.00  0.00    -0.203 F 
ATOM     79  C   UNL A   1      42.128  27.495  26.266  1.00  0.00     0.198 A 
ATOM     80  C   UNL A   1      40.690  25.792  27.152  1.00  0.00     0.198 A 
ATOM     81  F   UNL A   1      39.658  26.096  29.246  1.00  0.00    -0.203 F 
ATOM     82  F   UNL A   1      42.903  27.962  25.278  1.00  0.00    -0.200 F 
ATOM     83  C   UNL A   1      41.512  26.259  26.140  1.00  0.00     0.200 A 
ATOM     84  F   UNL A   1      40.106  24.591  27.040  1.00  0.00    -0.200 F 
ATOM     85  F   UNL A   1      41.707  25.521  25.038  1.00  0.00    -0.200 F 
ENDBRANCH  51  75
BRANCH  63  86
ATOM     86  C   UNL A   1      44.304  28.283  34.607  1.00  0.00     0.064 A 
ATOM     87  C   UNL A   1      44.133  27.074  35.298  1.00  0.00     0.173 A 
ATOM     88  C   UNL A   1      45.611  28.770  34.447  1.00  0.00     0.173 A 
ATOM     89  F   UNL A   1      42.904  26.574  35.491  1.00  0.00    -0.203 F 
ATOM     90  C   UNL A   1      45.226  26.394  35.829  1.00  0.00     0.198 A 
ATOM     91  C   UNL A   1      46.703  28.071  34.952  1.00  0.00     0.198 A 
ATOM     92  F   UNL A   1      45.828  29.919  33.789  1.00  0.00    -0.203 F 
ATOM     93  F   UNL A   1      45.035  25.266  36.527  1.00  0.00    -0.200 F 
ATOM     94  C   UNL A   1      46.509  26.888  35.649  1.00  0.00     0.200 A 
ATOM     95  F   UNL A   1      47.943  28.545  34.766  1.00  0.00    -0.200 F 
ATOM     96  F   UNL A   1      47.560  26.228  36.155  1.00  0.00    -0.200 F 
ENDBRANCH  63  86
ENDBRANCH  37  38
ENDBRANCH  29  32
ENDBRANCH  27  28
ENDBRANCH  26  27
ENDBRANCH  25  26
ENDBRANCH  24  25
ENDBRANCH   1  24
TORSDOF 18
ENDMDL
