MODEL 1
REMARK VINA RESULT:     -12.3      0.000      0.000
REMARK SMILES O=C(C[C@H](C(=O)Nc1ccc([N+](=O)[O-])cc1)[C@H]1CCCO1)NCCCCCCNC(=O)c1ccc(-c2c3nc(c(-c4c(F)c(F)c(F)c(F)c4F)c4ccc([nH]4)c(-c4c(F)c(F)c(F)c(F)c4F)c4nc(c(-c5c(F)c(F)c(F)c(F)c5F)c5ccc2[nH]5)C=C4)C=C3)cc1
REMARK SMILES IDX 24 1 23 2 22 3 1 4 2 5 3 7 4 8 5 9 6 10 7 11 8 13 9 14 16 15
REMARK SMILES IDX 10 16 15 17 11 18 12 19 13 20 14 21 17 22 18 23 21 24 19 25
REMARK SMILES IDX 20 26 25 27 26 28 27 29 28 30 29 31 30 32 31 34 32 35 33 36
REMARK SMILES IDX 94 37 34 38 93 39 35 40 36 41 37 42 87 43 38 44 92 45 86 46
REMARK SMILES IDX 88 47 39 48 91 49 85 50 84 51 40 53 72 54 52 55 71 56 53 57
REMARK SMILES IDX 56 58 70 59 89 60 54 61 55 62 69 64 90 65 57 66 41 67 42 68
REMARK SMILES IDX 50 69 43 70 44 71 48 72 51 73 45 74 46 75 49 76 47 77 73 78
REMARK SMILES IDX 74 79 82 80 75 81 76 82 80 83 83 84 77 85 78 86 81 87 79 88
REMARK SMILES IDX 58 89 59 90 67 91 60 92 61 93 65 94 68 95 62 96 63 97 66 98
REMARK SMILES IDX 64 99
REMARK H PARENT 22 6 7 12 29 33 88 52 56 63
REMARK Flexibility Score: inf
ROOT
ATOM      1  C   UNL A   1      37.478  22.476  25.885  1.00  0.00     0.021 C 
ENDROOT
BRANCH   1   2
ATOM      2  C   UNL A   1      37.198  23.643  24.955  1.00  0.00     0.116 C 
BRANCH   2   3
ATOM      3  N   UNL A   1      35.799  23.815  24.635  1.00  0.00    -0.356 N 
ATOM      4  O   UNL A   1      35.986  22.986  22.514  1.00  0.00    -0.275 OA
ATOM      5  C   UNL A   1      35.278  23.313  23.463  1.00  0.00     0.220 C 
ATOM      6  H   UNL A   1      35.212  24.296  25.262  1.00  0.00     0.163 HD
BRANCH   5   7
ATOM      7  C   UNL A   1      33.767  23.226  23.380  1.00  0.00     0.116 C 
BRANCH   7   8
ATOM      8  C   UNL A   1      33.129  21.904  23.873  1.00  0.00     0.117 C 
BRANCH   8   9
ATOM      9  C   UNL A   1      32.153  21.218  22.882  1.00  0.00     0.230 C 
ATOM     10  O   UNL A   1      31.301  21.878  22.273  1.00  0.00    -0.274 OA
ATOM     11  N   UNL A   1      32.125  19.880  22.631  1.00  0.00    -0.326 N 
ATOM     12  H   UNL A   1      31.651  19.637  21.803  1.00  0.00     0.169 HD
BRANCH  11  13
ATOM     13  C   UNL A   1      32.641  18.793  23.328  1.00  0.00     0.041 A 
ATOM     14  C   UNL A   1      33.184  17.745  22.579  1.00  0.00     0.033 A 
ATOM     15  C   UNL A   1      32.562  18.700  24.717  1.00  0.00     0.033 A 
ATOM     16  C   UNL A   1      33.810  16.676  23.224  1.00  0.00     0.088 A 
ATOM     17  C   UNL A   1      33.126  17.595  25.368  1.00  0.00     0.088 A 
ATOM     18  C   UNL A   1      33.811  16.625  24.621  1.00  0.00     0.269 A 
BRANCH  18  19
ATOM     19  N   UNL A   1      34.589  15.590  25.311  1.00  0.00     0.062 N 
ATOM     20  O   UNL A   1      34.062  14.478  25.465  1.00  0.00    -0.258 OA
ATOM     21  O   UNL A   1      35.726  15.890  25.708  1.00  0.00    -0.258 OA
ENDBRANCH  18  19
ENDBRANCH  11  13
ENDBRANCH   8   9
BRANCH   8  22
ATOM     22  C   UNL A   1      32.338  22.130  25.221  1.00  0.00     0.131 C 
ATOM     23  C   UNL A   1      33.111  21.716  26.469  1.00  0.00     0.035 C 
ATOM     24  O   UNL A   1      31.994  23.520  25.424  1.00  0.00    -0.377 OA
ATOM     25  C   UNL A   1      33.747  23.002  26.924  1.00  0.00     0.031 C 
ATOM     26  C   UNL A   1      32.686  24.020  26.578  1.00  0.00     0.160 C 
ENDBRANCH   8  22
ENDBRANCH   7   8
ENDBRANCH   5   7
ENDBRANCH   2   3
ENDBRANCH   1   2
BRANCH   1  27
ATOM     27  C   UNL A   1      36.638  21.230  25.606  1.00  0.00     0.002 C 
BRANCH  27  28
ATOM     28  C   UNL A   1      37.236  20.235  24.603  1.00  0.00     0.002 C 
BRANCH  28  29
ATOM     29  C   UNL A   1      38.249  19.235  25.171  1.00  0.00     0.021 C 
BRANCH  29  30
ATOM     30  C   UNL A   1      39.503  19.854  25.780  1.00  0.00     0.116 C 
BRANCH  30  31
ATOM     31  N   UNL A   1      40.574  18.881  25.929  1.00  0.00    -0.352 N 
ATOM     32  C   UNL A   1      41.916  19.080  26.092  1.00  0.00     0.251 C 
ATOM     33  H   UNL A   1      40.291  17.939  25.908  1.00  0.00     0.163 HD
ATOM     34  O   UNL A   1      42.700  18.136  25.985  1.00  0.00    -0.269 OA
BRANCH  32  35
ATOM     35  C   UNL A   1      42.430  20.428  26.390  1.00  0.00     0.039 A 
ATOM     36  C   UNL A   1      42.970  21.192  25.351  1.00  0.00     0.014 A 
ATOM     37  C   UNL A   1      42.405  20.927  27.697  1.00  0.00     0.014 A 
ATOM     38  C   UNL A   1      43.440  22.479  25.614  1.00  0.00     0.010 A 
ATOM     39  C   UNL A   1      42.815  22.232  27.945  1.00  0.00     0.010 A 
ATOM     40  C   UNL A   1      43.342  23.016  26.907  1.00  0.00    -0.014 A 
BRANCH  40  41
ATOM     41  C   UNL A   1      43.786  24.398  27.197  1.00  0.00     0.031 A 
ATOM     42  C   UNL A   1      42.802  25.417  27.693  1.00  0.00     0.074 A 
ATOM     43  C   UNL A   1      45.058  24.751  26.936  1.00  0.00     0.049 A 
ATOM     44  N   UNL A   1      42.976  26.693  27.926  1.00  0.00    -0.248 NA
ATOM     45  C   UNL A   1      41.429  24.943  27.929  1.00  0.00     0.031 C 
ATOM     46  C   UNL A   1      46.085  23.859  26.396  1.00  0.00     0.029 A 
ATOM     47  N   UNL A   1      45.697  25.957  27.068  1.00  0.00    -0.354 N 
ATOM     48  C   UNL A   1      41.736  27.175  28.324  1.00  0.00     0.074 A 
ATOM     49  C   UNL A   1      40.806  26.067  28.248  1.00  0.00     0.031 C 
ATOM     50  C   UNL A   1      47.229  24.548  26.247  1.00  0.00     0.029 A 
ATOM     51  C   UNL A   1      47.005  25.932  26.653  1.00  0.00     0.049 A 
ATOM     52  H   UNL A   1      45.259  26.763  27.426  1.00  0.00     0.167 HD
ATOM     53  C   UNL A   1      41.410  28.423  28.736  1.00  0.00     0.037 A 
ATOM     54  C   UNL A   1      47.917  26.919  26.596  1.00  0.00     0.037 A 
ATOM     55  C   UNL A   1      42.345  29.513  28.823  1.00  0.00     0.049 A 
ATOM     56  C   UNL A   1      47.537  28.295  27.065  1.00  0.00     0.074 A 
ATOM     57  C   UNL A   1      42.136  30.796  29.295  1.00  0.00     0.029 A 
ATOM     58  N   UNL A   1      43.672  29.445  28.421  1.00  0.00    -0.354 N 
ATOM     59  N   UNL A   1      46.382  28.723  27.513  1.00  0.00    -0.248 NA
ATOM     60  C   UNL A   1      48.586  29.321  27.030  1.00  0.00     0.031 C 
ATOM     61  C   UNL A   1      43.327  31.517  29.141  1.00  0.00     0.029 A 
ATOM     62  C   UNL A   1      44.288  30.671  28.611  1.00  0.00     0.049 A 
ATOM     63  H   UNL A   1      44.111  28.643  28.054  1.00  0.00     0.167 HD
ATOM     64  C   UNL A   1      46.564  30.064  27.821  1.00  0.00     0.074 A 
ATOM     65  C   UNL A   1      47.950  30.372  27.530  1.00  0.00     0.031 C 
ATOM     66  C   UNL A   1      45.666  30.959  28.299  1.00  0.00     0.037 A 
BRANCH  53  67
ATOM     67  C   UNL A   1      39.980  28.667  29.122  1.00  0.00     0.064 A 
ATOM     68  C   UNL A   1      39.040  29.143  28.194  1.00  0.00     0.173 A 
ATOM     69  C   UNL A   1      39.540  28.414  30.430  1.00  0.00     0.173 A 
ATOM     70  F   UNL A   1      39.413  29.411  26.934  1.00  0.00    -0.203 F 
ATOM     71  C   UNL A   1      37.724  29.395  28.572  1.00  0.00     0.198 A 
ATOM     72  C   UNL A   1      38.215  28.641  30.796  1.00  0.00     0.198 A 
ATOM     73  F   UNL A   1      40.395  27.953  31.355  1.00  0.00    -0.203 F 
ATOM     74  F   UNL A   1      36.860  29.906  27.682  1.00  0.00    -0.200 F 
ATOM     75  C   UNL A   1      37.312  29.140  29.869  1.00  0.00     0.200 A 
ATOM     76  F   UNL A   1      37.814  28.383  32.048  1.00  0.00    -0.200 F 
ATOM     77  F   UNL A   1      36.044  29.384  30.231  1.00  0.00    -0.200 F 
ENDBRANCH  53  67
BRANCH  54  78
ATOM     78  C   UNL A   1      49.282  26.624  26.092  1.00  0.00     0.064 A 
ATOM     79  C   UNL A   1      49.633  26.900  24.763  1.00  0.00     0.173 A 
ATOM     80  C   UNL A   1      50.272  26.102  26.936  1.00  0.00     0.173 A 
ATOM     81  F   UNL A   1      48.714  27.385  23.916  1.00  0.00    -0.203 F 
ATOM     82  C   UNL A   1      50.922  26.657  24.297  1.00  0.00     0.198 A 
ATOM     83  C   UNL A   1      51.568  25.881  26.474  1.00  0.00     0.198 A 
ATOM     84  F   UNL A   1      49.987  25.830  28.218  1.00  0.00    -0.203 F 
ATOM     85  F   UNL A   1      51.226  26.906  23.015  1.00  0.00    -0.200 F 
ATOM     86  C   UNL A   1      51.891  26.156  25.153  1.00  0.00     0.200 A 
ATOM     87  F   UNL A   1      52.505  25.412  27.309  1.00  0.00    -0.200 F 
ATOM     88  F   UNL A   1      53.135  25.937  24.707  1.00  0.00    -0.200 F 
ENDBRANCH  54  78
BRANCH  66  89
ATOM     89  C   UNL A   1      46.156  32.356  28.535  1.00  0.00     0.064 A 
ATOM     90  C   UNL A   1      46.061  33.340  27.540  1.00  0.00     0.173 A 
ATOM     91  C   UNL A   1      46.689  32.726  29.779  1.00  0.00     0.173 A 
ATOM     92  F   UNL A   1      45.574  33.030  26.329  1.00  0.00    -0.203 F 
ATOM     93  C   UNL A   1      46.500  34.639  27.776  1.00  0.00     0.198 A 
ATOM     94  C   UNL A   1      47.103  34.033  30.020  1.00  0.00     0.198 A 
ATOM     95  F   UNL A   1      46.797  31.821  30.763  1.00  0.00    -0.203 F 
ATOM     96  F   UNL A   1      46.437  35.554  26.798  1.00  0.00    -0.200 F 
ATOM     97  C   UNL A   1      47.013  34.986  29.017  1.00  0.00     0.200 A 
ATOM     98  F   UNL A   1      47.590  34.369  31.222  1.00  0.00    -0.200 F 
ATOM     99  F   UNL A   1      47.429  36.240  29.245  1.00  0.00    -0.200 F 
ENDBRANCH  66  89
ENDBRANCH  40  41
ENDBRANCH  32  35
ENDBRANCH  30  31
ENDBRANCH  29  30
ENDBRANCH  28  29
ENDBRANCH  27  28
ENDBRANCH   1  27
TORSDOF 18
ENDMDL
MODEL 2
REMARK VINA RESULT:     -12.2      1.324      7.366
REMARK SMILES O=C(C[C@H](C(=O)Nc1ccc([N+](=O)[O-])cc1)[C@H]1CCCO1)NCCCCCCNC(=O)c1ccc(-c2c3nc(c(-c4c(F)c(F)c(F)c(F)c4F)c4ccc([nH]4)c(-c4c(F)c(F)c(F)c(F)c4F)c4nc(c(-c5c(F)c(F)c(F)c(F)c5F)c5ccc2[nH]5)C=C4)C=C3)cc1
REMARK SMILES IDX 24 1 23 2 22 3 1 4 2 5 3 7 4 8 5 9 6 10 7 11 8 13 9 14 16 15
REMARK SMILES IDX 10 16 15 17 11 18 12 19 13 20 14 21 17 22 18 23 21 24 19 25
REMARK SMILES IDX 20 26 25 27 26 28 27 29 28 30 29 31 30 32 31 34 32 35 33 36
REMARK SMILES IDX 94 37 34 38 93 39 35 40 36 41 37 42 87 43 38 44 92 45 86 46
REMARK SMILES IDX 88 47 39 48 91 49 85 50 84 51 40 53 72 54 52 55 71 56 53 57
REMARK SMILES IDX 56 58 70 59 89 60 54 61 55 62 69 64 90 65 57 66 41 67 42 68
REMARK SMILES IDX 50 69 43 70 44 71 48 72 51 73 45 74 46 75 49 76 47 77 73 78
REMARK SMILES IDX 74 79 82 80 75 81 76 82 80 83 83 84 77 85 78 86 81 87 79 88
REMARK SMILES IDX 58 89 59 90 67 91 60 92 61 93 65 94 68 95 62 96 63 97 66 98
REMARK SMILES IDX 64 99
REMARK H PARENT 22 6 7 12 29 33 88 52 56 63
REMARK Flexibility Score: inf
ROOT
ATOM      1  C   UNL A   1      39.297  22.730  26.424  1.00  0.00     0.021 C 
ENDROOT
BRANCH   1   2
ATOM      2  C   UNL A   1      38.325  21.981  25.530  1.00  0.00     0.116 C 
BRANCH   2   3
ATOM      3  N   UNL A   1      37.008  22.574  25.467  1.00  0.00    -0.356 N 
ATOM      4  O   UNL A   1      36.922  22.603  23.184  1.00  0.00    -0.275 OA
ATOM      5  C   UNL A   1      36.346  22.693  24.266  1.00  0.00     0.220 C 
ATOM      6  H   UNL A   1      36.581  22.898  26.293  1.00  0.00     0.163 HD
BRANCH   5   7
ATOM      7  C   UNL A   1      34.861  22.989  24.341  1.00  0.00     0.116 C 
BRANCH   7   8
ATOM      8  C   UNL A   1      33.945  21.803  24.731  1.00  0.00     0.117 C 
BRANCH   8   9
ATOM      9  C   UNL A   1      32.759  21.527  23.771  1.00  0.00     0.230 C 
ATOM     10  O   UNL A   1      32.055  22.455  23.351  1.00  0.00    -0.274 OA
ATOM     11  N   UNL A   1      32.380  20.288  23.351  1.00  0.00    -0.326 N 
ATOM     12  H   UNL A   1      31.801  20.294  22.556  1.00  0.00     0.169 HD
BRANCH  11  13
ATOM     13  C   UNL A   1      32.660  19.016  23.839  1.00  0.00     0.041 A 
ATOM     14  C   UNL A   1      33.094  18.055  22.923  1.00  0.00     0.033 A 
ATOM     15  C   UNL A   1      32.450  18.673  25.175  1.00  0.00     0.033 A 
ATOM     16  C   UNL A   1      33.489  16.792  23.368  1.00  0.00     0.088 A 
ATOM     17  C   UNL A   1      32.778  17.385  25.616  1.00  0.00     0.088 A 
ATOM     18  C   UNL A   1      33.364  16.475  24.724  1.00  0.00     0.269 A 
BRANCH  18  19
ATOM     19  N   UNL A   1      33.910  15.210  25.229  1.00  0.00     0.062 N 
ATOM     20  O   UNL A   1      33.107  14.319  25.542  1.00  0.00    -0.258 OA
ATOM     21  O   UNL A   1      35.143  15.109  25.322  1.00  0.00    -0.258 OA
ENDBRANCH  18  19
ENDBRANCH  11  13
ENDBRANCH   8   9
BRANCH   8  22
ATOM     22  C   UNL A   1      33.335  22.013  26.173  1.00  0.00     0.131 C 
ATOM     23  C   UNL A   1      33.654  23.372  26.788  1.00  0.00     0.035 C 
ATOM     24  O   UNL A   1      31.892  21.919  26.174  1.00  0.00    -0.377 OA
ATOM     25  C   UNL A   1      32.449  24.202  26.435  1.00  0.00     0.031 C 
ATOM     26  C   UNL A   1      31.330  23.191  26.528  1.00  0.00     0.160 C 
ENDBRANCH   8  22
ENDBRANCH   7   8
ENDBRANCH   5   7
ENDBRANCH   2   3
ENDBRANCH   1   2
BRANCH   1  27
ATOM     27  C   UNL A   1      40.700  22.126  26.476  1.00  0.00     0.002 C 
BRANCH  27  28
ATOM     28  C   UNL A   1      40.785  20.686  26.999  1.00  0.00     0.002 C 
BRANCH  28  29
ATOM     29  C   UNL A   1      41.366  19.652  26.029  1.00  0.00     0.021 C 
BRANCH  29  30
ATOM     30  C   UNL A   1      42.727  19.084  26.421  1.00  0.00     0.116 C 
BRANCH  30  31
ATOM     31  N   UNL A   1      43.538  18.762  25.257  1.00  0.00    -0.352 N 
ATOM     32  C   UNL A   1      44.273  19.585  24.452  1.00  0.00     0.251 C 
ATOM     33  H   UNL A   1      43.562  17.808  25.013  1.00  0.00     0.163 HD
ATOM     34  O   UNL A   1      44.724  19.167  23.384  1.00  0.00    -0.269 OA
BRANCH  32  35
ATOM     35  C   UNL A   1      44.524  20.980  24.855  1.00  0.00     0.039 A 
ATOM     36  C   UNL A   1      44.155  22.012  23.987  1.00  0.00     0.014 A 
ATOM     37  C   UNL A   1      45.144  21.268  26.075  1.00  0.00     0.014 A 
ATOM     38  C   UNL A   1      44.365  23.338  24.365  1.00  0.00     0.010 A 
ATOM     39  C   UNL A   1      45.295  22.590  26.477  1.00  0.00     0.010 A 
ATOM     40  C   UNL A   1      44.912  23.636  25.622  1.00  0.00    -0.014 A 
BRANCH  40  41
ATOM     41  C   UNL A   1      45.095  25.037  26.065  1.00  0.00     0.031 A 
ATOM     42  C   UNL A   1      46.458  25.664  26.035  1.00  0.00     0.074 A 
ATOM     43  C   UNL A   1      44.046  25.712  26.569  1.00  0.00     0.049 A 
ATOM     44  N   UNL A   1      46.836  26.845  26.454  1.00  0.00    -0.248 NA
ATOM     45  C   UNL A   1      47.548  24.841  25.488  1.00  0.00     0.031 C 
ATOM     46  C   UNL A   1      42.688  25.181  26.701  1.00  0.00     0.029 A 
ATOM     47  N   UNL A   1      43.960  26.981  27.081  1.00  0.00    -0.354 N 
ATOM     48  C   UNL A   1      48.206  26.901  26.232  1.00  0.00     0.074 A 
ATOM     49  C   UNL A   1      48.602  25.617  25.693  1.00  0.00     0.031 C 
ATOM     50  C   UNL A   1      41.903  26.119  27.255  1.00  0.00     0.029 A 
ATOM     51  C   UNL A   1      42.708  27.303  27.542  1.00  0.00     0.049 A 
ATOM     52  H   UNL A   1      44.724  27.601  27.115  1.00  0.00     0.167 HD
ATOM     53  C   UNL A   1      49.051  27.938  26.440  1.00  0.00     0.037 A 
ATOM     54  C   UNL A   1      42.264  28.423  28.138  1.00  0.00     0.037 A 
ATOM     55  C   UNL A   1      48.645  29.217  26.961  1.00  0.00     0.049 A 
ATOM     56  C   UNL A   1      43.217  29.566  28.352  1.00  0.00     0.074 A 
ATOM     57  C   UNL A   1      49.405  30.358  27.143  1.00  0.00     0.029 A 
ATOM     58  N   UNL A   1      47.360  29.519  27.391  1.00  0.00    -0.354 N 
ATOM     59  N   UNL A   1      44.494  29.638  28.068  1.00  0.00    -0.248 NA
ATOM     60  C   UNL A   1      42.665  30.783  28.960  1.00  0.00     0.031 C 
ATOM     61  C   UNL A   1      48.590  31.338  27.721  1.00  0.00     0.029 A 
ATOM     62  C   UNL A   1      47.312  30.821  27.861  1.00  0.00     0.049 A 
ATOM     63  H   UNL A   1      46.596  28.899  27.367  1.00  0.00     0.167 HD
ATOM     64  C   UNL A   1      44.900  30.908  28.453  1.00  0.00     0.074 A 
ATOM     65  C   UNL A   1      43.725  31.580  28.971  1.00  0.00     0.031 C 
ATOM     66  C   UNL A   1      46.134  31.465  28.387  1.00  0.00     0.037 A 
BRANCH  53  67
ATOM     67  C   UNL A   1      50.497  27.725  26.098  1.00  0.00     0.064 A 
ATOM     68  C   UNL A   1      50.971  27.878  24.786  1.00  0.00     0.173 A 
ATOM     69  C   UNL A   1      51.422  27.373  27.092  1.00  0.00     0.173 A 
ATOM     70  F   UNL A   1      50.125  28.203  23.796  1.00  0.00    -0.203 F 
ATOM     71  C   UNL A   1      52.309  27.648  24.475  1.00  0.00     0.198 A 
ATOM     72  C   UNL A   1      52.765  27.172  26.783  1.00  0.00     0.198 A 
ATOM     73  F   UNL A   1      51.024  27.220  28.364  1.00  0.00    -0.203 F 
ATOM     74  F   UNL A   1      52.726  27.744  23.205  1.00  0.00    -0.200 F 
ATOM     75  C   UNL A   1      53.205  27.300  25.473  1.00  0.00     0.200 A 
ATOM     76  F   UNL A   1      53.633  26.846  27.750  1.00  0.00    -0.200 F 
ATOM     77  F   UNL A   1      54.492  27.078  25.173  1.00  0.00    -0.200 F 
ENDBRANCH  53  67
BRANCH  54  78
ATOM     78  C   UNL A   1      40.842  28.515  28.553  1.00  0.00     0.064 A 
ATOM     79  C   UNL A   1      40.446  28.157  29.848  1.00  0.00     0.173 A 
ATOM     80  C   UNL A   1      39.859  29.001  27.679  1.00  0.00     0.173 A 
ATOM     81  F   UNL A   1      41.348  27.672  30.713  1.00  0.00    -0.203 F 
ATOM     82  C   UNL A   1      39.118  28.275  30.251  1.00  0.00     0.198 A 
ATOM     83  C   UNL A   1      38.535  29.141  28.090  1.00  0.00     0.198 A 
ATOM     84  F   UNL A   1      40.191  29.365  26.431  1.00  0.00    -0.203 F 
ATOM     85  F   UNL A   1      38.760  27.902  31.488  1.00  0.00    -0.200 F 
ATOM     86  C   UNL A   1      38.165  28.774  29.376  1.00  0.00     0.200 A 
ATOM     87  F   UNL A   1      37.621  29.639  27.246  1.00  0.00    -0.200 F 
ATOM     88  F   UNL A   1      36.891  28.902  29.769  1.00  0.00    -0.200 F 
ENDBRANCH  54  78
BRANCH  66  89
ATOM     89  C   UNL A   1      46.273  32.872  28.887  1.00  0.00     0.064 A 
ATOM     90  C   UNL A   1      46.618  33.139  30.220  1.00  0.00     0.173 A 
ATOM     91  C   UNL A   1      46.101  33.960  28.019  1.00  0.00     0.173 A 
ATOM     92  F   UNL A   1      46.776  32.133  31.092  1.00  0.00    -0.203 F 
ATOM     93  C   UNL A   1      46.765  34.449  30.670  1.00  0.00     0.198 A 
ATOM     94  C   UNL A   1      46.275  35.266  28.466  1.00  0.00     0.198 A 
ATOM     95  F   UNL A   1      45.775  33.753  26.734  1.00  0.00    -0.203 F 
ATOM     96  F   UNL A   1      47.055  34.684  31.957  1.00  0.00    -0.200 F 
ATOM     97  C   UNL A   1      46.601  35.509  29.792  1.00  0.00     0.200 A 
ATOM     98  F   UNL A   1      46.125  36.290  27.614  1.00  0.00    -0.200 F 
ATOM     99  F   UNL A   1      46.750  36.769  30.225  1.00  0.00    -0.200 F 
ENDBRANCH  66  89
ENDBRANCH  40  41
ENDBRANCH  32  35
ENDBRANCH  30  31
ENDBRANCH  29  30
ENDBRANCH  28  29
ENDBRANCH  27  28
ENDBRANCH   1  27
TORSDOF 18
ENDMDL
MODEL 3
REMARK VINA RESULT:     -12.2      7.193     11.887
REMARK SMILES O=C(C[C@H](C(=O)Nc1ccc([N+](=O)[O-])cc1)[C@H]1CCCO1)NCCCCCCNC(=O)c1ccc(-c2c3nc(c(-c4c(F)c(F)c(F)c(F)c4F)c4ccc([nH]4)c(-c4c(F)c(F)c(F)c(F)c4F)c4nc(c(-c5c(F)c(F)c(F)c(F)c5F)c5ccc2[nH]5)C=C4)C=C3)cc1
REMARK SMILES IDX 24 1 23 2 22 3 1 4 2 5 3 7 4 8 5 9 6 10 7 11 8 13 9 14 16 15
REMARK SMILES IDX 10 16 15 17 11 18 12 19 13 20 14 21 17 22 18 23 21 24 19 25
REMARK SMILES IDX 20 26 25 27 26 28 27 29 28 30 29 31 30 32 31 34 32 35 33 36
REMARK SMILES IDX 94 37 34 38 93 39 35 40 36 41 37 42 87 43 38 44 92 45 86 46
REMARK SMILES IDX 88 47 39 48 91 49 85 50 84 51 40 53 72 54 52 55 71 56 53 57
REMARK SMILES IDX 56 58 70 59 89 60 54 61 55 62 69 64 90 65 57 66 41 67 42 68
REMARK SMILES IDX 50 69 43 70 44 71 48 72 51 73 45 74 46 75 49 76 47 77 73 78
REMARK SMILES IDX 74 79 82 80 75 81 76 82 80 83 83 84 77 85 78 86 81 87 79 88
REMARK SMILES IDX 58 89 59 90 67 91 60 92 61 93 65 94 68 95 62 96 63 97 66 98
REMARK SMILES IDX 64 99
REMARK H PARENT 22 6 7 12 29 33 88 52 56 63
REMARK Flexibility Score: inf
ROOT
ATOM      1  C   UNL A   1      34.695  31.365  28.042  1.00  0.00     0.021 C 
ENDROOT
BRANCH   1   2
ATOM      2  C   UNL A   1      33.458  30.836  27.338  1.00  0.00     0.116 C 
BRANCH   2   3
ATOM      3  N   UNL A   1      33.733  30.198  26.070  1.00  0.00    -0.356 N 
ATOM      4  O   UNL A   1      33.909  28.097  26.949  1.00  0.00    -0.275 OA
ATOM      5  C   UNL A   1      33.782  28.826  25.969  1.00  0.00     0.220 C 
ATOM      6  H   UNL A   1      33.887  30.752  25.270  1.00  0.00     0.163 HD
BRANCH   5   7
ATOM      7  C   UNL A   1      33.719  28.251  24.568  1.00  0.00     0.116 C 
BRANCH   7   8
ATOM      8  C   UNL A   1      32.432  28.552  23.761  1.00  0.00     0.117 C 
BRANCH   8   9
ATOM      9  C   UNL A   1      31.108  28.057  24.398  1.00  0.00     0.230 C 
ATOM     10  O   UNL A   1      31.065  26.986  25.018  1.00  0.00    -0.274 OA
ATOM     11  N   UNL A   1      29.917  28.710  24.306  1.00  0.00    -0.326 N 
ATOM     12  H   UNL A   1      29.250  28.424  24.970  1.00  0.00     0.169 HD
BRANCH  11  13
ATOM     13  C   UNL A   1      29.469  29.709  23.447  1.00  0.00     0.041 A 
ATOM     14  C   UNL A   1      29.177  29.344  22.130  1.00  0.00     0.033 A 
ATOM     15  C   UNL A   1      29.380  31.043  23.846  1.00  0.00     0.033 A 
ATOM     16  C   UNL A   1      28.626  30.279  21.251  1.00  0.00     0.088 A 
ATOM     17  C   UNL A   1      28.895  32.001  22.947  1.00  0.00     0.088 A 
ATOM     18  C   UNL A   1      28.452  31.599  21.678  1.00  0.00     0.269 A 
BRANCH  18  19
ATOM     19  N   UNL A   1      27.741  32.553  20.819  1.00  0.00     0.062 N 
ATOM     20  O   UNL A   1      27.329  32.147  19.723  1.00  0.00    -0.258 OA
ATOM     21  O   UNL A   1      27.603  33.713  21.237  1.00  0.00    -0.258 OA
ENDBRANCH  18  19
ENDBRANCH  11  13
ENDBRANCH   8   9
BRANCH   8  22
ATOM     22  C   UNL A   1      32.515  27.922  22.314  1.00  0.00     0.131 C 
ATOM     23  C   UNL A   1      33.782  27.110  22.065  1.00  0.00     0.035 C 
ATOM     24  O   UNL A   1      31.419  27.016  22.051  1.00  0.00    -0.377 OA
ATOM     25  C   UNL A   1      33.356  25.700  22.378  1.00  0.00     0.031 C 
ATOM     26  C   UNL A   1      31.928  25.684  21.886  1.00  0.00     0.160 C 
ENDBRANCH   8  22
ENDBRANCH   7   8
ENDBRANCH   5   7
ENDBRANCH   2   3
ENDBRANCH   1   2
BRANCH   1  27
ATOM     27  C   UNL A   1      34.403  32.339  29.184  1.00  0.00     0.002 C 
BRANCH  27  28
ATOM     28  C   UNL A   1      34.525  33.829  28.835  1.00  0.00     0.002 C 
BRANCH  28  29
ATOM     29  C   UNL A   1      33.238  34.652  28.947  1.00  0.00     0.021 C 
BRANCH  29  30
ATOM     30  C   UNL A   1      33.410  36.053  29.524  1.00  0.00     0.116 C 
BRANCH  30  31
ATOM     31  N   UNL A   1      32.542  36.282  30.670  1.00  0.00    -0.352 N 
ATOM     32  C   UNL A   1      32.611  35.763  31.932  1.00  0.00     0.251 C 
ATOM     33  H   UNL A   1      31.794  36.902  30.512  1.00  0.00     0.163 HD
ATOM     34  O   UNL A   1      31.667  35.901  32.710  1.00  0.00    -0.269 OA
BRANCH  32  35
ATOM     35  C   UNL A   1      33.814  35.030  32.364  1.00  0.00     0.039 A 
ATOM     36  C   UNL A   1      33.676  33.722  32.837  1.00  0.00     0.014 A 
ATOM     37  C   UNL A   1      35.072  35.641  32.327  1.00  0.00     0.014 A 
ATOM     38  C   UNL A   1      34.808  33.007  33.228  1.00  0.00     0.010 A 
ATOM     39  C   UNL A   1      36.205  34.907  32.657  1.00  0.00     0.010 A 
ATOM     40  C   UNL A   1      36.082  33.587  33.116  1.00  0.00    -0.014 A 
BRANCH  40  41
ATOM     41  C   UNL A   1      37.302  32.828  33.475  1.00  0.00     0.031 A 
ATOM     42  C   UNL A   1      38.038  33.144  34.745  1.00  0.00     0.074 A 
ATOM     43  C   UNL A   1      37.786  31.912  32.617  1.00  0.00     0.049 A 
ATOM     44  N   UNL A   1      39.164  32.651  35.194  1.00  0.00    -0.248 NA
ATOM     45  C   UNL A   1      37.444  34.176  35.609  1.00  0.00     0.031 C 
ATOM     46  C   UNL A   1      37.185  31.566  31.328  1.00  0.00     0.029 A 
ATOM     47  N   UNL A   1      38.904  31.121  32.689  1.00  0.00    -0.354 N 
ATOM     48  C   UNL A   1      39.418  33.319  36.385  1.00  0.00     0.074 A 
ATOM     49  C   UNL A   1      38.358  34.290  36.561  1.00  0.00     0.031 C 
ATOM     50  C   UNL A   1      37.940  30.628  30.731  1.00  0.00     0.029 A 
ATOM     51  C   UNL A   1      39.088  30.331  31.582  1.00  0.00     0.049 A 
ATOM     52  H   UNL A   1      39.515  31.121  33.461  1.00  0.00     0.167 HD
ATOM     53  C   UNL A   1      40.431  33.123  37.261  1.00  0.00     0.037 A 
ATOM     54  C   UNL A   1      40.079  29.472  31.283  1.00  0.00     0.037 A 
ATOM     55  C   UNL A   1      41.470  32.143  37.086  1.00  0.00     0.049 A 
ATOM     56  C   UNL A   1      41.190  29.263  32.274  1.00  0.00     0.074 A 
ATOM     57  C   UNL A   1      42.502  31.813  37.946  1.00  0.00     0.029 A 
ATOM     58  N   UNL A   1      41.610  31.338  35.964  1.00  0.00    -0.354 N 
ATOM     59  N   UNL A   1      41.380  29.844  33.434  1.00  0.00    -0.248 NA
ATOM     60  C   UNL A   1      42.217  28.276  31.919  1.00  0.00     0.031 C 
ATOM     61  C   UNL A   1      43.291  30.836  37.326  1.00  0.00     0.029 A 
ATOM     62  C   UNL A   1      42.726  30.528  36.098  1.00  0.00     0.049 A 
ATOM     63  H   UNL A   1      41.006  31.342  35.186  1.00  0.00     0.167 HD
ATOM     64  C   UNL A   1      42.542  29.289  33.953  1.00  0.00     0.074 A 
ATOM     65  C   UNL A   1      43.000  28.308  32.989  1.00  0.00     0.031 C 
ATOM     66  C   UNL A   1      43.173  29.568  35.119  1.00  0.00     0.037 A 
BRANCH  53  67
ATOM     67  C   UNL A   1      40.456  33.989  38.487  1.00  0.00     0.064 A 
ATOM     68  C   UNL A   1      41.183  35.189  38.523  1.00  0.00     0.173 A 
ATOM     69  C   UNL A   1      39.740  33.622  39.636  1.00  0.00     0.173 A 
ATOM     70  F   UNL A   1      41.894  35.579  37.454  1.00  0.00    -0.203 F 
ATOM     71  C   UNL A   1      41.224  35.969  39.676  1.00  0.00     0.198 A 
ATOM     72  C   UNL A   1      39.760  34.419  40.778  1.00  0.00     0.198 A 
ATOM     73  F   UNL A   1      39.024  32.488  39.655  1.00  0.00    -0.203 F 
ATOM     74  F   UNL A   1      41.973  37.081  39.704  1.00  0.00    -0.200 F 
ATOM     75  C   UNL A   1      40.510  35.586  40.800  1.00  0.00     0.200 A 
ATOM     76  F   UNL A   1      39.061  34.055  41.861  1.00  0.00    -0.200 F 
ATOM     77  F   UNL A   1      40.551  36.338  41.909  1.00  0.00    -0.200 F 
ENDBRANCH  53  67
BRANCH  54  78
ATOM     78  C   UNL A   1      40.043  28.735  29.996  1.00  0.00     0.064 A 
ATOM     79  C   UNL A   1      40.619  29.280  28.839  1.00  0.00     0.173 A 
ATOM     80  C   UNL A   1      39.473  27.458  29.903  1.00  0.00     0.173 A 
ATOM     81  F   UNL A   1      41.161  30.505  28.876  1.00  0.00    -0.203 F 
ATOM     82  C   UNL A   1      40.618  28.576  27.638  1.00  0.00     0.198 A 
ATOM     83  C   UNL A   1      39.494  26.745  28.706  1.00  0.00     0.198 A 
ATOM     84  F   UNL A   1      38.918  26.891  30.985  1.00  0.00    -0.203 F 
ATOM     85  F   UNL A   1      41.153  29.130  26.539  1.00  0.00    -0.200 F 
ATOM     86  C   UNL A   1      40.064  27.307  27.573  1.00  0.00     0.200 A 
ATOM     87  F   UNL A   1      38.971  25.512  28.653  1.00  0.00    -0.200 F 
ATOM     88  F   UNL A   1      40.077  26.624  26.420  1.00  0.00    -0.200 F 
ENDBRANCH  54  78
BRANCH  66  89
ATOM     89  C   UNL A   1      44.427  28.802  35.415  1.00  0.00     0.064 A 
ATOM     90  C   UNL A   1      45.686  29.291  35.037  1.00  0.00     0.173 A 
ATOM     91  C   UNL A   1      44.374  27.590  36.119  1.00  0.00     0.173 A 
ATOM     92  F   UNL A   1      45.786  30.437  34.347  1.00  0.00    -0.203 F 
ATOM     93  C   UNL A   1      46.846  28.582  35.335  1.00  0.00     0.198 A 
ATOM     94  C   UNL A   1      45.538  26.897  36.438  1.00  0.00     0.198 A 
ATOM     95  F   UNL A   1      43.193  27.084  36.505  1.00  0.00    -0.203 F 
ATOM     96  F   UNL A   1      48.036  29.046  34.928  1.00  0.00    -0.200 F 
ATOM     97  C   UNL A   1      46.772  27.391  36.041  1.00  0.00     0.200 A 
ATOM     98  F   UNL A   1      45.466  25.751  37.128  1.00  0.00    -0.200 F 
ATOM     99  F   UNL A   1      47.891  26.712  36.333  1.00  0.00    -0.200 F 
ENDBRANCH  66  89
ENDBRANCH  40  41
ENDBRANCH  32  35
ENDBRANCH  30  31
ENDBRANCH  29  30
ENDBRANCH  28  29
ENDBRANCH  27  28
ENDBRANCH   1  27
TORSDOF 18
ENDMDL
