MODEL 1
REMARK VINA RESULT:     -11.2      0.000      0.000
REMARK SMILES C[C@H](Sc1ccc(N)c(Cl)c1)C(=O)NCCCCCCNC(=O)c1ccc(-c2c3nc(c(-c4c(F)c(F)c(F)c(F)c4F)c4ccc([nH]4)c(-c4c(F)c(F)c(F)c(F)c4F)c4nc(c(-c5c(F)c(F)c(F)c(F)c5F)c5ccc2[nH]5)C=C4)C=C3)cc1
REMARK SMILES IDX 17 1 16 2 15 3 14 4 12 5 13 6 2 8 1 9 3 10 4 11 5 12 11 13
REMARK SMILES IDX 6 14 9 15 7 16 10 17 8 18 18 21 19 22 20 23 21 24 22 25
REMARK SMILES IDX 23 27 24 28 25 29 86 30 26 31 85 32 27 33 28 34 29 35 79 36
REMARK SMILES IDX 30 37 84 38 78 39 80 40 31 41 83 42 77 43 76 44 32 46 64 47
REMARK SMILES IDX 44 48 63 49 45 50 48 51 62 52 81 53 46 54 47 55 61 57 82 58
REMARK SMILES IDX 49 59 33 60 34 61 42 62 35 63 36 64 40 65 43 66 37 67 38 68
REMARK SMILES IDX 41 69 39 70 65 71 66 72 74 73 67 74 68 75 72 76 75 77 69 78
REMARK SMILES IDX 70 79 73 80 71 81 50 82 51 83 59 84 52 85 53 86 57 87 60 88
REMARK SMILES IDX 54 89 55 90 58 91 56 92
REMARK H PARENT 14 7 8 19 8 20 21 26 80 45 48 56
REMARK Flexibility Score: inf
ROOT
ATOM      1  C   UNL A   1      31.986  29.644  26.563  1.00  0.00     0.002 C 
ENDROOT
BRANCH   1   2
ATOM      2  C   UNL A   1      33.161  28.954  25.862  1.00  0.00     0.021 C 
BRANCH   2   3
ATOM      3  C   UNL A   1      33.573  27.651  26.543  1.00  0.00     0.116 C 
BRANCH   3   4
ATOM      4  N   UNL A   1      33.919  26.647  25.570  1.00  0.00    -0.355 N 
ATOM      5  C   UNL A   1      33.240  25.529  25.195  1.00  0.00     0.233 C 
ATOM      6  O   UNL A   1      33.831  24.762  24.426  1.00  0.00    -0.274 OA
ATOM      7  H   UNL A   1      34.775  26.791  25.106  1.00  0.00     0.163 HD
BRANCH   5   8
ATOM      8  C   UNL A   1      31.782  25.260  25.589  1.00  0.00     0.137 C 
ATOM      9  C   UNL A   1      31.641  24.237  26.702  1.00  0.00     0.030 C 
BRANCH   8  10
ATOM     10  S   UNL A   1      30.589  25.281  24.176  1.00  0.00    -0.113 SA
BRANCH  10  11
ATOM     11  C   UNL A   1      30.457  26.906  23.446  1.00  0.00     0.010 A 
ATOM     12  C   UNL A   1      31.484  27.650  22.868  1.00  0.00     0.017 A 
ATOM     13  C   UNL A   1      29.170  27.465  23.434  1.00  0.00     0.037 A 
ATOM     14  C   UNL A   1      31.270  28.960  22.412  1.00  0.00     0.028 A 
ATOM     15  C   UNL A   1      28.944  28.755  22.936  1.00  0.00     0.065 A 
ATOM     16  C   UNL A   1      29.997  29.528  22.424  1.00  0.00     0.050 A 
ATOM     17  Cl  UNL A   1      27.331  29.381  22.965  1.00  0.00    -0.082 Cl
BRANCH  16  18
ATOM     18  N   UNL A   1      29.837  30.864  22.066  1.00  0.00    -0.398 N 
ATOM     19  H   UNL A   1      29.000  31.334  22.281  1.00  0.00     0.156 HD
ATOM     20  H   UNL A   1      30.562  31.337  21.598  1.00  0.00     0.156 HD
ENDBRANCH  16  18
ENDBRANCH  10  11
ENDBRANCH   8  10
ENDBRANCH   5   8
ENDBRANCH   3   4
ENDBRANCH   2   3
ENDBRANCH   1   2
BRANCH   1  21
ATOM     21  C   UNL A   1      31.497  30.924  25.873  1.00  0.00     0.002 C 
BRANCH  21  22
ATOM     22  C   UNL A   1      31.316  32.127  26.804  1.00  0.00     0.021 C 
BRANCH  22  23
ATOM     23  C   UNL A   1      32.619  32.821  27.181  1.00  0.00     0.116 C 
BRANCH  23  24
ATOM     24  N   UNL A   1      32.397  34.213  27.545  1.00  0.00    -0.352 N 
ATOM     25  C   UNL A   1      32.967  34.948  28.554  1.00  0.00     0.251 C 
ATOM     26  H   UNL A   1      31.744  34.696  26.989  1.00  0.00     0.163 HD
ATOM     27  O   UNL A   1      32.501  36.033  28.876  1.00  0.00    -0.269 OA
BRANCH  25  28
ATOM     28  C   UNL A   1      34.148  34.411  29.259  1.00  0.00     0.039 A 
ATOM     29  C   UNL A   1      33.968  33.695  30.444  1.00  0.00     0.014 A 
ATOM     30  C   UNL A   1      35.431  34.619  28.745  1.00  0.00     0.014 A 
ATOM     31  C   UNL A   1      35.075  33.138  31.086  1.00  0.00     0.010 A 
ATOM     32  C   UNL A   1      36.521  34.000  29.342  1.00  0.00     0.010 A 
ATOM     33  C   UNL A   1      36.356  33.260  30.524  1.00  0.00    -0.014 A 
BRANCH  33  34
ATOM     34  C   UNL A   1      37.546  32.642  31.158  1.00  0.00     0.031 A 
ATOM     35  C   UNL A   1      38.253  31.508  30.467  1.00  0.00     0.074 A 
ATOM     36  C   UNL A   1      37.940  33.045  32.382  1.00  0.00     0.049 A 
ATOM     37  N   UNL A   1      39.231  30.754  30.901  1.00  0.00    -0.248 NA
ATOM     38  C   UNL A   1      37.777  31.154  29.119  1.00  0.00     0.031 C 
ATOM     39  C   UNL A   1      37.313  34.111  33.165  1.00  0.00     0.029 A 
ATOM     40  N   UNL A   1      38.951  32.591  33.192  1.00  0.00    -0.354 N 
ATOM     41  C   UNL A   1      39.470  29.828  29.894  1.00  0.00     0.074 A 
ATOM     42  C   UNL A   1      38.507  30.081  28.846  1.00  0.00     0.031 C 
ATOM     43  C   UNL A   1      37.963  34.239  34.334  1.00  0.00     0.029 A 
ATOM     44  C   UNL A   1      39.018  33.234  34.404  1.00  0.00     0.049 A 
ATOM     45  H   UNL A   1      39.572  31.873  32.928  1.00  0.00     0.167 HD
ATOM     46  C   UNL A   1      40.421  28.867  29.842  1.00  0.00     0.037 A 
ATOM     47  C   UNL A   1      39.827  33.020  35.461  1.00  0.00     0.037 A 
ATOM     48  C   UNL A   1      41.400  28.646  30.873  1.00  0.00     0.049 A 
ATOM     49  C   UNL A   1      40.866  31.930  35.378  1.00  0.00     0.074 A 
ATOM     50  C   UNL A   1      42.446  27.740  30.883  1.00  0.00     0.029 A 
ATOM     51  N   UNL A   1      41.451  29.333  32.074  1.00  0.00    -0.354 N 
ATOM     52  N   UNL A   1      41.127  31.107  34.391  1.00  0.00    -0.248 NA
ATOM     53  C   UNL A   1      41.725  31.741  36.554  1.00  0.00     0.031 C 
ATOM     54  C   UNL A   1      43.095  27.839  32.118  1.00  0.00     0.029 A 
ATOM     55  C   UNL A   1      42.496  28.854  32.847  1.00  0.00     0.049 A 
ATOM     56  H   UNL A   1      40.836  30.055  32.340  1.00  0.00     0.167 HD
ATOM     57  C   UNL A   1      42.206  30.340  34.809  1.00  0.00     0.074 A 
ATOM     58  C   UNL A   1      42.556  30.798  36.135  1.00  0.00     0.031 C 
ATOM     59  C   UNL A   1      42.851  29.345  34.153  1.00  0.00     0.037 A 
BRANCH  46  60
ATOM     60  C   UNL A   1      40.461  27.977  28.634  1.00  0.00     0.064 A 
ATOM     61  C   UNL A   1      41.220  28.305  27.501  1.00  0.00     0.173 A 
ATOM     62  C   UNL A   1      39.794  26.742  28.643  1.00  0.00     0.173 A 
ATOM     63  F   UNL A   1      41.868  29.477  27.437  1.00  0.00    -0.203 F 
ATOM     64  C   UNL A   1      41.298  27.435  26.416  1.00  0.00     0.198 A 
ATOM     65  C   UNL A   1      39.900  25.862  27.570  1.00  0.00     0.198 A 
ATOM     66  F   UNL A   1      39.059  26.379  29.704  1.00  0.00    -0.203 F 
ATOM     67  F   UNL A   1      42.002  27.783  25.330  1.00  0.00    -0.200 F 
ATOM     68  C   UNL A   1      40.649  26.210  26.457  1.00  0.00     0.200 A 
ATOM     69  F   UNL A   1      39.286  24.672  27.618  1.00  0.00    -0.200 F 
ATOM     70  F   UNL A   1      40.744  25.365  25.421  1.00  0.00    -0.200 F 
ENDBRANCH  46  60
BRANCH  47  71
ATOM     71  C   UNL A   1      39.698  33.846  36.692  1.00  0.00     0.064 A 
ATOM     72  C   UNL A   1      38.889  33.428  37.759  1.00  0.00     0.173 A 
ATOM     73  C   UNL A   1      40.337  35.089  36.809  1.00  0.00     0.173 A 
ATOM     74  F   UNL A   1      38.242  32.255  37.689  1.00  0.00    -0.203 F 
ATOM     75  C   UNL A   1      38.689  34.239  38.874  1.00  0.00     0.198 A 
ATOM     76  C   UNL A   1      40.165  35.884  37.942  1.00  0.00     0.198 A 
ATOM     77  F   UNL A   1      41.130  35.535  35.825  1.00  0.00    -0.203 F 
ATOM     78  F   UNL A   1      37.852  33.846  39.844  1.00  0.00    -0.200 F 
ATOM     79  C   UNL A   1      39.328  35.465  38.965  1.00  0.00     0.200 A 
ATOM     80  F   UNL A   1      40.799  37.060  38.034  1.00  0.00    -0.200 F 
ATOM     81  F   UNL A   1      39.128  36.250  40.033  1.00  0.00    -0.200 F 
ENDBRANCH  47  71
BRANCH  59  82
ATOM     82  C   UNL A   1      44.045  28.728  34.822  1.00  0.00     0.064 A 
ATOM     83  C   UNL A   1      43.935  27.591  35.635  1.00  0.00     0.173 A 
ATOM     84  C   UNL A   1      45.328  29.250  34.591  1.00  0.00     0.173 A 
ATOM     85  F   UNL A   1      42.731  27.062  35.898  1.00  0.00    -0.203 F 
ATOM     86  C   UNL A   1      45.064  27.015  36.214  1.00  0.00     0.198 A 
ATOM     87  C   UNL A   1      46.456  28.649  35.141  1.00  0.00     0.198 A 
ATOM     88  F   UNL A   1      45.488  30.331  33.813  1.00  0.00    -0.203 F 
ATOM     89  F   UNL A   1      44.931  25.957  37.026  1.00  0.00    -0.200 F 
ATOM     90  C   UNL A   1      46.323  27.538  35.957  1.00  0.00     0.200 A 
ATOM     91  F   UNL A   1      47.673  29.145  34.877  1.00  0.00    -0.200 F 
ATOM     92  F   UNL A   1      47.409  26.970  36.501  1.00  0.00    -0.200 F 
ENDBRANCH  59  82
ENDBRANCH  33  34
ENDBRANCH  25  28
ENDBRANCH  23  24
ENDBRANCH  22  23
ENDBRANCH  21  22
ENDBRANCH   1  21
TORSDOF 16
ENDMDL
MODEL 2
REMARK VINA RESULT:     -11.1      2.124      8.044
REMARK SMILES C[C@H](Sc1ccc(N)c(Cl)c1)C(=O)NCCCCCCNC(=O)c1ccc(-c2c3nc(c(-c4c(F)c(F)c(F)c(F)c4F)c4ccc([nH]4)c(-c4c(F)c(F)c(F)c(F)c4F)c4nc(c(-c5c(F)c(F)c(F)c(F)c5F)c5ccc2[nH]5)C=C4)C=C3)cc1
REMARK SMILES IDX 17 1 16 2 15 3 14 4 12 5 13 6 2 8 1 9 3 10 4 11 5 12 11 13
REMARK SMILES IDX 6 14 9 15 7 16 10 17 8 18 18 21 19 22 20 23 21 24 22 25
REMARK SMILES IDX 23 27 24 28 25 29 86 30 26 31 85 32 27 33 28 34 29 35 79 36
REMARK SMILES IDX 30 37 84 38 78 39 80 40 31 41 83 42 77 43 76 44 32 46 64 47
REMARK SMILES IDX 44 48 63 49 45 50 48 51 62 52 81 53 46 54 47 55 61 57 82 58
REMARK SMILES IDX 49 59 33 60 34 61 42 62 35 63 36 64 40 65 43 66 37 67 38 68
REMARK SMILES IDX 41 69 39 70 65 71 66 72 74 73 67 74 68 75 72 76 75 77 69 78
REMARK SMILES IDX 70 79 73 80 71 81 50 82 51 83 59 84 52 85 53 86 57 87 60 88
REMARK SMILES IDX 54 89 55 90 58 91 56 92
REMARK H PARENT 14 7 8 19 8 20 21 26 80 45 48 56
REMARK Flexibility Score: inf
ROOT
ATOM      1  C   UNL A   1      35.138  33.218  28.497  1.00  0.00     0.002 C 
ENDROOT
BRANCH   1   2
ATOM      2  C   UNL A   1      34.468  31.857  28.717  1.00  0.00     0.021 C 
BRANCH   2   3
ATOM      3  C   UNL A   1      33.951  31.236  27.422  1.00  0.00     0.116 C 
BRANCH   3   4
ATOM      4  N   UNL A   1      33.616  29.849  27.611  1.00  0.00    -0.355 N 
ATOM      5  C   UNL A   1      32.988  28.982  26.770  1.00  0.00     0.233 C 
ATOM      6  O   UNL A   1      32.705  27.874  27.239  1.00  0.00    -0.274 OA
ATOM      7  H   UNL A   1      33.882  29.469  28.479  1.00  0.00     0.163 HD
BRANCH   5   8
ATOM      8  C   UNL A   1      32.734  29.286  25.289  1.00  0.00     0.137 C 
ATOM      9  C   UNL A   1      31.265  29.235  24.909  1.00  0.00     0.030 C 
BRANCH   8  10
ATOM     10  S   UNL A   1      34.024  28.626  24.139  1.00  0.00    -0.113 SA
BRANCH  10  11
ATOM     11  C   UNL A   1      33.623  26.980  23.572  1.00  0.00     0.010 A 
ATOM     12  C   UNL A   1      33.609  25.813  24.334  1.00  0.00     0.017 A 
ATOM     13  C   UNL A   1      33.254  26.873  22.222  1.00  0.00     0.037 A 
ATOM     14  C   UNL A   1      33.368  24.560  23.747  1.00  0.00     0.028 A 
ATOM     15  C   UNL A   1      32.966  25.630  21.645  1.00  0.00     0.065 A 
ATOM     16  C   UNL A   1      33.027  24.449  22.400  1.00  0.00     0.050 A 
ATOM     17  Cl  UNL A   1      32.529  25.578  19.971  1.00  0.00    -0.082 Cl
BRANCH  16  18
ATOM     18  N   UNL A   1      32.899  23.188  21.825  1.00  0.00    -0.398 N 
ATOM     19  H   UNL A   1      33.231  23.028  20.912  1.00  0.00     0.156 HD
ATOM     20  H   UNL A   1      32.478  22.457  22.332  1.00  0.00     0.156 HD
ENDBRANCH  16  18
ENDBRANCH  10  11
ENDBRANCH   8  10
ENDBRANCH   5   8
ENDBRANCH   3   4
ENDBRANCH   2   3
ENDBRANCH   1   2
BRANCH   1  21
ATOM     21  C   UNL A   1      34.203  34.307  27.955  1.00  0.00     0.002 C 
BRANCH  21  22
ATOM     22  C   UNL A   1      33.135  34.786  28.943  1.00  0.00     0.021 C 
BRANCH  22  23
ATOM     23  C   UNL A   1      33.422  36.154  29.550  1.00  0.00     0.116 C 
BRANCH  23  24
ATOM     24  N   UNL A   1      32.528  36.443  30.662  1.00  0.00    -0.352 N 
ATOM     25  C   UNL A   1      32.526  35.923  31.932  1.00  0.00     0.251 C 
ATOM     26  H   UNL A   1      31.825  37.106  30.477  1.00  0.00     0.163 HD
ATOM     27  O   UNL A   1      31.567  36.092  32.675  1.00  0.00    -0.269 OA
BRANCH  25  28
ATOM     28  C   UNL A   1      33.692  35.145  32.395  1.00  0.00     0.039 A 
ATOM     29  C   UNL A   1      33.502  33.841  32.855  1.00  0.00     0.014 A 
ATOM     30  C   UNL A   1      34.971  35.709  32.373  1.00  0.00     0.014 A 
ATOM     31  C   UNL A   1      34.607  33.080  33.243  1.00  0.00     0.010 A 
ATOM     32  C   UNL A   1      36.074  34.926  32.685  1.00  0.00     0.010 A 
ATOM     33  C   UNL A   1      35.904  33.606  33.131  1.00  0.00    -0.014 A 
BRANCH  33  34
ATOM     34  C   UNL A   1      37.101  32.808  33.493  1.00  0.00     0.031 A 
ATOM     35  C   UNL A   1      37.828  33.098  34.777  1.00  0.00     0.074 A 
ATOM     36  C   UNL A   1      37.576  31.884  32.635  1.00  0.00     0.049 A 
ATOM     37  N   UNL A   1      38.955  32.604  35.221  1.00  0.00    -0.248 NA
ATOM     38  C   UNL A   1      37.222  34.101  35.670  1.00  0.00     0.031 C 
ATOM     39  C   UNL A   1      36.977  31.538  31.345  1.00  0.00     0.029 A 
ATOM     40  N   UNL A   1      38.685  31.078  32.711  1.00  0.00    -0.354 N 
ATOM     41  C   UNL A   1      39.202  33.249  36.426  1.00  0.00     0.074 A 
ATOM     42  C   UNL A   1      38.135  34.204  36.625  1.00  0.00     0.031 C 
ATOM     43  C   UNL A   1      37.716  30.581  30.759  1.00  0.00     0.029 A 
ATOM     44  C   UNL A   1      38.865  30.282  31.606  1.00  0.00     0.049 A 
ATOM     45  H   UNL A   1      39.294  31.071  33.486  1.00  0.00     0.167 HD
ATOM     46  C   UNL A   1      40.219  33.047  37.296  1.00  0.00     0.037 A 
ATOM     47  C   UNL A   1      39.859  29.422  31.304  1.00  0.00     0.037 A 
ATOM     48  C   UNL A   1      41.257  32.069  37.110  1.00  0.00     0.049 A 
ATOM     49  C   UNL A   1      40.986  29.232  32.288  1.00  0.00     0.074 A 
ATOM     50  C   UNL A   1      42.294  31.742  37.966  1.00  0.00     0.029 A 
ATOM     51  N   UNL A   1      41.391  31.263  35.990  1.00  0.00    -0.354 N 
ATOM     52  N   UNL A   1      41.171  29.797  33.457  1.00  0.00    -0.248 NA
ATOM     53  C   UNL A   1      42.041  28.281  31.913  1.00  0.00     0.031 C 
ATOM     54  C   UNL A   1      43.090  30.780  37.339  1.00  0.00     0.029 A 
ATOM     55  C   UNL A   1      42.511  30.458  36.122  1.00  0.00     0.049 A 
ATOM     56  H   UNL A   1      40.783  31.264  35.216  1.00  0.00     0.167 HD
ATOM     57  C   UNL A   1      42.332  29.237  33.972  1.00  0.00     0.074 A 
ATOM     58  C   UNL A   1      42.806  28.283  32.994  1.00  0.00     0.031 C 
ATOM     59  C   UNL A   1      42.950  29.489  35.151  1.00  0.00     0.037 A 
BRANCH  46  60
ATOM     60  C   UNL A   1      40.267  33.892  38.536  1.00  0.00     0.064 A 
ATOM     61  C   UNL A   1      39.633  33.498  39.723  1.00  0.00     0.173 A 
ATOM     62  C   UNL A   1      41.024  35.074  38.557  1.00  0.00     0.173 A 
ATOM     63  F   UNL A   1      38.888  32.383  39.754  1.00  0.00    -0.203 F 
ATOM     64  C   UNL A   1      39.744  34.262  40.881  1.00  0.00     0.198 A 
ATOM     65  C   UNL A   1      41.158  35.818  39.725  1.00  0.00     0.198 A 
ATOM     66  F   UNL A   1      41.654  35.493  37.450  1.00  0.00    -0.203 F 
ATOM     67  F   UNL A   1      39.102  33.884  41.996  1.00  0.00    -0.200 F 
ATOM     68  C   UNL A   1      40.516  35.414  40.885  1.00  0.00     0.200 A 
ATOM     69  F   UNL A   1      41.918  36.922  39.731  1.00  0.00    -0.200 F 
ATOM     70  F   UNL A   1      40.640  36.137  42.008  1.00  0.00    -0.200 F 
ENDBRANCH  46  60
BRANCH  47  71
ATOM     71  C   UNL A   1      39.846  28.673  30.019  1.00  0.00     0.064 A 
ATOM     72  C   UNL A   1      39.296  27.385  29.940  1.00  0.00     0.173 A 
ATOM     73  C   UNL A   1      40.426  29.204  28.857  1.00  0.00     0.173 A 
ATOM     74  F   UNL A   1      38.746  26.825  31.027  1.00  0.00    -0.203 F 
ATOM     75  C   UNL A   1      39.366  26.641  28.764  1.00  0.00     0.198 A 
ATOM     76  C   UNL A   1      40.462  28.473  27.670  1.00  0.00     0.198 A 
ATOM     77  F   UNL A   1      40.958  30.435  28.871  1.00  0.00    -0.203 F 
ATOM     78  F   UNL A   1      38.899  25.385  28.739  1.00  0.00    -0.200 F 
ATOM     79  C   UNL A   1      39.947  27.186  27.630  1.00  0.00     0.200 A 
ATOM     80  F   UNL A   1      41.008  29.011  26.572  1.00  0.00    -0.200 F 
ATOM     81  F   UNL A   1      40.023  26.468  26.501  1.00  0.00    -0.200 F 
ENDBRANCH  47  71
BRANCH  59  82
ATOM     82  C   UNL A   1      44.166  28.676  35.489  1.00  0.00     0.064 A 
ATOM     83  C   UNL A   1      45.460  29.103  35.158  1.00  0.00     0.173 A 
ATOM     84  C   UNL A   1      44.034  27.480  36.211  1.00  0.00     0.173 A 
ATOM     85  F   UNL A   1      45.640  30.232  34.455  1.00  0.00    -0.203 F 
ATOM     86  C   UNL A   1      46.575  28.349  35.516  1.00  0.00     0.198 A 
ATOM     87  C   UNL A   1      45.152  26.748  36.599  1.00  0.00     0.198 A 
ATOM     88  F   UNL A   1      42.819  27.031  36.561  1.00  0.00    -0.203 F 
ATOM     89  F   UNL A   1      47.799  28.752  35.148  1.00  0.00    -0.200 F 
ATOM     90  C   UNL A   1      46.421  27.179  36.245  1.00  0.00     0.200 A 
ATOM     91  F   UNL A   1      45.002  25.628  37.319  1.00  0.00    -0.200 F 
ATOM     92  F   UNL A   1      47.497  26.465  36.603  1.00  0.00    -0.200 F 
ENDBRANCH  59  82
ENDBRANCH  33  34
ENDBRANCH  25  28
ENDBRANCH  23  24
ENDBRANCH  22  23
ENDBRANCH  21  22
ENDBRANCH   1  21
TORSDOF 16
ENDMDL
MODEL 3
REMARK VINA RESULT:     -11.0      2.057      7.835
REMARK SMILES C[C@H](Sc1ccc(N)c(Cl)c1)C(=O)NCCCCCCNC(=O)c1ccc(-c2c3nc(c(-c4c(F)c(F)c(F)c(F)c4F)c4ccc([nH]4)c(-c4c(F)c(F)c(F)c(F)c4F)c4nc(c(-c5c(F)c(F)c(F)c(F)c5F)c5ccc2[nH]5)C=C4)C=C3)cc1
REMARK SMILES IDX 17 1 16 2 15 3 14 4 12 5 13 6 2 8 1 9 3 10 4 11 5 12 11 13
REMARK SMILES IDX 6 14 9 15 7 16 10 17 8 18 18 21 19 22 20 23 21 24 22 25
REMARK SMILES IDX 23 27 24 28 25 29 86 30 26 31 85 32 27 33 28 34 29 35 79 36
REMARK SMILES IDX 30 37 84 38 78 39 80 40 31 41 83 42 77 43 76 44 32 46 64 47
REMARK SMILES IDX 44 48 63 49 45 50 48 51 62 52 81 53 46 54 47 55 61 57 82 58
REMARK SMILES IDX 49 59 33 60 34 61 42 62 35 63 36 64 40 65 43 66 37 67 38 68
REMARK SMILES IDX 41 69 39 70 65 71 66 72 74 73 67 74 68 75 72 76 75 77 69 78
REMARK SMILES IDX 70 79 73 80 71 81 50 82 51 83 59 84 52 85 53 86 57 87 60 88
REMARK SMILES IDX 54 89 55 90 58 91 56 92
REMARK H PARENT 14 7 8 19 8 20 21 26 80 45 48 56
REMARK Flexibility Score: inf
ROOT
ATOM      1  C   UNL A   1      35.269  33.860  29.017  1.00  0.00     0.002 C 
ENDROOT
BRANCH   1   2
ATOM      2  C   UNL A   1      34.542  32.513  29.104  1.00  0.00     0.021 C 
BRANCH   2   3
ATOM      3  C   UNL A   1      33.897  32.102  27.783  1.00  0.00     0.116 C 
BRANCH   3   4
ATOM      4  N   UNL A   1      34.431  30.849  27.315  1.00  0.00    -0.355 N 
ATOM      5  C   UNL A   1      33.803  29.660  27.105  1.00  0.00     0.233 C 
ATOM      6  O   UNL A   1      34.530  28.700  26.824  1.00  0.00    -0.274 OA
ATOM      7  H   UNL A   1      35.395  30.853  27.117  1.00  0.00     0.163 HD
BRANCH   5   8
ATOM      8  C   UNL A   1      32.277  29.507  27.092  1.00  0.00     0.137 C 
ATOM      9  C   UNL A   1      31.803  28.180  27.658  1.00  0.00     0.030 C 
BRANCH   8  10
ATOM     10  S   UNL A   1      31.444  30.250  25.617  1.00  0.00    -0.113 SA
BRANCH  10  11
ATOM     11  C   UNL A   1      31.340  29.088  24.263  1.00  0.00     0.010 A 
ATOM     12  C   UNL A   1      30.181  28.529  23.728  1.00  0.00     0.017 A 
ATOM     13  C   UNL A   1      32.561  28.739  23.666  1.00  0.00     0.037 A 
ATOM     14  C   UNL A   1      30.239  27.552  22.722  1.00  0.00     0.028 A 
ATOM     15  C   UNL A   1      32.617  27.799  22.628  1.00  0.00     0.065 A 
ATOM     16  C   UNL A   1      31.454  27.182  22.145  1.00  0.00     0.050 A 
ATOM     17  Cl  UNL A   1      34.161  27.411  21.950  1.00  0.00    -0.082 Cl
BRANCH  16  18
ATOM     18  N   UNL A   1      31.488  26.136  21.228  1.00  0.00    -0.398 N 
ATOM     19  H   UNL A   1      32.015  25.328  21.423  1.00  0.00     0.156 HD
ATOM     20  H   UNL A   1      30.987  26.206  20.383  1.00  0.00     0.156 HD
ENDBRANCH  16  18
ENDBRANCH  10  11
ENDBRANCH   8  10
ENDBRANCH   5   8
ENDBRANCH   3   4
ENDBRANCH   2   3
ENDBRANCH   1   2
BRANCH   1  21
ATOM     21  C   UNL A   1      34.478  34.963  28.302  1.00  0.00     0.002 C 
BRANCH  21  22
ATOM     22  C   UNL A   1      33.192  35.396  29.012  1.00  0.00     0.021 C 
BRANCH  22  23
ATOM     23  C   UNL A   1      33.357  36.626  29.895  1.00  0.00     0.116 C 
BRANCH  23  24
ATOM     24  N   UNL A   1      32.471  36.579  31.049  1.00  0.00    -0.352 N 
ATOM     25  C   UNL A   1      32.527  35.767  32.155  1.00  0.00     0.251 C 
ATOM     26  H   UNL A   1      31.723  37.219  31.034  1.00  0.00     0.163 HD
ATOM     27  O   UNL A   1      31.575  35.689  32.921  1.00  0.00    -0.269 OA
BRANCH  25  28
ATOM     28  C   UNL A   1      33.749  34.979  32.409  1.00  0.00     0.039 A 
ATOM     29  C   UNL A   1      34.992  35.610  32.351  1.00  0.00     0.014 A 
ATOM     30  C   UNL A   1      33.660  33.614  32.701  1.00  0.00     0.014 A 
ATOM     31  C   UNL A   1      36.147  34.884  32.644  1.00  0.00     0.010 A 
ATOM     32  C   UNL A   1      34.801  32.913  33.067  1.00  0.00     0.010 A 
ATOM     33  C   UNL A   1      36.058  33.538  33.035  1.00  0.00    -0.014 A 
BRANCH  33  34
ATOM     34  C   UNL A   1      37.262  32.750  33.395  1.00  0.00     0.031 A 
ATOM     35  C   UNL A   1      37.993  33.052  34.675  1.00  0.00     0.074 A 
ATOM     36  C   UNL A   1      37.741  31.826  32.539  1.00  0.00     0.049 A 
ATOM     37  N   UNL A   1      39.126  32.568  35.116  1.00  0.00    -0.248 NA
ATOM     38  C   UNL A   1      37.382  34.053  35.566  1.00  0.00     0.031 C 
ATOM     39  C   UNL A   1      37.139  31.470  31.253  1.00  0.00     0.029 A 
ATOM     40  N   UNL A   1      38.857  31.029  32.614  1.00  0.00    -0.354 N 
ATOM     41  C   UNL A   1      39.373  33.220  36.317  1.00  0.00     0.074 A 
ATOM     42  C   UNL A   1      38.299  34.167  36.517  1.00  0.00     0.031 C 
ATOM     43  C   UNL A   1      37.883  30.516  30.668  1.00  0.00     0.029 A 
ATOM     44  C   UNL A   1      39.038  30.229  31.511  1.00  0.00     0.049 A 
ATOM     45  H   UNL A   1      39.469  31.030  33.386  1.00  0.00     0.167 HD
ATOM     46  C   UNL A   1      40.395  33.029  37.184  1.00  0.00     0.037 A 
ATOM     47  C   UNL A   1      40.037  29.377  31.209  1.00  0.00     0.037 A 
ATOM     48  C   UNL A   1      41.439  32.058  36.997  1.00  0.00     0.049 A 
ATOM     49  C   UNL A   1      41.170  29.199  32.188  1.00  0.00     0.074 A 
ATOM     50  C   UNL A   1      42.482  31.743  37.850  1.00  0.00     0.029 A 
ATOM     51  N   UNL A   1      41.575  31.249  35.880  1.00  0.00    -0.354 N 
ATOM     52  N   UNL A   1      41.355  29.771  33.354  1.00  0.00    -0.248 NA
ATOM     53  C   UNL A   1      42.230  28.255  31.813  1.00  0.00     0.031 C 
ATOM     54  C   UNL A   1      43.284  30.785  37.223  1.00  0.00     0.029 A 
ATOM     55  C   UNL A   1      42.702  30.453  36.011  1.00  0.00     0.049 A 
ATOM     56  H   UNL A   1      40.964  31.242  35.109  1.00  0.00     0.167 HD
ATOM     57  C   UNL A   1      42.523  29.222  33.867  1.00  0.00     0.074 A 
ATOM     58  C   UNL A   1      43.000  28.267  32.891  1.00  0.00     0.031 C 
ATOM     59  C   UNL A   1      43.144  29.484  35.042  1.00  0.00     0.037 A 
BRANCH  46  60
ATOM     60  C   UNL A   1      40.441  33.880  38.419  1.00  0.00     0.064 A 
ATOM     61  C   UNL A   1      41.154  35.088  38.458  1.00  0.00     0.173 A 
ATOM     62  C   UNL A   1      39.698  33.519  39.554  1.00  0.00     0.173 A 
ATOM     63  F   UNL A   1      41.888  35.473  37.404  1.00  0.00    -0.203 F 
ATOM     64  C   UNL A   1      41.131  35.896  39.591  1.00  0.00     0.198 A 
ATOM     65  C   UNL A   1      39.653  34.346  40.673  1.00  0.00     0.198 A 
ATOM     66  F   UNL A   1      38.996  32.377  39.567  1.00  0.00    -0.203 F 
ATOM     67  F   UNL A   1      41.846  37.030  39.619  1.00  0.00    -0.200 F 
ATOM     68  C   UNL A   1      40.371  35.531  40.693  1.00  0.00     0.200 A 
ATOM     69  F   UNL A   1      38.905  33.999  41.730  1.00  0.00    -0.200 F 
ATOM     70  F   UNL A   1      40.333  36.322  41.774  1.00  0.00    -0.200 F 
ENDBRANCH  46  60
BRANCH  47  71
ATOM     71  C   UNL A   1      40.025  28.622  29.927  1.00  0.00     0.064 A 
ATOM     72  C   UNL A   1      39.426  27.356  29.840  1.00  0.00     0.173 A 
ATOM     73  C   UNL A   1      40.652  29.123  28.776  1.00  0.00     0.173 A 
ATOM     74  F   UNL A   1      38.829  26.823  30.916  1.00  0.00    -0.203 F 
ATOM     75  C   UNL A   1      39.494  26.604  28.669  1.00  0.00     0.198 A 
ATOM     76  C   UNL A   1      40.687  28.385  27.594  1.00  0.00     0.198 A 
ATOM     77  F   UNL A   1      41.232  30.332  28.798  1.00  0.00    -0.203 F 
ATOM     78  F   UNL A   1      38.978  25.367  28.639  1.00  0.00    -0.200 F 
ATOM     79  C   UNL A   1      40.122  27.120  27.547  1.00  0.00     0.200 A 
ATOM     80  F   UNL A   1      41.279  28.896  26.507  1.00  0.00    -0.200 F 
ATOM     81  F   UNL A   1      40.196  26.393  26.423  1.00  0.00    -0.200 F 
ENDBRANCH  47  71
BRANCH  59  82
ATOM     82  C   UNL A   1      44.368  28.681  35.378  1.00  0.00     0.064 A 
ATOM     83  C   UNL A   1      44.289  27.447  36.037  1.00  0.00     0.173 A 
ATOM     84  C   UNL A   1      45.635  29.131  34.975  1.00  0.00     0.173 A 
ATOM     85  F   UNL A   1      43.103  26.979  36.456  1.00  0.00    -0.203 F 
ATOM     86  C   UNL A   1      45.436  26.704  36.303  1.00  0.00     0.198 A 
ATOM     87  C   UNL A   1      46.775  28.369  35.210  1.00  0.00     0.198 A 
ATOM     88  F   UNL A   1      45.765  30.302  34.333  1.00  0.00    -0.203 F 
ATOM     89  F   UNL A   1      45.342  25.548  36.976  1.00  0.00    -0.200 F 
ATOM     90  C   UNL A   1      46.676  27.160  35.880  1.00  0.00     0.200 A 
ATOM     91  F   UNL A   1      47.969  28.803  34.784  1.00  0.00    -0.200 F 
ATOM     92  F   UNL A   1      47.777  26.434  36.122  1.00  0.00    -0.200 F 
ENDBRANCH  59  82
ENDBRANCH  33  34
ENDBRANCH  25  28
ENDBRANCH  23  24
ENDBRANCH  22  23
ENDBRANCH  21  22
ENDBRANCH   1  21
TORSDOF 16
ENDMDL
