MODEL 1
REMARK VINA RESULT:     -11.7      0.000      0.000
REMARK SMILES O=C(NCCCCCCNC(=O)c1ccc(CNC(=O)c2cnns2)o1)c1ccc(-c2c3nc(c(-c4c(F)c(F)c(F)c(F)c4F)c4ccc([nH]4)c(-c4c(F)c(F)c(F)c(F)c4F)c4nc(c(-c5c(F)c(F)c(F)c(F)c5F)c5ccc2[nH]5)C=C4)C=C3)cc1
REMARK SMILES IDX 7 1 6 2 5 3 4 4 3 5 1 6 2 7 27 9 28 10 89 11 29 12 88 13
REMARK SMILES IDX 30 14 31 15 32 16 82 17 33 18 87 19 81 20 83 21 34 22 86 23
REMARK SMILES IDX 80 24 79 25 35 27 67 28 47 29 66 30 48 31 51 32 65 33 84 34
REMARK SMILES IDX 49 35 50 36 64 38 85 39 52 40 36 41 37 42 45 43 38 44 39 45
REMARK SMILES IDX 43 46 46 47 40 48 41 49 44 50 42 51 68 52 69 53 77 54 70 55
REMARK SMILES IDX 71 56 75 57 78 58 72 59 73 60 76 61 74 62 53 63 54 64 62 65
REMARK SMILES IDX 55 66 56 67 60 68 63 69 57 70 58 71 61 72 59 73 8 74 9 75
REMARK SMILES IDX 10 76 11 77 12 79 13 80 14 81 26 82 15 83 16 84 17 85 18 86
REMARK SMILES IDX 19 87 20 89 21 90 22 91 25 92 23 93 24 94
REMARK H PARENT 3 8 83 26 51 37 10 78 18 88
REMARK Flexibility Score: inf
ROOT
ATOM      1  C   UNL A   1      34.335  32.178  28.910  1.00  0.00     0.002 C 
ENDROOT
BRANCH   1   2
ATOM      2  C   UNL A   1      34.494  33.650  28.518  1.00  0.00     0.002 C 
BRANCH   2   3
ATOM      3  C   UNL A   1      33.232  34.505  28.642  1.00  0.00     0.021 C 
BRANCH   3   4
ATOM      4  C   UNL A   1      33.415  35.826  29.377  1.00  0.00     0.116 C 
BRANCH   4   5
ATOM      5  N   UNL A   1      32.502  35.982  30.498  1.00  0.00    -0.352 N 
ATOM      6  O   UNL A   1      31.677  35.617  32.567  1.00  0.00    -0.269 OA
ATOM      7  C   UNL A   1      32.616  35.512  31.785  1.00  0.00     0.251 C 
ATOM      8  H   UNL A   1      31.686  36.496  30.308  1.00  0.00     0.163 HD
BRANCH   7   9
ATOM      9  C   UNL A   1      33.865  34.850  32.221  1.00  0.00     0.039 A 
ATOM     10  C   UNL A   1      35.064  35.561  32.298  1.00  0.00     0.014 A 
ATOM     11  C   UNL A   1      33.833  33.494  32.561  1.00  0.00     0.014 A 
ATOM     12  C   UNL A   1      36.251  34.888  32.568  1.00  0.00     0.010 A 
ATOM     13  C   UNL A   1      35.014  32.836  32.918  1.00  0.00     0.010 A 
ATOM     14  C   UNL A   1      36.239  33.521  32.891  1.00  0.00    -0.014 A 
BRANCH  14  15
ATOM     15  C   UNL A   1      37.516  32.848  33.244  1.00  0.00     0.031 A 
ATOM     16  C   UNL A   1      38.212  33.131  34.546  1.00  0.00     0.074 A 
ATOM     17  C   UNL A   1      38.027  31.944  32.387  1.00  0.00     0.049 A 
ATOM     18  N   UNL A   1      39.308  32.597  35.028  1.00  0.00    -0.248 NA
ATOM     19  C   UNL A   1      37.609  34.149  35.418  1.00  0.00     0.031 C 
ATOM     20  C   UNL A   1      37.447  31.598  31.088  1.00  0.00     0.029 A 
ATOM     21  N   UNL A   1      39.131  31.137  32.485  1.00  0.00    -0.354 N 
ATOM     22  C   UNL A   1      39.535  33.225  36.246  1.00  0.00     0.074 A 
ATOM     23  C   UNL A   1      38.478  34.199  36.419  1.00  0.00     0.031 C 
ATOM     24  C   UNL A   1      38.166  30.611  30.535  1.00  0.00     0.029 A 
ATOM     25  C   UNL A   1      39.290  30.297  31.410  1.00  0.00     0.049 A 
ATOM     26  H   UNL A   1      39.749  31.157  33.251  1.00  0.00     0.167 HD
ATOM     27  C   UNL A   1      40.530  33.002  37.140  1.00  0.00     0.037 A 
ATOM     28  C   UNL A   1      40.240  29.379  31.153  1.00  0.00     0.037 A 
ATOM     29  C   UNL A   1      41.570  32.019  36.968  1.00  0.00     0.049 A 
ATOM     30  C   UNL A   1      41.340  29.167  32.153  1.00  0.00     0.074 A 
ATOM     31  C   UNL A   1      42.596  31.687  37.837  1.00  0.00     0.029 A 
ATOM     32  N   UNL A   1      41.720  31.212  35.850  1.00  0.00    -0.354 N 
ATOM     33  N   UNL A   1      41.518  29.736  33.320  1.00  0.00    -0.248 NA
ATOM     34  C   UNL A   1      42.374  28.188  31.796  1.00  0.00     0.031 C 
ATOM     35  C   UNL A   1      43.393  30.714  37.224  1.00  0.00     0.029 A 
ATOM     36  C   UNL A   1      42.835  30.401  35.995  1.00  0.00     0.049 A 
ATOM     37  H   UNL A   1      41.121  31.214  35.068  1.00  0.00     0.167 HD
ATOM     38  C   UNL A   1      42.671  29.173  33.845  1.00  0.00     0.074 A 
ATOM     39  C   UNL A   1      43.139  28.202  32.877  1.00  0.00     0.031 C 
ATOM     40  C   UNL A   1      43.288  29.439  35.022  1.00  0.00     0.037 A 
BRANCH  27  41
ATOM     41  C   UNL A   1      40.556  33.849  38.379  1.00  0.00     0.064 A 
ATOM     42  C   UNL A   1      39.840  33.493  39.533  1.00  0.00     0.173 A 
ATOM     43  C   UNL A   1      41.343  35.010  38.429  1.00  0.00     0.173 A 
ATOM     44  F   UNL A   1      39.064  32.398  39.535  1.00  0.00    -0.203 F 
ATOM     45  C   UNL A   1      39.891  34.282  40.680  1.00  0.00     0.198 A 
ATOM     46  C   UNL A   1      41.413  35.781  39.587  1.00  0.00     0.198 A 
ATOM     47  F   UNL A   1      42.053  35.391  37.357  1.00  0.00    -0.203 F 
ATOM     48  F   UNL A   1      39.164  33.947  41.755  1.00  0.00    -0.200 F 
ATOM     49  C   UNL A   1      40.681  35.421  40.708  1.00  0.00     0.200 A 
ATOM     50  F   UNL A   1      42.188  36.874  39.617  1.00  0.00    -0.200 F 
ATOM     51  F   UNL A   1      40.733  36.175  41.815  1.00  0.00    -0.200 F 
ENDBRANCH  27  41
BRANCH  28  52
ATOM     52  C   UNL A   1      40.178  28.587  29.899  1.00  0.00     0.064 A 
ATOM     53  C   UNL A   1      40.793  29.047  28.727  1.00  0.00     0.173 A 
ATOM     54  C   UNL A   1      39.518  27.350  29.850  1.00  0.00     0.173 A 
ATOM     55  F   UNL A   1      41.420  30.232  28.721  1.00  0.00    -0.203 F 
ATOM     56  C   UNL A   1      40.741  28.304  27.549  1.00  0.00     0.198 A 
ATOM     57  C   UNL A   1      39.491  26.596  28.680  1.00  0.00     0.198 A 
ATOM     58  F   UNL A   1      38.917  26.866  30.946  1.00  0.00    -0.203 F 
ATOM     59  F   UNL A   1      41.306  28.784  26.433  1.00  0.00    -0.200 F 
ATOM     60  C   UNL A   1      40.097  27.076  27.529  1.00  0.00     0.200 A 
ATOM     61  F   UNL A   1      38.882  25.402  28.669  1.00  0.00    -0.200 F 
ATOM     62  F   UNL A   1      40.056  26.358  26.398  1.00  0.00    -0.200 F 
ENDBRANCH  28  52
BRANCH  40  63
ATOM     63  C   UNL A   1      44.521  28.644  35.338  1.00  0.00     0.064 A 
ATOM     64  C   UNL A   1      45.799  29.097  34.981  1.00  0.00     0.173 A 
ATOM     65  C   UNL A   1      44.422  27.420  36.017  1.00  0.00     0.173 A 
ATOM     66  F   UNL A   1      45.944  30.252  34.314  1.00  0.00    -0.203 F 
ATOM     67  C   UNL A   1      46.932  28.340  35.267  1.00  0.00     0.198 A 
ATOM     68  C   UNL A   1      45.559  26.680  36.327  1.00  0.00     0.198 A 
ATOM     69  F   UNL A   1      43.223  26.945  36.383  1.00  0.00    -0.203 F 
ATOM     70  F   UNL A   1      48.139  28.766  34.871  1.00  0.00    -0.200 F 
ATOM     71  C   UNL A   1      46.811  27.136  35.944  1.00  0.00     0.200 A 
ATOM     72  F   UNL A   1      45.442  25.522  36.990  1.00  0.00    -0.200 F 
ATOM     73  F   UNL A   1      47.903  26.408  36.219  1.00  0.00    -0.200 F 
ENDBRANCH  40  63
ENDBRANCH  14  15
ENDBRANCH   7   9
ENDBRANCH   4   5
ENDBRANCH   3   4
ENDBRANCH   2   3
ENDBRANCH   1   2
BRANCH   1  74
ATOM     74  C   UNL A   1      34.535  31.162  27.778  1.00  0.00     0.021 C 
BRANCH  74  75
ATOM     75  C   UNL A   1      33.263  30.768  27.028  1.00  0.00     0.116 C 
BRANCH  75  76
ATOM     76  N   UNL A   1      32.590  29.650  27.660  1.00  0.00    -0.349 N 
ATOM     77  C   UNL A   1      31.893  28.623  27.067  1.00  0.00     0.286 C 
ATOM     78  H   UNL A   1      32.637  29.624  28.643  1.00  0.00     0.163 HD
ATOM     79  O   UNL A   1      31.212  27.896  27.790  1.00  0.00    -0.266 OA
BRANCH  77  80
ATOM     80  C   UNL A   1      32.003  28.454  25.636  1.00  0.00     0.191 A 
ATOM     81  C   UNL A   1      32.936  27.811  24.844  1.00  0.00     0.056 A 
ATOM     82  O   UNL A   1      31.040  29.010  24.841  1.00  0.00    -0.454 OA
ATOM     83  C   UNL A   1      32.535  28.002  23.500  1.00  0.00     0.048 A 
ATOM     84  C   UNL A   1      31.379  28.750  23.546  1.00  0.00     0.124 A 
BRANCH  84  85
ATOM     85  C   UNL A   1      30.498  29.336  22.508  1.00  0.00     0.191 C 
BRANCH  85  86
ATOM     86  N   UNL A   1      29.133  28.920  22.748  1.00  0.00    -0.344 N 
ATOM     87  C   UNL A   1      27.999  29.686  22.858  1.00  0.00     0.265 C 
ATOM     88  H   UNL A   1      28.999  27.950  22.848  1.00  0.00     0.164 HD
ATOM     89  O   UNL A   1      26.981  29.128  23.266  1.00  0.00    -0.268 OA
BRANCH  87  90
ATOM     90  C   UNL A   1      28.041  31.072  22.488  1.00  0.00     0.133 A 
ATOM     91  C   UNL A   1      28.239  32.230  23.216  1.00  0.00     0.163 A 
ATOM     92  S   UNL A   1      27.892  31.539  20.845  1.00  0.00    -0.007 S 
ATOM     93  N   UNL A   1      28.199  33.407  22.488  1.00  0.00    -0.146 NA
ATOM     94  N   UNL A   1      28.008  33.173  21.200  1.00  0.00    -0.090 NA
ENDBRANCH  87  90
ENDBRANCH  85  86
ENDBRANCH  84  85
ENDBRANCH  77  80
ENDBRANCH  75  76
ENDBRANCH  74  75
ENDBRANCH   1  74
TORSDOF 16
ENDMDL
MODEL 2
REMARK VINA RESULT:     -11.7      0.449      7.409
REMARK SMILES O=C(NCCCCCCNC(=O)c1ccc(CNC(=O)c2cnns2)o1)c1ccc(-c2c3nc(c(-c4c(F)c(F)c(F)c(F)c4F)c4ccc([nH]4)c(-c4c(F)c(F)c(F)c(F)c4F)c4nc(c(-c5c(F)c(F)c(F)c(F)c5F)c5ccc2[nH]5)C=C4)C=C3)cc1
REMARK SMILES IDX 7 1 6 2 5 3 4 4 3 5 1 6 2 7 27 9 28 10 89 11 29 12 88 13
REMARK SMILES IDX 30 14 31 15 32 16 82 17 33 18 87 19 81 20 83 21 34 22 86 23
REMARK SMILES IDX 80 24 79 25 35 27 67 28 47 29 66 30 48 31 51 32 65 33 84 34
REMARK SMILES IDX 49 35 50 36 64 38 85 39 52 40 36 41 37 42 45 43 38 44 39 45
REMARK SMILES IDX 43 46 46 47 40 48 41 49 44 50 42 51 68 52 69 53 77 54 70 55
REMARK SMILES IDX 71 56 75 57 78 58 72 59 73 60 76 61 74 62 53 63 54 64 62 65
REMARK SMILES IDX 55 66 56 67 60 68 63 69 57 70 58 71 61 72 59 73 8 74 9 75
REMARK SMILES IDX 10 76 11 77 12 79 13 80 14 81 26 82 15 83 16 84 17 85 18 86
REMARK SMILES IDX 19 87 20 89 21 90 22 91 25 92 23 93 24 94
REMARK H PARENT 3 8 83 26 51 37 10 78 18 88
REMARK Flexibility Score: inf
ROOT
ATOM      1  C   UNL A   1      34.379  32.226  28.954  1.00  0.00     0.002 C 
ENDROOT
BRANCH   1   2
ATOM      2  C   UNL A   1      34.526  33.707  28.588  1.00  0.00     0.002 C 
BRANCH   2   3
ATOM      3  C   UNL A   1      33.261  34.551  28.743  1.00  0.00     0.021 C 
BRANCH   3   4
ATOM      4  C   UNL A   1      33.461  35.895  29.433  1.00  0.00     0.116 C 
BRANCH   4   5
ATOM      5  N   UNL A   1      32.522  36.119  30.520  1.00  0.00    -0.352 N 
ATOM      6  O   UNL A   1      31.623  35.850  32.573  1.00  0.00    -0.269 OA
ATOM      7  C   UNL A   1      32.579  35.685  31.823  1.00  0.00     0.251 C 
ATOM      8  H   UNL A   1      31.732  36.658  30.290  1.00  0.00     0.163 HD
BRANCH   7   9
ATOM      9  C   UNL A   1      33.789  34.990  32.316  1.00  0.00     0.039 A 
ATOM     10  C   UNL A   1      35.043  35.597  32.245  1.00  0.00     0.014 A 
ATOM     11  C   UNL A   1      33.661  33.708  32.862  1.00  0.00     0.014 A 
ATOM     12  C   UNL A   1      36.182  34.872  32.579  1.00  0.00     0.010 A 
ATOM     13  C   UNL A   1      34.799  33.012  33.279  1.00  0.00     0.010 A 
ATOM     14  C   UNL A   1      36.073  33.575  33.109  1.00  0.00    -0.014 A 
BRANCH  14  15
ATOM     15  C   UNL A   1      37.305  32.855  33.521  1.00  0.00     0.031 A 
ATOM     16  C   UNL A   1      37.965  31.854  32.614  1.00  0.00     0.074 A 
ATOM     17  C   UNL A   1      37.850  33.142  34.719  1.00  0.00     0.049 A 
ATOM     18  N   UNL A   1      39.069  31.172  32.801  1.00  0.00    -0.248 NA
ATOM     19  C   UNL A   1      37.298  31.573  31.334  1.00  0.00     0.031 C 
ATOM     20  C   UNL A   1      37.292  34.085  35.691  1.00  0.00     0.029 A 
ATOM     21  N   UNL A   1      39.000  32.692  35.315  1.00  0.00    -0.354 N 
ATOM     22  C   UNL A   1      39.219  30.371  31.677  1.00  0.00     0.074 A 
ATOM     23  C   UNL A   1      38.080  30.631  30.822  1.00  0.00     0.031 C 
ATOM     24  C   UNL A   1      38.126  34.185  36.735  1.00  0.00     0.029 A 
ATOM     25  C   UNL A   1      39.246  33.272  36.536  1.00  0.00     0.049 A 
ATOM     26  H   UNL A   1      39.592  32.019  34.908  1.00  0.00     0.167 HD
ATOM     27  C   UNL A   1      40.220  29.506  31.383  1.00  0.00     0.037 A 
ATOM     28  C   UNL A   1      40.257  33.085  37.403  1.00  0.00     0.037 A 
ATOM     29  C   UNL A   1      41.359  29.264  32.231  1.00  0.00     0.049 A 
ATOM     30  C   UNL A   1      41.342  32.105  37.059  1.00  0.00     0.074 A 
ATOM     31  C   UNL A   1      42.448  28.440  32.001  1.00  0.00     0.029 A 
ATOM     32  N   UNL A   1      41.556  29.843  33.477  1.00  0.00    -0.354 N 
ATOM     33  N   UNL A   1      41.494  31.387  35.973  1.00  0.00    -0.248 NA
ATOM     34  C   UNL A   1      42.393  31.907  38.065  1.00  0.00     0.031 C 
ATOM     35  C   UNL A   1      43.278  28.484  33.127  1.00  0.00     0.029 A 
ATOM     36  C   UNL A   1      42.734  29.375  34.038  1.00  0.00     0.049 A 
ATOM     37  H   UNL A   1      40.948  30.491  33.900  1.00  0.00     0.167 HD
ATOM     38  C   UNL A   1      42.665  30.667  36.155  1.00  0.00     0.074 A 
ATOM     39  C   UNL A   1      43.194  31.051  37.448  1.00  0.00     0.031 C 
ATOM     40  C   UNL A   1      43.248  29.767  35.326  1.00  0.00     0.037 A 
BRANCH  27  41
ATOM     41  C   UNL A   1      40.122  28.737  30.097  1.00  0.00     0.064 A 
ATOM     42  C   UNL A   1      40.684  29.217  28.904  1.00  0.00     0.173 A 
ATOM     43  C   UNL A   1      39.494  27.482  30.066  1.00  0.00     0.173 A 
ATOM     44  F   UNL A   1      41.287  30.416  28.876  1.00  0.00    -0.203 F 
ATOM     45  C   UNL A   1      40.599  28.482  27.724  1.00  0.00     0.198 A 
ATOM     46  C   UNL A   1      39.435  26.737  28.890  1.00  0.00     0.198 A 
ATOM     47  F   UNL A   1      38.946  26.973  31.179  1.00  0.00    -0.203 F 
ATOM     48  F   UNL A   1      41.105  28.980  26.588  1.00  0.00    -0.200 F 
ATOM     49  C   UNL A   1      39.980  27.241  27.720  1.00  0.00     0.200 A 
ATOM     50  F   UNL A   1      38.848  25.532  28.891  1.00  0.00    -0.200 F 
ATOM     51  F   UNL A   1      39.905  26.533  26.584  1.00  0.00    -0.200 F 
ENDBRANCH  27  41
BRANCH  28  52
ATOM     52  C   UNL A   1      40.290  33.854  38.672  1.00  0.00     0.064 A 
ATOM     53  C   UNL A   1      41.021  35.046  38.771  1.00  0.00     0.173 A 
ATOM     54  C   UNL A   1      39.583  33.424  39.804  1.00  0.00     0.173 A 
ATOM     55  F   UNL A   1      41.728  35.487  37.720  1.00  0.00    -0.203 F 
ATOM     56  C   UNL A   1      41.052  35.773  39.959  1.00  0.00     0.198 A 
ATOM     57  C   UNL A   1      39.591  34.167  40.982  1.00  0.00     0.198 A 
ATOM     58  F   UNL A   1      38.866  32.293  39.758  1.00  0.00    -0.203 F 
ATOM     59  F   UNL A   1      41.788  36.890  40.039  1.00  0.00    -0.200 F 
ATOM     60  C   UNL A   1      40.330  35.338  41.060  1.00  0.00     0.200 A 
ATOM     61  F   UNL A   1      38.879  33.751  42.038  1.00  0.00    -0.200 F 
ATOM     62  F   UNL A   1      40.353  36.043  42.200  1.00  0.00    -0.200 F 
ENDBRANCH  28  52
BRANCH  40  63
ATOM     63  C   UNL A   1      44.541  29.158  35.785  1.00  0.00     0.064 A 
ATOM     64  C   UNL A   1      44.570  27.979  36.543  1.00  0.00     0.173 A 
ATOM     65  C   UNL A   1      45.765  29.757  35.450  1.00  0.00     0.173 A 
ATOM     66  F   UNL A   1      43.426  27.380  36.904  1.00  0.00    -0.203 F 
ATOM     67  C   UNL A   1      45.777  27.436  36.974  1.00  0.00     0.198 A 
ATOM     68  C   UNL A   1      46.971  29.196  35.859  1.00  0.00     0.198 A 
ATOM     69  F   UNL A   1      45.791  30.884  34.724  1.00  0.00    -0.203 F 
ATOM     70  F   UNL A   1      45.781  26.338  37.742  1.00  0.00    -0.200 F 
ATOM     71  C   UNL A   1      46.976  28.042  36.628  1.00  0.00     0.200 A 
ATOM     72  F   UNL A   1      48.128  29.776  35.515  1.00  0.00    -0.200 F 
ATOM     73  F   UNL A   1      48.138  27.518  37.044  1.00  0.00    -0.200 F 
ENDBRANCH  40  63
ENDBRANCH  14  15
ENDBRANCH   7   9
ENDBRANCH   4   5
ENDBRANCH   3   4
ENDBRANCH   2   3
ENDBRANCH   1   2
BRANCH   1  74
ATOM     74  C   UNL A   1      34.613  31.231  27.811  1.00  0.00     0.021 C 
BRANCH  74  75
ATOM     75  C   UNL A   1      33.359  30.824  27.039  1.00  0.00     0.116 C 
BRANCH  75  76
ATOM     76  N   UNL A   1      32.662  29.728  27.682  1.00  0.00    -0.349 N 
ATOM     77  C   UNL A   1      31.941  28.711  27.100  1.00  0.00     0.286 C 
ATOM     78  H   UNL A   1      32.709  29.711  28.666  1.00  0.00     0.163 HD
ATOM     79  O   UNL A   1      31.245  28.007  27.832  1.00  0.00    -0.266 OA
BRANCH  77  80
ATOM     80  C   UNL A   1      32.045  28.525  25.672  1.00  0.00     0.191 A 
ATOM     81  C   UNL A   1      32.973  27.868  24.884  1.00  0.00     0.056 A 
ATOM     82  O   UNL A   1      31.082  29.075  24.874  1.00  0.00    -0.454 OA
ATOM     83  C   UNL A   1      32.569  28.046  23.539  1.00  0.00     0.048 A 
ATOM     84  C   UNL A   1      31.416  28.799  23.580  1.00  0.00     0.124 A 
BRANCH  84  85
ATOM     85  C   UNL A   1      30.534  29.377  22.538  1.00  0.00     0.191 C 
BRANCH  85  86
ATOM     86  N   UNL A   1      29.174  28.937  22.765  1.00  0.00    -0.344 N 
ATOM     87  C   UNL A   1      28.025  29.684  22.859  1.00  0.00     0.265 C 
ATOM     88  H   UNL A   1      29.056  27.965  22.868  1.00  0.00     0.164 HD
ATOM     89  O   UNL A   1      27.013  29.109  23.259  1.00  0.00    -0.268 OA
BRANCH  87  90
ATOM     90  C   UNL A   1      28.047  31.069  22.484  1.00  0.00     0.133 A 
ATOM     91  C   UNL A   1      28.233  32.232  23.207  1.00  0.00     0.163 A 
ATOM     92  S   UNL A   1      27.884  31.528  20.840  1.00  0.00    -0.007 S 
ATOM     93  N   UNL A   1      28.174  33.406  22.474  1.00  0.00    -0.146 NA
ATOM     94  N   UNL A   1      27.979  33.164  21.188  1.00  0.00    -0.090 NA
ENDBRANCH  87  90
ENDBRANCH  85  86
ENDBRANCH  84  85
ENDBRANCH  77  80
ENDBRANCH  75  76
ENDBRANCH  74  75
ENDBRANCH   1  74
TORSDOF 16
ENDMDL
MODEL 3
REMARK VINA RESULT:     -11.4      7.178     12.166
REMARK SMILES O=C(NCCCCCCNC(=O)c1ccc(CNC(=O)c2cnns2)o1)c1ccc(-c2c3nc(c(-c4c(F)c(F)c(F)c(F)c4F)c4ccc([nH]4)c(-c4c(F)c(F)c(F)c(F)c4F)c4nc(c(-c5c(F)c(F)c(F)c(F)c5F)c5ccc2[nH]5)C=C4)C=C3)cc1
REMARK SMILES IDX 7 1 6 2 5 3 4 4 3 5 1 6 2 7 27 9 28 10 89 11 29 12 88 13
REMARK SMILES IDX 30 14 31 15 32 16 82 17 33 18 87 19 81 20 83 21 34 22 86 23
REMARK SMILES IDX 80 24 79 25 35 27 67 28 47 29 66 30 48 31 51 32 65 33 84 34
REMARK SMILES IDX 49 35 50 36 64 38 85 39 52 40 36 41 37 42 45 43 38 44 39 45
REMARK SMILES IDX 43 46 46 47 40 48 41 49 44 50 42 51 68 52 69 53 77 54 70 55
REMARK SMILES IDX 71 56 75 57 78 58 72 59 73 60 76 61 74 62 53 63 54 64 62 65
REMARK SMILES IDX 55 66 56 67 60 68 63 69 57 70 58 71 61 72 59 73 8 74 9 75
REMARK SMILES IDX 10 76 11 77 12 79 13 80 14 81 26 82 15 83 16 84 17 85 18 86
REMARK SMILES IDX 19 87 20 89 21 90 22 91 25 92 23 93 24 94
REMARK H PARENT 3 8 83 26 51 37 10 78 18 88
REMARK Flexibility Score: inf
ROOT
ATOM      1  C   UNL A   1      37.417  22.083  25.325  1.00  0.00     0.002 C 
ENDROOT
BRANCH   1   2
ATOM      2  C   UNL A   1      37.058  20.695  24.785  1.00  0.00     0.002 C 
BRANCH   2   3
ATOM      3  C   UNL A   1      38.118  19.613  24.994  1.00  0.00     0.021 C 
BRANCH   3   4
ATOM      4  C   UNL A   1      39.267  20.002  25.915  1.00  0.00     0.116 C 
BRANCH   4   5
ATOM      5  N   UNL A   1      40.365  19.050  25.885  1.00  0.00    -0.352 N 
ATOM      6  O   UNL A   1      42.516  18.364  25.859  1.00  0.00    -0.269 OA
ATOM      7  C   UNL A   1      41.711  19.268  26.060  1.00  0.00     0.251 C 
ATOM      8  H   UNL A   1      40.108  18.116  25.715  1.00  0.00     0.163 HD
BRANCH   7   9
ATOM      9  C   UNL A   1      42.195  20.607  26.463  1.00  0.00     0.039 A 
ATOM     10  C   UNL A   1      42.264  20.969  27.810  1.00  0.00     0.014 A 
ATOM     11  C   UNL A   1      42.590  21.513  25.474  1.00  0.00     0.014 A 
ATOM     12  C   UNL A   1      42.582  22.276  28.159  1.00  0.00     0.010 A 
ATOM     13  C   UNL A   1      42.995  22.803  25.832  1.00  0.00     0.010 A 
ATOM     14  C   UNL A   1      42.960  23.206  27.176  1.00  0.00    -0.014 A 
BRANCH  14  15
ATOM     15  C   UNL A   1      43.363  24.575  27.590  1.00  0.00     0.031 A 
ATOM     16  C   UNL A   1      44.803  25.003  27.573  1.00  0.00     0.074 A 
ATOM     17  C   UNL A   1      42.403  25.448  27.950  1.00  0.00     0.049 A 
ATOM     18  N   UNL A   1      45.319  26.174  27.858  1.00  0.00    -0.248 NA
ATOM     19  C   UNL A   1      45.797  23.988  27.194  1.00  0.00     0.031 C 
ATOM     20  C   UNL A   1      40.972  25.142  28.019  1.00  0.00     0.029 A 
ATOM     21  N   UNL A   1      42.477  26.771  28.302  1.00  0.00    -0.354 N 
ATOM     22  C   UNL A   1      46.693  26.032  27.714  1.00  0.00     0.074 A 
ATOM     23  C   UNL A   1      46.935  24.654  27.339  1.00  0.00     0.031 C 
ATOM     24  C   UNL A   1      40.299  26.257  28.335  1.00  0.00     0.029 A 
ATOM     25  C   UNL A   1      41.252  27.341  28.550  1.00  0.00     0.049 A 
ATOM     26  H   UNL A   1      43.326  27.265  28.371  1.00  0.00     0.167 HD
ATOM     27  C   UNL A   1      47.661  26.968  27.871  1.00  0.00     0.037 A 
ATOM     28  C   UNL A   1      40.930  28.594  28.917  1.00  0.00     0.037 A 
ATOM     29  C   UNL A   1      47.412  28.341  28.228  1.00  0.00     0.049 A 
ATOM     30  C   UNL A   1      42.025  29.604  29.102  1.00  0.00     0.074 A 
ATOM     31  C   UNL A   1      48.322  29.376  28.368  1.00  0.00     0.029 A 
ATOM     32  N   UNL A   1      46.161  28.873  28.507  1.00  0.00    -0.354 N 
ATOM     33  N   UNL A   1      43.316  29.468  28.919  1.00  0.00    -0.248 NA
ATOM     34  C   UNL A   1      41.618  30.942  29.550  1.00  0.00     0.031 C 
ATOM     35  C   UNL A   1      47.627  30.520  28.777  1.00  0.00     0.029 A 
ATOM     36  C   UNL A   1      46.278  30.213  28.843  1.00  0.00     0.049 A 
ATOM     37  H   UNL A   1      45.315  28.371  28.471  1.00  0.00     0.167 HD
ATOM     38  C   UNL A   1      43.874  30.704  29.211  1.00  0.00     0.074 A 
ATOM     39  C   UNL A   1      42.778  31.583  29.562  1.00  0.00     0.031 C 
ATOM     40  C   UNL A   1      45.177  31.075  29.190  1.00  0.00     0.037 A 
BRANCH  27  41
ATOM     41  C   UNL A   1      49.086  26.536  27.677  1.00  0.00     0.064 A 
ATOM     42  C   UNL A   1      49.654  26.411  26.399  1.00  0.00     0.173 A 
ATOM     43  C   UNL A   1      49.910  26.285  28.786  1.00  0.00     0.173 A 
ATOM     44  F   UNL A   1      48.908  26.629  25.305  1.00  0.00    -0.203 F 
ATOM     45  C   UNL A   1      50.983  26.027  26.240  1.00  0.00     0.198 A 
ATOM     46  C   UNL A   1      51.246  25.928  28.623  1.00  0.00     0.198 A 
ATOM     47  F   UNL A   1      49.420  26.397  30.030  1.00  0.00    -0.203 F 
ATOM     48  F   UNL A   1      51.491  25.871  25.009  1.00  0.00    -0.200 F 
ATOM     49  C   UNL A   1      51.779  25.791  27.350  1.00  0.00     0.200 A 
ATOM     50  F   UNL A   1      52.017  25.714  29.698  1.00  0.00    -0.200 F 
ATOM     51  F   UNL A   1      53.059  25.428  27.194  1.00  0.00    -0.200 F 
ENDBRANCH  27  41
BRANCH  28  52
ATOM     52  C   UNL A   1      39.505  28.959  29.119  1.00  0.00     0.064 A 
ATOM     53  C   UNL A   1      38.718  29.402  28.047  1.00  0.00     0.173 A 
ATOM     54  C   UNL A   1      38.899  28.860  30.379  1.00  0.00     0.173 A 
ATOM     55  F   UNL A   1      39.259  29.530  26.827  1.00  0.00    -0.203 F 
ATOM     56  C   UNL A   1      37.379  29.742  28.232  1.00  0.00     0.198 A 
ATOM     57  C   UNL A   1      37.554  29.172  30.557  1.00  0.00     0.198 A 
ATOM     58  F   UNL A   1      39.610  28.438  31.435  1.00  0.00    -0.203 F 
ATOM     59  F   UNL A   1      36.658  30.197  27.199  1.00  0.00    -0.200 F 
ATOM     60  C   UNL A   1      36.797  29.619  29.484  1.00  0.00     0.200 A 
ATOM     61  F   UNL A   1      36.991  29.036  31.765  1.00  0.00    -0.200 F 
ATOM     62  F   UNL A   1      35.507  29.937  29.659  1.00  0.00    -0.200 F 
ENDBRANCH  28  52
BRANCH  40  63
ATOM     63  C   UNL A   1      45.482  32.504  29.532  1.00  0.00     0.064 A 
ATOM     64  C   UNL A   1      45.783  32.898  30.844  1.00  0.00     0.173 A 
ATOM     65  C   UNL A   1      45.484  33.489  28.532  1.00  0.00     0.173 A 
ATOM     66  F   UNL A   1      45.775  31.997  31.838  1.00  0.00    -0.203 F 
ATOM     67  C   UNL A   1      46.048  34.231  31.147  1.00  0.00     0.198 A 
ATOM     68  C   UNL A   1      45.777  34.814  28.834  1.00  0.00     0.198 A 
ATOM     69  F   UNL A   1      45.205  33.162  27.262  1.00  0.00    -0.203 F 
ATOM     70  F   UNL A   1      46.282  34.594  32.416  1.00  0.00    -0.200 F 
ATOM     71  C   UNL A   1      46.050  35.186  30.142  1.00  0.00     0.200 A 
ATOM     72  F   UNL A   1      45.788  35.735  27.861  1.00  0.00    -0.200 F 
ATOM     73  F   UNL A   1      46.305  36.469  30.436  1.00  0.00    -0.200 F 
ENDBRANCH  40  63
ENDBRANCH  14  15
ENDBRANCH   7   9
ENDBRANCH   4   5
ENDBRANCH   3   4
ENDBRANCH   2   3
ENDBRANCH   1   2
BRANCH   1  74
ATOM     74  C   UNL A   1      37.014  23.267  24.438  1.00  0.00     0.021 C 
BRANCH  74  75
ATOM     75  C   UNL A   1      35.950  22.957  23.386  1.00  0.00     0.116 C 
BRANCH  75  76
ATOM     76  N   UNL A   1      34.834  23.878  23.461  1.00  0.00    -0.349 N 
ATOM     77  C   UNL A   1      33.705  23.795  24.242  1.00  0.00     0.286 C 
ATOM     78  H   UNL A   1      34.891  24.667  22.874  1.00  0.00     0.163 HD
ATOM     79  O   UNL A   1      32.776  24.564  23.996  1.00  0.00    -0.266 OA
BRANCH  77  80
ATOM     80  C   UNL A   1      33.675  22.816  25.305  1.00  0.00     0.191 A 
ATOM     81  C   UNL A   1      34.046  22.876  26.636  1.00  0.00     0.056 A 
ATOM     82  O   UNL A   1      33.206  21.564  25.021  1.00  0.00    -0.454 OA
ATOM     83  C   UNL A   1      33.813  21.592  27.185  1.00  0.00     0.048 A 
ATOM     84  C   UNL A   1      33.311  20.820  26.160  1.00  0.00     0.124 A 
BRANCH  84  85
ATOM     85  C   UNL A   1      32.923  19.394  26.048  1.00  0.00     0.191 C 
BRANCH  85  86
ATOM     86  N   UNL A   1      32.411  19.140  24.720  1.00  0.00    -0.344 N 
ATOM     87  C   UNL A   1      32.598  18.045  23.912  1.00  0.00     0.265 C 
ATOM     88  H   UNL A   1      31.849  19.854  24.340  1.00  0.00     0.164 HD
ATOM     89  O   UNL A   1      32.230  18.141  22.742  1.00  0.00    -0.268 OA
BRANCH  87  90
ATOM     90  C   UNL A   1      33.188  16.855  24.456  1.00  0.00     0.133 A 
ATOM     91  C   UNL A   1      32.647  15.689  24.965  1.00  0.00     0.163 A 
ATOM     92  S   UNL A   1      34.892  16.667  24.492  1.00  0.00    -0.007 S 
ATOM     93  N   UNL A   1      33.563  14.752  25.414  1.00  0.00    -0.146 NA
ATOM     94  N   UNL A   1      34.806  15.163  25.226  1.00  0.00    -0.090 NA
ENDBRANCH  87  90
ENDBRANCH  85  86
ENDBRANCH  84  85
ENDBRANCH  77  80
ENDBRANCH  75  76
ENDBRANCH  74  75
ENDBRANCH   1  74
TORSDOF 16
ENDMDL
