MODEL 1
REMARK VINA RESULT:     -12.6      0.000      0.000
REMARK SMILES O=C(CCC1CC[NH+]([C@H]2CCO[C@@]3(CCSC3)C2)CC1)NCCCCCCNC(=O)c1ccc(-c2c3nc(c(-c4c(F)c(F)c(F)c(F)c4F)c4ccc([nH]4)c(-c4c(F)c(F)c(F)c(F)c4F)c4nc(c(-c5c(F)c(F)c(F)c(F)c5F)c5ccc2[nH]5)C=C4)C=C3)cc1
REMARK SMILES IDX 24 1 23 2 22 3 21 4 1 5 2 6 3 8 4 9 5 10 6 11 20 12 7 13
REMARK SMILES IDX 19 14 8 15 9 17 10 18 18 19 11 20 13 21 12 22 14 23 17 24
REMARK SMILES IDX 15 25 16 26 25 27 26 28 27 29 28 30 29 31 30 33 31 34 32 35
REMARK SMILES IDX 93 36 33 37 92 38 34 39 35 40 36 41 86 42 37 43 91 44 85 45
REMARK SMILES IDX 87 46 38 47 90 48 84 49 83 50 39 52 71 53 51 54 70 55 52 56
REMARK SMILES IDX 55 57 69 58 88 59 53 60 54 61 68 63 89 64 56 65 40 66 41 67
REMARK SMILES IDX 49 68 42 69 43 70 47 71 50 72 44 73 45 74 48 75 46 76 72 77
REMARK SMILES IDX 73 78 81 79 74 80 75 81 79 82 82 83 76 84 77 85 80 86 78 87
REMARK SMILES IDX 57 88 58 89 66 90 59 91 60 92 64 93 67 94 61 95 62 96 65 97
REMARK SMILES IDX 63 98
REMARK H PARENT 21 7 8 16 28 32 87 51 55 62
REMARK Flexibility Score: inf
ROOT
ATOM      1  C   UNL A   1      36.817  22.019  24.153  1.00  0.00     0.002 C 
ENDROOT
BRANCH   1   2
ATOM      2  C   UNL A   1      37.016  23.374  24.850  1.00  0.00     0.021 C 
BRANCH   2   3
ATOM      3  C   UNL A   1      35.789  23.893  25.589  1.00  0.00     0.116 C 
BRANCH   3   4
ATOM      4  N   UNL A   1      34.603  23.784  24.769  1.00  0.00    -0.356 N 
ATOM      5  O   UNL A   1      33.531  22.230  26.074  1.00  0.00    -0.275 OA
ATOM      6  C   UNL A   1      33.535  22.997  25.123  1.00  0.00     0.220 C 
ATOM      7  H   UNL A   1      34.560  24.293  23.928  1.00  0.00     0.163 HD
BRANCH   6   8
ATOM      8  C   UNL A   1      32.324  23.221  24.246  1.00  0.00     0.100 C 
BRANCH   8   9
ATOM      9  C   UNL A   1      32.626  24.182  23.089  1.00  0.00     0.014 C 
BRANCH   9  10
ATOM     10  C   UNL A   1      31.431  25.073  22.664  1.00  0.00     0.000 C 
ATOM     11  C   UNL A   1      31.847  26.350  21.896  1.00  0.00     0.065 C 
ATOM     12  C   UNL A   1      30.522  25.356  23.878  1.00  0.00     0.065 C 
ATOM     13  C   UNL A   1      31.852  27.675  22.668  1.00  0.00     0.262 C 
ATOM     14  C   UNL A   1      30.828  26.674  24.570  1.00  0.00     0.262 C 
ATOM     15  N   UNL A   1      30.798  27.820  23.663  1.00  0.00    -0.332 N 
ATOM     16  H   UNL A   1      31.002  28.628  24.251  1.00  0.00     0.348 HD
BRANCH  15  17
ATOM     17  C   UNL A   1      29.495  28.322  23.170  1.00  0.00     0.189 C 
ATOM     18  C   UNL A   1      28.228  27.591  23.650  1.00  0.00     0.093 C 
ATOM     19  C   UNL A   1      29.357  29.848  23.354  1.00  0.00     0.101 C 
ATOM     20  C   UNL A   1      26.944  28.282  23.217  1.00  0.00     0.167 C 
ATOM     21  C   UNL A   1      28.001  30.405  22.883  1.00  0.00     0.084 C 
ATOM     22  O   UNL A   1      26.957  29.667  23.540  1.00  0.00    -0.374 OA
ATOM     23  C   UNL A   1      27.837  31.871  23.324  1.00  0.00     0.047 C 
ATOM     24  C   UNL A   1      27.804  30.417  21.356  1.00  0.00     0.105 C 
ATOM     25  C   UNL A   1      28.622  32.753  22.373  1.00  0.00     0.072 C 
ATOM     26  S   UNL A   1      28.329  32.041  20.739  1.00  0.00    -0.159 SA
ENDBRANCH  15  17
ENDBRANCH   9  10
ENDBRANCH   8   9
ENDBRANCH   6   8
ENDBRANCH   3   4
ENDBRANCH   2   3
ENDBRANCH   1   2
BRANCH   1  27
ATOM     27  C   UNL A   1      36.825  20.795  25.072  1.00  0.00     0.002 C 
BRANCH  27  28
ATOM     28  C   UNL A   1      38.032  19.872  24.911  1.00  0.00     0.021 C 
BRANCH  28  29
ATOM     29  C   UNL A   1      39.241  20.240  25.764  1.00  0.00     0.116 C 
BRANCH  29  30
ATOM     30  N   UNL A   1      40.203  19.156  25.875  1.00  0.00    -0.352 N 
ATOM     31  C   UNL A   1      41.556  19.227  26.105  1.00  0.00     0.251 C 
ATOM     32  H   UNL A   1      39.837  18.248  25.771  1.00  0.00     0.163 HD
ATOM     33  O   UNL A   1      42.255  18.222  26.020  1.00  0.00    -0.269 OA
BRANCH  31  34
ATOM     34  C   UNL A   1      42.172  20.532  26.426  1.00  0.00     0.039 A 
ATOM     35  C   UNL A   1      42.653  21.326  25.382  1.00  0.00     0.014 A 
ATOM     36  C   UNL A   1      42.254  20.980  27.747  1.00  0.00     0.014 A 
ATOM     37  C   UNL A   1      43.154  22.599  25.659  1.00  0.00     0.010 A 
ATOM     38  C   UNL A   1      42.679  22.279  28.012  1.00  0.00     0.010 A 
ATOM     39  C   UNL A   1      43.136  23.102  26.971  1.00  0.00    -0.014 A 
BRANCH  39  40
ATOM     40  C   UNL A   1      43.587  24.484  27.273  1.00  0.00     0.031 A 
ATOM     41  C   UNL A   1      42.611  25.502  27.795  1.00  0.00     0.074 A 
ATOM     42  C   UNL A   1      44.860  24.843  27.015  1.00  0.00     0.049 A 
ATOM     43  N   UNL A   1      42.798  26.770  28.059  1.00  0.00    -0.248 NA
ATOM     44  C   UNL A   1      41.234  25.038  28.026  1.00  0.00     0.031 C 
ATOM     45  C   UNL A   1      45.890  23.962  26.461  1.00  0.00     0.029 A 
ATOM     46  N   UNL A   1      45.503  26.044  27.174  1.00  0.00    -0.354 N 
ATOM     47  C   UNL A   1      41.565  27.255  28.473  1.00  0.00     0.074 A 
ATOM     48  C   UNL A   1      40.623  26.163  28.369  1.00  0.00     0.031 C 
ATOM     49  C   UNL A   1      47.039  24.644  26.351  1.00  0.00     0.029 A 
ATOM     50  C   UNL A   1      46.820  26.021  26.784  1.00  0.00     0.049 A 
ATOM     51  H   UNL A   1      45.062  26.848  27.535  1.00  0.00     0.167 HD
ATOM     52  C   UNL A   1      41.251  28.494  28.924  1.00  0.00     0.037 A 
ATOM     53  C   UNL A   1      47.744  27.002  26.769  1.00  0.00     0.037 A 
ATOM     54  C   UNL A   1      42.195  29.575  29.042  1.00  0.00     0.049 A 
ATOM     55  C   UNL A   1      47.366  28.373  27.258  1.00  0.00     0.074 A 
ATOM     56  C   UNL A   1      41.990  30.849  29.541  1.00  0.00     0.029 A 
ATOM     57  N   UNL A   1      43.523  29.511  28.646  1.00  0.00    -0.354 N 
ATOM     58  N   UNL A   1      46.215  28.802  27.718  1.00  0.00    -0.248 NA
ATOM     59  C   UNL A   1      48.418  29.399  27.232  1.00  0.00     0.031 C 
ATOM     60  C   UNL A   1      43.177  31.573  29.395  1.00  0.00     0.029 A 
ATOM     61  C   UNL A   1      44.142  30.731  28.864  1.00  0.00     0.049 A 
ATOM     62  H   UNL A   1      43.962  28.715  28.266  1.00  0.00     0.167 HD
ATOM     63  C   UNL A   1      46.412  30.132  28.064  1.00  0.00     0.074 A 
ATOM     64  C   UNL A   1      47.798  30.437  27.775  1.00  0.00     0.031 C 
ATOM     65  C   UNL A   1      45.525  31.020  28.578  1.00  0.00     0.037 A 
BRANCH  52  66
ATOM     66  C   UNL A   1      39.823  28.748  29.320  1.00  0.00     0.064 A 
ATOM     67  C   UNL A   1      39.362  28.497  30.622  1.00  0.00     0.173 A 
ATOM     68  C   UNL A   1      38.911  29.277  28.395  1.00  0.00     0.173 A 
ATOM     69  F   UNL A   1      40.190  27.982  31.545  1.00  0.00    -0.203 F 
ATOM     70  C   UNL A   1      38.035  28.730  30.972  1.00  0.00     0.198 A 
ATOM     71  C   UNL A   1      37.593  29.543  28.758  1.00  0.00     0.198 A 
ATOM     72  F   UNL A   1      39.297  29.542  27.138  1.00  0.00    -0.203 F 
ATOM     73  F   UNL A   1      37.605  28.427  32.205  1.00  0.00    -0.200 F 
ATOM     74  C   UNL A   1      37.153  29.259  30.042  1.00  0.00     0.200 A 
ATOM     75  F   UNL A   1      36.745  30.068  27.862  1.00  0.00    -0.200 F 
ATOM     76  F   UNL A   1      35.878  29.489  30.382  1.00  0.00    -0.200 F 
ENDBRANCH  52  66
BRANCH  53  77
ATOM     77  C   UNL A   1      49.123  26.713  26.294  1.00  0.00     0.064 A 
ATOM     78  C   UNL A   1      50.096  26.211  27.169  1.00  0.00     0.173 A 
ATOM     79  C   UNL A   1      49.497  26.935  24.960  1.00  0.00     0.173 A 
ATOM     80  F   UNL A   1      49.792  26.001  28.459  1.00  0.00    -0.203 F 
ATOM     81  C   UNL A   1      51.396  25.961  26.734  1.00  0.00     0.198 A 
ATOM     82  C   UNL A   1      50.790  26.655  24.519  1.00  0.00     0.198 A 
ATOM     83  F   UNL A   1      48.603  27.409  24.080  1.00  0.00    -0.203 F 
ATOM     84  F   UNL A   1      52.319  25.526  27.603  1.00  0.00    -0.200 F 
ATOM     85  C   UNL A   1      51.740  26.177  25.409  1.00  0.00     0.200 A 
ATOM     86  F   UNL A   1      51.113  26.850  23.234  1.00  0.00    -0.200 F 
ATOM     87  F   UNL A   1      52.988  25.931  24.989  1.00  0.00    -0.200 F 
ENDBRANCH  53  77
BRANCH  65  88
ATOM     88  C   UNL A   1      46.034  32.397  28.898  1.00  0.00     0.064 A 
ATOM     89  C   UNL A   1      45.987  33.440  27.962  1.00  0.00     0.173 A 
ATOM     90  C   UNL A   1      46.536  32.686  30.177  1.00  0.00     0.173 A 
ATOM     91  F   UNL A   1      45.530  33.214  26.721  1.00  0.00    -0.203 F 
ATOM     92  C   UNL A   1      46.452  34.713  28.284  1.00  0.00     0.198 A 
ATOM     93  C   UNL A   1      46.967  33.967  30.506  1.00  0.00     0.198 A 
ATOM     94  F   UNL A   1      46.595  31.727  31.113  1.00  0.00    -0.203 F 
ATOM     95  F   UNL A   1      46.446  35.680  27.357  1.00  0.00    -0.200 F 
ATOM     96  C   UNL A   1      46.932  34.977  29.558  1.00  0.00     0.200 A 
ATOM     97  F   UNL A   1      47.414  34.224  31.743  1.00  0.00    -0.200 F 
ATOM     98  F   UNL A   1      47.369  36.206  29.869  1.00  0.00    -0.200 F 
ENDBRANCH  65  88
ENDBRANCH  39  40
ENDBRANCH  31  34
ENDBRANCH  29  30
ENDBRANCH  28  29
ENDBRANCH  27  28
ENDBRANCH   1  27
TORSDOF 16
ENDMDL
MODEL 2
REMARK VINA RESULT:     -12.5      0.667      2.048
REMARK SMILES O=C(CCC1CC[NH+]([C@H]2CCO[C@@]3(CCSC3)C2)CC1)NCCCCCCNC(=O)c1ccc(-c2c3nc(c(-c4c(F)c(F)c(F)c(F)c4F)c4ccc([nH]4)c(-c4c(F)c(F)c(F)c(F)c4F)c4nc(c(-c5c(F)c(F)c(F)c(F)c5F)c5ccc2[nH]5)C=C4)C=C3)cc1
REMARK SMILES IDX 24 1 23 2 22 3 21 4 1 5 2 6 3 8 4 9 5 10 6 11 20 12 7 13
REMARK SMILES IDX 19 14 8 15 9 17 10 18 18 19 11 20 13 21 12 22 14 23 17 24
REMARK SMILES IDX 15 25 16 26 25 27 26 28 27 29 28 30 29 31 30 33 31 34 32 35
REMARK SMILES IDX 93 36 33 37 92 38 34 39 35 40 36 41 86 42 37 43 91 44 85 45
REMARK SMILES IDX 87 46 38 47 90 48 84 49 83 50 39 52 71 53 51 54 70 55 52 56
REMARK SMILES IDX 55 57 69 58 88 59 53 60 54 61 68 63 89 64 56 65 40 66 41 67
REMARK SMILES IDX 49 68 42 69 43 70 47 71 50 72 44 73 45 74 48 75 46 76 72 77
REMARK SMILES IDX 73 78 81 79 74 80 75 81 79 82 82 83 76 84 77 85 80 86 78 87
REMARK SMILES IDX 57 88 58 89 66 90 59 91 60 92 64 93 67 94 61 95 62 96 65 97
REMARK SMILES IDX 63 98
REMARK H PARENT 21 7 8 16 28 32 87 51 55 62
REMARK Flexibility Score: inf
ROOT
ATOM      1  C   UNL A   1      37.402  22.075  24.663  1.00  0.00     0.002 C 
ENDROOT
BRANCH   1   2
ATOM      2  C   UNL A   1      36.928  23.162  25.640  1.00  0.00     0.021 C 
BRANCH   2   3
ATOM      3  C   UNL A   1      35.941  24.161  25.048  1.00  0.00     0.116 C 
BRANCH   3   4
ATOM      4  N   UNL A   1      34.628  24.005  25.632  1.00  0.00    -0.356 N 
ATOM      5  O   UNL A   1      34.067  26.230  25.602  1.00  0.00    -0.275 OA
ATOM      6  C   UNL A   1      33.769  25.062  25.802  1.00  0.00     0.220 C 
ATOM      7  H   UNL A   1      34.340  23.108  25.918  1.00  0.00     0.163 HD
BRANCH   6   8
ATOM      8  C   UNL A   1      32.378  24.630  26.207  1.00  0.00     0.100 C 
BRANCH   8   9
ATOM      9  C   UNL A   1      31.637  23.936  25.055  1.00  0.00     0.014 C 
BRANCH   9  10
ATOM     10  C   UNL A   1      30.541  24.802  24.382  1.00  0.00     0.000 C 
ATOM     11  C   UNL A   1      30.910  25.275  22.956  1.00  0.00     0.065 C 
ATOM     12  C   UNL A   1      30.122  25.952  25.321  1.00  0.00     0.065 C 
ATOM     13  C   UNL A   1      31.386  26.723  22.787  1.00  0.00     0.262 C 
ATOM     14  C   UNL A   1      30.852  27.256  25.045  1.00  0.00     0.262 C 
ATOM     15  N   UNL A   1      30.738  27.697  23.656  1.00  0.00    -0.332 N 
ATOM     16  H   UNL A   1      31.252  28.577  23.614  1.00  0.00     0.348 HD
BRANCH  15  17
ATOM     17  C   UNL A   1      29.453  28.254  23.174  1.00  0.00     0.189 C 
ATOM     18  C   UNL A   1      28.162  27.549  23.627  1.00  0.00     0.093 C 
ATOM     19  C   UNL A   1      29.362  29.777  23.404  1.00  0.00     0.101 C 
ATOM     20  C   UNL A   1      26.902  28.292  23.212  1.00  0.00     0.167 C 
ATOM     21  C   UNL A   1      28.026  30.391  22.946  1.00  0.00     0.084 C 
ATOM     22  O   UNL A   1      26.957  29.666  23.576  1.00  0.00    -0.374 OA
ATOM     23  C   UNL A   1      27.907  31.847  23.431  1.00  0.00     0.047 C 
ATOM     24  C   UNL A   1      27.836  30.455  21.419  1.00  0.00     0.105 C 
ATOM     25  C   UNL A   1      28.723  32.732  22.510  1.00  0.00     0.072 C 
ATOM     26  S   UNL A   1      28.414  32.080  20.854  1.00  0.00    -0.159 SA
ENDBRANCH  15  17
ENDBRANCH   9  10
ENDBRANCH   8   9
ENDBRANCH   6   8
ENDBRANCH   3   4
ENDBRANCH   2   3
ENDBRANCH   1   2
BRANCH   1  27
ATOM     27  C   UNL A   1      36.970  20.646  25.004  1.00  0.00     0.002 C 
BRANCH  27  28
ATOM     28  C   UNL A   1      38.095  19.612  25.005  1.00  0.00     0.021 C 
BRANCH  28  29
ATOM     29  C   UNL A   1      39.365  20.046  25.729  1.00  0.00     0.116 C 
BRANCH  29  30
ATOM     30  N   UNL A   1      40.335  18.971  25.857  1.00  0.00    -0.352 N 
ATOM     31  C   UNL A   1      41.687  19.056  26.086  1.00  0.00     0.251 C 
ATOM     32  H   UNL A   1      39.976  18.059  25.767  1.00  0.00     0.163 HD
ATOM     33  O   UNL A   1      42.394  18.056  26.017  1.00  0.00    -0.269 OA
BRANCH  31  34
ATOM     34  C   UNL A   1      42.293  20.371  26.387  1.00  0.00     0.039 A 
ATOM     35  C   UNL A   1      42.840  21.117  25.341  1.00  0.00     0.014 A 
ATOM     36  C   UNL A   1      42.300  20.874  27.691  1.00  0.00     0.014 A 
ATOM     37  C   UNL A   1      43.335  22.398  25.593  1.00  0.00     0.010 A 
ATOM     38  C   UNL A   1      42.719  22.182  27.925  1.00  0.00     0.010 A 
ATOM     39  C   UNL A   1      43.243  22.956  26.879  1.00  0.00    -0.014 A 
BRANCH  39  40
ATOM     40  C   UNL A   1      43.685  24.348  27.147  1.00  0.00     0.031 A 
ATOM     41  C   UNL A   1      42.708  25.367  27.665  1.00  0.00     0.074 A 
ATOM     42  C   UNL A   1      44.951  24.713  26.864  1.00  0.00     0.049 A 
ATOM     43  N   UNL A   1      42.888  26.642  27.902  1.00  0.00    -0.248 NA
ATOM     44  C   UNL A   1      41.339  24.896  27.925  1.00  0.00     0.031 C 
ATOM     45  C   UNL A   1      45.981  23.831  26.311  1.00  0.00     0.029 A 
ATOM     46  N   UNL A   1      45.586  25.923  26.991  1.00  0.00    -0.354 N 
ATOM     47  C   UNL A   1      41.656  27.124  28.326  1.00  0.00     0.074 A 
ATOM     48  C   UNL A   1      40.723  26.021  28.256  1.00  0.00     0.031 C 
ATOM     49  C   UNL A   1      47.122  24.521  26.171  1.00  0.00     0.029 A 
ATOM     50  C   UNL A   1      46.897  25.904  26.581  1.00  0.00     0.049 A 
ATOM     51  H   UNL A   1      45.143  26.729  27.343  1.00  0.00     0.167 HD
ATOM     52  C   UNL A   1      41.339  28.369  28.758  1.00  0.00     0.037 A 
ATOM     53  C   UNL A   1      47.812  26.892  26.534  1.00  0.00     0.037 A 
ATOM     54  C   UNL A   1      42.274  29.460  28.841  1.00  0.00     0.049 A 
ATOM     55  C   UNL A   1      47.429  28.269  27.002  1.00  0.00     0.074 A 
ATOM     56  C   UNL A   1      42.065  30.740  29.319  1.00  0.00     0.029 A 
ATOM     57  N   UNL A   1      43.597  29.399  28.427  1.00  0.00    -0.354 N 
ATOM     58  N   UNL A   1      46.280  28.696  27.472  1.00  0.00    -0.248 NA
ATOM     59  C   UNL A   1      48.471  29.303  26.941  1.00  0.00     0.031 C 
ATOM     60  C   UNL A   1      43.243  31.472  29.141  1.00  0.00     0.029 A 
ATOM     61  C   UNL A   1      44.208  30.629  28.612  1.00  0.00     0.049 A 
ATOM     62  H   UNL A   1      44.037  28.600  28.055  1.00  0.00     0.167 HD
ATOM     63  C   UNL A   1      46.471  30.035  27.790  1.00  0.00     0.074 A 
ATOM     64  C   UNL A   1      47.850  30.346  27.474  1.00  0.00     0.031 C 
ATOM     65  C   UNL A   1      45.584  30.924  28.299  1.00  0.00     0.037 A 
BRANCH  52  66
ATOM     66  C   UNL A   1      39.914  28.617  29.170  1.00  0.00     0.064 A 
ATOM     67  C   UNL A   1      38.951  29.077  28.258  1.00  0.00     0.173 A 
ATOM     68  C   UNL A   1      39.499  28.364  30.486  1.00  0.00     0.173 A 
ATOM     69  F   UNL A   1      39.296  29.344  26.989  1.00  0.00    -0.203 F 
ATOM     70  C   UNL A   1      37.638  29.310  28.656  1.00  0.00     0.198 A 
ATOM     71  C   UNL A   1      38.176  28.563  30.872  1.00  0.00     0.198 A 
ATOM     72  F   UNL A   1      40.374  27.917  31.399  1.00  0.00    -0.203 F 
ATOM     73  F   UNL A   1      36.751  29.804  27.781  1.00  0.00    -0.200 F 
ATOM     74  C   UNL A   1      37.249  29.046  29.961  1.00  0.00     0.200 A 
ATOM     75  F   UNL A   1      37.798  28.294  32.130  1.00  0.00    -0.200 F 
ATOM     76  F   UNL A   1      35.983  29.264  30.341  1.00  0.00    -0.200 F 
ENDBRANCH  52  66
BRANCH  53  77
ATOM     77  C   UNL A   1      49.186  26.607  26.043  1.00  0.00     0.064 A 
ATOM     78  C   UNL A   1      49.558  26.912  24.726  1.00  0.00     0.173 A 
ATOM     79  C   UNL A   1      50.152  26.023  26.876  1.00  0.00     0.173 A 
ATOM     80  F   UNL A   1      48.663  27.451  23.885  1.00  0.00    -0.203 F 
ATOM     81  C   UNL A   1      50.838  26.625  24.255  1.00  0.00     0.198 A 
ATOM     82  C   UNL A   1      51.442  25.767  26.412  1.00  0.00     0.198 A 
ATOM     83  F   UNL A   1      49.850  25.718  28.146  1.00  0.00    -0.203 F 
ATOM     84  F   UNL A   1      51.152  26.883  22.978  1.00  0.00    -0.200 F 
ATOM     85  C   UNL A   1      51.780  26.059  25.100  1.00  0.00     0.200 A 
ATOM     86  F   UNL A   1      52.353  25.234  27.237  1.00  0.00    -0.200 F 
ATOM     87  F   UNL A   1      53.012  25.789  24.648  1.00  0.00    -0.200 F 
ENDBRANCH  53  77
BRANCH  65  88
ATOM     88  C   UNL A   1      46.085  32.311  28.587  1.00  0.00     0.064 A 
ATOM     89  C   UNL A   1      46.681  32.645  29.812  1.00  0.00     0.173 A 
ATOM     90  C   UNL A   1      46.004  33.310  27.604  1.00  0.00     0.173 A 
ATOM     91  F   UNL A   1      46.769  31.731  30.790  1.00  0.00    -0.203 F 
ATOM     92  C   UNL A   1      47.149  33.934  30.053  1.00  0.00     0.198 A 
ATOM     93  C   UNL A   1      46.506  34.588  27.836  1.00  0.00     0.198 A 
ATOM     94  F   UNL A   1      45.451  33.043  26.411  1.00  0.00    -0.203 F 
ATOM     95  F   UNL A   1      47.668  34.243  31.250  1.00  0.00    -0.200 F 
ATOM     96  C   UNL A   1      47.070  34.901  29.062  1.00  0.00     0.200 A 
ATOM     97  F   UNL A   1      46.443  35.515  26.870  1.00  0.00    -0.200 F 
ATOM     98  F   UNL A   1      47.532  36.138  29.292  1.00  0.00    -0.200 F 
ENDBRANCH  65  88
ENDBRANCH  39  40
ENDBRANCH  31  34
ENDBRANCH  29  30
ENDBRANCH  28  29
ENDBRANCH  27  28
ENDBRANCH   1  27
TORSDOF 16
ENDMDL
MODEL 3
REMARK VINA RESULT:     -12.5      2.961      5.088
REMARK SMILES O=C(CCC1CC[NH+]([C@H]2CCO[C@@]3(CCSC3)C2)CC1)NCCCCCCNC(=O)c1ccc(-c2c3nc(c(-c4c(F)c(F)c(F)c(F)c4F)c4ccc([nH]4)c(-c4c(F)c(F)c(F)c(F)c4F)c4nc(c(-c5c(F)c(F)c(F)c(F)c5F)c5ccc2[nH]5)C=C4)C=C3)cc1
REMARK SMILES IDX 24 1 23 2 22 3 21 4 1 5 2 6 3 8 4 9 5 10 6 11 20 12 7 13
REMARK SMILES IDX 19 14 8 15 9 17 10 18 18 19 11 20 13 21 12 22 14 23 17 24
REMARK SMILES IDX 15 25 16 26 25 27 26 28 27 29 28 30 29 31 30 33 31 34 32 35
REMARK SMILES IDX 93 36 33 37 92 38 34 39 35 40 36 41 86 42 37 43 91 44 85 45
REMARK SMILES IDX 87 46 38 47 90 48 84 49 83 50 39 52 71 53 51 54 70 55 52 56
REMARK SMILES IDX 55 57 69 58 88 59 53 60 54 61 68 63 89 64 56 65 40 66 41 67
REMARK SMILES IDX 49 68 42 69 43 70 47 71 50 72 44 73 45 74 48 75 46 76 72 77
REMARK SMILES IDX 73 78 81 79 74 80 75 81 79 82 82 83 76 84 77 85 80 86 78 87
REMARK SMILES IDX 57 88 58 89 66 90 59 91 60 92 64 93 67 94 61 95 62 96 65 97
REMARK SMILES IDX 63 98
REMARK H PARENT 21 7 8 16 28 32 87 51 55 62
REMARK Flexibility Score: inf
ROOT
ATOM      1  C   UNL A   1      37.141  22.245  24.966  1.00  0.00     0.002 C 
ENDROOT
BRANCH   1   2
ATOM      2  C   UNL A   1      36.459  23.094  26.051  1.00  0.00     0.021 C 
BRANCH   2   3
ATOM      3  C   UNL A   1      35.772  24.351  25.533  1.00  0.00     0.116 C 
BRANCH   3   4
ATOM      4  N   UNL A   1      34.408  24.430  26.003  1.00  0.00    -0.356 N 
ATOM      5  O   UNL A   1      33.776  26.185  24.666  1.00  0.00    -0.275 OA
ATOM      6  C   UNL A   1      33.498  25.312  25.475  1.00  0.00     0.220 C 
ATOM      7  H   UNL A   1      34.121  23.829  26.728  1.00  0.00     0.163 HD
BRANCH   6   8
ATOM      8  C   UNL A   1      32.086  25.056  25.950  1.00  0.00     0.100 C 
BRANCH   8   9
ATOM      9  C   UNL A   1      31.146  24.707  24.787  1.00  0.00     0.014 C 
BRANCH   9  10
ATOM     10  C   UNL A   1      31.024  23.190  24.492  1.00  0.00     0.000 C 
ATOM     11  C   UNL A   1      31.360  22.291  25.706  1.00  0.00     0.065 C 
ATOM     12  C   UNL A   1      31.822  22.830  23.222  1.00  0.00     0.065 C 
ATOM     13  C   UNL A   1      32.737  21.617  25.732  1.00  0.00     0.262 C 
ATOM     14  C   UNL A   1      33.224  22.322  23.512  1.00  0.00     0.262 C 
ATOM     15  N   UNL A   1      33.247  21.190  24.436  1.00  0.00    -0.332 N 
ATOM     16  H   UNL A   1      34.232  20.943  24.529  1.00  0.00     0.348 HD
BRANCH  15  17
ATOM     17  C   UNL A   1      32.805  19.858  23.964  1.00  0.00     0.189 C 
ATOM     18  C   UNL A   1      32.307  19.752  22.511  1.00  0.00     0.093 C 
ATOM     19  C   UNL A   1      33.846  18.761  24.273  1.00  0.00     0.101 C 
ATOM     20  C   UNL A   1      32.033  18.319  22.080  1.00  0.00     0.167 C 
ATOM     21  C   UNL A   1      33.439  17.365  23.768  1.00  0.00     0.084 C 
ATOM     22  O   UNL A   1      33.132  17.464  22.367  1.00  0.00    -0.374 OA
ATOM     23  C   UNL A   1      34.620  16.384  23.884  1.00  0.00     0.047 C 
ATOM     24  C   UNL A   1      32.287  16.707  24.550  1.00  0.00     0.105 C 
ATOM     25  C   UNL A   1      34.725  15.922  25.324  1.00  0.00     0.072 C 
ATOM     26  S   UNL A   1      33.016  15.677  25.854  1.00  0.00    -0.159 SA
ENDBRANCH  15  17
ENDBRANCH   9  10
ENDBRANCH   8   9
ENDBRANCH   6   8
ENDBRANCH   3   4
ENDBRANCH   2   3
ENDBRANCH   1   2
BRANCH   1  27
ATOM     27  C   UNL A   1      36.834  20.746  25.010  1.00  0.00     0.002 C 
BRANCH  27  28
ATOM     28  C   UNL A   1      38.050  19.831  24.866  1.00  0.00     0.021 C 
BRANCH  28  29
ATOM     29  C   UNL A   1      39.234  20.193  25.755  1.00  0.00     0.116 C 
BRANCH  29  30
ATOM     30  N   UNL A   1      40.200  19.112  25.873  1.00  0.00    -0.352 N 
ATOM     31  C   UNL A   1      41.553  19.189  26.101  1.00  0.00     0.251 C 
ATOM     32  H   UNL A   1      39.836  18.203  25.777  1.00  0.00     0.163 HD
ATOM     33  O   UNL A   1      42.254  18.186  26.023  1.00  0.00    -0.269 OA
BRANCH  31  34
ATOM     34  C   UNL A   1      42.165  20.499  26.410  1.00  0.00     0.039 A 
ATOM     35  C   UNL A   1      42.620  21.296  25.357  1.00  0.00     0.014 A 
ATOM     36  C   UNL A   1      42.269  20.948  27.729  1.00  0.00     0.014 A 
ATOM     37  C   UNL A   1      43.118  22.573  25.624  1.00  0.00     0.010 A 
ATOM     38  C   UNL A   1      42.690  22.250  27.985  1.00  0.00     0.010 A 
ATOM     39  C   UNL A   1      43.121  23.076  26.936  1.00  0.00    -0.014 A 
BRANCH  39  40
ATOM     40  C   UNL A   1      43.568  24.461  27.229  1.00  0.00     0.031 A 
ATOM     41  C   UNL A   1      42.591  25.476  27.755  1.00  0.00     0.074 A 
ATOM     42  C   UNL A   1      44.837  24.825  26.960  1.00  0.00     0.049 A 
ATOM     43  N   UNL A   1      42.774  26.746  28.013  1.00  0.00    -0.248 NA
ATOM     44  C   UNL A   1      41.219  25.007  27.999  1.00  0.00     0.031 C 
ATOM     45  C   UNL A   1      45.867  23.947  26.400  1.00  0.00     0.029 A 
ATOM     46  N   UNL A   1      45.476  26.030  27.109  1.00  0.00    -0.354 N 
ATOM     47  C   UNL A   1      41.542  27.227  28.435  1.00  0.00     0.074 A 
ATOM     48  C   UNL A   1      40.605  26.130  28.342  1.00  0.00     0.031 C 
ATOM     49  C   UNL A   1      47.012  24.634  26.279  1.00  0.00     0.029 A 
ATOM     50  C   UNL A   1      46.789  26.011  26.708  1.00  0.00     0.049 A 
ATOM     51  H   UNL A   1      45.034  26.833  27.470  1.00  0.00     0.167 HD
ATOM     52  C   UNL A   1      41.226  28.467  28.885  1.00  0.00     0.037 A 
ATOM     53  C   UNL A   1      47.708  26.997  26.682  1.00  0.00     0.037 A 
ATOM     54  C   UNL A   1      42.166  29.552  28.990  1.00  0.00     0.049 A 
ATOM     55  C   UNL A   1      47.328  28.368  27.169  1.00  0.00     0.074 A 
ATOM     56  C   UNL A   1      41.959  30.826  29.486  1.00  0.00     0.029 A 
ATOM     57  N   UNL A   1      43.491  29.492  28.584  1.00  0.00    -0.354 N 
ATOM     58  N   UNL A   1      46.178  28.793  27.637  1.00  0.00    -0.248 NA
ATOM     59  C   UNL A   1      48.375  29.399  27.131  1.00  0.00     0.031 C 
ATOM     60  C   UNL A   1      43.141  31.556  29.328  1.00  0.00     0.029 A 
ATOM     61  C   UNL A   1      44.106  30.717  28.792  1.00  0.00     0.049 A 
ATOM     62  H   UNL A   1      43.931  28.697  28.204  1.00  0.00     0.167 HD
ATOM     63  C   UNL A   1      46.373  30.125  27.977  1.00  0.00     0.074 A 
ATOM     64  C   UNL A   1      47.755  30.436  27.675  1.00  0.00     0.031 C 
ATOM     65  C   UNL A   1      45.485  31.011  28.494  1.00  0.00     0.037 A 
BRANCH  52  66
ATOM     66  C   UNL A   1      39.801  28.715  29.291  1.00  0.00     0.064 A 
ATOM     67  C   UNL A   1      39.352  28.467  30.598  1.00  0.00     0.173 A 
ATOM     68  C   UNL A   1      38.878  29.235  28.371  1.00  0.00     0.173 A 
ATOM     69  F   UNL A   1      40.189  27.961  31.516  1.00  0.00    -0.203 F 
ATOM     70  C   UNL A   1      38.026  28.695  30.958  1.00  0.00     0.198 A 
ATOM     71  C   UNL A   1      37.562  29.496  28.744  1.00  0.00     0.198 A 
ATOM     72  F   UNL A   1      39.253  29.497  27.110  1.00  0.00    -0.203 F 
ATOM     73  F   UNL A   1      37.608  28.396  32.195  1.00  0.00    -0.200 F 
ATOM     74  C   UNL A   1      37.134  29.216  30.033  1.00  0.00     0.200 A 
ATOM     75  F   UNL A   1      36.704  30.013  27.853  1.00  0.00    -0.200 F 
ATOM     76  F   UNL A   1      35.860  29.441  30.382  1.00  0.00    -0.200 F 
ENDBRANCH  52  66
BRANCH  53  77
ATOM     77  C   UNL A   1      49.085  26.713  26.197  1.00  0.00     0.064 A 
ATOM     78  C   UNL A   1      49.448  26.976  24.868  1.00  0.00     0.173 A 
ATOM     79  C   UNL A   1      50.062  26.174  27.045  1.00  0.00     0.173 A 
ATOM     80  F   UNL A   1      48.543  27.472  24.012  1.00  0.00    -0.203 F 
ATOM     81  C   UNL A   1      50.730  26.690  24.402  1.00  0.00     0.198 A 
ATOM     82  C   UNL A   1      51.354  25.918  26.586  1.00  0.00     0.198 A 
ATOM     83  F   UNL A   1      49.769  25.909  28.327  1.00  0.00    -0.203 F 
ATOM     84  F   UNL A   1      51.036  26.906  23.116  1.00  0.00    -0.200 F 
ATOM     85  C   UNL A   1      51.683  26.168  25.263  1.00  0.00     0.200 A 
ATOM     86  F   UNL A   1      52.275  25.429  27.426  1.00  0.00    -0.200 F 
ATOM     87  F   UNL A   1      52.918  25.899  24.816  1.00  0.00    -0.200 F 
ENDBRANCH  53  77
BRANCH  65  88
ATOM     88  C   UNL A   1      45.990  32.392  28.805  1.00  0.00     0.064 A 
ATOM     89  C   UNL A   1      46.574  32.705  30.042  1.00  0.00     0.173 A 
ATOM     90  C   UNL A   1      45.925  33.404  27.835  1.00  0.00     0.173 A 
ATOM     91  F   UNL A   1      46.647  31.777  31.008  1.00  0.00    -0.203 F 
ATOM     92  C   UNL A   1      47.046  33.988  30.305  1.00  0.00     0.198 A 
ATOM     93  C   UNL A   1      46.430  34.676  28.090  1.00  0.00     0.198 A 
ATOM     94  F   UNL A   1      45.384  33.156  26.633  1.00  0.00    -0.203 F 
ATOM     95  F   UNL A   1      47.553  34.278  31.512  1.00  0.00    -0.200 F 
ATOM     96  C   UNL A   1      46.983  34.969  29.326  1.00  0.00     0.200 A 
ATOM     97  F   UNL A   1      46.383  35.616  27.137  1.00  0.00    -0.200 F 
ATOM     98  F   UNL A   1      47.448  36.201  29.579  1.00  0.00    -0.200 F 
ENDBRANCH  65  88
ENDBRANCH  39  40
ENDBRANCH  31  34
ENDBRANCH  29  30
ENDBRANCH  28  29
ENDBRANCH  27  28
ENDBRANCH   1  27
TORSDOF 16
ENDMDL
