MODEL 1
REMARK VINA RESULT:     -10.7      0.000      0.000
REMARK SMILES CC[C@H](Oc1cccc(/C=C2\SC(=S)N(NC(=O)c3cccc(O)c3)C2=O)c1)C(=O)NCCCCCCNC(=O)c1ccc(-c2c3nc(c(-c4c(F)c(F)c(F)c(F)c4F)c4ccc([nH]4)c(-c4c(F)c(F)c(F)c(F)c4F)c4nc(c(-c5c(F)c(F)c(F)c(F)c5F)c5ccc2[nH]5)C=C4)C=C3)cc1
REMARK SMILES IDX 32 1 31 2 29 3 30 4 3 6 2 7 1 8 4 9 5 10 6 11 28 12 7 13
REMARK SMILES IDX 9 14 8 15 10 16 11 17 12 18 26 19 13 20 15 21 27 22 14 23
REMARK SMILES IDX 16 24 17 25 18 27 19 28 20 29 25 30 21 31 23 32 22 33 24 34
REMARK SMILES IDX 33 36 34 37 35 38 36 39 37 40 38 41 39 42 40 44 41 45 42 46
REMARK SMILES IDX 103 47 43 48 102 49 44 50 45 51 46 52 96 53 47 54 101 55
REMARK SMILES IDX 95 56 97 57 48 58 100 59 94 60 93 61 49 63 81 64 61 65 80 66
REMARK SMILES IDX 62 67 65 68 79 69 98 70 63 71 64 72 78 74 99 75 66 76 50 77
REMARK SMILES IDX 51 78 59 79 52 80 53 81 57 82 60 83 54 84 55 85 58 86 56 87
REMARK SMILES IDX 82 88 83 89 91 90 84 91 85 92 89 93 92 94 86 95 87 96 90 97
REMARK SMILES IDX 88 98 67 99 68 100 76 101 69 102 70 103 74 104 77 105 71 106
REMARK SMILES IDX 72 107 75 108 73 109
REMARK H PARENT 31 5 16 26 24 35 38 43 97 62 65 73
REMARK Flexibility Score: inf
ROOT
ATOM      1  C   UNL A   1      37.025  33.236  28.960  1.00  0.00     0.116 C 
ENDROOT
BRANCH   1   2
ATOM      2  N   UNL A   1      37.788  32.065  28.575  1.00  0.00    -0.353 N 
ATOM      3  C   UNL A   1      37.378  30.758  28.498  1.00  0.00     0.261 C 
ATOM      4  O   UNL A   1      38.183  29.926  28.071  1.00  0.00    -0.271 OA
ATOM      5  H   UNL A   1      38.728  32.230  28.335  1.00  0.00     0.163 HD
BRANCH   3   6
ATOM      6  C   UNL A   1      35.935  30.353  28.876  1.00  0.00     0.261 C 
BRANCH   6   7
ATOM      7  C   UNL A   1      35.919  29.906  30.360  1.00  0.00     0.052 C 
ATOM      8  C   UNL A   1      37.024  28.998  30.881  1.00  0.00     0.008 C 
ENDBRANCH   6   7
BRANCH   6   9
ATOM      9  O   UNL A   1      35.529  29.416  27.882  1.00  0.00    -0.481 OA
BRANCH   9  10
ATOM     10  C   UNL A   1      34.397  29.633  27.159  1.00  0.00     0.121 A 
ATOM     11  C   UNL A   1      33.457  30.631  27.378  1.00  0.00     0.046 A 
ATOM     12  C   UNL A   1      34.185  28.683  26.153  1.00  0.00     0.054 A 
ATOM     13  C   UNL A   1      32.271  30.624  26.643  1.00  0.00     0.004 A 
ATOM     14  C   UNL A   1      32.975  28.614  25.459  1.00  0.00    -0.021 A 
ATOM     15  C   UNL A   1      32.027  29.615  25.703  1.00  0.00     0.008 A 
BRANCH  14  16
ATOM     16  C   UNL A   1      32.656  27.563  24.475  1.00  0.00     0.029 C 
ATOM     17  C   UNL A   1      31.967  26.422  24.635  1.00  0.00     0.082 C 
ATOM     18  S   UNL A   1      31.263  25.753  26.058  1.00  0.00    -0.052 SA
ATOM     19  C   UNL A   1      31.767  25.479  23.496  1.00  0.00     0.285 C 
ATOM     20  C   UNL A   1      31.086  24.162  25.335  1.00  0.00     0.168 C 
ATOM     21  N   UNL A   1      31.475  24.225  24.011  1.00  0.00    -0.198 N 
ATOM     22  O   UNL A   1      31.831  25.812  22.319  1.00  0.00    -0.266 OA
ATOM     23  S   UNL A   1      30.518  22.838  26.177  1.00  0.00    -0.050 S 
BRANCH  21  24
ATOM     24  N   UNL A   1      31.399  23.085  23.198  1.00  0.00    -0.255 N 
ATOM     25  C   UNL A   1      32.335  22.077  23.100  1.00  0.00     0.270 C 
ATOM     26  H   UNL A   1      30.595  22.996  22.638  1.00  0.00     0.192 HD
ATOM     27  O   UNL A   1      32.075  21.063  22.455  1.00  0.00    -0.267 OA
BRANCH  25  28
ATOM     28  C   UNL A   1      33.682  22.215  23.692  1.00  0.00     0.045 A 
ATOM     29  C   UNL A   1      33.915  21.536  24.895  1.00  0.00     0.014 A 
ATOM     30  C   UNL A   1      34.700  22.953  23.080  1.00  0.00     0.060 A 
ATOM     31  C   UNL A   1      35.190  21.536  25.458  1.00  0.00     0.005 A 
ATOM     32  C   UNL A   1      35.971  22.930  23.651  1.00  0.00     0.116 A 
ATOM     33  C   UNL A   1      36.224  22.223  24.824  1.00  0.00     0.046 A 
BRANCH  32  34
ATOM     34  O   UNL A   1      37.024  23.580  23.077  1.00  0.00    -0.508 OA
ATOM     35  H   UNL A   1      37.101  24.510  23.158  1.00  0.00     0.293 HD
ENDBRANCH  32  34
ENDBRANCH  25  28
ENDBRANCH  21  24
ENDBRANCH  14  16
ENDBRANCH   9  10
ENDBRANCH   6   9
ENDBRANCH   3   6
ENDBRANCH   1   2
BRANCH   1  36
ATOM     36  C   UNL A   1      37.097  33.530  30.455  1.00  0.00     0.021 C 
BRANCH  36  37
ATOM     37  C   UNL A   1      35.751  33.553  31.183  1.00  0.00     0.002 C 
BRANCH  37  38
ATOM     38  C   UNL A   1      35.817  33.510  32.713  1.00  0.00     0.002 C 
BRANCH  38  39
ATOM     39  C   UNL A   1      36.597  34.643  33.385  1.00  0.00     0.021 C 
BRANCH  39  40
ATOM     40  C   UNL A   1      37.876  34.234  34.109  1.00  0.00     0.116 C 
BRANCH  40  41
ATOM     41  N   UNL A   1      37.646  33.246  35.149  1.00  0.00    -0.352 N 
ATOM     42  C   UNL A   1      38.119  31.962  35.261  1.00  0.00     0.251 C 
ATOM     43  H   UNL A   1      37.063  33.542  35.886  1.00  0.00     0.163 HD
ATOM     44  O   UNL A   1      37.712  31.238  36.165  1.00  0.00    -0.269 OA
BRANCH  42  45
ATOM     45  C   UNL A   1      39.092  31.429  34.281  1.00  0.00     0.039 A 
ATOM     46  C   UNL A   1      38.812  31.576  32.918  1.00  0.00     0.014 A 
ATOM     47  C   UNL A   1      40.253  30.767  34.685  1.00  0.00     0.014 A 
ATOM     48  C   UNL A   1      39.720  31.111  31.964  1.00  0.00     0.010 A 
ATOM     49  C   UNL A   1      41.188  30.356  33.735  1.00  0.00     0.010 A 
ATOM     50  C   UNL A   1      40.930  30.523  32.366  1.00  0.00    -0.014 A 
BRANCH  50  51
ATOM     51  C   UNL A   1      41.929  30.073  31.365  1.00  0.00     0.031 A 
ATOM     52  C   UNL A   1      43.170  30.884  31.115  1.00  0.00     0.074 A 
ATOM     53  C   UNL A   1      41.694  28.963  30.640  1.00  0.00     0.049 A 
ATOM     54  N   UNL A   1      44.125  30.689  30.240  1.00  0.00    -0.248 NA
ATOM     55  C   UNL A   1      43.350  32.087  31.942  1.00  0.00     0.031 C 
ATOM     56  C   UNL A   1      40.510  28.112  30.758  1.00  0.00     0.029 A 
ATOM     57  N   UNL A   1      42.435  28.365  29.651  1.00  0.00    -0.354 N 
ATOM     58  C   UNL A   1      45.005  31.750  30.399  1.00  0.00     0.074 A 
ATOM     59  C   UNL A   1      44.452  32.608  31.425  1.00  0.00     0.031 C 
ATOM     60  C   UNL A   1      40.611  27.094  29.888  1.00  0.00     0.029 A 
ATOM     61  C   UNL A   1      41.851  27.236  29.131  1.00  0.00     0.049 A 
ATOM     62  H   UNL A   1      43.304  28.713  29.344  1.00  0.00     0.167 HD
ATOM     63  C   UNL A   1      46.179  31.977  29.762  1.00  0.00     0.037 A 
ATOM     64  C   UNL A   1      42.267  26.412  28.151  1.00  0.00     0.037 A 
ATOM     65  C   UNL A   1      46.744  31.108  28.765  1.00  0.00     0.049 A 
ATOM     66  C   UNL A   1      43.579  26.681  27.467  1.00  0.00     0.074 A 
ATOM     67  C   UNL A   1      47.956  31.223  28.104  1.00  0.00     0.029 A 
ATOM     68  N   UNL A   1      46.135  29.958  28.283  1.00  0.00    -0.354 N 
ATOM     69  N   UNL A   1      44.432  27.655  27.669  1.00  0.00    -0.248 NA
ATOM     70  C   UNL A   1      43.990  25.729  26.426  1.00  0.00     0.031 C 
ATOM     71  C   UNL A   1      48.065  30.162  27.199  1.00  0.00     0.029 A 
ATOM     72  C   UNL A   1      46.939  29.364  27.323  1.00  0.00     0.049 A 
ATOM     73  H   UNL A   1      45.262  29.615  28.579  1.00  0.00     0.167 HD
ATOM     74  C   UNL A   1      45.490  27.421  26.801  1.00  0.00     0.074 A 
ATOM     75  C   UNL A   1      45.178  26.206  26.078  1.00  0.00     0.031 C 
ATOM     76  C   UNL A   1      46.617  28.150  26.619  1.00  0.00     0.037 A 
BRANCH  63  77
ATOM     77  C   UNL A   1      46.937  33.219  30.131  1.00  0.00     0.064 A 
ATOM     78  C   UNL A   1      47.879  33.223  31.170  1.00  0.00     0.173 A 
ATOM     79  C   UNL A   1      46.746  34.409  29.412  1.00  0.00     0.173 A 
ATOM     80  F   UNL A   1      48.089  32.113  31.894  1.00  0.00    -0.203 F 
ATOM     81  C   UNL A   1      48.583  34.379  31.494  1.00  0.00     0.198 A 
ATOM     82  C   UNL A   1      47.472  35.556  29.722  1.00  0.00     0.198 A 
ATOM     83  F   UNL A   1      45.862  34.457  28.405  1.00  0.00    -0.203 F 
ATOM     84  F   UNL A   1      49.447  34.370  32.520  1.00  0.00    -0.200 F 
ATOM     85  C   UNL A   1      48.384  35.543  30.766  1.00  0.00     0.200 A 
ATOM     86  F   UNL A   1      47.288  36.677  29.009  1.00  0.00    -0.200 F 
ATOM     87  F   UNL A   1      49.068  36.653  31.075  1.00  0.00    -0.200 F 
ENDBRANCH  63  77
BRANCH  64  88
ATOM     88  C   UNL A   1      41.442  25.236  27.775  1.00  0.00     0.064 A 
ATOM     89  C   UNL A   1      41.734  23.963  28.283  1.00  0.00     0.173 A 
ATOM     90  C   UNL A   1      40.349  25.358  26.905  1.00  0.00     0.173 A 
ATOM     91  F   UNL A   1      42.783  23.794  29.102  1.00  0.00    -0.203 F 
ATOM     92  C   UNL A   1      40.974  22.853  27.922  1.00  0.00     0.198 A 
ATOM     93  C   UNL A   1      39.575  24.251  26.563  1.00  0.00     0.198 A 
ATOM     94  F   UNL A   1      40.027  26.556  26.395  1.00  0.00    -0.203 F 
ATOM     95  F   UNL A   1      41.300  21.640  28.390  1.00  0.00    -0.200 F 
ATOM     96  C   UNL A   1      39.893  22.998  27.066  1.00  0.00     0.200 A 
ATOM     97  F   UNL A   1      38.524  24.398  25.746  1.00  0.00    -0.200 F 
ATOM     98  F   UNL A   1      39.160  21.931  26.722  1.00  0.00    -0.200 F 
ENDBRANCH  64  88
BRANCH  76  99
ATOM     99  C   UNL A   1      47.613  27.635  25.622  1.00  0.00     0.064 A 
ATOM    100  C   UNL A   1      47.474  27.888  24.250  1.00  0.00     0.173 A 
ATOM    101  C   UNL A   1      48.737  26.914  26.049  1.00  0.00     0.173 A 
ATOM    102  F   UNL A   1      46.407  28.558  23.792  1.00  0.00    -0.203 F 
ATOM    103  C   UNL A   1      48.414  27.415  23.338  1.00  0.00     0.198 A 
ATOM    104  C   UNL A   1      49.689  26.466  25.138  1.00  0.00     0.198 A 
ATOM    105  F   UNL A   1      48.917  26.652  27.353  1.00  0.00    -0.203 F 
ATOM    106  F   UNL A   1      48.240  27.630  22.027  1.00  0.00    -0.200 F 
ATOM    107  C   UNL A   1      49.524  26.711  23.783  1.00  0.00     0.200 A 
ATOM    108  F   UNL A   1      50.765  25.793  25.570  1.00  0.00    -0.200 F 
ATOM    109  F   UNL A   1      50.430  26.262  22.905  1.00  0.00    -0.200 F 
ENDBRANCH  76  99
ENDBRANCH  50  51
ENDBRANCH  42  45
ENDBRANCH  40  41
ENDBRANCH  39  40
ENDBRANCH  38  39
ENDBRANCH  37  38
ENDBRANCH  36  37
ENDBRANCH   1  36
TORSDOF 20
ENDMDL
MODEL 2
REMARK VINA RESULT:     -10.5      5.129     10.571
REMARK SMILES CC[C@H](Oc1cccc(/C=C2\SC(=S)N(NC(=O)c3cccc(O)c3)C2=O)c1)C(=O)NCCCCCCNC(=O)c1ccc(-c2c3nc(c(-c4c(F)c(F)c(F)c(F)c4F)c4ccc([nH]4)c(-c4c(F)c(F)c(F)c(F)c4F)c4nc(c(-c5c(F)c(F)c(F)c(F)c5F)c5ccc2[nH]5)C=C4)C=C3)cc1
REMARK SMILES IDX 32 1 31 2 29 3 30 4 3 6 2 7 1 8 4 9 5 10 6 11 28 12 7 13
REMARK SMILES IDX 9 14 8 15 10 16 11 17 12 18 26 19 13 20 15 21 27 22 14 23
REMARK SMILES IDX 16 24 17 25 18 27 19 28 20 29 25 30 21 31 23 32 22 33 24 34
REMARK SMILES IDX 33 36 34 37 35 38 36 39 37 40 38 41 39 42 40 44 41 45 42 46
REMARK SMILES IDX 103 47 43 48 102 49 44 50 45 51 46 52 96 53 47 54 101 55
REMARK SMILES IDX 95 56 97 57 48 58 100 59 94 60 93 61 49 63 81 64 61 65 80 66
REMARK SMILES IDX 62 67 65 68 79 69 98 70 63 71 64 72 78 74 99 75 66 76 50 77
REMARK SMILES IDX 51 78 59 79 52 80 53 81 57 82 60 83 54 84 55 85 58 86 56 87
REMARK SMILES IDX 82 88 83 89 91 90 84 91 85 92 89 93 92 94 86 95 87 96 90 97
REMARK SMILES IDX 88 98 67 99 68 100 76 101 69 102 70 103 74 104 77 105 71 106
REMARK SMILES IDX 72 107 75 108 73 109
REMARK H PARENT 31 5 16 26 24 35 38 43 97 62 65 73
REMARK Flexibility Score: inf
ROOT
ATOM      1  C   UNL A   1      43.024  23.536  29.453  1.00  0.00     0.116 C 
ENDROOT
BRANCH   1   2
ATOM      2  N   UNL A   1      42.034  22.636  28.893  1.00  0.00    -0.353 N 
ATOM      3  C   UNL A   1      41.344  22.743  27.714  1.00  0.00     0.261 C 
ATOM      4  O   UNL A   1      40.595  21.814  27.397  1.00  0.00    -0.271 OA
ATOM      5  H   UNL A   1      41.832  21.838  29.434  1.00  0.00     0.163 HD
BRANCH   3   6
ATOM      6  C   UNL A   1      41.542  23.961  26.783  1.00  0.00     0.261 C 
BRANCH   6   7
ATOM      7  C   UNL A   1      42.643  23.619  25.747  1.00  0.00     0.052 C 
ATOM      8  C   UNL A   1      43.440  24.745  25.102  1.00  0.00     0.008 C 
ENDBRANCH   6   7
BRANCH   6   9
ATOM      9  O   UNL A   1      41.748  25.075  27.649  1.00  0.00    -0.481 OA
BRANCH   9  10
ATOM     10  C   UNL A   1      41.156  26.270  27.380  1.00  0.00     0.121 A 
ATOM     11  C   UNL A   1      41.464  27.125  26.331  1.00  0.00     0.046 A 
ATOM     12  C   UNL A   1      40.199  26.644  28.329  1.00  0.00     0.054 A 
ATOM     13  C   UNL A   1      40.870  28.387  26.283  1.00  0.00     0.004 A 
ATOM     14  C   UNL A   1      39.649  27.928  28.341  1.00  0.00    -0.021 A 
ATOM     15  C   UNL A   1      39.982  28.789  27.289  1.00  0.00     0.008 A 
BRANCH  14  16
ATOM     16  C   UNL A   1      38.727  28.413  29.385  1.00  0.00     0.029 C 
ATOM     17  C   UNL A   1      37.552  29.050  29.260  1.00  0.00     0.082 C 
ATOM     18  S   UNL A   1      36.734  29.580  27.838  1.00  0.00    -0.052 SA
ATOM     19  C   UNL A   1      36.773  29.470  30.462  1.00  0.00     0.285 C 
ATOM     20  C   UNL A   1      35.667  30.646  28.737  1.00  0.00     0.168 C 
ATOM     21  N   UNL A   1      35.904  30.484  30.088  1.00  0.00    -0.198 N 
ATOM     22  O   UNL A   1      36.896  28.953  31.565  1.00  0.00    -0.266 OA
ATOM     23  S   UNL A   1      34.559  31.655  28.003  1.00  0.00    -0.050 S 
BRANCH  21  24
ATOM     24  N   UNL A   1      35.154  31.205  31.029  1.00  0.00    -0.255 N 
ATOM     25  C   UNL A   1      35.467  32.437  31.565  1.00  0.00     0.270 C 
ATOM     26  H   UNL A   1      34.318  30.789  31.338  1.00  0.00     0.192 HD
ATOM     27  O   UNL A   1      34.649  33.021  32.273  1.00  0.00    -0.267 OA
BRANCH  25  28
ATOM     28  C   UNL A   1      36.801  33.044  31.375  1.00  0.00     0.045 A 
ATOM     29  C   UNL A   1      37.802  32.664  32.278  1.00  0.00     0.014 A 
ATOM     30  C   UNL A   1      37.083  33.928  30.328  1.00  0.00     0.060 A 
ATOM     31  C   UNL A   1      39.109  33.115  32.099  1.00  0.00     0.005 A 
ATOM     32  C   UNL A   1      38.397  34.358  30.158  1.00  0.00     0.116 A 
ATOM     33  C   UNL A   1      39.408  33.952  31.026  1.00  0.00     0.046 A 
BRANCH  32  34
ATOM     34  O   UNL A   1      38.754  35.174  29.125  1.00  0.00    -0.508 OA
ATOM     35  H   UNL A   1      39.117  36.020  29.301  1.00  0.00     0.293 HD
ENDBRANCH  32  34
ENDBRANCH  25  28
ENDBRANCH  21  24
ENDBRANCH  14  16
ENDBRANCH   9  10
ENDBRANCH   6   9
ENDBRANCH   3   6
ENDBRANCH   1   2
BRANCH   1  36
ATOM     36  C   UNL A   1      44.416  23.333  28.864  1.00  0.00     0.021 C 
BRANCH  36  37
ATOM     37  C   UNL A   1      45.122  24.610  28.400  1.00  0.00     0.002 C 
BRANCH  37  38
ATOM     38  C   UNL A   1      46.593  24.453  28.001  1.00  0.00     0.002 C 
BRANCH  38  39
ATOM     39  C   UNL A   1      46.886  24.451  26.498  1.00  0.00     0.021 C 
BRANCH  39  40
ATOM     40  C   UNL A   1      48.091  25.274  26.054  1.00  0.00     0.116 C 
BRANCH  40  41
ATOM     41  N   UNL A   1      47.850  26.016  24.828  1.00  0.00    -0.352 N 
ATOM     42  C   UNL A   1      47.133  27.168  24.626  1.00  0.00     0.251 C 
ATOM     43  H   UNL A   1      48.263  25.634  24.020  1.00  0.00     0.163 HD
ATOM     44  O   UNL A   1      46.946  27.580  23.484  1.00  0.00    -0.269 OA
BRANCH  42  45
ATOM     45  C   UNL A   1      46.552  27.906  25.772  1.00  0.00     0.039 A 
ATOM     46  C   UNL A   1      45.168  27.846  25.969  1.00  0.00     0.014 A 
ATOM     47  C   UNL A   1      47.345  28.672  26.629  1.00  0.00     0.014 A 
ATOM     48  C   UNL A   1      44.589  28.505  27.055  1.00  0.00     0.010 A 
ATOM     49  C   UNL A   1      46.775  29.281  27.746  1.00  0.00     0.010 A 
ATOM     50  C   UNL A   1      45.391  29.205  27.969  1.00  0.00    -0.014 A 
BRANCH  50  51
ATOM     51  C   UNL A   1      44.796  29.866  29.158  1.00  0.00     0.031 A 
ATOM     52  C   UNL A   1      44.507  31.341  29.140  1.00  0.00     0.074 A 
ATOM     53  C   UNL A   1      44.568  29.149  30.275  1.00  0.00     0.049 A 
ATOM     54  N   UNL A   1      44.050  32.107  30.099  1.00  0.00    -0.248 NA
ATOM     55  C   UNL A   1      44.792  32.054  27.886  1.00  0.00     0.031 C 
ATOM     56  C   UNL A   1      44.844  27.721  30.433  1.00  0.00     0.029 A 
ATOM     57  N   UNL A   1      44.062  29.527  31.493  1.00  0.00    -0.354 N 
ATOM     58  C   UNL A   1      44.009  33.390  29.570  1.00  0.00     0.074 A 
ATOM     59  C   UNL A   1      44.526  33.308  28.221  1.00  0.00     0.031 C 
ATOM     60  C   UNL A   1      44.489  27.340  31.671  1.00  0.00     0.029 A 
ATOM     61  C   UNL A   1      43.990  28.500  32.402  1.00  0.00     0.049 A 
ATOM     62  H   UNL A   1      43.776  30.447  31.697  1.00  0.00     0.167 HD
ATOM     63  C   UNL A   1      43.561  34.529  30.150  1.00  0.00     0.037 A 
ATOM     64  C   UNL A   1      43.572  28.496  33.682  1.00  0.00     0.037 A 
ATOM     65  C   UNL A   1      43.018  34.605  31.480  1.00  0.00     0.049 A 
ATOM     66  C   UNL A   1      43.070  29.773  34.299  1.00  0.00     0.074 A 
ATOM     67  C   UNL A   1      42.485  35.703  32.135  1.00  0.00     0.029 A 
ATOM     68  N   UNL A   1      42.937  33.537  32.362  1.00  0.00    -0.354 N 
ATOM     69  N   UNL A   1      42.980  30.967  33.768  1.00  0.00    -0.248 NA
ATOM     70  C   UNL A   1      42.601  29.697  35.690  1.00  0.00     0.031 C 
ATOM     71  C   UNL A   1      42.113  35.307  33.424  1.00  0.00     0.029 A 
ATOM     72  C   UNL A   1      42.377  33.954  33.559  1.00  0.00     0.049 A 
ATOM     73  H   UNL A   1      43.232  32.619  32.166  1.00  0.00     0.167 HD
ATOM     74  C   UNL A   1      42.424  31.779  34.748  1.00  0.00     0.074 A 
ATOM     75  C   UNL A   1      42.186  30.938  35.902  1.00  0.00     0.031 C 
ATOM     76  C   UNL A   1      42.139  33.102  34.696  1.00  0.00     0.037 A 
BRANCH  63  77
ATOM     77  C   UNL A   1      43.637  35.792  29.343  1.00  0.00     0.064 A 
ATOM     78  C   UNL A   1      44.751  36.642  29.411  1.00  0.00     0.173 A 
ATOM     79  C   UNL A   1      42.600  36.137  28.463  1.00  0.00     0.173 A 
ATOM     80  F   UNL A   1      45.763  36.361  30.246  1.00  0.00    -0.203 F 
ATOM     81  C   UNL A   1      44.812  37.804  28.648  1.00  0.00     0.198 A 
ATOM     82  C   UNL A   1      42.677  37.287  27.681  1.00  0.00     0.198 A 
ATOM     83  F   UNL A   1      41.515  35.355  28.355  1.00  0.00    -0.203 F 
ATOM     84  F   UNL A   1      45.868  38.623  28.763  1.00  0.00    -0.200 F 
ATOM     85  C   UNL A   1      43.779  38.123  27.779  1.00  0.00     0.200 A 
ATOM     86  F   UNL A   1      41.684  37.587  26.833  1.00  0.00    -0.200 F 
ATOM     87  F   UNL A   1      43.844  39.239  27.041  1.00  0.00    -0.200 F 
ENDBRANCH  63  77
BRANCH  64  88
ATOM     88  C   UNL A   1      43.586  27.232  34.461  1.00  0.00     0.064 A 
ATOM     89  C   UNL A   1      42.419  26.471  34.614  1.00  0.00     0.173 A 
ATOM     90  C   UNL A   1      44.760  26.758  35.064  1.00  0.00     0.173 A 
ATOM     91  F   UNL A   1      41.268  26.895  34.072  1.00  0.00    -0.203 F 
ATOM     92  C   UNL A   1      42.422  25.292  35.356  1.00  0.00     0.198 A 
ATOM     93  C   UNL A   1      44.767  25.567  35.786  1.00  0.00     0.198 A 
ATOM     94  F   UNL A   1      45.903  27.449  34.943  1.00  0.00    -0.203 F 
ATOM     95  F   UNL A   1      41.284  24.604  35.521  1.00  0.00    -0.200 F 
ATOM     96  C   UNL A   1      43.596  24.838  35.938  1.00  0.00     0.200 A 
ATOM     97  F   UNL A   1      45.906  25.126  36.336  1.00  0.00    -0.200 F 
ATOM     98  F   UNL A   1      43.599  23.703  36.648  1.00  0.00    -0.200 F 
ENDBRANCH  64  88
BRANCH  76  99
ATOM     99  C   UNL A   1      41.507  33.716  35.909  1.00  0.00     0.064 A 
ATOM    100  C   UNL A   1      42.267  34.413  36.859  1.00  0.00     0.173 A 
ATOM    101  C   UNL A   1      40.119  33.637  36.104  1.00  0.00     0.173 A 
ATOM    102  F   UNL A   1      43.598  34.501  36.725  1.00  0.00    -0.203 F 
ATOM    103  C   UNL A   1      41.662  34.990  37.973  1.00  0.00     0.198 A 
ATOM    104  C   UNL A   1      39.516  34.238  37.205  1.00  0.00     0.198 A 
ATOM    105  F   UNL A   1      39.348  32.985  35.219  1.00  0.00    -0.203 F 
ATOM    106  F   UNL A   1      42.412  35.614  38.891  1.00  0.00    -0.200 F 
ATOM    107  C   UNL A   1      40.288  34.908  38.141  1.00  0.00     0.200 A 
ATOM    108  F   UNL A   1      38.186  34.165  37.361  1.00  0.00    -0.200 F 
ATOM    109  F   UNL A   1      39.709  35.468  39.211  1.00  0.00    -0.200 F 
ENDBRANCH  76  99
ENDBRANCH  50  51
ENDBRANCH  42  45
ENDBRANCH  40  41
ENDBRANCH  39  40
ENDBRANCH  38  39
ENDBRANCH  37  38
ENDBRANCH  36  37
ENDBRANCH   1  36
TORSDOF 20
ENDMDL
MODEL 3
REMARK VINA RESULT:     -10.4      4.813     10.713
REMARK SMILES CC[C@H](Oc1cccc(/C=C2\SC(=S)N(NC(=O)c3cccc(O)c3)C2=O)c1)C(=O)NCCCCCCNC(=O)c1ccc(-c2c3nc(c(-c4c(F)c(F)c(F)c(F)c4F)c4ccc([nH]4)c(-c4c(F)c(F)c(F)c(F)c4F)c4nc(c(-c5c(F)c(F)c(F)c(F)c5F)c5ccc2[nH]5)C=C4)C=C3)cc1
REMARK SMILES IDX 32 1 31 2 29 3 30 4 3 6 2 7 1 8 4 9 5 10 6 11 28 12 7 13
REMARK SMILES IDX 9 14 8 15 10 16 11 17 12 18 26 19 13 20 15 21 27 22 14 23
REMARK SMILES IDX 16 24 17 25 18 27 19 28 20 29 25 30 21 31 23 32 22 33 24 34
REMARK SMILES IDX 33 36 34 37 35 38 36 39 37 40 38 41 39 42 40 44 41 45 42 46
REMARK SMILES IDX 103 47 43 48 102 49 44 50 45 51 46 52 96 53 47 54 101 55
REMARK SMILES IDX 95 56 97 57 48 58 100 59 94 60 93 61 49 63 81 64 61 65 80 66
REMARK SMILES IDX 62 67 65 68 79 69 98 70 63 71 64 72 78 74 99 75 66 76 50 77
REMARK SMILES IDX 51 78 59 79 52 80 53 81 57 82 60 83 54 84 55 85 58 86 56 87
REMARK SMILES IDX 82 88 83 89 91 90 84 91 85 92 89 93 92 94 86 95 87 96 90 97
REMARK SMILES IDX 88 98 67 99 68 100 76 101 69 102 70 103 74 104 77 105 71 106
REMARK SMILES IDX 72 107 75 108 73 109
REMARK H PARENT 31 5 16 26 24 35 38 43 97 62 65 73
REMARK Flexibility Score: inf
ROOT
ATOM      1  C   UNL A   1      43.780  24.856  28.963  1.00  0.00     0.116 C 
ENDROOT
BRANCH   1   2
ATOM      2  N   UNL A   1      43.562  24.471  27.582  1.00  0.00    -0.353 N 
ATOM      3  C   UNL A   1      42.460  23.884  27.017  1.00  0.00     0.261 C 
ATOM      4  O   UNL A   1      42.462  23.709  25.795  1.00  0.00    -0.271 OA
ATOM      5  H   UNL A   1      44.307  24.659  26.966  1.00  0.00     0.163 HD
BRANCH   3   6
ATOM      6  C   UNL A   1      41.231  23.507  27.875  1.00  0.00     0.261 C 
BRANCH   6   7
ATOM      7  C   UNL A   1      41.169  21.963  28.003  1.00  0.00     0.052 C 
ATOM      8  C   UNL A   1      40.435  21.153  26.944  1.00  0.00     0.008 C 
ENDBRANCH   6   7
BRANCH   6   9
ATOM      9  O   UNL A   1      40.126  24.182  27.277  1.00  0.00    -0.481 OA
BRANCH   9  10
ATOM     10  C   UNL A   1      39.997  25.530  27.406  1.00  0.00     0.121 A 
ATOM     11  C   UNL A   1      40.466  26.492  26.522  1.00  0.00     0.046 A 
ATOM     12  C   UNL A   1      39.381  25.921  28.601  1.00  0.00     0.054 A 
ATOM     13  C   UNL A   1      40.389  27.840  26.876  1.00  0.00     0.004 A 
ATOM     14  C   UNL A   1      39.361  27.257  29.006  1.00  0.00    -0.021 A 
ATOM     15  C   UNL A   1      39.855  28.216  28.114  1.00  0.00     0.008 A 
BRANCH  14  16
ATOM     16  C   UNL A   1      38.830  27.709  30.306  1.00  0.00     0.029 C 
ATOM     17  C   UNL A   1      38.876  28.925  30.873  1.00  0.00     0.082 C 
ATOM     18  S   UNL A   1      39.621  30.373  30.310  1.00  0.00    -0.052 SA
ATOM     19  C   UNL A   1      38.280  29.168  32.220  1.00  0.00     0.285 C 
ATOM     20  C   UNL A   1      39.542  31.138  31.889  1.00  0.00     0.168 C 
ATOM     21  N   UNL A   1      38.864  30.305  32.758  1.00  0.00    -0.198 N 
ATOM     22  O   UNL A   1      37.403  28.468  32.711  1.00  0.00    -0.266 OA
ATOM     23  S   UNL A   1      40.195  32.640  32.207  1.00  0.00    -0.050 S 
BRANCH  21  24
ATOM     24  N   UNL A   1      38.638  30.701  34.085  1.00  0.00    -0.255 N 
ATOM     25  C   UNL A   1      37.664  31.567  34.533  1.00  0.00     0.270 C 
ATOM     26  H   UNL A   1      39.238  30.320  34.766  1.00  0.00     0.192 HD
ATOM     27  O   UNL A   1      37.487  31.715  35.741  1.00  0.00    -0.267 OA
BRANCH  25  28
ATOM     28  C   UNL A   1      36.871  32.388  33.595  1.00  0.00     0.045 A 
ATOM     29  C   UNL A   1      37.145  33.763  33.572  1.00  0.00     0.014 A 
ATOM     30  C   UNL A   1      35.915  31.838  32.735  1.00  0.00     0.060 A 
ATOM     31  C   UNL A   1      36.511  34.583  32.641  1.00  0.00     0.005 A 
ATOM     32  C   UNL A   1      35.301  32.672  31.803  1.00  0.00     0.116 A 
ATOM     33  C   UNL A   1      35.598  34.031  31.744  1.00  0.00     0.046 A 
BRANCH  32  34
ATOM     34  O   UNL A   1      34.403  32.191  30.897  1.00  0.00    -0.508 OA
ATOM     35  H   UNL A   1      33.770  31.551  31.159  1.00  0.00     0.293 HD
ENDBRANCH  32  34
ENDBRANCH  25  28
ENDBRANCH  21  24
ENDBRANCH  14  16
ENDBRANCH   9  10
ENDBRANCH   6   9
ENDBRANCH   3   6
ENDBRANCH   1   2
BRANCH   1  36
ATOM     36  C   UNL A   1      44.497  23.783  29.776  1.00  0.00     0.021 C 
BRANCH  36  37
ATOM     37  C   UNL A   1      43.870  23.464  31.134  1.00  0.00     0.002 C 
BRANCH  37  38
ATOM     38  C   UNL A   1      44.538  24.115  32.349  1.00  0.00     0.002 C 
BRANCH  38  39
ATOM     39  C   UNL A   1      44.760  23.207  33.563  1.00  0.00     0.021 C 
BRANCH  39  40
ATOM     40  C   UNL A   1      43.535  22.954  34.437  1.00  0.00     0.116 C 
BRANCH  40  41
ATOM     41  N   UNL A   1      43.768  23.257  35.839  1.00  0.00    -0.352 N 
ATOM     42  C   UNL A   1      44.007  24.463  36.448  1.00  0.00     0.251 C 
ATOM     43  H   UNL A   1      43.750  22.480  36.443  1.00  0.00     0.163 HD
ATOM     44  O   UNL A   1      44.298  24.499  37.640  1.00  0.00    -0.269 OA
BRANCH  42  45
ATOM     45  C   UNL A   1      43.950  25.724  35.673  1.00  0.00     0.039 A 
ATOM     46  C   UNL A   1      45.134  26.449  35.494  1.00  0.00     0.014 A 
ATOM     47  C   UNL A   1      42.750  26.210  35.150  1.00  0.00     0.014 A 
ATOM     48  C   UNL A   1      45.124  27.627  34.745  1.00  0.00     0.010 A 
ATOM     49  C   UNL A   1      42.751  27.355  34.353  1.00  0.00     0.010 A 
ATOM     50  C   UNL A   1      43.937  28.075  34.144  1.00  0.00    -0.014 A 
BRANCH  50  51
ATOM     51  C   UNL A   1      43.922  29.296  33.300  1.00  0.00     0.031 A 
ATOM     52  C   UNL A   1      44.255  29.210  31.837  1.00  0.00     0.074 A 
ATOM     53  C   UNL A   1      43.662  30.491  33.862  1.00  0.00     0.049 A 
ATOM     54  N   UNL A   1      44.357  30.172  30.953  1.00  0.00    -0.248 NA
ATOM     55  C   UNL A   1      44.535  27.870  31.301  1.00  0.00     0.031 C 
ATOM     56  C   UNL A   1      43.364  30.713  35.277  1.00  0.00     0.029 A 
ATOM     57  N   UNL A   1      43.618  31.749  33.312  1.00  0.00    -0.354 N 
ATOM     58  C   UNL A   1      44.728  29.556  29.766  1.00  0.00     0.074 A 
ATOM     59  C   UNL A   1      44.874  28.144  30.050  1.00  0.00     0.031 C 
ATOM     60  C   UNL A   1      43.153  32.023  35.482  1.00  0.00     0.029 A 
ATOM     61  C   UNL A   1      43.329  32.737  34.222  1.00  0.00     0.049 A 
ATOM     62  H   UNL A   1      43.777  31.925  32.357  1.00  0.00     0.167 HD
ATOM     63  C   UNL A   1      44.910  30.114  28.545  1.00  0.00     0.037 A 
ATOM     64  C   UNL A   1      43.222  34.069  34.057  1.00  0.00     0.037 A 
ATOM     65  C   UNL A   1      44.734  31.512  28.255  1.00  0.00     0.049 A 
ATOM     66  C   UNL A   1      43.419  34.662  32.688  1.00  0.00     0.074 A 
ATOM     67  C   UNL A   1      44.839  32.162  27.038  1.00  0.00     0.029 A 
ATOM     68  N   UNL A   1      44.415  32.479  29.198  1.00  0.00    -0.354 N 
ATOM     69  N   UNL A   1      43.710  34.060  31.561  1.00  0.00    -0.248 NA
ATOM     70  C   UNL A   1      43.262  36.118  32.569  1.00  0.00     0.031 C 
ATOM     71  C   UNL A   1      44.617  33.527  27.248  1.00  0.00     0.029 A 
ATOM     72  C   UNL A   1      44.334  33.722  28.591  1.00  0.00     0.049 A 
ATOM     73  H   UNL A   1      44.267  32.307  30.155  1.00  0.00     0.167 HD
ATOM     74  C   UNL A   1      43.747  35.057  30.595  1.00  0.00     0.074 A 
ATOM     75  C   UNL A   1      43.436  36.302  31.267  1.00  0.00     0.031 C 
ATOM     76  C   UNL A   1      44.016  34.950  29.272  1.00  0.00     0.037 A 
BRANCH  63  77
ATOM     77  C   UNL A   1      45.318  29.204  27.423  1.00  0.00     0.064 A 
ATOM     78  C   UNL A   1      44.370  28.484  26.680  1.00  0.00     0.173 A 
ATOM     79  C   UNL A   1      46.668  29.081  27.062  1.00  0.00     0.173 A 
ATOM     80  F   UNL A   1      43.068  28.559  26.994  1.00  0.00    -0.203 F 
ATOM     81  C   UNL A   1      44.762  27.652  25.635  1.00  0.00     0.198 A 
ATOM     82  C   UNL A   1      47.053  28.269  25.998  1.00  0.00     0.198 A 
ATOM     83  F   UNL A   1      47.613  29.754  27.735  1.00  0.00    -0.203 F 
ATOM     84  F   UNL A   1      43.842  26.939  24.968  1.00  0.00    -0.200 F 
ATOM     85  C   UNL A   1      46.101  27.550  25.290  1.00  0.00     0.200 A 
ATOM     86  F   UNL A   1      48.347  28.181  25.657  1.00  0.00    -0.200 F 
ATOM     87  F   UNL A   1      46.475  26.754  24.279  1.00  0.00    -0.200 F 
ENDBRANCH  63  77
BRANCH  64  88
ATOM     88  C   UNL A   1      42.888  34.933  35.217  1.00  0.00     0.064 A 
ATOM     89  C   UNL A   1      43.896  35.439  36.049  1.00  0.00     0.173 A 
ATOM     90  C   UNL A   1      41.561  35.273  35.517  1.00  0.00     0.173 A 
ATOM     91  F   UNL A   1      45.178  35.123  35.814  1.00  0.00    -0.203 F 
ATOM     92  C   UNL A   1      43.588  36.237  37.148  1.00  0.00     0.198 A 
ATOM     93  C   UNL A   1      41.255  36.091  36.602  1.00  0.00     0.198 A 
ATOM     94  F   UNL A   1      40.561  34.817  34.747  1.00  0.00    -0.203 F 
ATOM     95  F   UNL A   1      44.567  36.674  37.952  1.00  0.00    -0.200 F 
ATOM     96  C   UNL A   1      42.269  36.567  37.421  1.00  0.00     0.200 A 
ATOM     97  F   UNL A   1      39.981  36.417  36.855  1.00  0.00    -0.200 F 
ATOM     98  F   UNL A   1      41.973  37.337  38.476  1.00  0.00    -0.200 F 
ENDBRANCH  64  88
BRANCH  76  99
ATOM     99  C   UNL A   1      43.954  36.207  28.456  1.00  0.00     0.064 A 
ATOM    100  C   UNL A   1      45.094  36.990  28.227  1.00  0.00     0.173 A 
ATOM    101  C   UNL A   1      42.747  36.611  27.866  1.00  0.00     0.173 A 
ATOM    102  F   UNL A   1      46.266  36.654  28.784  1.00  0.00    -0.203 F 
ATOM    103  C   UNL A   1      45.022  38.146  27.455  1.00  0.00     0.198 A 
ATOM    104  C   UNL A   1      42.685  37.753  27.072  1.00  0.00     0.198 A 
ATOM    105  F   UNL A   1      41.629  35.891  28.051  1.00  0.00    -0.203 F 
ATOM    106  F   UNL A   1      46.114  38.904  27.284  1.00  0.00    -0.200 F 
ATOM    107  C   UNL A   1      43.820  38.523  26.873  1.00  0.00     0.200 A 
ATOM    108  F   UNL A   1      41.525  38.110  26.504  1.00  0.00    -0.200 F 
ATOM    109  F   UNL A   1      43.756  39.633  26.126  1.00  0.00    -0.200 F 
ENDBRANCH  76  99
ENDBRANCH  50  51
ENDBRANCH  42  45
ENDBRANCH  40  41
ENDBRANCH  39  40
ENDBRANCH  38  39
ENDBRANCH  37  38
ENDBRANCH  36  37
ENDBRANCH   1  36
TORSDOF 20
ENDMDL
