MODEL 1
REMARK VINA RESULT:     -12.6      0.000      0.000
REMARK SMILES CCc1c(Cl)ccc2c1C=C(C(=O)NCCCCCCNC(=O)c1ccc(-c3c4nc(c(-c5c(F)c(F)c(F)c(F)c5F)c5ccc([nH]5)c(-c5c(F)c(F)c(F)c(F)c5F)c5nc(c(-c6c(F)c(F)c(F)c(F)c6F)c6ccc3[nH]6)C=C5)C=C4)cc1)[C@@H](C(F)(F)F)O2
REMARK SMILES IDX 18 1 17 2 16 3 15 4 14 5 12 6 13 7 11 9 3 10 4 11 9 12 5 13
REMARK SMILES IDX 6 14 8 15 10 16 7 17 92 18 87 19 2 20 1 21 88 22 89 23 90 24
REMARK SMILES IDX 91 25 19 26 20 27 21 28 22 29 23 31 24 32 25 33 86 34 26 35
REMARK SMILES IDX 85 36 27 37 28 38 29 39 79 40 30 41 84 42 78 43 80 44 31 45
REMARK SMILES IDX 83 46 77 47 76 48 32 50 64 51 44 52 63 53 45 54 48 55 62 56
REMARK SMILES IDX 81 57 46 58 47 59 61 61 82 62 49 63 33 64 34 65 42 66 35 67
REMARK SMILES IDX 36 68 40 69 43 70 37 71 38 72 41 73 39 74 65 75 66 76 74 77
REMARK SMILES IDX 67 78 68 79 72 80 75 81 69 82 70 83 73 84 71 85 50 86 51 87
REMARK SMILES IDX 59 88 52 89 53 90 57 91 60 92 54 93 55 94 58 95 56 96
REMARK H PARENT 14 8 21 30 80 49 48 60
REMARK Flexibility Score: inf
ROOT
ATOM      1  C   UNL A   1      31.692  30.709  26.064  1.00  0.00     0.002 C 
ENDROOT
BRANCH   1   2
ATOM      2  C   UNL A   1      32.213  29.695  27.091  1.00  0.00     0.002 C 
BRANCH   2   3
ATOM      3  C   UNL A   1      33.708  29.366  27.011  1.00  0.00     0.021 C 
BRANCH   3   4
ATOM      4  C   UNL A   1      34.032  28.006  26.400  1.00  0.00     0.116 C 
BRANCH   4   5
ATOM      5  N   UNL A   1      33.846  27.991  24.962  1.00  0.00    -0.352 N 
ATOM      6  C   UNL A   1      33.457  27.099  24.022  1.00  0.00     0.251 C 
ATOM      7  O   UNL A   1      33.379  27.558  22.877  1.00  0.00    -0.270 OA
ATOM      8  H   UNL A   1      34.059  28.865  24.563  1.00  0.00     0.163 HD
BRANCH   6   9
ATOM      9  C   UNL A   1      33.150  25.654  24.262  1.00  0.00     0.067 C 
ATOM     10  C   UNL A   1      35.170  22.498  24.521  1.00  0.00    -0.019 A 
ATOM     11  C   UNL A   1      34.903  21.140  24.829  1.00  0.00     0.045 A 
ATOM     12  C   UNL A   1      34.082  23.410  24.551  1.00  0.00     0.022 A 
ATOM     13  Cl  UNL A   1      36.129  19.916  24.836  1.00  0.00    -0.084 Cl
ATOM     14  C   UNL A   1      33.614  20.708  25.154  1.00  0.00     0.024 A 
ATOM     15  C   UNL A   1      32.800  22.952  24.891  1.00  0.00     0.128 A 
ATOM     16  C   UNL A   1      34.223  24.842  24.278  1.00  0.00     0.026 C 
ATOM     17  C   UNL A   1      32.566  21.614  25.192  1.00  0.00     0.048 A 
ATOM     18  O   UNL A   1      31.706  23.757  25.003  1.00  0.00    -0.475 OA
ATOM     19  C   UNL A   1      31.775  25.093  24.448  1.00  0.00     0.314 C 
BRANCH  10  20
ATOM     20  C   UNL A   1      36.579  22.940  24.147  1.00  0.00     0.034 C 
ATOM     21  C   UNL A   1      37.458  23.359  25.324  1.00  0.00     0.009 C 
ENDBRANCH  10  20
BRANCH  19  22
ATOM     22  C   UNL A   1      30.944  25.125  23.153  1.00  0.00     0.429 C 
ATOM     23  F   UNL A   1      30.082  24.078  23.117  1.00  0.00    -0.167 F 
ATOM     24  F   UNL A   1      30.188  26.241  23.044  1.00  0.00    -0.167 F 
ATOM     25  F   UNL A   1      31.714  25.058  22.043  1.00  0.00    -0.167 F 
ENDBRANCH  19  22
ENDBRANCH   6   9
ENDBRANCH   4   5
ENDBRANCH   3   4
ENDBRANCH   2   3
ENDBRANCH   1   2
BRANCH   1  26
ATOM     26  C   UNL A   1      31.412  32.117  26.595  1.00  0.00     0.021 C 
BRANCH  26  27
ATOM     27  C   UNL A   1      32.584  32.789  27.298  1.00  0.00     0.116 C 
BRANCH  27  28
ATOM     28  N   UNL A   1      32.321  34.179  27.625  1.00  0.00    -0.352 N 
ATOM     29  C   UNL A   1      32.947  34.985  28.550  1.00  0.00     0.251 C 
ATOM     30  H   UNL A   1      31.595  34.605  27.115  1.00  0.00     0.163 HD
ATOM     31  O   UNL A   1      32.516  36.099  28.801  1.00  0.00    -0.269 OA
BRANCH  29  32
ATOM     32  C   UNL A   1      34.130  34.468  29.271  1.00  0.00     0.039 A 
ATOM     33  C   UNL A   1      35.414  34.626  28.742  1.00  0.00     0.014 A 
ATOM     34  C   UNL A   1      33.941  33.782  30.473  1.00  0.00     0.014 A 
ATOM     35  C   UNL A   1      36.487  33.967  29.332  1.00  0.00     0.010 A 
ATOM     36  C   UNL A   1      35.034  33.182  31.105  1.00  0.00     0.010 A 
ATOM     37  C   UNL A   1      36.307  33.231  30.514  1.00  0.00    -0.014 A 
BRANCH  37  38
ATOM     38  C   UNL A   1      37.452  32.502  31.115  1.00  0.00     0.031 A 
ATOM     39  C   UNL A   1      37.937  32.847  32.496  1.00  0.00     0.074 A 
ATOM     40  C   UNL A   1      38.031  31.499  30.428  1.00  0.00     0.049 A 
ATOM     41  N   UNL A   1      38.951  32.355  33.164  1.00  0.00    -0.248 NA
ATOM     42  C   UNL A   1      37.188  33.882  33.225  1.00  0.00     0.031 C 
ATOM     43  C   UNL A   1      37.629  31.053  29.094  1.00  0.00     0.029 A 
ATOM     44  N   UNL A   1      39.067  30.666  30.762  1.00  0.00    -0.354 N 
ATOM     45  C   UNL A   1      38.972  33.031  34.377  1.00  0.00     0.074 A 
ATOM     46  C   UNL A   1      37.885  33.985  34.348  1.00  0.00     0.031 C 
ATOM     47  C   UNL A   1      38.382  30.000  28.739  1.00  0.00     0.029 A 
ATOM     48  C   UNL A   1      39.361  29.741  29.790  1.00  0.00     0.049 A 
ATOM     49  H   UNL A   1      39.554  30.724  31.616  1.00  0.00     0.167 HD
ATOM     50  C   UNL A   1      39.818  32.863  35.421  1.00  0.00     0.037 A 
ATOM     51  C   UNL A   1      40.324  28.802  29.742  1.00  0.00     0.037 A 
ATOM     52  C   UNL A   1      40.888  31.898  35.455  1.00  0.00     0.049 A 
ATOM     53  C   UNL A   1      41.281  28.674  30.892  1.00  0.00     0.074 A 
ATOM     54  C   UNL A   1      41.795  31.650  36.469  1.00  0.00     0.029 A 
ATOM     55  N   UNL A   1      41.188  31.017  34.426  1.00  0.00    -0.354 N 
ATOM     56  N   UNL A   1      41.308  29.337  32.022  1.00  0.00    -0.248 NA
ATOM     57  C   UNL A   1      42.350  27.676  30.753  1.00  0.00     0.031 C 
ATOM     58  C   UNL A   1      42.666  30.643  36.042  1.00  0.00     0.029 A 
ATOM     59  C   UNL A   1      42.275  30.233  34.778  1.00  0.00     0.049 A 
ATOM     60  H   UNL A   1      40.700  30.956  33.573  1.00  0.00     0.167 HD
ATOM     61  C   UNL A   1      42.388  28.834  32.733  1.00  0.00     0.074 A 
ATOM     62  C   UNL A   1      42.978  27.793  31.916  1.00  0.00     0.031 C 
ATOM     63  C   UNL A   1      42.853  29.207  33.950  1.00  0.00     0.037 A 
BRANCH  50  64
ATOM     64  C   UNL A   1      39.635  33.747  36.620  1.00  0.00     0.064 A 
ATOM     65  C   UNL A   1      40.181  35.037  36.672  1.00  0.00     0.173 A 
ATOM     66  C   UNL A   1      38.850  33.321  37.704  1.00  0.00     0.173 A 
ATOM     67  F   UNL A   1      40.950  35.485  35.668  1.00  0.00    -0.203 F 
ATOM     68  C   UNL A   1      39.958  35.865  37.769  1.00  0.00     0.198 A 
ATOM     69  C   UNL A   1      38.610  34.161  38.789  1.00  0.00     0.198 A 
ATOM     70  F   UNL A   1      38.302  32.097  37.701  1.00  0.00    -0.203 F 
ATOM     71  F   UNL A   1      40.514  37.084  37.811  1.00  0.00    -0.200 F 
ATOM     72  C   UNL A   1      39.166  35.430  38.822  1.00  0.00     0.200 A 
ATOM     73  F   UNL A   1      37.835  33.742  39.799  1.00  0.00    -0.200 F 
ATOM     74  F   UNL A   1      38.942  36.234  39.870  1.00  0.00    -0.200 F 
ENDBRANCH  50  64
BRANCH  51  75
ATOM     75  C   UNL A   1      40.426  27.919  28.554  1.00  0.00     0.064 A 
ATOM     76  C   UNL A   1      41.144  28.320  27.420  1.00  0.00     0.173 A 
ATOM     77  C   UNL A   1      39.834  26.647  28.538  1.00  0.00     0.173 A 
ATOM     78  F   UNL A   1      41.709  29.536  27.382  1.00  0.00    -0.203 F 
ATOM     79  C   UNL A   1      41.266  27.483  26.313  1.00  0.00     0.198 A 
ATOM     80  C   UNL A   1      39.979  25.800  27.442  1.00  0.00     0.198 A 
ATOM     81  F   UNL A   1      39.137  26.217  29.600  1.00  0.00    -0.203 F 
ATOM     82  F   UNL A   1      41.936  27.901  25.231  1.00  0.00    -0.200 F 
ATOM     83  C   UNL A   1      40.691  26.221  26.329  1.00  0.00     0.200 A 
ATOM     84  F   UNL A   1      39.436  24.576  27.467  1.00  0.00    -0.200 F 
ATOM     85  F   UNL A   1      40.823  25.410  25.270  1.00  0.00    -0.200 F 
ENDBRANCH  51  75
BRANCH  63  86
ATOM     86  C   UNL A   1      44.053  28.477  34.477  1.00  0.00     0.064 A 
ATOM     87  C   UNL A   1      45.351  28.967  34.278  1.00  0.00     0.173 A 
ATOM     88  C   UNL A   1      43.899  27.301  35.226  1.00  0.00     0.173 A 
ATOM     89  F   UNL A   1      45.549  30.080  33.555  1.00  0.00    -0.203 F 
ATOM     90  C   UNL A   1      46.455  28.295  34.793  1.00  0.00     0.198 A 
ATOM     91  C   UNL A   1      45.004  26.645  35.762  1.00  0.00     0.198 A 
ATOM     92  F   UNL A   1      42.676  26.795  35.449  1.00  0.00    -0.203 F 
ATOM     93  F   UNL A   1      47.690  28.759  34.557  1.00  0.00    -0.200 F 
ATOM     94  C   UNL A   1      46.281  27.139  35.541  1.00  0.00     0.200 A 
ATOM     95  F   UNL A   1      44.832  25.535  36.494  1.00  0.00    -0.200 F 
ATOM     96  F   UNL A   1      47.345  26.497  36.042  1.00  0.00    -0.200 F 
ENDBRANCH  63  86
ENDBRANCH  37  38
ENDBRANCH  29  32
ENDBRANCH  27  28
ENDBRANCH  26  27
ENDBRANCH   1  26
TORSDOF 15
ENDMDL
MODEL 2
REMARK VINA RESULT:     -12.5      0.566      7.222
REMARK SMILES CCc1c(Cl)ccc2c1C=C(C(=O)NCCCCCCNC(=O)c1ccc(-c3c4nc(c(-c5c(F)c(F)c(F)c(F)c5F)c5ccc([nH]5)c(-c5c(F)c(F)c(F)c(F)c5F)c5nc(c(-c6c(F)c(F)c(F)c(F)c6F)c6ccc3[nH]6)C=C5)C=C4)cc1)[C@@H](C(F)(F)F)O2
REMARK SMILES IDX 18 1 17 2 16 3 15 4 14 5 12 6 13 7 11 9 3 10 4 11 9 12 5 13
REMARK SMILES IDX 6 14 8 15 10 16 7 17 92 18 87 19 2 20 1 21 88 22 89 23 90 24
REMARK SMILES IDX 91 25 19 26 20 27 21 28 22 29 23 31 24 32 25 33 86 34 26 35
REMARK SMILES IDX 85 36 27 37 28 38 29 39 79 40 30 41 84 42 78 43 80 44 31 45
REMARK SMILES IDX 83 46 77 47 76 48 32 50 64 51 44 52 63 53 45 54 48 55 62 56
REMARK SMILES IDX 81 57 46 58 47 59 61 61 82 62 49 63 33 64 34 65 42 66 35 67
REMARK SMILES IDX 36 68 40 69 43 70 37 71 38 72 41 73 39 74 65 75 66 76 74 77
REMARK SMILES IDX 67 78 68 79 72 80 75 81 69 82 70 83 73 84 71 85 50 86 51 87
REMARK SMILES IDX 59 88 52 89 53 90 57 91 60 92 54 93 55 94 58 95 56 96
REMARK H PARENT 14 8 21 30 80 49 48 60
REMARK Flexibility Score: inf
ROOT
ATOM      1  C   UNL A   1      31.781  30.621  26.250  1.00  0.00     0.002 C 
ENDROOT
BRANCH   1   2
ATOM      2  C   UNL A   1      31.887  29.463  27.251  1.00  0.00     0.002 C 
BRANCH   2   3
ATOM      3  C   UNL A   1      32.919  28.380  26.917  1.00  0.00     0.021 C 
BRANCH   3   4
ATOM      4  C   UNL A   1      34.165  28.885  26.195  1.00  0.00     0.116 C 
BRANCH   4   5
ATOM      5  N   UNL A   1      34.061  28.744  24.755  1.00  0.00    -0.352 N 
ATOM      6  C   UNL A   1      33.628  27.808  23.879  1.00  0.00     0.251 C 
ATOM      7  O   UNL A   1      33.668  28.154  22.694  1.00  0.00    -0.270 OA
ATOM      8  H   UNL A   1      34.395  29.544  24.291  1.00  0.00     0.163 HD
BRANCH   6   9
ATOM      9  C   UNL A   1      33.144  26.437  24.234  1.00  0.00     0.067 C 
ATOM     10  C   UNL A   1      34.722  23.042  24.548  1.00  0.00    -0.019 A 
ATOM     11  C   UNL A   1      34.296  21.755  24.961  1.00  0.00     0.045 A 
ATOM     12  C   UNL A   1      33.777  24.101  24.598  1.00  0.00     0.022 A 
ATOM     13  Cl  UNL A   1      35.337  20.370  24.958  1.00  0.00    -0.084 Cl
ATOM     14  C   UNL A   1      32.990  21.530  25.406  1.00  0.00     0.024 A 
ATOM     15  C   UNL A   1      32.476  23.850  25.059  1.00  0.00     0.128 A 
ATOM     16  C   UNL A   1      34.092  25.482  24.224  1.00  0.00     0.026 C 
ATOM     17  C   UNL A   1      32.084  22.577  25.462  1.00  0.00     0.048 A 
ATOM     18  O   UNL A   1      31.516  24.808  25.198  1.00  0.00    -0.475 OA
ATOM     19  C   UNL A   1      31.724  26.089  24.555  1.00  0.00     0.314 C 
BRANCH  10  20
ATOM     20  C   UNL A   1      36.144  23.258  24.045  1.00  0.00     0.034 C 
ATOM     21  C   UNL A   1      37.163  23.617  25.124  1.00  0.00     0.009 C 
ENDBRANCH  10  20
BRANCH  19  22
ATOM     22  C   UNL A   1      30.804  26.170  23.325  1.00  0.00     0.429 C 
ATOM     23  F   UNL A   1      30.359  27.440  23.148  1.00  0.00    -0.167 F 
ATOM     24  F   UNL A   1      31.433  25.828  22.177  1.00  0.00    -0.167 F 
ATOM     25  F   UNL A   1      29.719  25.370  23.436  1.00  0.00    -0.167 F 
ENDBRANCH  19  22
ENDBRANCH   6   9
ENDBRANCH   4   5
ENDBRANCH   3   4
ENDBRANCH   2   3
ENDBRANCH   1   2
BRANCH   1  26
ATOM     26  C   UNL A   1      31.484  31.998  26.847  1.00  0.00     0.021 C 
BRANCH  26  27
ATOM     27  C   UNL A   1      32.705  32.776  27.323  1.00  0.00     0.116 C 
BRANCH  27  28
ATOM     28  N   UNL A   1      32.403  34.162  27.632  1.00  0.00    -0.352 N 
ATOM     29  C   UNL A   1      32.984  34.986  28.570  1.00  0.00     0.251 C 
ATOM     30  H   UNL A   1      31.684  34.569  27.097  1.00  0.00     0.163 HD
ATOM     31  O   UNL A   1      32.523  36.092  28.800  1.00  0.00    -0.269 OA
BRANCH  29  32
ATOM     32  C   UNL A   1      34.156  34.498  29.329  1.00  0.00     0.039 A 
ATOM     33  C   UNL A   1      35.444  34.598  28.797  1.00  0.00     0.014 A 
ATOM     34  C   UNL A   1      33.950  33.898  30.574  1.00  0.00     0.014 A 
ATOM     35  C   UNL A   1      36.504  33.962  29.435  1.00  0.00     0.010 A 
ATOM     36  C   UNL A   1      35.030  33.324  31.250  1.00  0.00     0.010 A 
ATOM     37  C   UNL A   1      36.305  33.311  30.663  1.00  0.00    -0.014 A 
BRANCH  37  38
ATOM     38  C   UNL A   1      37.436  32.604  31.317  1.00  0.00     0.031 A 
ATOM     39  C   UNL A   1      38.167  31.503  30.599  1.00  0.00     0.074 A 
ATOM     40  C   UNL A   1      37.830  32.984  32.548  1.00  0.00     0.049 A 
ATOM     41  N   UNL A   1      39.143  30.742  31.027  1.00  0.00    -0.248 NA
ATOM     42  C   UNL A   1      37.747  31.216  29.218  1.00  0.00     0.031 C 
ATOM     43  C   UNL A   1      37.219  34.058  33.331  1.00  0.00     0.029 A 
ATOM     44  N   UNL A   1      38.844  32.521  33.346  1.00  0.00    -0.354 N 
ATOM     45  C   UNL A   1      39.438  29.877  29.980  1.00  0.00     0.074 A 
ATOM     46  C   UNL A   1      38.525  30.191  28.903  1.00  0.00     0.031 C 
ATOM     47  C   UNL A   1      37.897  34.200  34.481  1.00  0.00     0.029 A 
ATOM     48  C   UNL A   1      38.945  33.187  34.543  1.00  0.00     0.049 A 
ATOM     49  H   UNL A   1      39.443  31.785  33.087  1.00  0.00     0.167 HD
ATOM     50  C   UNL A   1      40.391  28.917  29.924  1.00  0.00     0.037 A 
ATOM     51  C   UNL A   1      39.775  32.989  35.584  1.00  0.00     0.037 A 
ATOM     52  C   UNL A   1      41.313  28.621  30.991  1.00  0.00     0.049 A 
ATOM     53  C   UNL A   1      40.787  31.882  35.514  1.00  0.00     0.074 A 
ATOM     54  C   UNL A   1      42.316  27.669  31.026  1.00  0.00     0.029 A 
ATOM     55  N   UNL A   1      41.345  29.281  32.210  1.00  0.00    -0.354 N 
ATOM     56  N   UNL A   1      41.039  31.054  34.530  1.00  0.00    -0.248 NA
ATOM     57  C   UNL A   1      41.620  31.673  36.706  1.00  0.00     0.031 C 
ATOM     58  C   UNL A   1      42.934  27.728  32.279  1.00  0.00     0.029 A 
ATOM     59  C   UNL A   1      42.343  28.747  33.010  1.00  0.00     0.049 A 
ATOM     60  H   UNL A   1      40.749  30.020  32.470  1.00  0.00     0.167 HD
ATOM     61  C   UNL A   1      42.063  30.231  34.978  1.00  0.00     0.074 A 
ATOM     62  C   UNL A   1      42.402  30.675  36.315  1.00  0.00     0.031 C 
ATOM     63  C   UNL A   1      42.663  29.196  34.340  1.00  0.00     0.037 A 
BRANCH  50  64
ATOM     64  C   UNL A   1      40.488  28.100  28.669  1.00  0.00     0.064 A 
ATOM     65  C   UNL A   1      41.278  28.510  27.584  1.00  0.00     0.173 A 
ATOM     66  C   UNL A   1      39.834  26.861  28.574  1.00  0.00     0.173 A 
ATOM     67  F   UNL A   1      41.911  29.692  27.621  1.00  0.00    -0.203 F 
ATOM     68  C   UNL A   1      41.400  27.716  26.447  1.00  0.00     0.198 A 
ATOM     69  C   UNL A   1      39.978  26.059  27.445  1.00  0.00     0.198 A 
ATOM     70  F   UNL A   1      39.071  26.421  29.585  1.00  0.00    -0.203 F 
ATOM     71  F   UNL A   1      42.135  28.141  25.410  1.00  0.00    -0.200 F 
ATOM     72  C   UNL A   1      40.758  26.488  26.381  1.00  0.00     0.200 A 
ATOM     73  F   UNL A   1      39.366  24.868  27.388  1.00  0.00    -0.200 F 
ATOM     74  F   UNL A   1      40.888  25.720  25.291  1.00  0.00    -0.200 F 
ENDBRANCH  50  64
BRANCH  51  75
ATOM     75  C   UNL A   1      39.670  33.862  36.780  1.00  0.00     0.064 A 
ATOM     76  C   UNL A   1      40.332  35.096  36.827  1.00  0.00     0.173 A 
ATOM     77  C   UNL A   1      38.886  33.496  37.883  1.00  0.00     0.173 A 
ATOM     78  F   UNL A   1      41.110  35.478  35.804  1.00  0.00    -0.203 F 
ATOM     79  C   UNL A   1      40.214  35.932  37.935  1.00  0.00     0.198 A 
ATOM     80  C   UNL A   1      38.747  34.344  38.979  1.00  0.00     0.198 A 
ATOM     81  F   UNL A   1      38.233  32.325  37.885  1.00  0.00    -0.203 F 
ATOM     82  F   UNL A   1      40.877  37.095  37.967  1.00  0.00    -0.200 F 
ATOM     83  C   UNL A   1      39.414  35.559  39.006  1.00  0.00     0.200 A 
ATOM     84  F   UNL A   1      37.962  33.988  40.004  1.00  0.00    -0.200 F 
ATOM     85  F   UNL A   1      39.289  36.371  40.064  1.00  0.00    -0.200 F 
ENDBRANCH  51  75
BRANCH  63  86
ATOM     86  C   UNL A   1      43.755  28.480  35.077  1.00  0.00     0.064 A 
ATOM     87  C   UNL A   1      43.484  27.361  35.877  1.00  0.00     0.173 A 
ATOM     88  C   UNL A   1      45.091  28.889  34.945  1.00  0.00     0.173 A 
ATOM     89  F   UNL A   1      42.220  26.942  36.045  1.00  0.00    -0.203 F 
ATOM     90  C   UNL A   1      44.509  26.689  36.536  1.00  0.00     0.198 A 
ATOM     91  C   UNL A   1      46.116  28.198  35.584  1.00  0.00     0.198 A 
ATOM     92  F   UNL A   1      45.402  29.950  34.185  1.00  0.00    -0.203 F 
ATOM     93  F   UNL A   1      44.223  25.646  37.328  1.00  0.00    -0.200 F 
ATOM     94  C   UNL A   1      45.824  27.103  36.383  1.00  0.00     0.200 A 
ATOM     95  F   UNL A   1      47.388  28.592  35.427  1.00  0.00    -0.200 F 
ATOM     96  F   UNL A   1      46.811  26.450  37.013  1.00  0.00    -0.200 F 
ENDBRANCH  63  86
ENDBRANCH  37  38
ENDBRANCH  29  32
ENDBRANCH  27  28
ENDBRANCH  26  27
ENDBRANCH   1  26
TORSDOF 15
ENDMDL
MODEL 3
REMARK VINA RESULT:     -12.5      1.772      2.617
REMARK SMILES CCc1c(Cl)ccc2c1C=C(C(=O)NCCCCCCNC(=O)c1ccc(-c3c4nc(c(-c5c(F)c(F)c(F)c(F)c5F)c5ccc([nH]5)c(-c5c(F)c(F)c(F)c(F)c5F)c5nc(c(-c6c(F)c(F)c(F)c(F)c6F)c6ccc3[nH]6)C=C5)C=C4)cc1)[C@@H](C(F)(F)F)O2
REMARK SMILES IDX 18 1 17 2 16 3 15 4 14 5 12 6 13 7 11 9 3 10 4 11 9 12 5 13
REMARK SMILES IDX 6 14 8 15 10 16 7 17 92 18 87 19 2 20 1 21 88 22 89 23 90 24
REMARK SMILES IDX 91 25 19 26 20 27 21 28 22 29 23 31 24 32 25 33 86 34 26 35
REMARK SMILES IDX 85 36 27 37 28 38 29 39 79 40 30 41 84 42 78 43 80 44 31 45
REMARK SMILES IDX 83 46 77 47 76 48 32 50 64 51 44 52 63 53 45 54 48 55 62 56
REMARK SMILES IDX 81 57 46 58 47 59 61 61 82 62 49 63 33 64 34 65 42 66 35 67
REMARK SMILES IDX 36 68 40 69 43 70 37 71 38 72 41 73 39 74 65 75 66 76 74 77
REMARK SMILES IDX 67 78 68 79 72 80 75 81 69 82 70 83 73 84 71 85 50 86 51 87
REMARK SMILES IDX 59 88 52 89 53 90 57 91 60 92 54 93 55 94 58 95 56 96
REMARK H PARENT 14 8 21 30 80 49 48 60
REMARK Flexibility Score: inf
ROOT
ATOM      1  C   UNL A   1      34.635  33.404  29.130  1.00  0.00     0.002 C 
ENDROOT
BRANCH   1   2
ATOM      2  C   UNL A   1      34.413  31.893  28.983  1.00  0.00     0.002 C 
BRANCH   2   3
ATOM      3  C   UNL A   1      34.748  31.296  27.611  1.00  0.00     0.021 C 
BRANCH   3   4
ATOM      4  C   UNL A   1      33.995  30.014  27.270  1.00  0.00     0.116 C 
BRANCH   4   5
ATOM      5  N   UNL A   1      33.918  29.785  25.840  1.00  0.00    -0.352 N 
ATOM      6  C   UNL A   1      33.441  28.827  25.014  1.00  0.00     0.251 C 
ATOM      7  O   UNL A   1      33.537  29.089  23.810  1.00  0.00    -0.270 OA
ATOM      8  H   UNL A   1      34.322  30.527  25.335  1.00  0.00     0.163 HD
BRANCH   6   9
ATOM      9  C   UNL A   1      32.850  27.520  25.441  1.00  0.00     0.067 C 
ATOM     10  C   UNL A   1      34.172  24.057  26.050  1.00  0.00    -0.019 A 
ATOM     11  C   UNL A   1      33.641  22.834  26.532  1.00  0.00     0.045 A 
ATOM     12  C   UNL A   1      33.303  25.178  25.989  1.00  0.00     0.022 A 
ATOM     13  Cl  UNL A   1      34.582  21.385  26.666  1.00  0.00    -0.084 Cl
ATOM     14  C   UNL A   1      32.308  22.730  26.938  1.00  0.00     0.024 A 
ATOM     15  C   UNL A   1      31.972  25.049  26.413  1.00  0.00     0.128 A 
ATOM     16  C   UNL A   1      33.728  26.504  25.535  1.00  0.00     0.026 C 
ATOM     17  C   UNL A   1      31.476  23.838  26.884  1.00  0.00     0.048 A 
ATOM     18  O   UNL A   1      31.077  26.078  26.446  1.00  0.00    -0.475 OA
ATOM     19  C   UNL A   1      31.398  27.293  25.726  1.00  0.00     0.314 C 
BRANCH  10  20
ATOM     20  C   UNL A   1      35.623  24.140  25.592  1.00  0.00     0.034 C 
ATOM     21  C   UNL A   1      35.879  23.654  24.167  1.00  0.00     0.009 C 
ENDBRANCH  10  20
BRANCH  19  22
ATOM     22  C   UNL A   1      30.531  27.348  24.457  1.00  0.00     0.429 C 
ATOM     23  F   UNL A   1      31.201  26.821  23.401  1.00  0.00    -0.167 F 
ATOM     24  F   UNL A   1      29.387  26.635  24.573  1.00  0.00    -0.167 F 
ATOM     25  F   UNL A   1      30.179  28.611  24.126  1.00  0.00    -0.167 F 
ENDBRANCH  19  22
ENDBRANCH   6   9
ENDBRANCH   4   5
ENDBRANCH   3   4
ENDBRANCH   2   3
ENDBRANCH   1   2
BRANCH   1  26
ATOM     26  C   UNL A   1      33.404  34.287  28.910  1.00  0.00     0.021 C 
BRANCH  26  27
ATOM     27  C   UNL A   1      33.519  35.705  29.453  1.00  0.00     0.116 C 
BRANCH  27  28
ATOM     28  N   UNL A   1      32.531  35.996  30.477  1.00  0.00    -0.352 N 
ATOM     29  C   UNL A   1      32.549  35.670  31.815  1.00  0.00     0.251 C 
ATOM     30  H   UNL A   1      31.740  36.496  30.174  1.00  0.00     0.163 HD
ATOM     31  O   UNL A   1      31.573  35.871  32.520  1.00  0.00    -0.269 OA
BRANCH  29  32
ATOM     32  C   UNL A   1      33.756  35.030  32.383  1.00  0.00     0.039 A 
ATOM     33  C   UNL A   1      34.970  35.719  32.437  1.00  0.00     0.014 A 
ATOM     34  C   UNL A   1      33.672  33.709  32.831  1.00  0.00     0.014 A 
ATOM     35  C   UNL A   1      36.131  35.040  32.792  1.00  0.00     0.010 A 
ATOM     36  C   UNL A   1      34.828  33.050  33.258  1.00  0.00     0.010 A 
ATOM     37  C   UNL A   1      36.073  33.696  33.197  1.00  0.00    -0.014 A 
BRANCH  37  38
ATOM     38  C   UNL A   1      37.323  32.971  33.539  1.00  0.00     0.031 A 
ATOM     39  C   UNL A   1      38.010  33.212  34.854  1.00  0.00     0.074 A 
ATOM     40  C   UNL A   1      37.818  32.063  32.676  1.00  0.00     0.049 A 
ATOM     41  N   UNL A   1      39.133  32.710  35.305  1.00  0.00    -0.248 NA
ATOM     42  C   UNL A   1      37.353  34.140  35.788  1.00  0.00     0.031 C 
ATOM     43  C   UNL A   1      37.223  31.721  31.383  1.00  0.00     0.029 A 
ATOM     44  N   UNL A   1      38.920  31.254  32.762  1.00  0.00    -0.354 N 
ATOM     45  C   UNL A   1      39.325  33.273  36.560  1.00  0.00     0.074 A 
ATOM     46  C   UNL A   1      38.217  34.173  36.794  1.00  0.00     0.031 C 
ATOM     47  C   UNL A   1      37.944  30.742  30.815  1.00  0.00     0.029 A 
ATOM     48  C   UNL A   1      39.085  30.436  31.671  1.00  0.00     0.049 A 
ATOM     49  H   UNL A   1      39.535  31.256  33.531  1.00  0.00     0.167 HD
ATOM     50  C   UNL A   1      40.332  33.052  37.439  1.00  0.00     0.037 A 
ATOM     51  C   UNL A   1      40.059  29.552  31.382  1.00  0.00     0.037 A 
ATOM     52  C   UNL A   1      41.424  32.139  37.212  1.00  0.00     0.049 A 
ATOM     53  C   UNL A   1      41.190  29.365  32.351  1.00  0.00     0.074 A 
ATOM     54  C   UNL A   1      42.488  31.844  38.044  1.00  0.00     0.029 A 
ATOM     55  N   UNL A   1      41.585  31.371  36.069  1.00  0.00    -0.354 N 
ATOM     56  N   UNL A   1      41.375  29.924  33.523  1.00  0.00    -0.248 NA
ATOM     57  C   UNL A   1      42.256  28.437  31.952  1.00  0.00     0.031 C 
ATOM     58  C   UNL A   1      43.313  30.923  37.391  1.00  0.00     0.029 A 
ATOM     59  C   UNL A   1      42.740  30.611  36.168  1.00  0.00     0.049 A 
ATOM     60  H   UNL A   1      40.970  31.364  35.300  1.00  0.00     0.167 HD
ATOM     61  C   UNL A   1      42.571  29.410  34.005  1.00  0.00     0.074 A 
ATOM     62  C   UNL A   1      43.057  28.477  33.008  1.00  0.00     0.031 C 
ATOM     63  C   UNL A   1      43.211  29.693  35.165  1.00  0.00     0.037 A 
BRANCH  50  64
ATOM     64  C   UNL A   1      40.313  33.813  38.732  1.00  0.00     0.064 A 
ATOM     65  C   UNL A   1      39.582  33.361  39.840  1.00  0.00     0.173 A 
ATOM     66  C   UNL A   1      41.086  34.975  38.884  1.00  0.00     0.173 A 
ATOM     67  F   UNL A   1      38.817  32.263  39.741  1.00  0.00    -0.203 F 
ATOM     68  C   UNL A   1      39.617  34.050  41.049  1.00  0.00     0.198 A 
ATOM     69  C   UNL A   1      41.137  35.648  40.102  1.00  0.00     0.198 A 
ATOM     70  F   UNL A   1      41.806  35.447  37.855  1.00  0.00    -0.203 F 
ATOM     71  F   UNL A   1      38.887  33.617  42.087  1.00  0.00    -0.200 F 
ATOM     72  C   UNL A   1      40.400  35.187  41.183  1.00  0.00     0.200 A 
ATOM     73  F   UNL A   1      41.903  36.740  40.231  1.00  0.00    -0.200 F 
ATOM     74  F   UNL A   1      40.442  35.841  42.352  1.00  0.00    -0.200 F 
ENDBRANCH  50  64
BRANCH  51  75
ATOM     75  C   UNL A   1      39.999  28.786  30.112  1.00  0.00     0.064 A 
ATOM     76  C   UNL A   1      40.556  29.302  28.936  1.00  0.00     0.173 A 
ATOM     77  C   UNL A   1      39.411  27.514  30.056  1.00  0.00     0.173 A 
ATOM     78  F   UNL A   1      41.110  30.523  28.937  1.00  0.00    -0.203 F 
ATOM     79  C   UNL A   1      40.527  28.575  27.748  1.00  0.00     0.198 A 
ATOM     80  C   UNL A   1      39.406  26.776  28.875  1.00  0.00     0.198 A 
ATOM     81  F   UNL A   1      38.865  26.977  31.156  1.00  0.00    -0.203 F 
ATOM     82  F   UNL A   1      41.044  29.102  26.630  1.00  0.00    -0.200 F 
ATOM     83  C   UNL A   1      39.961  27.309  27.721  1.00  0.00     0.200 A 
ATOM     84  F   UNL A   1      38.872  25.548  28.856  1.00  0.00    -0.200 F 
ATOM     85  F   UNL A   1      39.948  26.604  26.582  1.00  0.00    -0.200 F 
ENDBRANCH  51  75
BRANCH  63  86
ATOM     86  C   UNL A   1      44.503  28.976  35.425  1.00  0.00     0.064 A 
ATOM     87  C   UNL A   1      45.733  29.526  35.040  1.00  0.00     0.173 A 
ATOM     88  C   UNL A   1      44.512  27.750  36.107  1.00  0.00     0.173 A 
ATOM     89  F   UNL A   1      45.773  30.689  34.373  1.00  0.00    -0.203 F 
ATOM     90  C   UNL A   1      46.927  28.863  35.309  1.00  0.00     0.198 A 
ATOM     91  C   UNL A   1      45.710  27.103  36.398  1.00  0.00     0.198 A 
ATOM     92  F   UNL A   1      43.360  27.186  36.502  1.00  0.00    -0.203 F 
ATOM     93  F   UNL A   1      48.090  29.387  34.896  1.00  0.00    -0.200 F 
ATOM     94  C   UNL A   1      46.916  27.657  35.994  1.00  0.00     0.200 A 
ATOM     95  F   UNL A   1      45.697  25.943  37.070  1.00  0.00    -0.200 F 
ATOM     96  F   UNL A   1      48.067  27.024  36.259  1.00  0.00    -0.200 F 
ENDBRANCH  63  86
ENDBRANCH  37  38
ENDBRANCH  29  32
ENDBRANCH  27  28
ENDBRANCH  26  27
ENDBRANCH   1  26
TORSDOF 15
ENDMDL
