MODEL 1
REMARK VINA RESULT:     -10.1      0.000      0.000
REMARK SMILES CSCC[C@H](C(=O)NCCCCCCNC(=O)c1ccc(-c2c3nc(c(-c4c(F)c(F)c(F)c(F)c4F)c4ccc([nH]4)c(-c4c(F)c(F)c(F)c(F)c4F)c4nc(c(-c5c(F)c(F)c(F)c(F)c5F)c5ccc2[nH]5)C=C4)C=C3)cc1)N1C(=O)/C(=C/c2cn(C)c3ccccc23)SC1=S
REMARK SMILES IDX 11 1 10 2 9 3 8 4 6 5 7 6 5 8 4 9 3 10 2 11 1 12 81 13 82 14
REMARK SMILES IDX 97 15 83 16 84 17 96 18 98 19 85 20 86 21 87 22 95 23 88 24
REMARK SMILES IDX 90 25 94 26 89 27 91 28 93 29 92 30 12 31 13 32 14 33 15 34
REMARK SMILES IDX 16 35 17 37 18 38 19 39 80 40 20 41 79 42 21 43 22 44 23 45
REMARK SMILES IDX 73 46 24 47 78 48 72 49 74 50 25 51 77 52 71 53 70 54 26 56
REMARK SMILES IDX 58 57 38 58 57 59 39 60 42 61 56 62 75 63 40 64 41 65 55 67
REMARK SMILES IDX 76 68 43 69 27 70 28 71 36 72 29 73 30 74 34 75 37 76 31 77
REMARK SMILES IDX 32 78 35 79 33 80 59 81 60 82 68 83 61 84 62 85 66 86 69 87
REMARK SMILES IDX 63 88 64 89 67 90 65 91 44 92 45 93 53 94 46 95 47 96 51 97
REMARK SMILES IDX 54 98 48 99 49 100 52 101 50 102
REMARK H PARENT 8 7 15 36 74 55 42 66
REMARK Flexibility Score: inf
ROOT
ATOM      1  C   UNL A   1      45.590  24.853  40.018  1.00  0.00     0.002 C 
ENDROOT
BRANCH   1   2
ATOM      2  C   UNL A   1      45.477  23.730  38.992  1.00  0.00     0.021 C 
BRANCH   2   3
ATOM      3  C   UNL A   1      45.682  22.322  39.563  1.00  0.00     0.116 C 
BRANCH   3   4
ATOM      4  N   UNL A   1      47.012  22.152  40.102  1.00  0.00    -0.354 N 
ATOM      5  C   UNL A   1      48.150  22.125  39.344  1.00  0.00     0.243 C 
ATOM      6  O   UNL A   1      48.944  23.046  39.598  1.00  0.00    -0.273 OA
ATOM      7  H   UNL A   1      47.104  22.050  41.077  1.00  0.00     0.163 HD
BRANCH   5   8
ATOM      8  C   UNL A   1      48.690  20.789  38.660  1.00  0.00     0.182 C 
BRANCH   8   9
ATOM      9  C   UNL A   1      48.070  19.683  39.659  1.00  0.00     0.046 C 
BRANCH   9  10
ATOM     10  C   UNL A   1      47.134  18.494  39.365  1.00  0.00     0.072 C 
BRANCH  10  11
ATOM     11  S   UNL A   1      46.543  17.238  40.548  1.00  0.00    -0.165 SA
ATOM     12  C   UNL A   1      45.906  18.170  41.946  1.00  0.00     0.085 C 
ENDBRANCH  10  11
ENDBRANCH   9  10
ENDBRANCH   8   9
BRANCH   8  13
ATOM     13  N   UNL A   1      48.810  20.671  36.873  1.00  0.00    -0.280 N 
ATOM     14  C   UNL A   1      50.089  20.919  36.738  1.00  0.00     0.266 C 
ATOM     15  C   UNL A   1      47.401  20.062  35.561  1.00  0.00     0.149 C 
ATOM     16  O   UNL A   1      51.017  21.287  37.407  1.00  0.00    -0.268 OA
ATOM     17  C   UNL A   1      49.568  21.184  35.505  1.00  0.00     0.081 C 
ATOM     18  S   UNL A   1      47.721  20.247  34.127  1.00  0.00    -0.054 SA
ATOM     19  S   UNL A   1      45.588  19.313  35.599  1.00  0.00    -0.052 S 
ATOM     20  C   UNL A   1      50.519  22.107  34.946  1.00  0.00     0.031 C 
BRANCH  20  21
ATOM     21  C   UNL A   1      50.210  22.326  33.596  1.00  0.00     0.001 A 
ATOM     22  C   UNL A   1      50.229  23.592  32.972  1.00  0.00     0.094 A 
ATOM     23  C   UNL A   1      51.499  21.835  33.345  1.00  0.00     0.007 A 
ATOM     24  N   UNL A   1      51.433  24.322  33.210  1.00  0.00    -0.350 N 
ATOM     25  C   UNL A   1      52.199  23.540  34.070  1.00  0.00     0.048 A 
ATOM     26  C   UNL A   1      52.539  20.310  34.077  1.00  0.00     0.011 A 
ATOM     27  C   UNL A   1      52.069  25.094  32.147  1.00  0.00     0.149 C 
ATOM     28  C   UNL A   1      53.786  23.408  35.202  1.00  0.00     0.027 A 
ATOM     29  C   UNL A   1      54.152  20.121  35.195  1.00  0.00     0.001 A 
ATOM     30  C   UNL A   1      54.881  21.903  35.830  1.00  0.00     0.002 A 
ENDBRANCH  20  21
ENDBRANCH   8  13
ENDBRANCH   5   8
ENDBRANCH   3   4
ENDBRANCH   2   3
ENDBRANCH   1   2
BRANCH   1  31
ATOM     31  C   UNL A   1      46.813  25.771  39.920  1.00  0.00     0.002 C 
BRANCH  31  32
ATOM     32  C   UNL A   1      46.693  27.008  39.029  1.00  0.00     0.021 C 
BRANCH  32  33
ATOM     33  C   UNL A   1      47.892  27.276  38.127  1.00  0.00     0.116 C 
BRANCH  33  34
ATOM     34  N   UNL A   1      48.245  26.097  37.350  1.00  0.00    -0.352 N 
ATOM     35  C   UNL A   1      47.542  25.442  36.373  1.00  0.00     0.251 C 
ATOM     36  H   UNL A   1      49.125  25.709  37.560  1.00  0.00     0.163 HD
ATOM     37  O   UNL A   1      47.856  24.301  36.051  1.00  0.00    -0.269 OA
BRANCH  35  38
ATOM     38  C   UNL A   1      46.410  26.113  35.704  1.00  0.00     0.039 A 
ATOM     39  C   UNL A   1      46.653  27.257  34.943  1.00  0.00     0.014 A 
ATOM     40  C   UNL A   1      45.106  25.635  35.861  1.00  0.00     0.014 A 
ATOM     41  C   UNL A   1      45.594  27.895  34.298  1.00  0.00     0.010 A 
ATOM     42  C   UNL A   1      44.065  26.216  35.145  1.00  0.00     0.010 A 
ATOM     43  C   UNL A   1      44.296  27.358  34.365  1.00  0.00    -0.014 A 
BRANCH  43  44
ATOM     44  C   UNL A   1      43.172  27.983  33.624  1.00  0.00     0.031 A 
ATOM     45  C   UNL A   1      42.964  27.679  32.166  1.00  0.00     0.074 A 
ATOM     46  C   UNL A   1      42.368  28.858  34.257  1.00  0.00     0.049 A 
ATOM     47  N   UNL A   1      42.070  28.164  31.340  1.00  0.00    -0.248 NA
ATOM     48  C   UNL A   1      43.894  26.721  31.546  1.00  0.00     0.031 C 
ATOM     49  C   UNL A   1      42.498  29.261  35.659  1.00  0.00     0.029 A 
ATOM     50  N   UNL A   1      41.286  29.571  33.807  1.00  0.00    -0.354 N 
ATOM     51  C   UNL A   1      42.334  27.574  30.111  1.00  0.00     0.074 A 
ATOM     52  C   UNL A   1      43.508  26.747  30.279  1.00  0.00     0.031 C 
ATOM     53  C   UNL A   1      41.515  30.124  35.961  1.00  0.00     0.029 A 
ATOM     54  C   UNL A   1      40.721  30.378  34.764  1.00  0.00     0.049 A 
ATOM     55  H   UNL A   1      40.947  29.510  32.884  1.00  0.00     0.167 HD
ATOM     56  C   UNL A   1      41.640  27.692  28.954  1.00  0.00     0.037 A 
ATOM     57  C   UNL A   1      39.690  31.241  34.680  1.00  0.00     0.037 A 
ATOM     58  C   UNL A   1      40.469  28.514  28.796  1.00  0.00     0.049 A 
ATOM     59  C   UNL A   1      38.970  31.388  33.365  1.00  0.00     0.074 A 
ATOM     60  C   UNL A   1      39.672  28.671  27.675  1.00  0.00     0.029 A 
ATOM     61  N   UNL A   1      39.931  29.324  29.785  1.00  0.00    -0.354 N 
ATOM     62  N   UNL A   1      39.186  30.774  32.227  1.00  0.00    -0.248 NA
ATOM     63  C   UNL A   1      37.857  32.346  33.325  1.00  0.00     0.031 C 
ATOM     64  C   UNL A   1      38.698  29.631  27.963  1.00  0.00     0.029 A 
ATOM     65  C   UNL A   1      38.833  30.010  29.289  1.00  0.00     0.049 A 
ATOM     66  H   UNL A   1      40.277  29.400  30.704  1.00  0.00     0.167 HD
ATOM     67  C   UNL A   1      38.216  31.241  31.350  1.00  0.00     0.074 A 
ATOM     68  C   UNL A   1      37.398  32.175  32.094  1.00  0.00     0.031 C 
ATOM     69  C   UNL A   1      38.020  30.927  30.045  1.00  0.00     0.037 A 
BRANCH  56  70
ATOM     70  C   UNL A   1      42.126  26.917  27.762  1.00  0.00     0.064 A 
ATOM     71  C   UNL A   1      43.086  27.442  26.883  1.00  0.00     0.173 A 
ATOM     72  C   UNL A   1      41.674  25.609  27.530  1.00  0.00     0.173 A 
ATOM     73  F   UNL A   1      43.546  28.691  27.051  1.00  0.00    -0.203 F 
ATOM     74  C   UNL A   1      43.554  26.698  25.802  1.00  0.00     0.198 A 
ATOM     75  C   UNL A   1      42.172  24.854  26.471  1.00  0.00     0.198 A 
ATOM     76  F   UNL A   1      40.763  25.054  28.343  1.00  0.00    -0.203 F 
ATOM     77  F   UNL A   1      44.435  27.238  24.949  1.00  0.00    -0.200 F 
ATOM     78  C   UNL A   1      43.106  25.401  25.605  1.00  0.00     0.200 A 
ATOM     79  F   UNL A   1      41.752  23.594  26.294  1.00  0.00    -0.200 F 
ATOM     80  F   UNL A   1      43.570  24.679  24.576  1.00  0.00    -0.200 F 
ENDBRANCH  56  70
BRANCH  57  81
ATOM     81  C   UNL A   1      39.276  32.038  35.866  1.00  0.00     0.064 A 
ATOM     82  C   UNL A   1      38.310  31.558  36.762  1.00  0.00     0.173 A 
ATOM     83  C   UNL A   1      39.806  33.315  36.108  1.00  0.00     0.173 A 
ATOM     84  F   UNL A   1      37.759  30.350  36.568  1.00  0.00    -0.203 F 
ATOM     85  C   UNL A   1      37.857  32.340  37.823  1.00  0.00     0.198 A 
ATOM     86  C   UNL A   1      39.384  34.078  37.194  1.00  0.00     0.198 A 
ATOM     87  F   UNL A   1      40.739  33.822  35.288  1.00  0.00    -0.203 F 
ATOM     88  F   UNL A   1      36.878  31.886  38.616  1.00  0.00    -0.200 F 
ATOM     89  C   UNL A   1      38.398  33.598  38.041  1.00  0.00     0.200 A 
ATOM     90  F   UNL A   1      39.924  35.286  37.410  1.00  0.00    -0.200 F 
ATOM     91  F   UNL A   1      37.959  34.352  39.057  1.00  0.00    -0.200 F 
ENDBRANCH  57  81
BRANCH  69  92
ATOM     92  C   UNL A   1      36.846  31.558  29.350  1.00  0.00     0.064 A 
ATOM     93  C   UNL A   1      36.836  32.912  28.985  1.00  0.00     0.173 A 
ATOM     94  C   UNL A   1      35.724  30.782  29.012  1.00  0.00     0.173 A 
ATOM     95  F   UNL A   1      37.876  33.703  29.294  1.00  0.00    -0.203 F 
ATOM     96  C   UNL A   1      35.736  33.474  28.344  1.00  0.00     0.198 A 
ATOM     97  C   UNL A   1      34.645  31.337  28.332  1.00  0.00     0.198 A 
ATOM     98  F   UNL A   1      35.683  29.479  29.327  1.00  0.00    -0.203 F 
ATOM     99  F   UNL A   1      35.723  34.785  28.063  1.00  0.00    -0.200 F 
ATOM    100  C   UNL A   1      34.646  32.685  28.009  1.00  0.00     0.200 A 
ATOM    101  F   UNL A   1      33.604  30.566  27.990  1.00  0.00    -0.200 F 
ATOM    102  F   UNL A   1      33.592  33.225  27.381  1.00  0.00    -0.200 F 
ENDBRANCH  69  92
ENDBRANCH  43  44
ENDBRANCH  35  38
ENDBRANCH  33  34
ENDBRANCH  32  33
ENDBRANCH  31  32
ENDBRANCH   1  31
TORSDOF 18
ENDMDL
MODEL 2
REMARK VINA RESULT:      -9.8      6.025     11.273
REMARK SMILES CSCC[C@H](C(=O)NCCCCCCNC(=O)c1ccc(-c2c3nc(c(-c4c(F)c(F)c(F)c(F)c4F)c4ccc([nH]4)c(-c4c(F)c(F)c(F)c(F)c4F)c4nc(c(-c5c(F)c(F)c(F)c(F)c5F)c5ccc2[nH]5)C=C4)C=C3)cc1)N1C(=O)/C(=C/c2cn(C)c3ccccc23)SC1=S
REMARK SMILES IDX 11 1 10 2 9 3 8 4 6 5 7 6 5 8 4 9 3 10 2 11 1 12 81 13 82 14
REMARK SMILES IDX 97 15 83 16 84 17 96 18 98 19 85 20 86 21 87 22 95 23 88 24
REMARK SMILES IDX 90 25 94 26 89 27 91 28 93 29 92 30 12 31 13 32 14 33 15 34
REMARK SMILES IDX 16 35 17 37 18 38 19 39 80 40 20 41 79 42 21 43 22 44 23 45
REMARK SMILES IDX 73 46 24 47 78 48 72 49 74 50 25 51 77 52 71 53 70 54 26 56
REMARK SMILES IDX 58 57 38 58 57 59 39 60 42 61 56 62 75 63 40 64 41 65 55 67
REMARK SMILES IDX 76 68 43 69 27 70 28 71 36 72 29 73 30 74 34 75 37 76 31 77
REMARK SMILES IDX 32 78 35 79 33 80 59 81 60 82 68 83 61 84 62 85 66 86 69 87
REMARK SMILES IDX 63 88 64 89 67 90 65 91 44 92 45 93 53 94 46 95 47 96 51 97
REMARK SMILES IDX 54 98 48 99 49 100 52 101 50 102
REMARK H PARENT 8 7 15 36 74 55 42 66
REMARK Flexibility Score: inf
ROOT
ATOM      1  C   UNL A   1      38.839  28.800  29.826  1.00  0.00     0.002 C 
ENDROOT
BRANCH   1   2
ATOM      2  C   UNL A   1      39.562  27.464  29.677  1.00  0.00     0.021 C 
BRANCH   2   3
ATOM      3  C   UNL A   1      39.342  26.766  28.330  1.00  0.00     0.116 C 
BRANCH   3   4
ATOM      4  N   UNL A   1      40.501  26.876  27.475  1.00  0.00    -0.354 N 
ATOM      5  C   UNL A   1      41.240  25.810  27.044  1.00  0.00     0.243 C 
ATOM      6  O   UNL A   1      41.238  25.664  25.810  1.00  0.00    -0.273 OA
ATOM      7  H   UNL A   1      40.775  27.776  27.184  1.00  0.00     0.163 HD
BRANCH   5   8
ATOM      8  C   UNL A   1      42.432  25.191  27.905  1.00  0.00     0.182 C 
BRANCH   8   9
ATOM      9  C   UNL A   1      42.079  23.619  27.796  1.00  0.00     0.046 C 
BRANCH   9  10
ATOM     10  C   UNL A   1      40.714  22.905  27.812  1.00  0.00     0.072 C 
BRANCH  10  11
ATOM     11  S   UNL A   1      39.998  21.865  26.495  1.00  0.00    -0.165 SA
ATOM     12  C   UNL A   1      40.930  20.330  26.548  1.00  0.00     0.085 C 
ENDBRANCH  10  11
ENDBRANCH   9  10
ENDBRANCH   8   9
BRANCH   8  13
ATOM     13  N   UNL A   1      44.067  25.927  27.850  1.00  0.00    -0.280 N 
ATOM     14  C   UNL A   1      43.960  26.739  28.872  1.00  0.00     0.266 C 
ATOM     15  C   UNL A   1      45.637  25.404  26.693  1.00  0.00     0.149 C 
ATOM     16  O   UNL A   1      43.115  27.142  29.626  1.00  0.00    -0.268 OA
ATOM     17  C   UNL A   1      44.992  27.257  28.145  1.00  0.00     0.081 C 
ATOM     18  S   UNL A   1      46.807  26.314  26.729  1.00  0.00    -0.054 SA
ATOM     19  S   UNL A   1      46.102  24.008  25.395  1.00  0.00    -0.052 S 
ATOM     20  C   UNL A   1      44.995  28.642  28.534  1.00  0.00     0.031 C 
BRANCH  20  21
ATOM     21  C   UNL A   1      46.132  29.267  28.002  1.00  0.00     0.001 A 
ATOM     22  C   UNL A   1      46.132  30.050  26.828  1.00  0.00     0.094 A 
ATOM     23  C   UNL A   1      45.934  30.219  29.012  1.00  0.00     0.007 A 
ATOM     24  N   UNL A   1      45.108  31.045  26.812  1.00  0.00    -0.350 N 
ATOM     25  C   UNL A   1      44.372  30.866  27.980  1.00  0.00     0.048 A 
ATOM     26  C   UNL A   1      45.464  30.081  30.936  1.00  0.00     0.011 A 
ATOM     27  C   UNL A   1      45.368  32.387  26.298  1.00  0.00     0.149 C 
ATOM     28  C   UNL A   1      42.792  31.351  29.022  1.00  0.00     0.027 A 
ATOM     29  C   UNL A   1      43.905  30.574  32.038  1.00  0.00     0.001 A 
ATOM     30  C   UNL A   1      42.372  31.321  30.940  1.00  0.00     0.002 A 
ENDBRANCH  20  21
ENDBRANCH   8  13
ENDBRANCH   5   8
ENDBRANCH   3   4
ENDBRANCH   2   3
ENDBRANCH   1   2
BRANCH   1  31
ATOM     31  C   UNL A   1      38.809  29.720  28.600  1.00  0.00     0.002 C 
BRANCH  31  32
ATOM     32  C   UNL A   1      37.446  30.001  27.968  1.00  0.00     0.021 C 
BRANCH  32  33
ATOM     33  C   UNL A   1      36.244  29.687  28.852  1.00  0.00     0.116 C 
BRANCH  33  34
ATOM     34  N   UNL A   1      35.522  30.898  29.214  1.00  0.00    -0.352 N 
ATOM     35  C   UNL A   1      35.558  31.632  30.371  1.00  0.00     0.251 C 
ATOM     36  H   UNL A   1      34.914  31.244  28.522  1.00  0.00     0.163 HD
ATOM     37  O   UNL A   1      34.664  32.435  30.617  1.00  0.00    -0.269 OA
BRANCH  35  38
ATOM     38  C   UNL A   1      36.675  31.459  31.320  1.00  0.00     0.039 A 
ATOM     39  C   UNL A   1      37.853  32.180  31.120  1.00  0.00     0.014 A 
ATOM     40  C   UNL A   1      36.574  30.557  32.383  1.00  0.00     0.014 A 
ATOM     41  C   UNL A   1      38.913  32.034  32.015  1.00  0.00     0.010 A 
ATOM     42  C   UNL A   1      37.594  30.479  33.324  1.00  0.00     0.010 A 
ATOM     43  C   UNL A   1      38.778  31.208  33.145  1.00  0.00    -0.014 A 
BRANCH  43  44
ATOM     44  C   UNL A   1      39.869  31.099  34.145  1.00  0.00     0.031 A 
ATOM     45  C   UNL A   1      40.789  29.909  34.136  1.00  0.00     0.074 A 
ATOM     46  C   UNL A   1      40.000  32.052  35.087  1.00  0.00     0.049 A 
ATOM     47  N   UNL A   1      41.766  29.614  34.957  1.00  0.00    -0.248 NA
ATOM     48  C   UNL A   1      40.570  28.907  33.081  1.00  0.00     0.031 C 
ATOM     49  C   UNL A   1      39.142  33.232  35.220  1.00  0.00     0.029 A 
ATOM     50  N   UNL A   1      40.899  32.180  36.116  1.00  0.00    -0.354 N 
ATOM     51  C   UNL A   1      42.272  28.398  34.518  1.00  0.00     0.074 A 
ATOM     52  C   UNL A   1      41.456  27.975  33.402  1.00  0.00     0.031 C 
ATOM     53  C   UNL A   1      39.575  33.978  36.248  1.00  0.00     0.029 A 
ATOM     54  C   UNL A   1      40.704  33.304  36.881  1.00  0.00     0.049 A 
ATOM     55  H   UNL A   1      41.616  31.528  36.289  1.00  0.00     0.167 HD
ATOM     56  C   UNL A   1      43.339  27.710  34.989  1.00  0.00     0.037 A 
ATOM     57  C   UNL A   1      41.351  33.733  37.982  1.00  0.00     0.037 A 
ATOM     58  C   UNL A   1      44.149  28.140  36.099  1.00  0.00     0.049 A 
ATOM     59  C   UNL A   1      42.502  32.919  38.512  1.00  0.00     0.074 A 
ATOM     60  C   UNL A   1      45.276  27.533  36.628  1.00  0.00     0.029 A 
ATOM     61  N   UNL A   1      43.916  29.279  36.855  1.00  0.00    -0.354 N 
ATOM     62  N   UNL A   1      43.014  31.805  38.048  1.00  0.00    -0.248 NA
ATOM     63  C   UNL A   1      43.170  33.428  39.718  1.00  0.00     0.031 C 
ATOM     64  C   UNL A   1      45.679  28.264  37.749  1.00  0.00     0.029 A 
ATOM     65  C   UNL A   1      44.857  29.373  37.868  1.00  0.00     0.049 A 
ATOM     66  H   UNL A   1      43.190  29.925  36.696  1.00  0.00     0.167 HD
ATOM     67  C   UNL A   1      44.084  31.500  38.880  1.00  0.00     0.074 A 
ATOM     68  C   UNL A   1      44.160  32.559  39.865  1.00  0.00     0.031 C 
ATOM     69  C   UNL A   1      44.928  30.440  38.835  1.00  0.00     0.037 A 
BRANCH  56  70
ATOM     70  C   UNL A   1      43.696  26.417  34.312  1.00  0.00     0.064 A 
ATOM     71  C   UNL A   1      43.200  25.185  34.766  1.00  0.00     0.173 A 
ATOM     72  C   UNL A   1      44.493  26.415  33.156  1.00  0.00     0.173 A 
ATOM     73  F   UNL A   1      42.441  25.127  35.870  1.00  0.00    -0.203 F 
ATOM     74  C   UNL A   1      43.511  23.999  34.105  1.00  0.00     0.198 A 
ATOM     75  C   UNL A   1      44.770  25.232  32.477  1.00  0.00     0.198 A 
ATOM     76  F   UNL A   1      44.988  27.565  32.674  1.00  0.00    -0.203 F 
ATOM     77  F   UNL A   1      43.065  22.829  34.585  1.00  0.00    -0.200 F 
ATOM     78  C   UNL A   1      44.285  24.025  32.955  1.00  0.00     0.200 A 
ATOM     79  F   UNL A   1      45.502  25.262  31.355  1.00  0.00    -0.200 F 
ATOM     80  F   UNL A   1      44.568  22.885  32.310  1.00  0.00    -0.200 F 
ENDBRANCH  56  70
BRANCH  57  81
ATOM     81  C   UNL A   1      40.929  34.987  38.663  1.00  0.00     0.064 A 
ATOM     82  C   UNL A   1      41.641  36.182  38.490  1.00  0.00     0.173 A 
ATOM     83  C   UNL A   1      39.829  35.008  39.535  1.00  0.00     0.173 A 
ATOM     84  F   UNL A   1      42.711  36.213  37.681  1.00  0.00    -0.203 F 
ATOM     85  C   UNL A   1      41.300  37.335  39.196  1.00  0.00     0.198 A 
ATOM     86  C   UNL A   1      39.463  36.172  40.208  1.00  0.00     0.198 A 
ATOM     87  F   UNL A   1      39.106  33.895  39.733  1.00  0.00    -0.203 F 
ATOM     88  F   UNL A   1      42.046  38.439  39.070  1.00  0.00    -0.200 F 
ATOM     89  C   UNL A   1      40.208  37.329  40.051  1.00  0.00     0.200 A 
ATOM     90  F   UNL A   1      38.396  36.166  41.017  1.00  0.00    -0.200 F 
ATOM     91  F   UNL A   1      39.884  38.435  40.734  1.00  0.00    -0.200 F 
ENDBRANCH  57  81
BRANCH  69  92
ATOM     92  C   UNL A   1      46.039  30.395  39.846  1.00  0.00     0.064 A 
ATOM     93  C   UNL A   1      45.900  29.734  41.075  1.00  0.00     0.173 A 
ATOM     94  C   UNL A   1      47.277  30.996  39.563  1.00  0.00     0.173 A 
ATOM     95  F   UNL A   1      44.736  29.153  41.403  1.00  0.00    -0.203 F 
ATOM     96  C   UNL A   1      46.944  29.707  41.997  1.00  0.00     0.198 A 
ATOM     97  C   UNL A   1      48.331  30.929  40.468  1.00  0.00     0.198 A 
ATOM     98  F   UNL A   1      47.470  31.633  38.399  1.00  0.00    -0.203 F 
ATOM     99  F   UNL A   1      46.765  29.125  43.191  1.00  0.00    -0.200 F 
ATOM    100  C   UNL A   1      48.160  30.297  41.689  1.00  0.00     0.200 A 
ATOM    101  F   UNL A   1      49.513  31.480  40.158  1.00  0.00    -0.200 F 
ATOM    102  F   UNL A   1      49.168  30.260  42.573  1.00  0.00    -0.200 F 
ENDBRANCH  69  92
ENDBRANCH  43  44
ENDBRANCH  35  38
ENDBRANCH  33  34
ENDBRANCH  32  33
ENDBRANCH  31  32
ENDBRANCH   1  31
TORSDOF 18
ENDMDL
MODEL 3
REMARK VINA RESULT:      -9.5      8.799     15.364
REMARK SMILES CSCC[C@H](C(=O)NCCCCCCNC(=O)c1ccc(-c2c3nc(c(-c4c(F)c(F)c(F)c(F)c4F)c4ccc([nH]4)c(-c4c(F)c(F)c(F)c(F)c4F)c4nc(c(-c5c(F)c(F)c(F)c(F)c5F)c5ccc2[nH]5)C=C4)C=C3)cc1)N1C(=O)/C(=C/c2cn(C)c3ccccc23)SC1=S
REMARK SMILES IDX 11 1 10 2 9 3 8 4 6 5 7 6 5 8 4 9 3 10 2 11 1 12 81 13 82 14
REMARK SMILES IDX 97 15 83 16 84 17 96 18 98 19 85 20 86 21 87 22 95 23 88 24
REMARK SMILES IDX 90 25 94 26 89 27 91 28 93 29 92 30 12 31 13 32 14 33 15 34
REMARK SMILES IDX 16 35 17 37 18 38 19 39 80 40 20 41 79 42 21 43 22 44 23 45
REMARK SMILES IDX 73 46 24 47 78 48 72 49 74 50 25 51 77 52 71 53 70 54 26 56
REMARK SMILES IDX 58 57 38 58 57 59 39 60 42 61 56 62 75 63 40 64 41 65 55 67
REMARK SMILES IDX 76 68 43 69 27 70 28 71 36 72 29 73 30 74 34 75 37 76 31 77
REMARK SMILES IDX 32 78 35 79 33 80 59 81 60 82 68 83 61 84 62 85 66 86 69 87
REMARK SMILES IDX 63 88 64 89 67 90 65 91 44 92 45 93 53 94 46 95 47 96 51 97
REMARK SMILES IDX 54 98 48 99 49 100 52 101 50 102
REMARK H PARENT 8 7 15 36 74 55 42 66
REMARK Flexibility Score: inf
ROOT
ATOM      1  C   UNL A   1      36.992  30.391  29.693  1.00  0.00     0.002 C 
ENDROOT
BRANCH   1   2
ATOM      2  C   UNL A   1      36.351  29.436  28.690  1.00  0.00     0.021 C 
BRANCH   2   3
ATOM      3  C   UNL A   1      35.305  30.083  27.774  1.00  0.00     0.116 C 
BRANCH   3   4
ATOM      4  N   UNL A   1      34.791  29.144  26.804  1.00  0.00    -0.354 N 
ATOM      5  C   UNL A   1      33.711  29.385  26.000  1.00  0.00     0.243 C 
ATOM      6  O   UNL A   1      33.979  29.388  24.787  1.00  0.00    -0.273 OA
ATOM      7  H   UNL A   1      35.248  28.276  26.716  1.00  0.00     0.163 HD
BRANCH   5   8
ATOM      8  C   UNL A   1      32.213  29.103  26.472  1.00  0.00     0.182 C 
BRANCH   8   9
ATOM      9  C   UNL A   1      31.825  30.550  27.076  1.00  0.00     0.046 C 
BRANCH   9  10
ATOM     10  C   UNL A   1      32.498  31.921  26.876  1.00  0.00     0.072 C 
BRANCH  10  11
ATOM     11  S   UNL A   1      33.628  32.772  28.028  1.00  0.00    -0.165 SA
ATOM     12  C   UNL A   1      32.932  34.414  28.245  1.00  0.00     0.085 C 
ENDBRANCH  10  11
ENDBRANCH   9  10
ENDBRANCH   8   9
BRANCH   8  13
ATOM     13  N   UNL A   1      31.149  28.023  25.513  1.00  0.00    -0.280 N 
ATOM     14  C   UNL A   1      31.187  26.963  26.282  1.00  0.00     0.266 C 
ATOM     15  C   UNL A   1      30.044  28.476  23.885  1.00  0.00     0.149 C 
ATOM     16  O   UNL A   1      31.783  26.564  27.247  1.00  0.00    -0.268 OA
ATOM     17  C   UNL A   1      30.791  26.477  25.071  1.00  0.00     0.081 C 
ATOM     18  S   UNL A   1      29.407  27.334  23.189  1.00  0.00    -0.054 SA
ATOM     19  S   UNL A   1      29.573  30.060  22.827  1.00  0.00    -0.052 S 
ATOM     20  C   UNL A   1      31.195  25.099  25.129  1.00  0.00     0.031 C 
BRANCH  20  21
ATOM     21  C   UNL A   1      30.681  24.419  24.016  1.00  0.00     0.001 A 
ATOM     22  C   UNL A   1      31.284  24.417  22.739  1.00  0.00     0.094 A 
ATOM     23  C   UNL A   1      31.219  23.273  24.616  1.00  0.00     0.007 A 
ATOM     24  N   UNL A   1      32.675  24.097  22.771  1.00  0.00    -0.350 N 
ATOM     25  C   UNL A   1      33.010  23.950  24.115  1.00  0.00     0.048 A 
ATOM     26  C   UNL A   1      31.246  22.605  26.487  1.00  0.00     0.011 A 
ATOM     27  C   UNL A   1      33.272  23.231  21.760  1.00  0.00     0.149 C 
ATOM     28  C   UNL A   1      34.423  23.716  25.443  1.00  0.00     0.027 A 
ATOM     29  C   UNL A   1      32.638  22.324  27.854  1.00  0.00     0.001 A 
ATOM     30  C   UNL A   1      34.471  22.949  27.250  1.00  0.00     0.002 A 
ENDBRANCH  20  21
ENDBRANCH   8  13
ENDBRANCH   5   8
ENDBRANCH   3   4
ENDBRANCH   2   3
ENDBRANCH   1   2
BRANCH   1  31
ATOM     31  C   UNL A   1      36.470  31.832  29.721  1.00  0.00     0.002 C 
BRANCH  31  32
ATOM     32  C   UNL A   1      36.110  32.421  31.085  1.00  0.00     0.021 C 
BRANCH  32  33
ATOM     33  C   UNL A   1      35.707  33.891  31.070  1.00  0.00     0.116 C 
BRANCH  33  34
ATOM     34  N   UNL A   1      36.310  34.617  32.179  1.00  0.00    -0.352 N 
ATOM     35  C   UNL A   1      37.546  34.478  32.754  1.00  0.00     0.251 C 
ATOM     36  H   UNL A   1      35.742  35.315  32.576  1.00  0.00     0.163 HD
ATOM     37  O   UNL A   1      37.764  34.956  33.862  1.00  0.00    -0.269 OA
BRANCH  35  38
ATOM     38  C   UNL A   1      38.617  33.757  32.038  1.00  0.00     0.039 A 
ATOM     39  C   UNL A   1      38.942  34.144  30.737  1.00  0.00     0.014 A 
ATOM     40  C   UNL A   1      39.270  32.676  32.635  1.00  0.00     0.014 A 
ATOM     41  C   UNL A   1      39.959  33.478  30.053  1.00  0.00     0.010 A 
ATOM     42  C   UNL A   1      40.342  32.072  31.988  1.00  0.00     0.010 A 
ATOM     43  C   UNL A   1      40.691  32.460  30.687  1.00  0.00    -0.014 A 
BRANCH  43  44
ATOM     44  C   UNL A   1      41.823  31.792  29.998  1.00  0.00     0.031 A 
ATOM     45  C   UNL A   1      43.083  32.555  29.695  1.00  0.00     0.074 A 
ATOM     46  C   UNL A   1      41.696  30.509  29.606  1.00  0.00     0.049 A 
ATOM     47  N   UNL A   1      44.157  32.159  29.060  1.00  0.00    -0.248 NA
ATOM     48  C   UNL A   1      43.137  33.956  30.146  1.00  0.00     0.031 C 
ATOM     49  C   UNL A   1      40.506  29.680  29.809  1.00  0.00     0.029 A 
ATOM     50  N   UNL A   1      42.570  29.679  28.953  1.00  0.00    -0.354 N 
ATOM     51  C   UNL A   1      45.007  33.257  29.034  1.00  0.00     0.074 A 
ATOM     52  C   UNL A   1      44.302  34.354  29.657  1.00  0.00     0.031 C 
ATOM     53  C   UNL A   1      40.737  28.452  29.320  1.00  0.00     0.029 A 
ATOM     54  C   UNL A   1      42.067  28.422  28.719  1.00  0.00     0.049 A 
ATOM     55  H   UNL A   1      43.473  29.957  28.677  1.00  0.00     0.167 HD
ATOM     56  C   UNL A   1      46.272  33.332  28.557  1.00  0.00     0.037 A 
ATOM     57  C   UNL A   1      42.609  27.371  28.077  1.00  0.00     0.037 A 
ATOM     58  C   UNL A   1      46.969  32.232  27.942  1.00  0.00     0.049 A 
ATOM     59  C   UNL A   1      44.000  27.502  27.512  1.00  0.00     0.074 A 
ATOM     60  C   UNL A   1      48.267  32.197  27.461  1.00  0.00     0.029 A 
ATOM     61  N   UNL A   1      46.424  30.978  27.715  1.00  0.00    -0.354 N 
ATOM     62  N   UNL A   1      44.819  28.524  27.553  1.00  0.00    -0.248 NA
ATOM     63  C   UNL A   1      44.543  26.328  26.816  1.00  0.00     0.031 C 
ATOM     64  C   UNL A   1      48.481  30.945  26.878  1.00  0.00     0.029 A 
ATOM     65  C   UNL A   1      47.348  30.171  27.069  1.00  0.00     0.049 A 
ATOM     66  H   UNL A   1      45.515  30.700  27.974  1.00  0.00     0.167 HD
ATOM     67  C   UNL A   1      45.985  28.106  26.924  1.00  0.00     0.074 A 
ATOM     68  C   UNL A   1      45.773  26.729  26.529  1.00  0.00     0.031 C 
ATOM     69  C   UNL A   1      47.128  28.798  26.693  1.00  0.00     0.037 A 
BRANCH  56  70
ATOM     70  C   UNL A   1      46.990  34.647  28.676  1.00  0.00     0.064 A 
ATOM     71  C   UNL A   1      46.909  35.625  27.673  1.00  0.00     0.173 A 
ATOM     72  C   UNL A   1      47.718  34.958  29.835  1.00  0.00     0.173 A 
ATOM     73  F   UNL A   1      46.234  35.378  26.540  1.00  0.00    -0.203 F 
ATOM     74  C   UNL A   1      47.550  36.853  27.814  1.00  0.00     0.198 A 
ATOM     75  C   UNL A   1      48.326  36.201  29.989  1.00  0.00     0.198 A 
ATOM     76  F   UNL A   1      47.823  34.063  30.828  1.00  0.00    -0.203 F 
ATOM     77  F   UNL A   1      47.498  37.753  26.822  1.00  0.00    -0.200 F 
ATOM     78  C   UNL A   1      48.248  37.144  28.976  1.00  0.00     0.200 A 
ATOM     79  F   UNL A   1      48.984  36.487  31.121  1.00  0.00    -0.200 F 
ATOM     80  F   UNL A   1      48.850  38.333  29.119  1.00  0.00    -0.200 F 
ENDBRANCH  56  70
BRANCH  57  81
ATOM     81  C   UNL A   1      41.844  26.104  27.924  1.00  0.00     0.064 A 
ATOM     82  C   UNL A   1      42.187  24.956  28.651  1.00  0.00     0.173 A 
ATOM     83  C   UNL A   1      40.778  26.001  27.015  1.00  0.00     0.173 A 
ATOM     84  F   UNL A   1      43.208  24.995  29.521  1.00  0.00    -0.203 F 
ATOM     85  C   UNL A   1      41.527  23.745  28.444  1.00  0.00     0.198 A 
ATOM     86  C   UNL A   1      40.092  24.802  26.840  1.00  0.00     0.198 A 
ATOM     87  F   UNL A   1      40.401  27.070  26.297  1.00  0.00    -0.203 F 
ATOM     88  F   UNL A   1      41.928  22.647  29.097  1.00  0.00    -0.200 F 
ATOM     89  C   UNL A   1      40.477  23.671  27.542  1.00  0.00     0.200 A 
ATOM     90  F   UNL A   1      39.065  24.741  25.982  1.00  0.00    -0.200 F 
ATOM     91  F   UNL A   1      39.847  22.507  27.338  1.00  0.00    -0.200 F 
ENDBRANCH  57  81
BRANCH  69  92
ATOM     92  C   UNL A   1      48.258  28.065  26.026  1.00  0.00     0.064 A 
ATOM     93  C   UNL A   1      49.371  27.603  26.743  1.00  0.00     0.173 A 
ATOM     94  C   UNL A   1      48.208  27.791  24.648  1.00  0.00     0.173 A 
ATOM     95  F   UNL A   1      49.477  27.847  28.058  1.00  0.00    -0.203 F 
ATOM     96  C   UNL A   1      50.407  26.928  26.102  1.00  0.00     0.198 A 
ATOM     97  C   UNL A   1      49.223  27.078  24.020  1.00  0.00     0.198 A 
ATOM     98  F   UNL A   1      47.162  28.200  23.915  1.00  0.00    -0.203 F 
ATOM     99  F   UNL A   1      51.490  26.553  26.796  1.00  0.00    -0.200 F 
ATOM    100  C   UNL A   1      50.328  26.658  24.744  1.00  0.00     0.200 A 
ATOM    101  F   UNL A   1      49.133  26.799  22.713  1.00  0.00    -0.200 F 
ATOM    102  F   UNL A   1      51.321  25.998  24.131  1.00  0.00    -0.200 F 
ENDBRANCH  69  92
ENDBRANCH  43  44
ENDBRANCH  35  38
ENDBRANCH  33  34
ENDBRANCH  32  33
ENDBRANCH  31  32
ENDBRANCH   1  31
TORSDOF 18
ENDMDL
