MODEL 1
REMARK VINA RESULT:     -11.3      0.000      0.000
REMARK SMILES CC[C@H](C)CN(CC)C(=O)Nc1ccc(C(=O)NCCCCCCNC(=O)c2ccc(-c3c4nc(c(-c5c(F)c(F)c(F)c(F)c5F)c5ccc([nH]5)c(-c5c(F)c(F)c(F)c(F)c5F)c5nc(c(-c6c(F)c(F)c(F)c(F)c6F)c6ccc3[nH]6)C=C5)C=C4)cc2)cc1Cl
REMARK SMILES IDX 20 1 19 2 18 3 16 4 17 5 15 7 12 8 13 9 92 10 14 11 91 12
REMARK SMILES IDX 93 13 11 14 9 15 10 16 6 18 5 19 3 20 4 21 2 22 1 23 7 24
REMARK SMILES IDX 8 25 21 26 22 27 23 28 24 29 25 30 26 31 27 33 28 34 29 35
REMARK SMILES IDX 90 36 30 37 89 38 31 39 32 40 33 41 83 42 34 43 88 44 82 45
REMARK SMILES IDX 84 46 35 47 87 48 81 49 80 50 36 52 68 53 48 54 67 55 49 56
REMARK SMILES IDX 52 57 66 58 85 59 50 60 51 61 65 63 86 64 53 65 37 66 38 67
REMARK SMILES IDX 46 68 39 69 40 70 44 71 47 72 41 73 42 74 45 75 43 76 69 77
REMARK SMILES IDX 70 78 78 79 71 80 72 81 76 82 79 83 73 84 74 85 77 86 75 87
REMARK SMILES IDX 54 88 55 89 63 90 56 91 57 92 61 93 64 94 58 95 59 96 62 97
REMARK SMILES IDX 60 98
REMARK H PARENT 18 6 11 17 25 32 84 51 52 62
REMARK Flexibility Score: inf
ROOT
ATOM      1  C   UNL A   1      34.649  30.965  28.160  1.00  0.00     0.021 C 
ENDROOT
BRANCH   1   2
ATOM      2  C   UNL A   1      33.712  30.535  27.030  1.00  0.00     0.116 C 
BRANCH   2   3
ATOM      3  N   UNL A   1      32.648  29.689  27.551  1.00  0.00    -0.352 N 
ATOM      4  C   UNL A   1      32.143  28.490  27.119  1.00  0.00     0.251 C 
ATOM      5  O   UNL A   1      31.250  27.946  27.763  1.00  0.00    -0.269 OA
ATOM      6  H   UNL A   1      32.211  30.044  28.359  1.00  0.00     0.163 HD
BRANCH   4   7
ATOM      7  C   UNL A   1      32.732  27.786  25.958  1.00  0.00     0.041 A 
ATOM      8  C   UNL A   1      33.380  26.233  23.745  1.00  0.00     0.061 A 
ATOM      9  C   UNL A   1      32.638  27.404  23.571  1.00  0.00     0.028 A 
ATOM     10  C   UNL A   1      33.972  25.963  24.986  1.00  0.00     0.065 A 
ATOM     11  C   UNL A   1      32.287  28.163  24.685  1.00  0.00     0.016 A 
ATOM     12  C   UNL A   1      33.666  26.758  26.089  1.00  0.00     0.036 A 
ATOM     13  Cl  UNL A   1      35.141  24.707  25.195  1.00  0.00    -0.082 Cl
BRANCH   8  14
ATOM     14  N   UNL A   1      33.450  25.372  22.646  1.00  0.00    -0.306 N 
ATOM     15  C   UNL A   1      33.208  24.034  22.552  1.00  0.00     0.321 C 
ATOM     16  O   UNL A   1      33.922  23.402  21.767  1.00  0.00    -0.248 OA
ATOM     17  H   UNL A   1      33.717  25.802  21.803  1.00  0.00     0.171 HD
BRANCH  15  18
ATOM     18  N   UNL A   1      32.077  23.476  23.135  1.00  0.00    -0.325 N 
BRANCH  18  19
ATOM     19  C   UNL A   1      32.166  22.060  23.540  1.00  0.00     0.124 C 
BRANCH  19  20
ATOM     20  C   UNL A   1      33.159  21.806  24.714  1.00  0.00     0.005 C 
ATOM     21  C   UNL A   1      32.515  22.125  26.069  1.00  0.00     0.009 C 
BRANCH  20  22
ATOM     22  C   UNL A   1      33.674  20.351  24.648  1.00  0.00     0.002 C 
ATOM     23  C   UNL A   1      32.646  19.333  24.163  1.00  0.00     0.004 C 
ENDBRANCH  20  22
ENDBRANCH  19  20
ENDBRANCH  18  19
BRANCH  18  24
ATOM     24  C   UNL A   1      30.748  24.077  23.304  1.00  0.00     0.118 C 
ATOM     25  C   UNL A   1      30.513  24.562  24.733  1.00  0.00     0.027 C 
ENDBRANCH  18  24
ENDBRANCH  15  18
ENDBRANCH   8  14
ENDBRANCH   4   7
ENDBRANCH   2   3
ENDBRANCH   1   2
BRANCH   1  26
ATOM     26  C   UNL A   1      35.088  32.432  28.060  1.00  0.00     0.002 C 
BRANCH  26  27
ATOM     27  C   UNL A   1      34.159  33.432  28.756  1.00  0.00     0.002 C 
BRANCH  27  28
ATOM     28  C   UNL A   1      34.491  33.711  30.223  1.00  0.00     0.021 C 
BRANCH  28  29
ATOM     29  C   UNL A   1      34.644  32.464  31.088  1.00  0.00     0.116 C 
BRANCH  29  30
ATOM     30  N   UNL A   1      35.080  32.786  32.439  1.00  0.00    -0.352 N 
ATOM     31  C   UNL A   1      36.250  32.464  33.075  1.00  0.00     0.251 C 
ATOM     32  H   UNL A   1      34.441  33.311  32.973  1.00  0.00     0.163 HD
ATOM     33  O   UNL A   1      36.365  32.649  34.287  1.00  0.00    -0.269 OA
BRANCH  31  34
ATOM     34  C   UNL A   1      37.373  31.875  32.315  1.00  0.00     0.039 A 
ATOM     35  C   UNL A   1      37.479  32.143  30.948  1.00  0.00     0.014 A 
ATOM     36  C   UNL A   1      38.312  31.049  32.942  1.00  0.00     0.014 A 
ATOM     37  C   UNL A   1      38.557  31.632  30.222  1.00  0.00     0.010 A 
ATOM     38  C   UNL A   1      39.425  30.603  32.234  1.00  0.00     0.010 A 
ATOM     39  C   UNL A   1      39.558  30.887  30.866  1.00  0.00    -0.014 A 
BRANCH  39  40
ATOM     40  C   UNL A   1      40.751  30.404  30.125  1.00  0.00     0.031 A 
ATOM     41  C   UNL A   1      41.882  31.345  29.808  1.00  0.00     0.074 A 
ATOM     42  C   UNL A   1      40.789  29.131  29.681  1.00  0.00     0.049 A 
ATOM     43  N   UNL A   1      42.971  31.127  29.116  1.00  0.00    -0.248 NA
ATOM     44  C   UNL A   1      41.761  32.722  30.315  1.00  0.00     0.031 C 
ATOM     45  C   UNL A   1      39.734  28.136  29.879  1.00  0.00     0.029 A 
ATOM     46  N   UNL A   1      41.744  28.460  28.959  1.00  0.00    -0.354 N 
ATOM     47  C   UNL A   1      43.652  32.337  29.089  1.00  0.00     0.074 A 
ATOM     48  C   UNL A   1      42.835  33.299  29.796  1.00  0.00     0.031 C 
ATOM     49  C   UNL A   1      40.105  26.979  29.307  1.00  0.00     0.029 A 
ATOM     50  C   UNL A   1      41.404  27.161  28.665  1.00  0.00     0.049 A 
ATOM     51  H   UNL A   1      42.595  28.870  28.678  1.00  0.00     0.167 HD
ATOM     52  C   UNL A   1      44.859  32.614  28.541  1.00  0.00     0.037 A 
ATOM     53  C   UNL A   1      42.057  26.227  27.947  1.00  0.00     0.037 A 
ATOM     54  C   UNL A   1      45.684  31.645  27.868  1.00  0.00     0.049 A 
ATOM     55  C   UNL A   1      43.399  26.565  27.353  1.00  0.00     0.074 A 
ATOM     56  C   UNL A   1      46.958  31.811  27.351  1.00  0.00     0.029 A 
ATOM     57  N   UNL A   1      45.318  30.332  27.615  1.00  0.00    -0.354 N 
ATOM     58  N   UNL A   1      44.071  27.690  27.410  1.00  0.00    -0.248 NA
ATOM     59  C   UNL A   1      44.079  25.502  26.601  1.00  0.00     0.031 C 
ATOM     60  C   UNL A   1      47.337  30.617  26.731  1.00  0.00     0.029 A 
ATOM     61  C   UNL A   1      46.329  29.686  26.921  1.00  0.00     0.049 A 
ATOM     62  H   UNL A   1      44.466  29.921  27.888  1.00  0.00     0.167 HD
ATOM     63  C   UNL A   1      45.262  27.458  26.733  1.00  0.00     0.074 A 
ATOM     64  C   UNL A   1      45.228  26.082  26.290  1.00  0.00     0.031 C 
ATOM     65  C   UNL A   1      46.288  28.311  26.498  1.00  0.00     0.037 A 
BRANCH  52  66
ATOM     66  C   UNL A   1      45.374  34.021  28.641  1.00  0.00     0.064 A 
ATOM     67  C   UNL A   1      46.192  34.433  29.705  1.00  0.00     0.173 A 
ATOM     68  C   UNL A   1      45.114  34.946  27.618  1.00  0.00     0.173 A 
ATOM     69  F   UNL A   1      46.464  33.591  30.713  1.00  0.00    -0.203 F 
ATOM     70  C   UNL A   1      46.716  35.723  29.747  1.00  0.00     0.198 A 
ATOM     71  C   UNL A   1      45.664  36.224  27.648  1.00  0.00     0.198 A 
ATOM     72  F   UNL A   1      44.343  34.600  26.575  1.00  0.00    -0.203 F 
ATOM     73  F   UNL A   1      47.467  36.105  30.789  1.00  0.00    -0.200 F 
ATOM     74  C   UNL A   1      46.462  36.613  28.714  1.00  0.00     0.200 A 
ATOM     75  F   UNL A   1      45.430  37.076  26.641  1.00  0.00    -0.200 F 
ATOM     76  F   UNL A   1      46.984  37.846  28.747  1.00  0.00    -0.200 F 
ENDBRANCH  52  66
BRANCH  53  77
ATOM     77  C   UNL A   1      41.456  24.881  27.743  1.00  0.00     0.064 A 
ATOM     78  C   UNL A   1      41.987  23.747  28.374  1.00  0.00     0.173 A 
ATOM     79  C   UNL A   1      40.364  24.695  26.882  1.00  0.00     0.173 A 
ATOM     80  F   UNL A   1      43.043  23.869  29.191  1.00  0.00    -0.203 F 
ATOM     81  C   UNL A   1      41.473  22.476  28.125  1.00  0.00     0.198 A 
ATOM     82  C   UNL A   1      39.828  23.428  26.662  1.00  0.00     0.198 A 
ATOM     83  F   UNL A   1      39.812  25.745  26.258  1.00  0.00    -0.203 F 
ATOM     84  F   UNL A   1      42.043  21.403  28.691  1.00  0.00    -0.200 F 
ATOM     85  C   UNL A   1      40.392  22.318  27.271  1.00  0.00     0.200 A 
ATOM     86  F   UNL A   1      38.772  23.281  25.850  1.00  0.00    -0.200 F 
ATOM     87  F   UNL A   1      39.900  21.094  27.029  1.00  0.00    -0.200 F 
ENDBRANCH  53  77
BRANCH  65  88
ATOM     88  C   UNL A   1      47.483  27.769  25.765  1.00  0.00     0.064 A 
ATOM     89  C   UNL A   1      48.592  27.246  26.446  1.00  0.00     0.173 A 
ATOM     90  C   UNL A   1      47.499  27.741  24.362  1.00  0.00     0.173 A 
ATOM     91  F   UNL A   1      48.632  27.263  27.786  1.00  0.00    -0.203 F 
ATOM     92  C   UNL A   1      49.685  26.739  25.747  1.00  0.00     0.198 A 
ATOM     93  C   UNL A   1      48.579  27.201  23.668  1.00  0.00     0.198 A 
ATOM     94  F   UNL A   1      46.461  28.221  23.663  1.00  0.00    -0.203 F 
ATOM     95  F   UNL A   1      50.757  26.294  26.417  1.00  0.00    -0.200 F 
ATOM     96  C   UNL A   1      49.674  26.710  24.360  1.00  0.00     0.200 A 
ATOM     97  F   UNL A   1      48.558  27.157  22.329  1.00  0.00    -0.200 F 
ATOM     98  F   UNL A   1      50.724  26.214  23.691  1.00  0.00    -0.200 F 
ENDBRANCH  65  88
ENDBRANCH  39  40
ENDBRANCH  31  34
ENDBRANCH  29  30
ENDBRANCH  28  29
ENDBRANCH  27  28
ENDBRANCH  26  27
ENDBRANCH   1  26
TORSDOF 19
ENDMDL
MODEL 2
REMARK VINA RESULT:     -11.2      3.232      8.903
REMARK SMILES CC[C@H](C)CN(CC)C(=O)Nc1ccc(C(=O)NCCCCCCNC(=O)c2ccc(-c3c4nc(c(-c5c(F)c(F)c(F)c(F)c5F)c5ccc([nH]5)c(-c5c(F)c(F)c(F)c(F)c5F)c5nc(c(-c6c(F)c(F)c(F)c(F)c6F)c6ccc3[nH]6)C=C5)C=C4)cc2)cc1Cl
REMARK SMILES IDX 20 1 19 2 18 3 16 4 17 5 15 7 12 8 13 9 92 10 14 11 91 12
REMARK SMILES IDX 93 13 11 14 9 15 10 16 6 18 5 19 3 20 4 21 2 22 1 23 7 24
REMARK SMILES IDX 8 25 21 26 22 27 23 28 24 29 25 30 26 31 27 33 28 34 29 35
REMARK SMILES IDX 90 36 30 37 89 38 31 39 32 40 33 41 83 42 34 43 88 44 82 45
REMARK SMILES IDX 84 46 35 47 87 48 81 49 80 50 36 52 68 53 48 54 67 55 49 56
REMARK SMILES IDX 52 57 66 58 85 59 50 60 51 61 65 63 86 64 53 65 37 66 38 67
REMARK SMILES IDX 46 68 39 69 40 70 44 71 47 72 41 73 42 74 45 75 43 76 69 77
REMARK SMILES IDX 70 78 78 79 71 80 72 81 76 82 79 83 73 84 74 85 77 86 75 87
REMARK SMILES IDX 54 88 55 89 63 90 56 91 57 92 61 93 64 94 58 95 59 96 62 97
REMARK SMILES IDX 60 98
REMARK H PARENT 18 6 11 17 25 32 84 51 52 62
REMARK Flexibility Score: inf
ROOT
ATOM      1  C   UNL A   1      39.826  23.072  27.028  1.00  0.00     0.021 C 
ENDROOT
BRANCH   1   2
ATOM      2  C   UNL A   1      38.522  23.195  26.239  1.00  0.00     0.116 C 
BRANCH   2   3
ATOM      3  N   UNL A   1      38.085  21.886  25.778  1.00  0.00    -0.352 N 
ATOM      4  C   UNL A   1      36.858  21.424  25.375  1.00  0.00     0.251 C 
ATOM      5  O   UNL A   1      36.750  20.263  24.988  1.00  0.00    -0.269 OA
ATOM      6  H   UNL A   1      38.800  21.210  25.750  1.00  0.00     0.163 HD
BRANCH   4   7
ATOM      7  C   UNL A   1      35.690  22.329  25.293  1.00  0.00     0.041 A 
ATOM      8  C   UNL A   1      33.228  23.621  25.299  1.00  0.00     0.061 A 
ATOM      9  C   UNL A   1      33.922  23.457  26.500  1.00  0.00     0.028 A 
ATOM     10  C   UNL A   1      33.864  23.333  24.083  1.00  0.00     0.065 A 
ATOM     11  C   UNL A   1      35.141  22.780  26.499  1.00  0.00     0.016 A 
ATOM     12  C   UNL A   1      35.110  22.708  24.082  1.00  0.00     0.036 A 
ATOM     13  Cl  UNL A   1      33.188  23.791  22.560  1.00  0.00    -0.082 Cl
BRANCH   8  14
ATOM     14  N   UNL A   1      31.898  24.038  25.401  1.00  0.00    -0.306 N 
ATOM     15  C   UNL A   1      31.364  25.175  25.930  1.00  0.00     0.321 C 
ATOM     16  O   UNL A   1      30.276  25.055  26.501  1.00  0.00    -0.248 OA
ATOM     17  H   UNL A   1      31.239  23.408  25.032  1.00  0.00     0.171 HD
BRANCH  15  18
ATOM     18  N   UNL A   1      31.911  26.418  25.635  1.00  0.00    -0.325 N 
BRANCH  18  19
ATOM     19  C   UNL A   1      31.740  26.911  24.256  1.00  0.00     0.124 C 
BRANCH  19  20
ATOM     20  C   UNL A   1      30.519  27.866  24.079  1.00  0.00     0.005 C 
ATOM     21  C   UNL A   1      30.889  29.095  23.240  1.00  0.00     0.009 C 
BRANCH  20  22
ATOM     22  C   UNL A   1      29.336  27.082  23.467  1.00  0.00     0.002 C 
ATOM     23  C   UNL A   1      28.000  27.819  23.501  1.00  0.00     0.004 C 
ENDBRANCH  20  22
ENDBRANCH  19  20
ENDBRANCH  18  19
BRANCH  18  24
ATOM     24  C   UNL A   1      32.747  27.272  26.490  1.00  0.00     0.118 C 
ATOM     25  C   UNL A   1      31.936  27.952  27.591  1.00  0.00     0.027 C 
ENDBRANCH  18  24
ENDBRANCH  15  18
ENDBRANCH   8  14
ENDBRANCH   4   7
ENDBRANCH   2   3
ENDBRANCH   1   2
BRANCH   1  26
ATOM     26  C   UNL A   1      40.737  21.945  26.526  1.00  0.00     0.002 C 
BRANCH  26  27
ATOM     27  C   UNL A   1      41.450  21.152  27.627  1.00  0.00     0.002 C 
BRANCH  27  28
ATOM     28  C   UNL A   1      42.114  19.854  27.164  1.00  0.00     0.021 C 
BRANCH  28  29
ATOM     29  C   UNL A   1      41.888  19.516  25.693  1.00  0.00     0.116 C 
BRANCH  29  30
ATOM     30  N   UNL A   1      43.063  18.907  25.086  1.00  0.00    -0.352 N 
ATOM     31  C   UNL A   1      44.229  19.493  24.669  1.00  0.00     0.251 C 
ATOM     32  H   UNL A   1      43.012  17.932  24.956  1.00  0.00     0.163 HD
ATOM     33  O   UNL A   1      45.035  18.851  23.994  1.00  0.00    -0.269 OA
BRANCH  31  34
ATOM     34  C   UNL A   1      44.517  20.903  25.008  1.00  0.00     0.039 A 
ATOM     35  C   UNL A   1      44.077  21.909  24.146  1.00  0.00     0.014 A 
ATOM     36  C   UNL A   1      45.230  21.233  26.164  1.00  0.00     0.014 A 
ATOM     37  C   UNL A   1      44.300  23.249  24.471  1.00  0.00     0.010 A 
ATOM     38  C   UNL A   1      45.386  22.570  26.525  1.00  0.00     0.010 A 
ATOM     39  C   UNL A   1      44.926  23.592  25.681  1.00  0.00    -0.014 A 
BRANCH  39  40
ATOM     40  C   UNL A   1      45.100  25.012  26.079  1.00  0.00     0.031 A 
ATOM     41  C   UNL A   1      46.454  25.663  26.000  1.00  0.00     0.074 A 
ATOM     42  C   UNL A   1      44.049  25.698  26.572  1.00  0.00     0.049 A 
ATOM     43  N   UNL A   1      46.816  26.867  26.365  1.00  0.00    -0.248 NA
ATOM     44  C   UNL A   1      47.554  24.845  25.464  1.00  0.00     0.031 C 
ATOM     45  C   UNL A   1      42.697  25.164  26.746  1.00  0.00     0.029 A 
ATOM     46  N   UNL A   1      43.955  26.989  27.032  1.00  0.00    -0.354 N 
ATOM     47  C   UNL A   1      48.182  26.943  26.121  1.00  0.00     0.074 A 
ATOM     48  C   UNL A   1      48.594  25.651  25.617  1.00  0.00     0.031 C 
ATOM     49  C   UNL A   1      41.907  26.121  27.260  1.00  0.00     0.029 A 
ATOM     50  C   UNL A   1      42.703  27.322  27.491  1.00  0.00     0.049 A 
ATOM     51  H   UNL A   1      44.713  27.617  27.032  1.00  0.00     0.167 HD
ATOM     52  C   UNL A   1      49.010  28.002  26.283  1.00  0.00     0.037 A 
ATOM     53  C   UNL A   1      42.252  28.462  28.050  1.00  0.00     0.037 A 
ATOM     54  C   UNL A   1      48.588  29.296  26.751  1.00  0.00     0.049 A 
ATOM     55  C   UNL A   1      43.198  29.622  28.213  1.00  0.00     0.074 A 
ATOM     56  C   UNL A   1      49.337  30.454  26.872  1.00  0.00     0.029 A 
ATOM     57  N   UNL A   1      47.305  29.603  27.180  1.00  0.00    -0.354 N 
ATOM     58  N   UNL A   1      44.467  29.708  27.897  1.00  0.00    -0.248 NA
ATOM     59  C   UNL A   1      42.646  30.849  28.805  1.00  0.00     0.031 C 
ATOM     60  C   UNL A   1      48.525  31.445  27.430  1.00  0.00     0.029 A 
ATOM     61  C   UNL A   1      47.251  30.924  27.595  1.00  0.00     0.049 A 
ATOM     62  H   UNL A   1      46.547  28.976  27.187  1.00  0.00     0.167 HD
ATOM     63  C   UNL A   1      44.855  31.002  28.218  1.00  0.00     0.074 A 
ATOM     64  C   UNL A   1      43.682  31.672  28.737  1.00  0.00     0.031 C 
ATOM     65  C   UNL A   1      46.074  31.582  28.097  1.00  0.00     0.037 A 
BRANCH  52  66
ATOM     66  C   UNL A   1      50.463  27.819  25.952  1.00  0.00     0.064 A 
ATOM     67  C   UNL A   1      51.414  27.524  26.940  1.00  0.00     0.173 A 
ATOM     68  C   UNL A   1      50.896  27.858  24.617  1.00  0.00     0.173 A 
ATOM     69  F   UNL A   1      51.054  27.484  28.232  1.00  0.00    -0.203 F 
ATOM     70  C   UNL A   1      52.746  27.291  26.606  1.00  0.00     0.198 A 
ATOM     71  C   UNL A   1      52.221  27.595  24.284  1.00  0.00     0.198 A 
ATOM     72  F   UNL A   1      50.025  28.129  23.632  1.00  0.00    -0.203 F 
ATOM     73  F   UNL A   1      53.643  27.045  27.571  1.00  0.00    -0.200 F 
ATOM     74  C   UNL A   1      53.146  27.315  25.279  1.00  0.00     0.200 A 
ATOM     75  F   UNL A   1      52.602  27.602  22.999  1.00  0.00    -0.200 F 
ATOM     76  F   UNL A   1      54.424  27.070  24.958  1.00  0.00    -0.200 F 
ENDBRANCH  52  66
BRANCH  53  77
ATOM     77  C   UNL A   1      40.838  28.568  28.501  1.00  0.00     0.064 A 
ATOM     78  C   UNL A   1      39.831  29.011  27.630  1.00  0.00     0.173 A 
ATOM     79  C   UNL A   1      40.471  28.267  29.820  1.00  0.00     0.173 A 
ATOM     80  F   UNL A   1      40.134  29.330  26.364  1.00  0.00    -0.203 F 
ATOM     81  C   UNL A   1      38.521  29.183  28.072  1.00  0.00     0.198 A 
ATOM     82  C   UNL A   1      39.153  28.405  30.251  1.00  0.00     0.198 A 
ATOM     83  F   UNL A   1      41.391  27.832  30.693  1.00  0.00    -0.203 F 
ATOM     84  F   UNL A   1      37.594  29.671  27.237  1.00  0.00    -0.200 F 
ATOM     85  C   UNL A   1      38.182  28.877  29.381  1.00  0.00     0.200 A 
ATOM     86  F   UNL A   1      38.826  28.091  31.512  1.00  0.00    -0.200 F 
ATOM     87  F   UNL A   1      36.922  29.046  29.807  1.00  0.00    -0.200 F 
ENDBRANCH  53  77
BRANCH  65  88
ATOM     88  C   UNL A   1      46.194  33.028  28.490  1.00  0.00     0.064 A 
ATOM     89  C   UNL A   1      45.988  34.064  27.568  1.00  0.00     0.173 A 
ATOM     90  C   UNL A   1      46.482  33.378  29.819  1.00  0.00     0.173 A 
ATOM     91  F   UNL A   1      45.725  33.783  26.283  1.00  0.00    -0.203 F 
ATOM     92  C   UNL A   1      46.095  35.398  27.955  1.00  0.00     0.198 A 
ATOM     93  C   UNL A   1      46.552  34.712  30.210  1.00  0.00     0.198 A 
ATOM     94  F   UNL A   1      46.679  32.426  30.742  1.00  0.00    -0.203 F 
ATOM     95  F   UNL A   1      45.949  36.370  27.045  1.00  0.00    -0.200 F 
ATOM     96  C   UNL A   1      46.368  35.720  29.277  1.00  0.00     0.200 A 
ATOM     97  F   UNL A   1      46.799  35.021  31.490  1.00  0.00    -0.200 F 
ATOM     98  F   UNL A   1      46.461  37.004  29.648  1.00  0.00    -0.200 F 
ENDBRANCH  65  88
ENDBRANCH  39  40
ENDBRANCH  31  34
ENDBRANCH  29  30
ENDBRANCH  28  29
ENDBRANCH  27  28
ENDBRANCH  26  27
ENDBRANCH   1  26
TORSDOF 19
ENDMDL
MODEL 3
REMARK VINA RESULT:     -11.1      3.323      8.867
REMARK SMILES CC[C@H](C)CN(CC)C(=O)Nc1ccc(C(=O)NCCCCCCNC(=O)c2ccc(-c3c4nc(c(-c5c(F)c(F)c(F)c(F)c5F)c5ccc([nH]5)c(-c5c(F)c(F)c(F)c(F)c5F)c5nc(c(-c6c(F)c(F)c(F)c(F)c6F)c6ccc3[nH]6)C=C5)C=C4)cc2)cc1Cl
REMARK SMILES IDX 20 1 19 2 18 3 16 4 17 5 15 7 12 8 13 9 92 10 14 11 91 12
REMARK SMILES IDX 93 13 11 14 9 15 10 16 6 18 5 19 3 20 4 21 2 22 1 23 7 24
REMARK SMILES IDX 8 25 21 26 22 27 23 28 24 29 25 30 26 31 27 33 28 34 29 35
REMARK SMILES IDX 90 36 30 37 89 38 31 39 32 40 33 41 83 42 34 43 88 44 82 45
REMARK SMILES IDX 84 46 35 47 87 48 81 49 80 50 36 52 68 53 48 54 67 55 49 56
REMARK SMILES IDX 52 57 66 58 85 59 50 60 51 61 65 63 86 64 53 65 37 66 38 67
REMARK SMILES IDX 46 68 39 69 40 70 44 71 47 72 41 73 42 74 45 75 43 76 69 77
REMARK SMILES IDX 70 78 78 79 71 80 72 81 76 82 79 83 73 84 74 85 77 86 75 87
REMARK SMILES IDX 54 88 55 89 63 90 56 91 57 92 61 93 64 94 58 95 59 96 62 97
REMARK SMILES IDX 60 98
REMARK H PARENT 18 6 11 17 25 32 84 51 52 62
REMARK Flexibility Score: inf
ROOT
ATOM      1  C   UNL A   1      39.866  22.701  26.047  1.00  0.00     0.021 C 
ENDROOT
BRANCH   1   2
ATOM      2  C   UNL A   1      38.354  22.484  25.982  1.00  0.00     0.116 C 
BRANCH   2   3
ATOM      3  N   UNL A   1      38.056  21.135  25.523  1.00  0.00    -0.352 N 
ATOM      4  C   UNL A   1      36.871  20.515  25.223  1.00  0.00     0.251 C 
ATOM      5  O   UNL A   1      36.884  19.358  24.812  1.00  0.00    -0.269 OA
ATOM      6  H   UNL A   1      38.851  20.565  25.407  1.00  0.00     0.163 HD
BRANCH   4   7
ATOM      7  C   UNL A   1      35.588  21.251  25.279  1.00  0.00     0.041 A 
ATOM      8  C   UNL A   1      33.011  22.227  25.649  1.00  0.00     0.061 A 
ATOM      9  C   UNL A   1      33.944  22.338  26.683  1.00  0.00     0.028 A 
ATOM     10  C   UNL A   1      33.431  21.829  24.373  1.00  0.00     0.065 A 
ATOM     11  C   UNL A   1      35.225  21.819  26.506  1.00  0.00     0.016 A 
ATOM     12  C   UNL A   1      34.731  21.363  24.183  1.00  0.00     0.036 A 
ATOM     13  Cl  UNL A   1      32.409  21.959  22.985  1.00  0.00    -0.082 Cl
BRANCH   8  14
ATOM     14  N   UNL A   1      31.680  22.495  25.982  1.00  0.00    -0.306 N 
ATOM     15  C   UNL A   1      31.094  23.637  26.439  1.00  0.00     0.321 C 
ATOM     16  O   UNL A   1      30.174  23.494  27.250  1.00  0.00    -0.248 OA
ATOM     17  H   UNL A   1      31.066  21.735  25.867  1.00  0.00     0.171 HD
BRANCH  15  18
ATOM     18  N   UNL A   1      31.371  24.863  25.847  1.00  0.00    -0.325 N 
BRANCH  18  19
ATOM     19  C   UNL A   1      32.400  25.698  26.493  1.00  0.00     0.124 C 
BRANCH  19  20
ATOM     20  C   UNL A   1      33.311  26.462  25.484  1.00  0.00     0.005 C 
ATOM     21  C   UNL A   1      34.029  27.637  26.158  1.00  0.00     0.009 C 
BRANCH  20  22
ATOM     22  C   UNL A   1      34.305  25.473  24.835  1.00  0.00     0.002 C 
ATOM     23  C   UNL A   1      34.043  25.182  23.361  1.00  0.00     0.004 C 
ENDBRANCH  20  22
ENDBRANCH  19  20
ENDBRANCH  18  19
BRANCH  18  24
ATOM     24  C   UNL A   1      30.690  25.501  24.712  1.00  0.00     0.118 C 
ATOM     25  C   UNL A   1      30.279  24.489  23.645  1.00  0.00     0.027 C 
ENDBRANCH  18  24
ENDBRANCH  15  18
ENDBRANCH   8  14
ENDBRANCH   4   7
ENDBRANCH   2   3
ENDBRANCH   1   2
BRANCH   1  26
ATOM     26  C   UNL A   1      40.506  22.143  27.325  1.00  0.00     0.002 C 
BRANCH  26  27
ATOM     27  C   UNL A   1      40.774  20.634  27.307  1.00  0.00     0.002 C 
BRANCH  27  28
ATOM     28  C   UNL A   1      41.619  20.141  26.131  1.00  0.00     0.021 C 
BRANCH  28  29
ATOM     29  C   UNL A   1      42.663  19.089  26.496  1.00  0.00     0.116 C 
BRANCH  29  30
ATOM     30  N   UNL A   1      43.474  18.704  25.350  1.00  0.00    -0.352 N 
ATOM     31  C   UNL A   1      44.260  19.480  24.540  1.00  0.00     0.251 C 
ATOM     32  H   UNL A   1      43.456  17.746  25.125  1.00  0.00     0.163 HD
ATOM     33  O   UNL A   1      44.717  19.016  23.495  1.00  0.00    -0.269 OA
BRANCH  31  34
ATOM     34  C   UNL A   1      44.546  20.884  24.903  1.00  0.00     0.039 A 
ATOM     35  C   UNL A   1      44.202  21.898  24.006  1.00  0.00     0.014 A 
ATOM     36  C   UNL A   1      45.163  21.202  26.117  1.00  0.00     0.014 A 
ATOM     37  C   UNL A   1      44.423  23.234  24.350  1.00  0.00     0.010 A 
ATOM     38  C   UNL A   1      45.314  22.536  26.490  1.00  0.00     0.010 A 
ATOM     39  C   UNL A   1      44.949  23.566  25.609  1.00  0.00    -0.014 A 
BRANCH  39  40
ATOM     40  C   UNL A   1      45.116  24.983  26.022  1.00  0.00     0.031 A 
ATOM     41  C   UNL A   1      46.469  25.639  25.953  1.00  0.00     0.074 A 
ATOM     42  C   UNL A   1      44.062  25.660  26.518  1.00  0.00     0.049 A 
ATOM     43  N   UNL A   1      46.825  26.841  26.330  1.00  0.00    -0.248 NA
ATOM     44  C   UNL A   1      47.573  24.831  25.412  1.00  0.00     0.031 C 
ATOM     45  C   UNL A   1      42.712  25.119  26.684  1.00  0.00     0.029 A 
ATOM     46  N   UNL A   1      43.962  26.946  26.990  1.00  0.00    -0.354 N 
ATOM     47  C   UNL A   1      48.191  26.925  26.091  1.00  0.00     0.074 A 
ATOM     48  C   UNL A   1      48.610  25.639  25.576  1.00  0.00     0.031 C 
ATOM     49  C   UNL A   1      41.917  26.068  27.204  1.00  0.00     0.029 A 
ATOM     50  C   UNL A   1      42.707  27.270  27.449  1.00  0.00     0.049 A 
ATOM     51  H   UNL A   1      44.718  27.577  26.998  1.00  0.00     0.167 HD
ATOM     52  C   UNL A   1      49.015  27.985  26.265  1.00  0.00     0.037 A 
ATOM     53  C   UNL A   1      42.251  28.403  28.017  1.00  0.00     0.037 A 
ATOM     54  C   UNL A   1      48.586  29.273  26.745  1.00  0.00     0.049 A 
ATOM     55  C   UNL A   1      43.191  29.565  28.195  1.00  0.00     0.074 A 
ATOM     56  C   UNL A   1      49.331  30.433  26.878  1.00  0.00     0.029 A 
ATOM     57  N   UNL A   1      47.301  29.572  27.173  1.00  0.00    -0.354 N 
ATOM     58  N   UNL A   1      44.461  29.658  27.883  1.00  0.00    -0.248 NA
ATOM     59  C   UNL A   1      42.633  30.784  28.796  1.00  0.00     0.031 C 
ATOM     60  C   UNL A   1      48.513  31.415  27.444  1.00  0.00     0.029 A 
ATOM     61  C   UNL A   1      47.242  30.888  27.600  1.00  0.00     0.049 A 
ATOM     62  H   UNL A   1      46.545  28.942  27.172  1.00  0.00     0.167 HD
ATOM     63  C   UNL A   1      44.843  30.951  28.218  1.00  0.00     0.074 A 
ATOM     64  C   UNL A   1      43.667  31.611  28.740  1.00  0.00     0.031 C 
ATOM     65  C   UNL A   1      46.060  31.537  28.106  1.00  0.00     0.037 A 
BRANCH  52  66
ATOM     66  C   UNL A   1      50.469  27.811  25.936  1.00  0.00     0.064 A 
ATOM     67  C   UNL A   1      50.955  27.973  24.630  1.00  0.00     0.173 A 
ATOM     68  C   UNL A   1      51.401  27.558  26.956  1.00  0.00     0.173 A 
ATOM     69  F   UNL A   1      50.107  28.207  23.618  1.00  0.00    -0.203 F 
ATOM     70  C   UNL A   1      52.317  27.874  24.355  1.00  0.00     0.198 A 
ATOM     71  C   UNL A   1      52.764  27.490  26.682  1.00  0.00     0.198 A 
ATOM     72  F   UNL A   1      50.989  27.401  28.223  1.00  0.00    -0.203 F 
ATOM     73  F   UNL A   1      52.755  27.999  23.094  1.00  0.00    -0.200 F 
ATOM     74  C   UNL A   1      53.220  27.644  25.382  1.00  0.00     0.200 A 
ATOM     75  F   UNL A   1      53.636  27.285  27.678  1.00  0.00    -0.200 F 
ATOM     76  F   UNL A   1      54.532  27.570  25.118  1.00  0.00    -0.200 F 
ENDBRANCH  52  66
BRANCH  53  77
ATOM     77  C   UNL A   1      40.834  28.499  28.465  1.00  0.00     0.064 A 
ATOM     78  C   UNL A   1      39.833  28.970  27.604  1.00  0.00     0.173 A 
ATOM     79  C   UNL A   1      40.461  28.160  29.774  1.00  0.00     0.173 A 
ATOM     80  F   UNL A   1      40.142  29.326  26.349  1.00  0.00    -0.203 F 
ATOM     81  C   UNL A   1      38.521  29.133  28.045  1.00  0.00     0.198 A 
ATOM     82  C   UNL A   1      39.141  28.289  30.203  1.00  0.00     0.198 A 
ATOM     83  F   UNL A   1      41.377  27.698  30.638  1.00  0.00    -0.203 F 
ATOM     84  F   UNL A   1      37.599  29.647  27.221  1.00  0.00    -0.200 F 
ATOM     85  C   UNL A   1      38.175  28.789  29.344  1.00  0.00     0.200 A 
ATOM     86  F   UNL A   1      38.808  27.939  31.453  1.00  0.00    -0.200 F 
ATOM     87  F   UNL A   1      36.914  28.949  29.768  1.00  0.00    -0.200 F 
ENDBRANCH  53  77
BRANCH  65  88
ATOM     88  C   UNL A   1      46.174  32.979  28.513  1.00  0.00     0.064 A 
ATOM     89  C   UNL A   1      46.537  33.352  29.816  1.00  0.00     0.173 A 
ATOM     90  C   UNL A   1      45.952  33.999  27.575  1.00  0.00     0.173 A 
ATOM     91  F   UNL A   1      46.745  32.417  30.754  1.00  0.00    -0.203 F 
ATOM     92  C   UNL A   1      46.646  34.695  30.170  1.00  0.00     0.198 A 
ATOM     93  C   UNL A   1      46.097  35.339  27.924  1.00  0.00     0.198 A 
ATOM     94  F   UNL A   1      45.610  33.696  26.314  1.00  0.00    -0.203 F 
ATOM     95  F   UNL A   1      46.941  35.029  31.433  1.00  0.00    -0.200 F 
ATOM     96  C   UNL A   1      46.434  35.686  29.222  1.00  0.00     0.200 A 
ATOM     97  F   UNL A   1      45.909  36.293  27.002  1.00  0.00    -0.200 F 
ATOM     98  F   UNL A   1      46.549  36.976  29.564  1.00  0.00    -0.200 F 
ENDBRANCH  65  88
ENDBRANCH  39  40
ENDBRANCH  31  34
ENDBRANCH  29  30
ENDBRANCH  28  29
ENDBRANCH  27  28
ENDBRANCH  26  27
ENDBRANCH   1  26
TORSDOF 19
ENDMDL
