MODEL 1
REMARK VINA RESULT:     -11.9      0.000      0.000
REMARK SMILES O=C(Cc1cccc(NS(=O)(=O)c2cccc(Cl)c2)c1)NCCCCCCNC(=O)c1ccc(-c2c3nc(c(-c4c(F)c(F)c(F)c(F)c4F)c4ccc([nH]4)c(-c4c(F)c(F)c(F)c(F)c4F)c4nc(c(-c5c(F)c(F)c(F)c(F)c5F)c5ccc2[nH]5)C=C4)C=C3)cc1
REMARK SMILES IDX 23 1 22 2 21 3 1 4 2 5 3 7 4 8 5 9 20 10 6 11 8 12 7 13 9 14
REMARK SMILES IDX 10 16 11 17 12 18 13 19 14 20 19 21 15 22 17 23 16 24 18 25
REMARK SMILES IDX 24 26 25 27 26 28 27 29 28 30 29 31 30 33 31 34 32 35 93 36
REMARK SMILES IDX 33 37 92 38 34 39 35 40 36 41 86 42 37 43 91 44 85 45 87 46
REMARK SMILES IDX 38 47 90 48 84 49 83 50 39 52 71 53 51 54 70 55 52 56 55 57
REMARK SMILES IDX 69 58 88 59 53 60 54 61 68 63 89 64 56 65 40 66 41 67 49 68
REMARK SMILES IDX 42 69 43 70 47 71 50 72 44 73 45 74 48 75 46 76 72 77 73 78
REMARK SMILES IDX 81 79 74 80 75 81 79 82 82 83 76 84 77 85 80 86 78 87 57 88
REMARK SMILES IDX 58 89 66 90 59 91 60 92 64 93 67 94 61 95 62 96 65 97 63 98
REMARK H PARENT 21 6 9 15 28 32 87 51 55 62
REMARK Flexibility Score: inf
ROOT
ATOM      1  C   UNL A   1      35.401  31.680  27.976  1.00  0.00     0.021 C 
ENDROOT
BRANCH   1   2
ATOM      2  C   UNL A   1      35.222  30.161  27.957  1.00  0.00     0.116 C 
BRANCH   2   3
ATOM      3  N   UNL A   1      33.827  29.800  27.817  1.00  0.00    -0.356 N 
ATOM      4  O   UNL A   1      34.027  28.756  25.780  1.00  0.00    -0.275 OA
ATOM      5  C   UNL A   1      33.326  29.161  26.705  1.00  0.00     0.224 C 
ATOM      6  H   UNL A   1      33.208  30.021  28.550  1.00  0.00     0.163 HD
BRANCH   5   7
ATOM      7  C   UNL A   1      31.812  29.079  26.662  1.00  0.00     0.135 C 
BRANCH   7   8
ATOM      8  C   UNL A   1      31.264  28.059  25.694  1.00  0.00    -0.037 A 
ATOM      9  C   UNL A   1      31.066  28.386  24.348  1.00  0.00     0.004 A 
ATOM     10  C   UNL A   1      30.956  26.762  26.132  1.00  0.00     0.031 A 
ATOM     11  C   UNL A   1      30.634  27.415  23.448  1.00  0.00     0.002 A 
ATOM     12  C   UNL A   1      30.496  25.788  25.238  1.00  0.00     0.049 A 
ATOM     13  C   UNL A   1      30.376  26.114  23.887  1.00  0.00     0.027 A 
BRANCH  12  14
ATOM     14  N   UNL A   1      30.030  24.569  25.806  1.00  0.00    -0.280 N 
ATOM     15  H   UNL A   1      29.054  24.467  25.896  1.00  0.00     0.180 HD
BRANCH  14  16
ATOM     16  S   UNL A   1      30.970  23.296  26.335  1.00  0.00     0.261 S 
ATOM     17  O   UNL A   1      31.532  23.641  27.622  1.00  0.00    -0.201 OA
ATOM     18  O   UNL A   1      30.160  22.108  26.158  1.00  0.00    -0.201 OA
BRANCH  16  19
ATOM     19  C   UNL A   1      32.324  23.152  25.190  1.00  0.00     0.089 A 
ATOM     20  C   UNL A   1      32.128  22.801  23.850  1.00  0.00     0.022 A 
ATOM     21  C   UNL A   1      33.589  23.533  25.648  1.00  0.00     0.042 A 
ATOM     22  C   UNL A   1      33.189  22.906  22.949  1.00  0.00     0.003 A 
ATOM     23  C   UNL A   1      34.647  23.601  24.747  1.00  0.00     0.042 A 
ATOM     24  C   UNL A   1      34.448  23.311  23.397  1.00  0.00     0.020 A 
ATOM     25  Cl  UNL A   1      36.206  24.076  25.295  1.00  0.00    -0.084 Cl
ENDBRANCH  16  19
ENDBRANCH  14  16
ENDBRANCH  12  14
ENDBRANCH   7   8
ENDBRANCH   5   7
ENDBRANCH   2   3
ENDBRANCH   1   2
BRANCH   1  26
ATOM     26  C   UNL A   1      34.489  32.424  28.961  1.00  0.00     0.002 C 
BRANCH  26  27
ATOM     27  C   UNL A   1      34.583  33.952  28.918  1.00  0.00     0.002 C 
BRANCH  27  28
ATOM     28  C   UNL A   1      33.243  34.691  28.886  1.00  0.00     0.021 C 
BRANCH  28  29
ATOM     29  C   UNL A   1      33.275  36.119  29.423  1.00  0.00     0.116 C 
BRANCH  29  30
ATOM     30  N   UNL A   1      32.401  36.309  30.568  1.00  0.00    -0.352 N 
ATOM     31  C   UNL A   1      32.520  35.827  31.847  1.00  0.00     0.251 C 
ATOM     32  H   UNL A   1      31.606  36.866  30.401  1.00  0.00     0.163 HD
ATOM     33  O   UNL A   1      31.603  35.982  32.648  1.00  0.00    -0.269 OA
BRANCH  31  34
ATOM     34  C   UNL A   1      33.741  35.099  32.265  1.00  0.00     0.039 A 
ATOM     35  C   UNL A   1      33.607  33.797  32.758  1.00  0.00     0.014 A 
ATOM     36  C   UNL A   1      35.003  35.695  32.204  1.00  0.00     0.014 A 
ATOM     37  C   UNL A   1      34.742  33.076  33.139  1.00  0.00     0.010 A 
ATOM     38  C   UNL A   1      36.140  34.954  32.524  1.00  0.00     0.010 A 
ATOM     39  C   UNL A   1      36.020  33.639  33.001  1.00  0.00    -0.014 A 
BRANCH  39  40
ATOM     40  C   UNL A   1      37.239  32.875  33.373  1.00  0.00     0.031 A 
ATOM     41  C   UNL A   1      37.949  33.170  34.666  1.00  0.00     0.074 A 
ATOM     42  C   UNL A   1      37.736  31.951  32.529  1.00  0.00     0.049 A 
ATOM     43  N   UNL A   1      39.061  32.663  35.136  1.00  0.00    -0.248 NA
ATOM     44  C   UNL A   1      37.339  34.187  35.537  1.00  0.00     0.031 C 
ATOM     45  C   UNL A   1      37.167  31.603  31.226  1.00  0.00     0.029 A 
ATOM     46  N   UNL A   1      38.841  31.144  32.635  1.00  0.00    -0.354 N 
ATOM     47  C   UNL A   1      39.286  33.302  36.348  1.00  0.00     0.074 A 
ATOM     48  C   UNL A   1      38.227  34.274  36.516  1.00  0.00     0.031 C 
ATOM     49  C   UNL A   1      37.919  30.644  30.660  1.00  0.00     0.029 A 
ATOM     50  C   UNL A   1      39.038  30.331  31.544  1.00  0.00     0.049 A 
ATOM     51  H   UNL A   1      39.437  31.147  33.418  1.00  0.00     0.167 HD
ATOM     52  C   UNL A   1      40.271  33.084  37.252  1.00  0.00     0.037 A 
ATOM     53  C   UNL A   1      40.012  29.438  31.288  1.00  0.00     0.037 A 
ATOM     54  C   UNL A   1      41.316  32.106  37.094  1.00  0.00     0.049 A 
ATOM     55  C   UNL A   1      41.088  29.206  32.315  1.00  0.00     0.074 A 
ATOM     56  C   UNL A   1      42.354  31.801  37.959  1.00  0.00     0.029 A 
ATOM     57  N   UNL A   1      41.451  31.268  35.998  1.00  0.00    -0.354 N 
ATOM     58  N   UNL A   1      41.265  29.788  33.475  1.00  0.00    -0.248 NA
ATOM     59  C   UNL A   1      42.092  28.179  32.000  1.00  0.00     0.031 C 
ATOM     60  C   UNL A   1      43.130  30.793  37.376  1.00  0.00     0.029 A 
ATOM     61  C   UNL A   1      42.553  30.444  36.166  1.00  0.00     0.049 A 
ATOM     62  H   UNL A   1      40.853  31.259  35.216  1.00  0.00     0.167 HD
ATOM     63  C   UNL A   1      42.374  29.178  34.044  1.00  0.00     0.074 A 
ATOM     64  C   UNL A   1      42.823  28.170  33.105  1.00  0.00     0.031 C 
ATOM     65  C   UNL A   1      42.971  29.430  35.233  1.00  0.00     0.037 A 
BRANCH  52  66
ATOM     66  C   UNL A   1      40.254  33.908  38.505  1.00  0.00     0.064 A 
ATOM     67  C   UNL A   1      40.944  35.129  38.584  1.00  0.00     0.173 A 
ATOM     68  C   UNL A   1      39.516  33.499  39.626  1.00  0.00     0.173 A 
ATOM     69  F   UNL A   1      41.676  35.557  37.544  1.00  0.00    -0.203 F 
ATOM     70  C   UNL A   1      40.916  35.894  39.745  1.00  0.00     0.198 A 
ATOM     71  C   UNL A   1      39.467  34.282  40.775  1.00  0.00     0.198 A 
ATOM     72  F   UNL A   1      38.834  32.344  39.601  1.00  0.00    -0.203 F 
ATOM     73  F   UNL A   1      41.620  37.034  39.812  1.00  0.00    -0.200 F 
ATOM     74  C   UNL A   1      40.172  35.475  40.838  1.00  0.00     0.200 A 
ATOM     75  F   UNL A   1      38.739  33.882  41.827  1.00  0.00    -0.200 F 
ATOM     76  F   UNL A   1      40.140  36.218  41.953  1.00  0.00    -0.200 F 
ENDBRANCH  52  66
BRANCH  53  77
ATOM     77  C   UNL A   1      40.005  28.674  30.014  1.00  0.00     0.064 A 
ATOM     78  C   UNL A   1      39.402  27.411  29.935  1.00  0.00     0.173 A 
ATOM     79  C   UNL A   1      40.620  29.178  28.859  1.00  0.00     0.173 A 
ATOM     80  F   UNL A   1      38.820  26.879  31.018  1.00  0.00    -0.203 F 
ATOM     81  C   UNL A   1      39.440  26.668  28.756  1.00  0.00     0.198 A 
ATOM     82  C   UNL A   1      40.632  28.447  27.672  1.00  0.00     0.198 A 
ATOM     83  F   UNL A   1      41.205  30.385  28.881  1.00  0.00    -0.203 F 
ATOM     84  F   UNL A   1      38.903  25.441  28.724  1.00  0.00    -0.200 F 
ATOM     85  C   UNL A   1      40.051  27.188  27.625  1.00  0.00     0.200 A 
ATOM     86  F   UNL A   1      41.212  28.957  26.579  1.00  0.00    -0.200 F 
ATOM     87  F   UNL A   1      40.090  26.472  26.494  1.00  0.00    -0.200 F 
ENDBRANCH  53  77
BRANCH  65  88
ATOM     88  C   UNL A   1      44.138  28.567  35.614  1.00  0.00     0.064 A 
ATOM     89  C   UNL A   1      43.971  27.384  36.348  1.00  0.00     0.173 A 
ATOM     90  C   UNL A   1      45.436  28.918  35.214  1.00  0.00     0.173 A 
ATOM     91  F   UNL A   1      42.751  27.014  36.766  1.00  0.00    -0.203 F 
ATOM     92  C   UNL A   1      45.068  26.598  36.694  1.00  0.00     0.198 A 
ATOM     93  C   UNL A   1      46.526  28.115  35.538  1.00  0.00     0.198 A 
ATOM     94  F   UNL A   1      45.647  30.037  34.506  1.00  0.00    -0.203 F 
ATOM     95  F   UNL A   1      44.892  25.497  37.438  1.00  0.00    -0.200 F 
ATOM     96  C   UNL A   1      46.343  26.961  36.284  1.00  0.00     0.200 A 
ATOM     97  F   UNL A   1      47.755  28.462  35.132  1.00  0.00    -0.200 F 
ATOM     98  F   UNL A   1      47.396  26.202  36.616  1.00  0.00    -0.200 F 
ENDBRANCH  65  88
ENDBRANCH  39  40
ENDBRANCH  31  34
ENDBRANCH  29  30
ENDBRANCH  28  29
ENDBRANCH  27  28
ENDBRANCH  26  27
ENDBRANCH   1  26
TORSDOF 17
ENDMDL
MODEL 2
REMARK VINA RESULT:     -11.7      0.233      1.574
REMARK SMILES O=C(Cc1cccc(NS(=O)(=O)c2cccc(Cl)c2)c1)NCCCCCCNC(=O)c1ccc(-c2c3nc(c(-c4c(F)c(F)c(F)c(F)c4F)c4ccc([nH]4)c(-c4c(F)c(F)c(F)c(F)c4F)c4nc(c(-c5c(F)c(F)c(F)c(F)c5F)c5ccc2[nH]5)C=C4)C=C3)cc1
REMARK SMILES IDX 23 1 22 2 21 3 1 4 2 5 3 7 4 8 5 9 20 10 6 11 8 12 7 13 9 14
REMARK SMILES IDX 10 16 11 17 12 18 13 19 14 20 19 21 15 22 17 23 16 24 18 25
REMARK SMILES IDX 24 26 25 27 26 28 27 29 28 30 29 31 30 33 31 34 32 35 93 36
REMARK SMILES IDX 33 37 92 38 34 39 35 40 36 41 86 42 37 43 91 44 85 45 87 46
REMARK SMILES IDX 38 47 90 48 84 49 83 50 39 52 71 53 51 54 70 55 52 56 55 57
REMARK SMILES IDX 69 58 88 59 53 60 54 61 68 63 89 64 56 65 40 66 41 67 49 68
REMARK SMILES IDX 42 69 43 70 47 71 50 72 44 73 45 74 48 75 46 76 72 77 73 78
REMARK SMILES IDX 81 79 74 80 75 81 79 82 82 83 76 84 77 85 80 86 78 87 57 88
REMARK SMILES IDX 58 89 66 90 59 91 60 92 64 93 67 94 61 95 62 96 65 97 63 98
REMARK H PARENT 21 6 9 15 28 32 87 51 55 62
REMARK Flexibility Score: inf
ROOT
ATOM      1  C   UNL A   1      35.379  31.500  28.028  1.00  0.00     0.021 C 
ENDROOT
BRANCH   1   2
ATOM      2  C   UNL A   1      35.070  30.003  27.952  1.00  0.00     0.116 C 
BRANCH   2   3
ATOM      3  N   UNL A   1      33.678  29.772  27.629  1.00  0.00    -0.356 N 
ATOM      4  O   UNL A   1      34.039  28.785  25.587  1.00  0.00    -0.275 OA
ATOM      5  C   UNL A   1      33.266  29.218  26.437  1.00  0.00     0.224 C 
ATOM      6  H   UNL A   1      32.993  30.022  28.292  1.00  0.00     0.163 HD
BRANCH   5   7
ATOM      7  C   UNL A   1      31.767  29.272  26.210  1.00  0.00     0.135 C 
BRANCH   7   8
ATOM      8  C   UNL A   1      31.223  28.168  25.337  1.00  0.00    -0.037 A 
ATOM      9  C   UNL A   1      31.014  28.377  23.969  1.00  0.00     0.004 A 
ATOM     10  C   UNL A   1      30.931  26.911  25.886  1.00  0.00     0.031 A 
ATOM     11  C   UNL A   1      30.585  27.328  23.159  1.00  0.00     0.002 A 
ATOM     12  C   UNL A   1      30.474  25.859  25.083  1.00  0.00     0.049 A 
ATOM     13  C   UNL A   1      30.343  26.067  23.709  1.00  0.00     0.027 A 
BRANCH  12  14
ATOM     14  N   UNL A   1      30.023  24.689  25.757  1.00  0.00    -0.280 N 
ATOM     15  H   UNL A   1      29.053  24.612  25.908  1.00  0.00     0.180 HD
BRANCH  14  16
ATOM     16  S   UNL A   1      30.973  23.437  26.316  1.00  0.00     0.261 S 
ATOM     17  O   UNL A   1      31.639  23.867  27.525  1.00  0.00    -0.201 OA
ATOM     18  O   UNL A   1      30.127  22.261  26.295  1.00  0.00    -0.201 OA
BRANCH  16  19
ATOM     19  C   UNL A   1      32.233  23.165  25.089  1.00  0.00     0.089 A 
ATOM     20  C   UNL A   1      31.926  22.736  23.793  1.00  0.00     0.022 A 
ATOM     21  C   UNL A   1      33.541  23.526  25.429  1.00  0.00     0.042 A 
ATOM     22  C   UNL A   1      32.920  22.740  22.814  1.00  0.00     0.003 A 
ATOM     23  C   UNL A   1      34.531  23.493  24.451  1.00  0.00     0.042 A 
ATOM     24  C   UNL A   1      34.222  23.124  23.142  1.00  0.00     0.020 A 
ATOM     25  Cl  UNL A   1      36.142  23.941  24.853  1.00  0.00    -0.084 Cl
ENDBRANCH  16  19
ENDBRANCH  14  16
ENDBRANCH  12  14
ENDBRANCH   7   8
ENDBRANCH   5   7
ENDBRANCH   2   3
ENDBRANCH   1   2
BRANCH   1  26
ATOM     26  C   UNL A   1      34.500  32.290  29.006  1.00  0.00     0.002 C 
BRANCH  26  27
ATOM     27  C   UNL A   1      34.614  33.814  28.910  1.00  0.00     0.002 C 
BRANCH  27  28
ATOM     28  C   UNL A   1      33.286  34.574  28.923  1.00  0.00     0.021 C 
BRANCH  28  29
ATOM     29  C   UNL A   1      33.351  35.989  29.490  1.00  0.00     0.116 C 
BRANCH  29  30
ATOM     30  N   UNL A   1      32.484  36.174  30.642  1.00  0.00    -0.352 N 
ATOM     31  C   UNL A   1      32.621  35.700  31.923  1.00  0.00     0.251 C 
ATOM     32  H   UNL A   1      31.682  36.720  30.479  1.00  0.00     0.163 HD
ATOM     33  O   UNL A   1      31.708  35.847  32.730  1.00  0.00    -0.269 OA
BRANCH  31  34
ATOM     34  C   UNL A   1      33.853  34.988  32.333  1.00  0.00     0.039 A 
ATOM     35  C   UNL A   1      33.749  33.659  32.756  1.00  0.00     0.014 A 
ATOM     36  C   UNL A   1      35.097  35.624  32.335  1.00  0.00     0.014 A 
ATOM     37  C   UNL A   1      34.896  32.954  33.128  1.00  0.00     0.010 A 
ATOM     38  C   UNL A   1      36.249  34.902  32.645  1.00  0.00     0.010 A 
ATOM     39  C   UNL A   1      36.159  33.561  33.052  1.00  0.00    -0.014 A 
BRANCH  39  40
ATOM     40  C   UNL A   1      37.392  32.817  33.415  1.00  0.00     0.031 A 
ATOM     41  C   UNL A   1      38.098  33.112  34.710  1.00  0.00     0.074 A 
ATOM     42  C   UNL A   1      37.904  31.910  32.562  1.00  0.00     0.049 A 
ATOM     43  N   UNL A   1      39.220  32.621  35.174  1.00  0.00    -0.248 NA
ATOM     44  C   UNL A   1      37.471  34.110  35.591  1.00  0.00     0.031 C 
ATOM     45  C   UNL A   1      37.340  31.564  31.257  1.00  0.00     0.029 A 
ATOM     46  N   UNL A   1      39.025  31.122  32.659  1.00  0.00    -0.354 N 
ATOM     47  C   UNL A   1      39.435  33.253  36.392  1.00  0.00     0.074 A 
ATOM     48  C   UNL A   1      38.358  34.203  36.570  1.00  0.00     0.031 C 
ATOM     49  C   UNL A   1      38.109  30.624  30.681  1.00  0.00     0.029 A 
ATOM     50  C   UNL A   1      39.234  30.323  31.560  1.00  0.00     0.049 A 
ATOM     51  H   UNL A   1      39.621  31.128  33.441  1.00  0.00     0.167 HD
ATOM     52  C   UNL A   1      40.425  33.044  37.293  1.00  0.00     0.037 A 
ATOM     53  C   UNL A   1      40.224  29.451  31.294  1.00  0.00     0.037 A 
ATOM     54  C   UNL A   1      41.487  32.087  37.124  1.00  0.00     0.049 A 
ATOM     55  C   UNL A   1      41.306  29.229  32.318  1.00  0.00     0.074 A 
ATOM     56  C   UNL A   1      42.531  31.793  37.985  1.00  0.00     0.029 A 
ATOM     57  N   UNL A   1      41.636  31.262  36.020  1.00  0.00    -0.354 N 
ATOM     58  N   UNL A   1      41.473  29.803  33.484  1.00  0.00    -0.248 NA
ATOM     59  C   UNL A   1      42.328  28.223  31.992  1.00  0.00     0.031 C 
ATOM     60  C   UNL A   1      43.325  30.805  37.391  1.00  0.00     0.029 A 
ATOM     61  C   UNL A   1      42.753  30.456  36.179  1.00  0.00     0.049 A 
ATOM     62  H   UNL A   1      41.037  31.249  35.239  1.00  0.00     0.167 HD
ATOM     63  C   UNL A   1      42.595  29.207  34.045  1.00  0.00     0.074 A 
ATOM     64  C   UNL A   1      43.061  28.217  33.096  1.00  0.00     0.031 C 
ATOM     65  C   UNL A   1      43.188  29.459  35.236  1.00  0.00     0.037 A 
BRANCH  52  66
ATOM     66  C   UNL A   1      40.395  33.856  38.553  1.00  0.00     0.064 A 
ATOM     67  C   UNL A   1      39.642  33.447  39.666  1.00  0.00     0.173 A 
ATOM     68  C   UNL A   1      41.150  35.033  38.669  1.00  0.00     0.173 A 
ATOM     69  F   UNL A   1      38.892  32.337  39.601  1.00  0.00    -0.203 F 
ATOM     70  C   UNL A   1      39.627  34.200  40.836  1.00  0.00     0.198 A 
ATOM     71  C   UNL A   1      41.154  35.767  39.851  1.00  0.00     0.198 A 
ATOM     72  F   UNL A   1      41.890  35.465  37.638  1.00  0.00    -0.203 F 
ATOM     73  F   UNL A   1      38.864  33.814  41.869  1.00  0.00    -0.200 F 
ATOM     74  C   UNL A   1      40.388  35.355  40.931  1.00  0.00     0.200 A 
ATOM     75  F   UNL A   1      41.899  36.878  39.947  1.00  0.00    -0.200 F 
ATOM     76  F   UNL A   1      40.377  36.075  42.062  1.00  0.00    -0.200 F 
ENDBRANCH  52  66
BRANCH  53  77
ATOM     77  C   UNL A   1      40.230  28.699  30.013  1.00  0.00     0.064 A 
ATOM     78  C   UNL A   1      40.866  29.218  28.876  1.00  0.00     0.173 A 
ATOM     79  C   UNL A   1      39.583  27.461  29.892  1.00  0.00     0.173 A 
ATOM     80  F   UNL A   1      41.480  30.407  28.938  1.00  0.00    -0.203 F 
ATOM     81  C   UNL A   1      40.829  28.541  27.658  1.00  0.00     0.198 A 
ATOM     82  C   UNL A   1      39.571  26.771  28.681  1.00  0.00     0.198 A 
ATOM     83  F   UNL A   1      38.966  26.918  30.952  1.00  0.00    -0.203 F 
ATOM     84  F   UNL A   1      41.398  29.086  26.575  1.00  0.00    -0.200 F 
ATOM     85  C   UNL A   1      40.184  27.316  27.563  1.00  0.00     0.200 A 
ATOM     86  F   UNL A   1      38.958  25.583  28.595  1.00  0.00    -0.200 F 
ATOM     87  F   UNL A   1      40.146  26.668  26.392  1.00  0.00    -0.200 F 
ENDBRANCH  53  77
BRANCH  65  88
ATOM     88  C   UNL A   1      44.371  28.614  35.607  1.00  0.00     0.064 A 
ATOM     89  C   UNL A   1      44.228  27.424  36.335  1.00  0.00     0.173 A 
ATOM     90  C   UNL A   1      45.661  28.990  35.205  1.00  0.00     0.173 A 
ATOM     91  F   UNL A   1      43.015  27.031  36.755  1.00  0.00    -0.203 F 
ATOM     92  C   UNL A   1      45.339  26.655  36.672  1.00  0.00     0.198 A 
ATOM     93  C   UNL A   1      46.766  28.204  35.520  1.00  0.00     0.198 A 
ATOM     94  F   UNL A   1      45.850  30.117  34.503  1.00  0.00    -0.203 F 
ATOM     95  F   UNL A   1      45.185  25.547  37.410  1.00  0.00    -0.200 F 
ATOM     96  C   UNL A   1      46.605  27.042  36.260  1.00  0.00     0.200 A 
ATOM     97  F   UNL A   1      47.988  28.574  35.112  1.00  0.00    -0.200 F 
ATOM     98  F   UNL A   1      47.673  26.299  36.583  1.00  0.00    -0.200 F 
ENDBRANCH  65  88
ENDBRANCH  39  40
ENDBRANCH  31  34
ENDBRANCH  29  30
ENDBRANCH  28  29
ENDBRANCH  27  28
ENDBRANCH  26  27
ENDBRANCH   1  26
TORSDOF 17
ENDMDL
MODEL 3
REMARK VINA RESULT:     -11.5      6.903     12.450
REMARK SMILES O=C(Cc1cccc(NS(=O)(=O)c2cccc(Cl)c2)c1)NCCCCCCNC(=O)c1ccc(-c2c3nc(c(-c4c(F)c(F)c(F)c(F)c4F)c4ccc([nH]4)c(-c4c(F)c(F)c(F)c(F)c4F)c4nc(c(-c5c(F)c(F)c(F)c(F)c5F)c5ccc2[nH]5)C=C4)C=C3)cc1
REMARK SMILES IDX 23 1 22 2 21 3 1 4 2 5 3 7 4 8 5 9 20 10 6 11 8 12 7 13 9 14
REMARK SMILES IDX 10 16 11 17 12 18 13 19 14 20 19 21 15 22 17 23 16 24 18 25
REMARK SMILES IDX 24 26 25 27 26 28 27 29 28 30 29 31 30 33 31 34 32 35 93 36
REMARK SMILES IDX 33 37 92 38 34 39 35 40 36 41 86 42 37 43 91 44 85 45 87 46
REMARK SMILES IDX 38 47 90 48 84 49 83 50 39 52 71 53 51 54 70 55 52 56 55 57
REMARK SMILES IDX 69 58 88 59 53 60 54 61 68 63 89 64 56 65 40 66 41 67 49 68
REMARK SMILES IDX 42 69 43 70 47 71 50 72 44 73 45 74 48 75 46 76 72 77 73 78
REMARK SMILES IDX 81 79 74 80 75 81 79 82 82 83 76 84 77 85 80 86 78 87 57 88
REMARK SMILES IDX 58 89 66 90 59 91 60 92 64 93 67 94 61 95 62 96 65 97 63 98
REMARK H PARENT 21 6 9 15 28 32 87 51 55 62
REMARK Flexibility Score: inf
ROOT
ATOM      1  C   UNL A   1      40.808  22.461  26.320  1.00  0.00     0.021 C 
ENDROOT
BRANCH   1   2
ATOM      2  C   UNL A   1      39.300  22.450  26.581  1.00  0.00     0.116 C 
BRANCH   2   3
ATOM      3  N   UNL A   1      38.561  22.174  25.368  1.00  0.00    -0.356 N 
ATOM      4  O   UNL A   1      36.882  23.700  25.727  1.00  0.00    -0.275 OA
ATOM      5  C   UNL A   1      37.371  22.794  25.057  1.00  0.00     0.224 C 
ATOM      6  H   UNL A   1      38.925  21.513  24.735  1.00  0.00     0.163 HD
BRANCH   5   7
ATOM      7  C   UNL A   1      36.653  22.200  23.860  1.00  0.00     0.135 C 
BRANCH   7   8
ATOM      8  C   UNL A   1      35.152  22.355  23.887  1.00  0.00    -0.037 A 
ATOM      9  C   UNL A   1      34.372  21.597  24.767  1.00  0.00     0.004 A 
ATOM     10  C   UNL A   1      34.519  23.272  23.035  1.00  0.00     0.031 A 
ATOM     11  C   UNL A   1      32.996  21.803  24.838  1.00  0.00     0.002 A 
ATOM     12  C   UNL A   1      33.134  23.466  23.081  1.00  0.00     0.049 A 
ATOM     13  C   UNL A   1      32.384  22.753  24.018  1.00  0.00     0.027 A 
BRANCH  12  14
ATOM     14  N   UNL A   1      32.565  24.269  22.053  1.00  0.00    -0.280 N 
ATOM     15  H   UNL A   1      32.129  23.793  21.310  1.00  0.00     0.180 HD
BRANCH  14  16
ATOM     16  S   UNL A   1      32.563  25.936  21.982  1.00  0.00     0.261 S 
ATOM     17  O   UNL A   1      33.893  26.384  21.631  1.00  0.00    -0.201 OA
ATOM     18  O   UNL A   1      31.409  26.295  21.184  1.00  0.00    -0.201 OA
BRANCH  16  19
ATOM     19  C   UNL A   1      32.229  26.517  23.630  1.00  0.00     0.089 A 
ATOM     20  C   UNL A   1      31.023  26.242  24.283  1.00  0.00     0.022 A 
ATOM     21  C   UNL A   1      33.276  27.153  24.306  1.00  0.00     0.042 A 
ATOM     22  C   UNL A   1      30.893  26.537  25.641  1.00  0.00     0.003 A 
ATOM     23  C   UNL A   1      33.122  27.472  25.651  1.00  0.00     0.042 A 
ATOM     24  C   UNL A   1      31.945  27.148  26.326  1.00  0.00     0.020 A 
ATOM     25  Cl  UNL A   1      34.403  28.247  26.496  1.00  0.00    -0.084 Cl
ENDBRANCH  16  19
ENDBRANCH  14  16
ENDBRANCH  12  14
ENDBRANCH   7   8
ENDBRANCH   5   7
ENDBRANCH   2   3
ENDBRANCH   1   2
BRANCH   1  26
ATOM     26  C   UNL A   1      41.649  21.723  27.368  1.00  0.00     0.002 C 
BRANCH  26  27
ATOM     27  C   UNL A   1      41.519  20.197  27.361  1.00  0.00     0.002 C 
BRANCH  27  28
ATOM     28  C   UNL A   1      41.991  19.504  26.080  1.00  0.00     0.021 C 
BRANCH  28  29
ATOM     29  C   UNL A   1      43.289  18.713  26.208  1.00  0.00     0.116 C 
BRANCH  29  30
ATOM     30  N   UNL A   1      43.976  18.550  24.937  1.00  0.00    -0.352 N 
ATOM     31  C   UNL A   1      44.571  19.494  24.139  1.00  0.00     0.251 C 
ATOM     32  H   UNL A   1      44.020  17.626  24.600  1.00  0.00     0.163 HD
ATOM     33  O   UNL A   1      44.983  19.182  23.026  1.00  0.00    -0.269 OA
BRANCH  31  34
ATOM     34  C   UNL A   1      44.699  20.896  24.600  1.00  0.00     0.039 A 
ATOM     35  C   UNL A   1      45.359  21.146  25.807  1.00  0.00     0.014 A 
ATOM     36  C   UNL A   1      44.151  21.957  23.872  1.00  0.00     0.014 A 
ATOM     37  C   UNL A   1      45.515  22.460  26.257  1.00  0.00     0.010 A 
ATOM     38  C   UNL A   1      44.363  23.270  24.289  1.00  0.00     0.010 A 
ATOM     39  C   UNL A   1      45.041  23.535  25.489  1.00  0.00    -0.014 A 
BRANCH  39  40
ATOM     40  C   UNL A   1      45.226  24.939  25.938  1.00  0.00     0.031 A 
ATOM     41  C   UNL A   1      46.581  25.586  25.855  1.00  0.00     0.074 A 
ATOM     42  C   UNL A   1      44.188  25.616  26.464  1.00  0.00     0.049 A 
ATOM     43  N   UNL A   1      46.959  26.773  26.258  1.00  0.00    -0.248 NA
ATOM     44  C   UNL A   1      47.661  24.782  25.261  1.00  0.00     0.031 C 
ATOM     45  C   UNL A   1      42.835  25.088  26.640  1.00  0.00     0.029 A 
ATOM     46  N   UNL A   1      44.113  26.894  26.961  1.00  0.00    -0.354 N 
ATOM     47  C   UNL A   1      48.316  26.855  25.974  1.00  0.00     0.074 A 
ATOM     48  C   UNL A   1      48.708  25.578  25.415  1.00  0.00     0.031 C 
ATOM     49  C   UNL A   1      42.060  26.038  27.192  1.00  0.00     0.029 A 
ATOM     50  C   UNL A   1      42.867  27.229  27.436  1.00  0.00     0.049 A 
ATOM     51  H   UNL A   1      44.878  27.513  26.976  1.00  0.00     0.167 HD
ATOM     52  C   UNL A   1      49.155  27.906  26.138  1.00  0.00     0.037 A 
ATOM     53  C   UNL A   1      42.430  28.368  28.006  1.00  0.00     0.037 A 
ATOM     54  C   UNL A   1      48.763  29.182  26.677  1.00  0.00     0.049 A 
ATOM     55  C   UNL A   1      43.380  29.524  28.166  1.00  0.00     0.074 A 
ATOM     56  C   UNL A   1      49.536  30.313  26.873  1.00  0.00     0.029 A 
ATOM     57  N   UNL A   1      47.481  29.497  27.100  1.00  0.00    -0.354 N 
ATOM     58  N   UNL A   1      44.650  29.602  27.854  1.00  0.00    -0.248 NA
ATOM     59  C   UNL A   1      42.829  30.758  28.744  1.00  0.00     0.031 C 
ATOM     60  C   UNL A   1      48.727  31.307  27.436  1.00  0.00     0.029 A 
ATOM     61  C   UNL A   1      47.441  30.806  27.553  1.00  0.00     0.049 A 
ATOM     62  H   UNL A   1      46.712  28.883  27.081  1.00  0.00     0.167 HD
ATOM     63  C   UNL A   1      45.041  30.897  28.164  1.00  0.00     0.074 A 
ATOM     64  C   UNL A   1      43.870  31.575  28.678  1.00  0.00     0.031 C 
ATOM     65  C   UNL A   1      46.261  31.473  28.038  1.00  0.00     0.037 A 
BRANCH  52  66
ATOM     66  C   UNL A   1      50.582  27.724  25.712  1.00  0.00     0.064 A 
ATOM     67  C   UNL A   1      50.970  27.894  24.373  1.00  0.00     0.173 A 
ATOM     68  C   UNL A   1      51.578  27.413  26.649  1.00  0.00     0.173 A 
ATOM     69  F   UNL A   1      50.053  28.179  23.436  1.00  0.00    -0.203 F 
ATOM     70  C   UNL A   1      52.297  27.735  23.986  1.00  0.00     0.198 A 
ATOM     71  C   UNL A   1      52.909  27.282  26.262  1.00  0.00     0.198 A 
ATOM     72  F   UNL A   1      51.262  27.245  27.942  1.00  0.00    -0.203 F 
ATOM     73  F   UNL A   1      52.636  27.857  22.695  1.00  0.00    -0.200 F 
ATOM     74  C   UNL A   1      53.267  27.435  24.932  1.00  0.00     0.200 A 
ATOM     75  F   UNL A   1      53.848  27.004  27.178  1.00  0.00    -0.200 F 
ATOM     76  F   UNL A   1      54.546  27.289  24.557  1.00  0.00    -0.200 F 
ENDBRANCH  52  66
BRANCH  53  77
ATOM     77  C   UNL A   1      41.016  28.484  28.447  1.00  0.00     0.064 A 
ATOM     78  C   UNL A   1      40.028  28.966  27.577  1.00  0.00     0.173 A 
ATOM     79  C   UNL A   1      40.628  28.140  29.750  1.00  0.00     0.173 A 
ATOM     80  F   UNL A   1      40.354  29.327  26.328  1.00  0.00    -0.203 F 
ATOM     81  C   UNL A   1      38.710  29.127  28.003  1.00  0.00     0.198 A 
ATOM     82  C   UNL A   1      39.305  28.274  30.166  1.00  0.00     0.198 A 
ATOM     83  F   UNL A   1      41.535  27.668  30.618  1.00  0.00    -0.203 F 
ATOM     84  F   UNL A   1      37.798  29.641  27.167  1.00  0.00    -0.200 F 
ATOM     85  C   UNL A   1      38.350  28.778  29.296  1.00  0.00     0.200 A 
ATOM     86  F   UNL A   1      38.958  27.924  31.411  1.00  0.00    -0.200 F 
ATOM     87  F   UNL A   1      37.084  28.935  29.705  1.00  0.00    -0.200 F 
ENDBRANCH  53  77
BRANCH  65  88
ATOM     88  C   UNL A   1      46.379  32.922  28.410  1.00  0.00     0.064 A 
ATOM     89  C   UNL A   1      46.168  33.943  27.471  1.00  0.00     0.173 A 
ATOM     90  C   UNL A   1      46.680  33.292  29.729  1.00  0.00     0.173 A 
ATOM     91  F   UNL A   1      45.892  33.639  26.193  1.00  0.00    -0.203 F 
ATOM     92  C   UNL A   1      46.285  35.282  27.835  1.00  0.00     0.198 A 
ATOM     93  C   UNL A   1      46.767  34.632  30.094  1.00  0.00     0.198 A 
ATOM     94  F   UNL A   1      46.884  32.353  30.664  1.00  0.00    -0.203 F 
ATOM     95  F   UNL A   1      46.128  36.241  26.910  1.00  0.00    -0.200 F 
ATOM     96  C   UNL A   1      46.578  35.625  29.146  1.00  0.00     0.200 A 
ATOM     97  F   UNL A   1      47.041  34.962  31.364  1.00  0.00    -0.200 F 
ATOM     98  F   UNL A   1      46.687  36.915  29.494  1.00  0.00    -0.200 F 
ENDBRANCH  65  88
ENDBRANCH  39  40
ENDBRANCH  31  34
ENDBRANCH  29  30
ENDBRANCH  28  29
ENDBRANCH  27  28
ENDBRANCH  26  27
ENDBRANCH   1  26
TORSDOF 17
ENDMDL
