MODEL 1
REMARK VINA RESULT:     -12.0      0.000      0.000
REMARK SMILES CC(C)=CCC/C(C)=C/C[N@@H+]1CCc2nc[nH]c2[C@@H]1C(=O)NCCCCCCNC(=O)c1ccc(-c2c3nc(c(-c4c(F)c(F)c(F)c(F)c4F)c4ccc([nH]4)c(-c4c(F)c(F)c(F)c(F)c4F)c4nc(c(-c5c(F)c(F)c(F)c(F)c5F)c5ccc2[nH]5)C=C4)C=C3)cc1
REMARK SMILES IDX 24 1 23 2 22 3 20 4 21 5 19 7 11 8 12 9 13 11 18 12 14 13
REMARK SMILES IDX 17 14 15 15 16 16 10 18 9 19 7 20 8 21 6 22 5 23 4 24 1 25
REMARK SMILES IDX 2 26 3 27 25 28 26 29 27 30 28 31 29 32 30 33 31 35 32 36
REMARK SMILES IDX 33 37 94 38 34 39 93 40 35 41 36 42 37 43 87 44 38 45 92 46
REMARK SMILES IDX 86 47 88 48 39 49 91 50 85 51 84 52 40 54 72 55 52 56 71 57
REMARK SMILES IDX 53 58 56 59 70 60 89 61 54 62 55 63 69 65 90 66 57 67 41 68
REMARK SMILES IDX 42 69 50 70 43 71 44 72 48 73 51 74 45 75 46 76 49 77 47 78
REMARK SMILES IDX 73 79 74 80 82 81 75 82 76 83 80 84 83 85 77 86 78 87 81 88
REMARK SMILES IDX 79 89 58 90 59 91 67 92 60 93 61 94 65 95 68 96 62 97 63 98
REMARK SMILES IDX 66 99 64 100
REMARK H PARENT 22 6 11 10 17 17 29 34 88 53 56 64
REMARK Flexibility Score: inf
ROOT
ATOM      1  C   UNL A   1      33.107  31.663  27.489  1.00  0.00     0.021 C 
ENDROOT
BRANCH   1   2
ATOM      2  C   UNL A   1      33.036  30.178  27.155  1.00  0.00     0.116 C 
BRANCH   2   3
ATOM      3  N   UNL A   1      33.578  29.852  25.861  1.00  0.00    -0.351 N 
ATOM      4  C   UNL A   1      32.938  29.351  24.759  1.00  0.00     0.284 C 
ATOM      5  O   UNL A   1      33.585  29.396  23.709  1.00  0.00    -0.268 OA
ATOM      6  H   UNL A   1      34.542  30.011  25.753  1.00  0.00     0.163 HD
BRANCH   4   7
ATOM      7  C   UNL A   1      31.507  28.715  24.896  1.00  0.00     0.324 C 
ATOM      8  N   UNL A   1      31.545  27.210  24.886  1.00  0.00    -0.316 N 
ATOM      9  C   UNL A   1      31.843  26.663  23.531  1.00  0.00     0.270 C 
ATOM     10  H   UNL A   1      30.609  26.857  25.084  1.00  0.00     0.349 HD
ATOM     11  C   UNL A   1      30.807  27.049  22.445  1.00  0.00     0.120 C 
ATOM     12  C   UNL A   1      30.657  29.173  23.755  1.00  0.00     0.106 A 
ATOM     13  C   UNL A   1      30.381  28.449  22.621  1.00  0.00     0.074 A 
ATOM     14  N   UNL A   1      29.944  30.328  23.606  1.00  0.00    -0.343 N 
ATOM     15  N   UNL A   1      29.613  29.161  21.745  1.00  0.00    -0.241 NA
ATOM     16  C   UNL A   1      29.382  30.300  22.357  1.00  0.00     0.197 A 
ATOM     17  H   UNL A   1      29.851  31.046  24.271  1.00  0.00     0.167 HD
BRANCH   8  18
ATOM     18  C   UNL A   1      32.380  26.687  25.985  1.00  0.00     0.291 C 
BRANCH  18  19
ATOM     19  C   UNL A   1      32.309  25.202  26.190  1.00  0.00     0.032 C 
ATOM     20  C   UNL A   1      33.278  24.280  26.007  1.00  0.00    -0.071 C 
ATOM     21  C   UNL A   1      34.685  24.624  25.600  1.00  0.00     0.039 C 
BRANCH  20  22
ATOM     22  C   UNL A   1      32.951  22.795  26.085  1.00  0.00     0.035 C 
BRANCH  22  23
ATOM     23  C   UNL A   1      33.851  21.862  25.252  1.00  0.00     0.032 C 
BRANCH  23  24
ATOM     24  C   UNL A   1      33.106  21.199  24.122  1.00  0.00    -0.028 C 
ATOM     25  C   UNL A   1      33.209  23.100  22.490  1.00  0.00     0.039 C 
ATOM     26  C   UNL A   1      32.762  21.740  22.938  1.00  0.00    -0.080 C 
ATOM     27  C   UNL A   1      31.841  20.987  22.016  1.00  0.00     0.039 C 
ENDBRANCH  23  24
ENDBRANCH  22  23
ENDBRANCH  20  22
ENDBRANCH  18  19
ENDBRANCH   8  18
ENDBRANCH   4   7
ENDBRANCH   2   3
ENDBRANCH   1   2
BRANCH   1  28
ATOM     28  C   UNL A   1      34.461  32.182  27.977  1.00  0.00     0.002 C 
BRANCH  28  29
ATOM     29  C   UNL A   1      34.607  33.694  28.195  1.00  0.00     0.002 C 
BRANCH  29  30
ATOM     30  C   UNL A   1      33.395  34.459  28.739  1.00  0.00     0.021 C 
BRANCH  30  31
ATOM     31  C   UNL A   1      33.715  35.768  29.444  1.00  0.00     0.116 C 
BRANCH  31  32
ATOM     32  N   UNL A   1      33.094  35.888  30.761  1.00  0.00    -0.352 N 
ATOM     33  C   UNL A   1      33.247  35.054  31.856  1.00  0.00     0.251 C 
ATOM     34  H   UNL A   1      32.493  36.658  30.886  1.00  0.00     0.163 HD
ATOM     35  O   UNL A   1      32.418  35.020  32.748  1.00  0.00    -0.269 OA
BRANCH  33  36
ATOM     36  C   UNL A   1      34.448  34.200  31.924  1.00  0.00     0.039 A 
ATOM     37  C   UNL A   1      34.369  32.810  31.807  1.00  0.00     0.014 A 
ATOM     38  C   UNL A   1      35.677  34.830  32.080  1.00  0.00     0.014 A 
ATOM     39  C   UNL A   1      35.552  32.075  31.767  1.00  0.00     0.010 A 
ATOM     40  C   UNL A   1      36.835  34.133  31.859  1.00  0.00     0.010 A 
ATOM     41  C   UNL A   1      36.783  32.750  31.775  1.00  0.00    -0.014 A 
BRANCH  41  42
ATOM     42  C   UNL A   1      38.039  32.029  31.625  1.00  0.00     0.031 A 
ATOM     43  C   UNL A   1      38.763  31.752  32.893  1.00  0.00     0.074 A 
ATOM     44  C   UNL A   1      38.428  31.464  30.462  1.00  0.00     0.049 A 
ATOM     45  N   UNL A   1      39.893  32.246  33.277  1.00  0.00    -0.248 NA
ATOM     46  C   UNL A   1      38.104  30.916  33.906  1.00  0.00     0.031 C 
ATOM     47  C   UNL A   1      37.688  31.349  29.199  1.00  0.00     0.029 A 
ATOM     48  N   UNL A   1      39.568  30.772  30.200  1.00  0.00    -0.354 N 
ATOM     49  C   UNL A   1      40.185  31.647  34.499  1.00  0.00     0.074 A 
ATOM     50  C   UNL A   1      38.980  30.975  34.912  1.00  0.00     0.031 C 
ATOM     51  C   UNL A   1      38.296  30.448  28.396  1.00  0.00     0.029 A 
ATOM     52  C   UNL A   1      39.554  30.063  29.006  1.00  0.00     0.049 A 
ATOM     53  H   UNL A   1      40.342  30.773  30.807  1.00  0.00     0.167 HD
ATOM     54  C   UNL A   1      41.469  31.569  34.948  1.00  0.00     0.037 A 
ATOM     55  C   UNL A   1      40.507  29.207  28.566  1.00  0.00     0.037 A 
ATOM     56  C   UNL A   1      42.320  32.487  34.228  1.00  0.00     0.049 A 
ATOM     57  C   UNL A   1      41.754  29.522  29.308  1.00  0.00     0.074 A 
ATOM     58  C   UNL A   1      42.328  33.857  34.040  1.00  0.00     0.029 A 
ATOM     59  N   UNL A   1      43.132  31.980  33.241  1.00  0.00    -0.354 N 
ATOM     60  N   UNL A   1      42.430  30.626  29.155  1.00  0.00    -0.248 NA
ATOM     61  C   UNL A   1      41.993  28.810  30.555  1.00  0.00     0.031 C 
ATOM     62  C   UNL A   1      42.704  34.037  32.674  1.00  0.00     0.029 A 
ATOM     63  C   UNL A   1      42.974  32.778  32.137  1.00  0.00     0.049 A 
ATOM     64  H   UNL A   1      43.717  31.192  33.313  1.00  0.00     0.167 HD
ATOM     65  C   UNL A   1      42.827  30.975  30.436  1.00  0.00     0.074 A 
ATOM     66  C   UNL A   1      42.612  29.775  31.241  1.00  0.00     0.031 C 
ATOM     67  C   UNL A   1      43.019  32.281  30.783  1.00  0.00     0.037 A 
BRANCH  54  68
ATOM     68  C   UNL A   1      42.038  30.420  35.751  1.00  0.00     0.064 A 
ATOM     69  C   UNL A   1      42.929  30.704  36.808  1.00  0.00     0.173 A 
ATOM     70  C   UNL A   1      42.002  29.069  35.342  1.00  0.00     0.173 A 
ATOM     71  F   UNL A   1      43.050  31.954  37.284  1.00  0.00    -0.203 F 
ATOM     72  C   UNL A   1      43.793  29.738  37.331  1.00  0.00     0.198 A 
ATOM     73  C   UNL A   1      42.828  28.096  35.904  1.00  0.00     0.198 A 
ATOM     74  F   UNL A   1      41.259  28.649  34.314  1.00  0.00    -0.203 F 
ATOM     75  F   UNL A   1      44.721  30.094  38.230  1.00  0.00    -0.200 F 
ATOM     76  C   UNL A   1      43.751  28.437  36.869  1.00  0.00     0.200 A 
ATOM     77  F   UNL A   1      42.779  26.841  35.434  1.00  0.00    -0.200 F 
ATOM     78  F   UNL A   1      44.626  27.527  37.315  1.00  0.00    -0.200 F 
ENDBRANCH  54  68
BRANCH  55  79
ATOM     79  C   UNL A   1      40.350  27.967  27.773  1.00  0.00     0.064 A 
ATOM     80  C   UNL A   1      41.124  27.746  26.622  1.00  0.00     0.173 A 
ATOM     81  C   UNL A   1      39.662  26.853  28.290  1.00  0.00     0.173 A 
ATOM     82  F   UNL A   1      41.838  28.749  26.088  1.00  0.00    -0.203 F 
ATOM     83  C   UNL A   1      41.239  26.477  26.049  1.00  0.00     0.198 A 
ATOM     84  C   UNL A   1      39.773  25.586  27.713  1.00  0.00     0.198 A 
ATOM     85  F   UNL A   1      38.952  26.947  29.423  1.00  0.00    -0.203 F 
ATOM     86  F   UNL A   1      42.047  26.290  24.995  1.00  0.00    -0.200 F 
ATOM     87  C   UNL A   1      40.576  25.395  26.603  1.00  0.00     0.200 A 
ATOM     88  F   UNL A   1      39.155  24.541  28.281  1.00  0.00    -0.200 F 
ATOM     89  F   UNL A   1      40.744  24.165  26.099  1.00  0.00    -0.200 F 
ENDBRANCH  55  79
BRANCH  67  90
ATOM     90  C   UNL A   1      43.047  33.305  29.681  1.00  0.00     0.064 A 
ATOM     91  C   UNL A   1      41.952  34.108  29.317  1.00  0.00     0.173 A 
ATOM     92  C   UNL A   1      44.274  33.572  29.057  1.00  0.00     0.173 A 
ATOM     93  F   UNL A   1      40.771  33.989  29.935  1.00  0.00    -0.203 F 
ATOM     94  C   UNL A   1      42.070  35.095  28.338  1.00  0.00     0.198 A 
ATOM     95  C   UNL A   1      44.399  34.584  28.109  1.00  0.00     0.198 A 
ATOM     96  F   UNL A   1      45.368  32.875  29.403  1.00  0.00    -0.203 F 
ATOM     97  F   UNL A   1      41.004  35.835  27.997  1.00  0.00    -0.200 F 
ATOM     98  C   UNL A   1      43.296  35.337  27.741  1.00  0.00     0.200 A 
ATOM     99  F   UNL A   1      45.598  34.845  27.571  1.00  0.00    -0.200 F 
ATOM    100  F   UNL A   1      43.420  36.309  26.828  1.00  0.00    -0.200 F 
ENDBRANCH  67  90
ENDBRANCH  41  42
ENDBRANCH  33  36
ENDBRANCH  31  32
ENDBRANCH  30  31
ENDBRANCH  29  30
ENDBRANCH  28  29
ENDBRANCH   1  28
TORSDOF 18
ENDMDL
MODEL 2
REMARK VINA RESULT:     -11.7      2.950      5.130
REMARK SMILES CC(C)=CCC/C(C)=C/C[N@@H+]1CCc2nc[nH]c2[C@@H]1C(=O)NCCCCCCNC(=O)c1ccc(-c2c3nc(c(-c4c(F)c(F)c(F)c(F)c4F)c4ccc([nH]4)c(-c4c(F)c(F)c(F)c(F)c4F)c4nc(c(-c5c(F)c(F)c(F)c(F)c5F)c5ccc2[nH]5)C=C4)C=C3)cc1
REMARK SMILES IDX 24 1 23 2 22 3 20 4 21 5 19 7 11 8 12 9 13 11 18 12 14 13
REMARK SMILES IDX 17 14 15 15 16 16 10 18 9 19 7 20 8 21 6 22 5 23 4 24 1 25
REMARK SMILES IDX 2 26 3 27 25 28 26 29 27 30 28 31 29 32 30 33 31 35 32 36
REMARK SMILES IDX 33 37 94 38 34 39 93 40 35 41 36 42 37 43 87 44 38 45 92 46
REMARK SMILES IDX 86 47 88 48 39 49 91 50 85 51 84 52 40 54 72 55 52 56 71 57
REMARK SMILES IDX 53 58 56 59 70 60 89 61 54 62 55 63 69 65 90 66 57 67 41 68
REMARK SMILES IDX 42 69 50 70 43 71 44 72 48 73 51 74 45 75 46 76 49 77 47 78
REMARK SMILES IDX 73 79 74 80 82 81 75 82 76 83 80 84 83 85 77 86 78 87 81 88
REMARK SMILES IDX 79 89 58 90 59 91 67 92 60 93 61 94 65 95 68 96 62 97 63 98
REMARK SMILES IDX 66 99 64 100
REMARK H PARENT 22 6 11 10 17 17 29 34 88 53 56 64
REMARK Flexibility Score: inf
ROOT
ATOM      1  C   UNL A   1      31.148  27.538  26.786  1.00  0.00     0.021 C 
ENDROOT
BRANCH   1   2
ATOM      2  C   UNL A   1      32.108  26.402  26.458  1.00  0.00     0.116 C 
BRANCH   2   3
ATOM      3  N   UNL A   1      31.633  25.107  26.875  1.00  0.00    -0.351 N 
ATOM      4  C   UNL A   1      32.022  23.867  26.447  1.00  0.00     0.284 C 
ATOM      5  O   UNL A   1      31.633  22.924  27.143  1.00  0.00    -0.268 OA
ATOM      6  H   UNL A   1      30.931  25.115  27.565  1.00  0.00     0.163 HD
BRANCH   4   7
ATOM      7  C   UNL A   1      32.847  23.711  25.119  1.00  0.00     0.324 C 
ATOM      8  N   UNL A   1      32.037  23.097  24.008  1.00  0.00    -0.316 N 
ATOM      9  C   UNL A   1      31.793  21.642  24.227  1.00  0.00     0.270 C 
ATOM     10  H   UNL A   1      32.586  23.120  23.150  1.00  0.00     0.349 HD
ATOM     11  C   UNL A   1      33.081  20.785  24.308  1.00  0.00     0.120 C 
ATOM     12  C   UNL A   1      34.031  22.835  25.378  1.00  0.00     0.106 A 
ATOM     13  C   UNL A   1      34.123  21.501  25.065  1.00  0.00     0.074 A 
ATOM     14  N   UNL A   1      35.252  23.150  25.901  1.00  0.00    -0.343 N 
ATOM     15  N   UNL A   1      35.314  20.971  25.472  1.00  0.00    -0.241 NA
ATOM     16  C   UNL A   1      35.967  21.985  25.993  1.00  0.00     0.197 A 
ATOM     17  H   UNL A   1      35.561  24.046  26.163  1.00  0.00     0.167 HD
BRANCH   8  18
ATOM     18  C   UNL A   1      30.841  23.909  23.706  1.00  0.00     0.291 C 
BRANCH  18  19
ATOM     19  C   UNL A   1      31.121  25.261  23.117  1.00  0.00     0.032 C 
ATOM     20  C   UNL A   1      30.379  26.386  23.201  1.00  0.00    -0.071 C 
ATOM     21  C   UNL A   1      29.104  26.481  23.996  1.00  0.00     0.039 C 
BRANCH  20  22
ATOM     22  C   UNL A   1      30.740  27.610  22.371  1.00  0.00     0.035 C 
BRANCH  22  23
ATOM     23  C   UNL A   1      30.430  28.975  23.013  1.00  0.00     0.032 C 
BRANCH  23  24
ATOM     24  C   UNL A   1      29.803  29.942  22.041  1.00  0.00    -0.028 C 
ATOM     25  C   UNL A   1      27.552  30.104  23.132  1.00  0.00     0.039 C 
ATOM     26  C   UNL A   1      28.536  30.396  22.038  1.00  0.00    -0.080 C 
ATOM     27  C   UNL A   1      28.035  31.199  20.868  1.00  0.00     0.039 C 
ENDBRANCH  23  24
ENDBRANCH  22  23
ENDBRANCH  20  22
ENDBRANCH  18  19
ENDBRANCH   8  18
ENDBRANCH   4   7
ENDBRANCH   2   3
ENDBRANCH   1   2
BRANCH   1  28
ATOM     28  C   UNL A   1      31.785  28.843  27.270  1.00  0.00     0.002 C 
BRANCH  28  29
ATOM     29  C   UNL A   1      32.273  29.834  26.204  1.00  0.00     0.002 C 
BRANCH  29  30
ATOM     30  C   UNL A   1      33.020  31.086  26.679  1.00  0.00     0.021 C 
BRANCH  30  31
ATOM     31  C   UNL A   1      34.137  30.837  27.679  1.00  0.00     0.116 C 
BRANCH  31  32
ATOM     32  N   UNL A   1      34.221  31.854  28.725  1.00  0.00    -0.352 N 
ATOM     33  C   UNL A   1      35.117  31.922  29.778  1.00  0.00     0.251 C 
ATOM     34  H   UNL A   1      33.558  32.580  28.674  1.00  0.00     0.163 HD
ATOM     35  O   UNL A   1      34.870  32.570  30.780  1.00  0.00    -0.269 OA
BRANCH  33  36
ATOM     36  C   UNL A   1      36.393  31.191  29.661  1.00  0.00     0.039 A 
ATOM     37  C   UNL A   1      37.604  31.853  29.450  1.00  0.00     0.014 A 
ATOM     38  C   UNL A   1      36.356  29.807  29.799  1.00  0.00     0.014 A 
ATOM     39  C   UNL A   1      38.783  31.111  29.461  1.00  0.00     0.010 A 
ATOM     40  C   UNL A   1      37.517  29.109  29.992  1.00  0.00     0.010 A 
ATOM     41  C   UNL A   1      38.730  29.738  29.753  1.00  0.00    -0.014 A 
BRANCH  41  42
ATOM     42  C   UNL A   1      39.945  28.947  29.883  1.00  0.00     0.031 A 
ATOM     43  C   UNL A   1      40.427  28.753  31.275  1.00  0.00     0.074 A 
ATOM     44  C   UNL A   1      40.487  28.259  28.856  1.00  0.00     0.049 A 
ATOM     45  N   UNL A   1      41.505  29.225  31.807  1.00  0.00    -0.248 NA
ATOM     46  C   UNL A   1      39.555  28.047  32.225  1.00  0.00     0.031 C 
ATOM     47  C   UNL A   1      39.964  28.064  27.497  1.00  0.00     0.029 A 
ATOM     48  N   UNL A   1      41.608  27.491  28.852  1.00  0.00    -0.354 N 
ATOM     49  C   UNL A   1      41.549  28.728  33.106  1.00  0.00     0.074 A 
ATOM     50  C   UNL A   1      40.251  28.157  33.359  1.00  0.00     0.031 C 
ATOM     51  C   UNL A   1      40.639  27.064  26.889  1.00  0.00     0.029 A 
ATOM     52  C   UNL A   1      41.749  26.677  27.737  1.00  0.00     0.049 A 
ATOM     53  H   UNL A   1      42.268  27.511  29.582  1.00  0.00     0.167 HD
ATOM     54  C   UNL A   1      42.732  28.629  33.775  1.00  0.00     0.037 A 
ATOM     55  C   UNL A   1      42.707  25.738  27.541  1.00  0.00     0.037 A 
ATOM     56  C   UNL A   1      43.749  29.435  33.140  1.00  0.00     0.049 A 
ATOM     57  C   UNL A   1      43.829  26.060  28.458  1.00  0.00     0.074 A 
ATOM     58  C   UNL A   1      43.875  30.779  32.843  1.00  0.00     0.029 A 
ATOM     59  N   UNL A   1      44.681  28.800  32.354  1.00  0.00    -0.354 N 
ATOM     60  N   UNL A   1      44.590  27.111  28.333  1.00  0.00    -0.248 NA
ATOM     61  C   UNL A   1      43.809  25.455  29.782  1.00  0.00     0.031 C 
ATOM     62  C   UNL A   1      44.485  30.815  31.553  1.00  0.00     0.029 A 
ATOM     63  C   UNL A   1      44.761  29.500  31.177  1.00  0.00     0.049 A 
ATOM     64  H   UNL A   1      45.194  27.995  32.591  1.00  0.00     0.167 HD
ATOM     65  C   UNL A   1      44.788  27.556  29.631  1.00  0.00     0.074 A 
ATOM     66  C   UNL A   1      44.364  26.448  30.483  1.00  0.00     0.031 C 
ATOM     67  C   UNL A   1      45.001  28.878  29.896  1.00  0.00     0.037 A 
BRANCH  54  68
ATOM     68  C   UNL A   1      43.084  27.533  34.757  1.00  0.00     0.064 A 
ATOM     69  C   UNL A   1      43.422  27.888  36.081  1.00  0.00     0.173 A 
ATOM     70  C   UNL A   1      43.407  26.209  34.388  1.00  0.00     0.173 A 
ATOM     71  F   UNL A   1      43.163  29.120  36.546  1.00  0.00    -0.203 F 
ATOM     72  C   UNL A   1      44.128  27.025  36.923  1.00  0.00     0.198 A 
ATOM     73  C   UNL A   1      44.063  25.333  35.251  1.00  0.00     0.198 A 
ATOM     74  F   UNL A   1      43.209  25.739  33.153  1.00  0.00    -0.203 F 
ATOM     75  F   UNL A   1      44.553  27.463  38.116  1.00  0.00    -0.200 F 
ATOM     76  C   UNL A   1      44.460  25.752  36.503  1.00  0.00     0.200 A 
ATOM     77  F   UNL A   1      44.386  24.105  34.820  1.00  0.00    -0.200 F 
ATOM     78  F   UNL A   1      45.199  24.949  37.278  1.00  0.00    -0.200 F 
ENDBRANCH  54  68
BRANCH  55  79
ATOM     79  C   UNL A   1      42.606  24.439  26.837  1.00  0.00     0.064 A 
ATOM     80  C   UNL A   1      43.194  24.258  25.575  1.00  0.00     0.173 A 
ATOM     81  C   UNL A   1      42.198  23.274  27.513  1.00  0.00     0.173 A 
ATOM     82  F   UNL A   1      43.643  25.316  24.882  1.00  0.00    -0.203 F 
ATOM     83  C   UNL A   1      43.401  22.984  25.039  1.00  0.00     0.198 A 
ATOM     84  C   UNL A   1      42.400  22.002  26.974  1.00  0.00     0.198 A 
ATOM     85  F   UNL A   1      41.688  23.339  28.751  1.00  0.00    -0.203 F 
ATOM     86  F   UNL A   1      44.034  22.848  23.865  1.00  0.00    -0.200 F 
ATOM     87  C   UNL A   1      43.018  21.857  25.745  1.00  0.00     0.200 A 
ATOM     88  F   UNL A   1      42.057  20.917  27.684  1.00  0.00    -0.200 F 
ATOM     89  F   UNL A   1      43.283  20.633  25.267  1.00  0.00    -0.200 F 
ENDBRANCH  55  79
BRANCH  67  90
ATOM     90  C   UNL A   1      45.279  29.794  28.735  1.00  0.00     0.064 A 
ATOM     91  C   UNL A   1      44.285  30.443  27.981  1.00  0.00     0.173 A 
ATOM     92  C   UNL A   1      46.612  30.127  28.460  1.00  0.00     0.173 A 
ATOM     93  F   UNL A   1      42.986  30.261  28.247  1.00  0.00    -0.203 F 
ATOM     94  C   UNL A   1      44.615  31.342  26.968  1.00  0.00     0.198 A 
ATOM     95  C   UNL A   1      46.938  31.055  27.474  1.00  0.00     0.198 A 
ATOM     96  F   UNL A   1      47.604  29.582  29.183  1.00  0.00    -0.203 F 
ATOM     97  F   UNL A   1      43.646  31.934  26.252  1.00  0.00    -0.200 F 
ATOM     98  C   UNL A   1      45.941  31.653  26.720  1.00  0.00     0.200 A 
ATOM     99  F   UNL A   1      48.221  31.387  27.272  1.00  0.00    -0.200 F 
ATOM    100  F   UNL A   1      46.258  32.544  25.773  1.00  0.00    -0.200 F 
ENDBRANCH  67  90
ENDBRANCH  41  42
ENDBRANCH  33  36
ENDBRANCH  31  32
ENDBRANCH  30  31
ENDBRANCH  29  30
ENDBRANCH  28  29
ENDBRANCH   1  28
TORSDOF 18
ENDMDL
MODEL 3
REMARK VINA RESULT:     -11.6      3.259      5.129
REMARK SMILES CC(C)=CCC/C(C)=C/C[N@@H+]1CCc2nc[nH]c2[C@@H]1C(=O)NCCCCCCNC(=O)c1ccc(-c2c3nc(c(-c4c(F)c(F)c(F)c(F)c4F)c4ccc([nH]4)c(-c4c(F)c(F)c(F)c(F)c4F)c4nc(c(-c5c(F)c(F)c(F)c(F)c5F)c5ccc2[nH]5)C=C4)C=C3)cc1
REMARK SMILES IDX 24 1 23 2 22 3 20 4 21 5 19 7 11 8 12 9 13 11 18 12 14 13
REMARK SMILES IDX 17 14 15 15 16 16 10 18 9 19 7 20 8 21 6 22 5 23 4 24 1 25
REMARK SMILES IDX 2 26 3 27 25 28 26 29 27 30 28 31 29 32 30 33 31 35 32 36
REMARK SMILES IDX 33 37 94 38 34 39 93 40 35 41 36 42 37 43 87 44 38 45 92 46
REMARK SMILES IDX 86 47 88 48 39 49 91 50 85 51 84 52 40 54 72 55 52 56 71 57
REMARK SMILES IDX 53 58 56 59 70 60 89 61 54 62 55 63 69 65 90 66 57 67 41 68
REMARK SMILES IDX 42 69 50 70 43 71 44 72 48 73 51 74 45 75 46 76 49 77 47 78
REMARK SMILES IDX 73 79 74 80 82 81 75 82 76 83 80 84 83 85 77 86 78 87 81 88
REMARK SMILES IDX 79 89 58 90 59 91 67 92 60 93 61 94 65 95 68 96 62 97 63 98
REMARK SMILES IDX 66 99 64 100
REMARK H PARENT 22 6 11 10 17 17 29 34 88 53 56 64
REMARK Flexibility Score: inf
ROOT
ATOM      1  C   UNL A   1      34.055  26.675  26.096  1.00  0.00     0.021 C 
ENDROOT
BRANCH   1   2
ATOM      2  C   UNL A   1      33.109  25.532  25.751  1.00  0.00     0.116 C 
BRANCH   2   3
ATOM      3  N   UNL A   1      33.379  24.320  26.481  1.00  0.00    -0.351 N 
ATOM      4  C   UNL A   1      34.476  23.503  26.420  1.00  0.00     0.284 C 
ATOM      5  O   UNL A   1      34.562  22.670  27.327  1.00  0.00    -0.268 OA
ATOM      6  H   UNL A   1      32.678  24.039  27.111  1.00  0.00     0.163 HD
BRANCH   4   7
ATOM      7  C   UNL A   1      35.484  23.620  25.221  1.00  0.00     0.324 C 
ATOM      8  N   UNL A   1      35.253  22.565  24.171  1.00  0.00    -0.316 N 
ATOM      9  C   UNL A   1      35.688  21.213  24.626  1.00  0.00     0.270 C 
ATOM     10  H   UNL A   1      35.861  22.756  23.375  1.00  0.00     0.349 HD
ATOM     11  C   UNL A   1      37.194  21.112  24.975  1.00  0.00     0.120 C 
ATOM     12  C   UNL A   1      36.879  23.472  25.738  1.00  0.00     0.106 A 
ATOM     13  C   UNL A   1      37.638  22.328  25.681  1.00  0.00     0.074 A 
ATOM     14  N   UNL A   1      37.705  24.401  26.302  1.00  0.00    -0.343 N 
ATOM     15  N   UNL A   1      38.852  22.499  26.280  1.00  0.00    -0.241 NA
ATOM     16  C   UNL A   1      38.857  23.755  26.666  1.00  0.00     0.197 A 
ATOM     17  H   UNL A   1      37.509  25.357  26.425  1.00  0.00     0.167 HD
BRANCH   8  18
ATOM     18  C   UNL A   1      33.884  22.647  23.623  1.00  0.00     0.291 C 
BRANCH  18  19
ATOM     19  C   UNL A   1      33.282  21.334  23.214  1.00  0.00     0.032 C 
ATOM     20  C   UNL A   1      32.541  20.482  23.953  1.00  0.00    -0.071 C 
ATOM     21  C   UNL A   1      32.130  20.758  25.374  1.00  0.00     0.039 C 
BRANCH  20  22
ATOM     22  C   UNL A   1      32.183  19.105  23.410  1.00  0.00     0.035 C 
BRANCH  22  23
ATOM     23  C   UNL A   1      32.211  17.951  24.430  1.00  0.00     0.032 C 
BRANCH  23  24
ATOM     24  C   UNL A   1      33.592  17.371  24.606  1.00  0.00    -0.028 C 
ATOM     25  C   UNL A   1      32.901  15.089  25.384  1.00  0.00     0.039 C 
ATOM     26  C   UNL A   1      33.915  16.152  25.079  1.00  0.00    -0.080 C 
ATOM     27  C   UNL A   1      35.354  15.826  25.375  1.00  0.00     0.039 C 
ENDBRANCH  23  24
ENDBRANCH  22  23
ENDBRANCH  20  22
ENDBRANCH  18  19
ENDBRANCH   8  18
ENDBRANCH   4   7
ENDBRANCH   2   3
ENDBRANCH   1   2
BRANCH   1  28
ATOM     28  C   UNL A   1      33.399  28.003  26.481  1.00  0.00     0.002 C 
BRANCH  28  29
ATOM     29  C   UNL A   1      34.315  29.132  26.973  1.00  0.00     0.002 C 
BRANCH  29  30
ATOM     30  C   UNL A   1      33.660  30.452  27.397  1.00  0.00     0.021 C 
BRANCH  30  31
ATOM     31  C   UNL A   1      34.620  31.607  27.634  1.00  0.00     0.116 C 
BRANCH  31  32
ATOM     32  N   UNL A   1      34.520  32.183  28.973  1.00  0.00    -0.352 N 
ATOM     33  C   UNL A   1      35.222  31.823  30.111  1.00  0.00     0.251 C 
ATOM     34  H   UNL A   1      33.874  32.918  29.080  1.00  0.00     0.163 HD
ATOM     35  O   UNL A   1      34.805  32.089  31.224  1.00  0.00    -0.269 OA
BRANCH  33  36
ATOM     36  C   UNL A   1      36.501  31.106  29.948  1.00  0.00     0.039 A 
ATOM     37  C   UNL A   1      37.704  31.786  29.743  1.00  0.00     0.014 A 
ATOM     38  C   UNL A   1      36.476  29.718  30.034  1.00  0.00     0.014 A 
ATOM     39  C   UNL A   1      38.888  31.053  29.709  1.00  0.00     0.010 A 
ATOM     40  C   UNL A   1      37.646  29.022  30.183  1.00  0.00     0.010 A 
ATOM     41  C   UNL A   1      38.850  29.670  29.951  1.00  0.00    -0.014 A 
BRANCH  41  42
ATOM     42  C   UNL A   1      40.073  28.884  30.033  1.00  0.00     0.031 A 
ATOM     43  C   UNL A   1      40.600  28.678  31.406  1.00  0.00     0.074 A 
ATOM     44  C   UNL A   1      40.584  28.209  28.981  1.00  0.00     0.049 A 
ATOM     45  N   UNL A   1      41.693  29.150  31.907  1.00  0.00    -0.248 NA
ATOM     46  C   UNL A   1      39.763  27.958  32.377  1.00  0.00     0.031 C 
ATOM     47  C   UNL A   1      40.018  28.025  27.639  1.00  0.00     0.029 A 
ATOM     48  N   UNL A   1      41.709  27.447  28.933  1.00  0.00    -0.354 N 
ATOM     49  C   UNL A   1      41.782  28.641  33.199  1.00  0.00     0.074 A 
ATOM     50  C   UNL A   1      40.496  28.060  33.489  1.00  0.00     0.031 C 
ATOM     51  C   UNL A   1      40.677  27.035  26.998  1.00  0.00     0.029 A 
ATOM     52  C   UNL A   1      41.817  26.645  27.805  1.00  0.00     0.049 A 
ATOM     53  H   UNL A   1      42.391  27.463  29.641  1.00  0.00     0.167 HD
ATOM     54  C   UNL A   1      42.987  28.541  33.829  1.00  0.00     0.037 A 
ATOM     55  C   UNL A   1      42.772  25.714  27.569  1.00  0.00     0.037 A 
ATOM     56  C   UNL A   1      43.978  29.359  33.168  1.00  0.00     0.049 A 
ATOM     57  C   UNL A   1      43.922  26.032  28.452  1.00  0.00     0.074 A 
ATOM     58  C   UNL A   1      44.088  30.707  32.882  1.00  0.00     0.029 A 
ATOM     59  N   UNL A   1      44.887  28.737  32.346  1.00  0.00    -0.354 N 
ATOM     60  N   UNL A   1      44.673  27.088  28.313  1.00  0.00    -0.248 NA
ATOM     61  C   UNL A   1      43.949  25.414  29.770  1.00  0.00     0.031 C 
ATOM     62  C   UNL A   1      44.656  30.758  31.572  1.00  0.00     0.029 A 
ATOM     63  C   UNL A   1      44.925  29.449  31.174  1.00  0.00     0.049 A 
ATOM     64  H   UNL A   1      45.412  27.932  32.558  1.00  0.00     0.167 HD
ATOM     65  C   UNL A   1      44.911  27.521  29.608  1.00  0.00     0.074 A 
ATOM     66  C   UNL A   1      44.521  26.402  30.462  1.00  0.00     0.031 C 
ATOM     67  C   UNL A   1      45.127  28.842  29.880  1.00  0.00     0.037 A 
BRANCH  54  68
ATOM     68  C   UNL A   1      43.376  27.437  34.787  1.00  0.00     0.064 A 
ATOM     69  C   UNL A   1      43.909  27.786  36.046  1.00  0.00     0.173 A 
ATOM     70  C   UNL A   1      43.544  26.085  34.416  1.00  0.00     0.173 A 
ATOM     71  F   UNL A   1      43.810  29.043  36.507  1.00  0.00    -0.203 F 
ATOM     72  C   UNL A   1      44.649  26.883  36.815  1.00  0.00     0.198 A 
ATOM     73  C   UNL A   1      44.236  25.173  35.212  1.00  0.00     0.198 A 
ATOM     74  F   UNL A   1      43.152  25.612  33.230  1.00  0.00    -0.203 F 
ATOM     75  F   UNL A   1      45.258  27.306  37.931  1.00  0.00    -0.200 F 
ATOM     76  C   UNL A   1      44.823  25.580  36.391  1.00  0.00     0.200 A 
ATOM     77  F   UNL A   1      44.403  23.916  34.777  1.00  0.00    -0.200 F 
ATOM     78  F   UNL A   1      45.591  24.734  37.087  1.00  0.00    -0.200 F 
ENDBRANCH  54  68
BRANCH  55  79
ATOM     79  C   UNL A   1      42.655  24.421  26.855  1.00  0.00     0.064 A 
ATOM     80  C   UNL A   1      43.250  24.239  25.596  1.00  0.00     0.173 A 
ATOM     81  C   UNL A   1      42.221  23.258  27.520  1.00  0.00     0.173 A 
ATOM     82  F   UNL A   1      43.722  25.294  24.915  1.00  0.00    -0.203 F 
ATOM     83  C   UNL A   1      43.440  22.965  25.053  1.00  0.00     0.198 A 
ATOM     84  C   UNL A   1      42.407  21.986  26.974  1.00  0.00     0.198 A 
ATOM     85  F   UNL A   1      41.704  23.323  28.754  1.00  0.00    -0.203 F 
ATOM     86  F   UNL A   1      44.079  22.826  23.883  1.00  0.00    -0.200 F 
ATOM     87  C   UNL A   1      43.032  21.839  25.749  1.00  0.00     0.200 A 
ATOM     88  F   UNL A   1      42.040  20.903  27.674  1.00  0.00    -0.200 F 
ATOM     89  F   UNL A   1      43.280  20.614  25.264  1.00  0.00    -0.200 F 
ENDBRANCH  55  79
BRANCH  67  90
ATOM     90  C   UNL A   1      45.362  29.770  28.720  1.00  0.00     0.064 A 
ATOM     91  C   UNL A   1      44.342  30.444  28.024  1.00  0.00     0.173 A 
ATOM     92  C   UNL A   1      46.685  30.090  28.386  1.00  0.00     0.173 A 
ATOM     93  F   UNL A   1      43.055  30.275  28.349  1.00  0.00    -0.203 F 
ATOM     94  C   UNL A   1      44.636  31.353  27.008  1.00  0.00     0.198 A 
ATOM     95  C   UNL A   1      46.976  31.027  27.399  1.00  0.00     0.198 A 
ATOM     96  F   UNL A   1      47.702  29.521  29.053  1.00  0.00    -0.203 F 
ATOM     97  F   UNL A   1      43.643  31.968  26.348  1.00  0.00    -0.200 F 
ATOM     98  C   UNL A   1      45.953  31.650  26.702  1.00  0.00     0.200 A 
ATOM     99  F   UNL A   1      48.253  31.345  27.141  1.00  0.00    -0.200 F 
ATOM    100  F   UNL A   1      46.238  32.551  25.753  1.00  0.00    -0.200 F 
ENDBRANCH  67  90
ENDBRANCH  41  42
ENDBRANCH  33  36
ENDBRANCH  31  32
ENDBRANCH  30  31
ENDBRANCH  29  30
ENDBRANCH  28  29
ENDBRANCH   1  28
TORSDOF 18
ENDMDL
