MODEL 1
REMARK VINA RESULT:     -13.3      0.000      0.000
REMARK SMILES C[C@@H](C(=O)NCCCCCCNC(=O)c1ccc(-c2c3nc(c(-c4c(F)c(F)c(F)c(F)c4F)c4ccc([nH]4)c(-c4c(F)c(F)c(F)c(F)c4F)c4nc(c(-c5c(F)c(F)c(F)c(F)c5F)c5ccc2[nH]5)C=C4)C=C3)cc1)c1ccc(-c2ccccc2)c(F)c1
REMARK SMILES IDX 8 1 7 2 6 3 5 4 3 5 4 6 2 8 1 9 78 10 79 11 90 12 80 13
REMARK SMILES IDX 88 14 81 15 89 16 82 17 83 18 87 19 84 20 86 21 85 22 9 23
REMARK SMILES IDX 10 24 11 25 12 26 13 27 14 29 15 30 16 31 77 32 17 33 76 34
REMARK SMILES IDX 18 35 19 36 20 37 70 38 21 39 75 40 69 41 71 42 22 43 74 44
REMARK SMILES IDX 68 45 67 46 23 48 55 49 35 50 54 51 36 52 39 53 53 54 72 55
REMARK SMILES IDX 37 56 38 57 52 59 73 60 40 61 24 62 25 63 33 64 26 65 27 66
REMARK SMILES IDX 31 67 34 68 28 69 29 70 32 71 30 72 56 73 57 74 65 75 58 76
REMARK SMILES IDX 59 77 63 78 66 79 60 80 61 81 64 82 62 83 41 84 42 85 50 86
REMARK SMILES IDX 43 87 44 88 48 89 51 90 45 91 46 92 49 93 47 94
REMARK H PARENT 5 7 12 28 71 47 39 58
REMARK Flexibility Score: inf
ROOT
ATOM      1  C   UNL A   1      32.267  29.468  27.215  1.00  0.00     0.002 C 
ENDROOT
BRANCH   1   2
ATOM      2  C   UNL A   1      31.436  28.176  27.250  1.00  0.00     0.021 C 
BRANCH   2   3
ATOM      3  C   UNL A   1      32.138  26.974  26.615  1.00  0.00     0.116 C 
BRANCH   3   4
ATOM      4  N   UNL A   1      31.404  25.762  26.903  1.00  0.00    -0.356 N 
ATOM      5  C   UNL A   1      30.712  24.937  26.070  1.00  0.00     0.227 C 
ATOM      6  O   UNL A   1      30.000  24.088  26.609  1.00  0.00    -0.274 OA
ATOM      7  H   UNL A   1      31.404  25.492  27.849  1.00  0.00     0.163 HD
BRANCH   5   8
ATOM      8  C   UNL A   1      30.881  25.060  24.545  1.00  0.00     0.105 C 
ATOM      9  C   UNL A   1      32.326  24.854  24.077  1.00  0.00     0.023 C 
BRANCH   8  10
ATOM     10  C   UNL A   1      30.371  26.403  24.033  1.00  0.00    -0.033 A 
ATOM     11  C   UNL A   1      31.271  27.397  23.620  1.00  0.00     0.005 A 
ATOM     12  C   UNL A   1      29.000  26.682  23.986  1.00  0.00     0.044 A 
ATOM     13  C   UNL A   1      30.814  28.629  23.155  1.00  0.00     0.012 A 
ATOM     14  C   UNL A   1      28.551  27.920  23.521  1.00  0.00     0.131 A 
ATOM     15  C   UNL A   1      29.442  28.912  23.088  1.00  0.00     0.017 A 
ATOM     16  F   UNL A   1      27.227  28.138  23.487  1.00  0.00    -0.206 F 
BRANCH  15  17
ATOM     17  C   UNL A   1      28.994  30.216  22.581  1.00  0.00    -0.015 A 
ATOM     18  C   UNL A   1      28.991  31.343  23.422  1.00  0.00     0.009 A 
ATOM     19  C   UNL A   1      28.509  30.363  21.273  1.00  0.00     0.009 A 
ATOM     20  C   UNL A   1      28.507  32.574  22.975  1.00  0.00     0.001 A 
ATOM     21  C   UNL A   1      28.022  31.595  20.826  1.00  0.00     0.001 A 
ATOM     22  C   UNL A   1      28.018  32.698  21.678  1.00  0.00     0.000 A 
ENDBRANCH  15  17
ENDBRANCH   8  10
ENDBRANCH   5   8
ENDBRANCH   3   4
ENDBRANCH   2   3
ENDBRANCH   1   2
BRANCH   1  23
ATOM     23  C   UNL A   1      31.863  30.465  26.125  1.00  0.00     0.002 C 
BRANCH  23  24
ATOM     24  C   UNL A   1      31.513  31.864  26.638  1.00  0.00     0.021 C 
BRANCH  24  25
ATOM     25  C   UNL A   1      32.657  32.572  27.355  1.00  0.00     0.116 C 
BRANCH  25  26
ATOM     26  N   UNL A   1      32.369  33.980  27.581  1.00  0.00    -0.352 N 
ATOM     27  C   UNL A   1      32.935  34.849  28.480  1.00  0.00     0.251 C 
ATOM     28  H   UNL A   1      31.666  34.365  27.008  1.00  0.00     0.163 HD
ATOM     29  O   UNL A   1      32.432  35.950  28.685  1.00  0.00    -0.269 OA
BRANCH  27  30
ATOM     30  C   UNL A   1      34.144  34.442  29.225  1.00  0.00     0.039 A 
ATOM     31  C   UNL A   1      34.002  33.912  30.509  1.00  0.00     0.014 A 
ATOM     32  C   UNL A   1      35.411  34.561  28.646  1.00  0.00     0.014 A 
ATOM     33  C   UNL A   1      35.124  33.423  31.180  1.00  0.00     0.010 A 
ATOM     34  C   UNL A   1      36.516  34.011  29.287  1.00  0.00     0.010 A 
ATOM     35  C   UNL A   1      36.382  33.423  30.554  1.00  0.00    -0.014 A 
BRANCH  35  36
ATOM     36  C   UNL A   1      37.557  32.767  31.182  1.00  0.00     0.031 A 
ATOM     37  C   UNL A   1      38.212  31.588  30.519  1.00  0.00     0.074 A 
ATOM     38  C   UNL A   1      37.971  33.178  32.397  1.00  0.00     0.049 A 
ATOM     39  N   UNL A   1      39.174  30.819  30.965  1.00  0.00    -0.248 NA
ATOM     40  C   UNL A   1      37.706  31.206  29.191  1.00  0.00     0.031 C 
ATOM     41  C   UNL A   1      37.382  34.281  33.161  1.00  0.00     0.029 A 
ATOM     42  N   UNL A   1      38.965  32.703  33.217  1.00  0.00    -0.354 N 
ATOM     43  C   UNL A   1      39.372  29.855  29.986  1.00  0.00     0.074 A 
ATOM     44  C   UNL A   1      38.410  30.112  28.937  1.00  0.00     0.031 C 
ATOM     45  C   UNL A   1      38.029  34.400  34.332  1.00  0.00     0.029 A 
ATOM     46  C   UNL A   1      39.042  33.354  34.426  1.00  0.00     0.049 A 
ATOM     47  H   UNL A   1      39.566  31.965  32.964  1.00  0.00     0.167 HD
ATOM     48  C   UNL A   1      40.285  28.856  29.965  1.00  0.00     0.037 A 
ATOM     49  C   UNL A   1      39.819  33.116  35.500  1.00  0.00     0.037 A 
ATOM     50  C   UNL A   1      41.261  28.628  30.998  1.00  0.00     0.049 A 
ATOM     51  C   UNL A   1      40.810  31.984  35.451  1.00  0.00     0.074 A 
ATOM     52  C   UNL A   1      42.295  27.707  31.016  1.00  0.00     0.029 A 
ATOM     53  N   UNL A   1      41.317  29.317  32.199  1.00  0.00    -0.354 N 
ATOM     54  N   UNL A   1      41.058  31.144  34.475  1.00  0.00    -0.248 NA
ATOM     55  C   UNL A   1      41.627  31.762  36.652  1.00  0.00     0.031 C 
ATOM     56  C   UNL A   1      42.931  27.789  32.256  1.00  0.00     0.029 A 
ATOM     57  C   UNL A   1      42.336  28.805  32.988  1.00  0.00     0.049 A 
ATOM     58  H   UNL A   1      40.724  30.059  32.455  1.00  0.00     0.167 HD
ATOM     59  C   UNL A   1      42.070  30.313  34.936  1.00  0.00     0.074 A 
ATOM     60  C   UNL A   1      42.408  30.762  36.269  1.00  0.00     0.031 C 
ATOM     61  C   UNL A   1      42.662  29.265  34.312  1.00  0.00     0.037 A 
BRANCH  48  62
ATOM     62  C   UNL A   1      40.281  27.916  28.794  1.00  0.00     0.064 A 
ATOM     63  C   UNL A   1      41.013  28.182  27.629  1.00  0.00     0.173 A 
ATOM     64  C   UNL A   1      39.605  26.688  28.880  1.00  0.00     0.173 A 
ATOM     65  F   UNL A   1      41.670  29.344  27.495  1.00  0.00    -0.203 F 
ATOM     66  C   UNL A   1      41.059  27.260  26.586  1.00  0.00     0.198 A 
ATOM     67  C   UNL A   1      39.677  25.756  27.847  1.00  0.00     0.198 A 
ATOM     68  F   UNL A   1      38.896  26.381  29.976  1.00  0.00    -0.203 F 
ATOM     69  F   UNL A   1      41.741  27.548  25.469  1.00  0.00    -0.200 F 
ATOM     70  C   UNL A   1      40.400  26.045  26.701  1.00  0.00     0.200 A 
ATOM     71  F   UNL A   1      39.054  24.576  27.968  1.00  0.00    -0.200 F 
ATOM     72  F   UNL A   1      40.463  25.150  25.705  1.00  0.00    -0.200 F 
ENDBRANCH  48  62
BRANCH  49  73
ATOM     73  C   UNL A   1      39.677  33.946  36.727  1.00  0.00     0.064 A 
ATOM     74  C   UNL A   1      38.860  33.534  37.790  1.00  0.00     0.173 A 
ATOM     75  C   UNL A   1      40.326  35.184  36.849  1.00  0.00     0.173 A 
ATOM     76  F   UNL A   1      38.201  32.368  37.714  1.00  0.00    -0.203 F 
ATOM     77  C   UNL A   1      38.670  34.343  38.909  1.00  0.00     0.198 A 
ATOM     78  C   UNL A   1      40.164  35.976  37.984  1.00  0.00     0.198 A 
ATOM     79  F   UNL A   1      41.124  35.625  35.865  1.00  0.00    -0.203 F 
ATOM     80  F   UNL A   1      37.831  33.955  39.878  1.00  0.00    -0.200 F 
ATOM     81  C   UNL A   1      39.325  35.562  39.006  1.00  0.00     0.200 A 
ATOM     82  F   UNL A   1      40.813  37.144  38.081  1.00  0.00    -0.200 F 
ATOM     83  F   UNL A   1      39.139  36.341  40.080  1.00  0.00    -0.200 F 
ENDBRANCH  49  73
BRANCH  61  84
ATOM     84  C   UNL A   1      43.747  28.540  35.054  1.00  0.00     0.064 A 
ATOM     85  C   UNL A   1      45.085  28.953  34.986  1.00  0.00     0.173 A 
ATOM     86  C   UNL A   1      43.436  27.457  35.891  1.00  0.00     0.173 A 
ATOM     87  F   UNL A   1      45.436  29.973  34.187  1.00  0.00    -0.203 F 
ATOM     88  C   UNL A   1      46.074  28.301  35.717  1.00  0.00     0.198 A 
ATOM     89  C   UNL A   1      44.422  26.828  36.646  1.00  0.00     0.198 A 
ATOM     90  F   UNL A   1      42.170  27.025  35.998  1.00  0.00    -0.203 F 
ATOM     91  F   UNL A   1      47.352  28.689  35.605  1.00  0.00    -0.200 F 
ATOM     92  C   UNL A   1      45.741  27.247  36.554  1.00  0.00     0.200 A 
ATOM     93  F   UNL A   1      44.096  25.820  37.466  1.00  0.00    -0.200 F 
ATOM     94  F   UNL A   1      46.692  26.632  37.270  1.00  0.00    -0.200 F 
ENDBRANCH  61  84
ENDBRANCH  35  36
ENDBRANCH  27  30
ENDBRANCH  25  26
ENDBRANCH  24  25
ENDBRANCH  23  24
ENDBRANCH   1  23
TORSDOF 15
ENDMDL
MODEL 2
REMARK VINA RESULT:     -13.0      0.799      2.181
REMARK SMILES C[C@@H](C(=O)NCCCCCCNC(=O)c1ccc(-c2c3nc(c(-c4c(F)c(F)c(F)c(F)c4F)c4ccc([nH]4)c(-c4c(F)c(F)c(F)c(F)c4F)c4nc(c(-c5c(F)c(F)c(F)c(F)c5F)c5ccc2[nH]5)C=C4)C=C3)cc1)c1ccc(-c2ccccc2)c(F)c1
REMARK SMILES IDX 8 1 7 2 6 3 5 4 3 5 4 6 2 8 1 9 78 10 79 11 90 12 80 13
REMARK SMILES IDX 88 14 81 15 89 16 82 17 83 18 87 19 84 20 86 21 85 22 9 23
REMARK SMILES IDX 10 24 11 25 12 26 13 27 14 29 15 30 16 31 77 32 17 33 76 34
REMARK SMILES IDX 18 35 19 36 20 37 70 38 21 39 75 40 69 41 71 42 22 43 74 44
REMARK SMILES IDX 68 45 67 46 23 48 55 49 35 50 54 51 36 52 39 53 53 54 72 55
REMARK SMILES IDX 37 56 38 57 52 59 73 60 40 61 24 62 25 63 33 64 26 65 27 66
REMARK SMILES IDX 31 67 34 68 28 69 29 70 32 71 30 72 56 73 57 74 65 75 58 76
REMARK SMILES IDX 59 77 63 78 66 79 60 80 61 81 64 82 62 83 41 84 42 85 50 86
REMARK SMILES IDX 43 87 44 88 48 89 51 90 45 91 46 92 49 93 47 94
REMARK H PARENT 5 7 12 28 71 47 39 58
REMARK Flexibility Score: inf
ROOT
ATOM      1  C   UNL A   1      31.938  28.773  26.385  1.00  0.00     0.002 C 
ENDROOT
BRANCH   1   2
ATOM      2  C   UNL A   1      33.262  28.017  26.568  1.00  0.00     0.021 C 
BRANCH   2   3
ATOM      3  C   UNL A   1      33.149  26.509  26.330  1.00  0.00     0.116 C 
BRANCH   3   4
ATOM      4  N   UNL A   1      33.599  26.183  24.995  1.00  0.00    -0.356 N 
ATOM      5  C   UNL A   1      32.923  25.622  23.955  1.00  0.00     0.227 C 
ATOM      6  O   UNL A   1      33.603  25.258  22.994  1.00  0.00    -0.274 OA
ATOM      7  H   UNL A   1      34.540  26.402  24.809  1.00  0.00     0.163 HD
BRANCH   5   8
ATOM      8  C   UNL A   1      31.388  25.514  23.998  1.00  0.00     0.105 C 
ATOM      9  C   UNL A   1      30.840  24.341  23.176  1.00  0.00     0.023 C 
BRANCH   8  10
ATOM     10  C   UNL A   1      30.725  26.807  23.537  1.00  0.00    -0.033 A 
ATOM     11  C   UNL A   1      31.492  27.846  22.989  1.00  0.00     0.005 A 
ATOM     12  C   UNL A   1      29.344  26.996  23.670  1.00  0.00     0.044 A 
ATOM     13  C   UNL A   1      30.894  29.033  22.569  1.00  0.00     0.012 A 
ATOM     14  C   UNL A   1      28.754  28.190  23.248  1.00  0.00     0.131 A 
ATOM     15  C   UNL A   1      29.510  29.226  22.682  1.00  0.00     0.017 A 
ATOM     16  F   UNL A   1      27.425  28.320  23.390  1.00  0.00    -0.206 F 
BRANCH  15  17
ATOM     17  C   UNL A   1      28.911  30.484  22.218  1.00  0.00    -0.015 A 
ATOM     18  C   UNL A   1      28.351  30.574  20.932  1.00  0.00     0.009 A 
ATOM     19  C   UNL A   1      28.929  31.639  23.015  1.00  0.00     0.009 A 
ATOM     20  C   UNL A   1      27.837  31.779  20.451  1.00  0.00     0.001 A 
ATOM     21  C   UNL A   1      28.418  32.847  22.533  1.00  0.00     0.001 A 
ATOM     22  C   UNL A   1      27.876  32.917  21.251  1.00  0.00     0.000 A 
ENDBRANCH  15  17
ENDBRANCH   8  10
ENDBRANCH   5   8
ENDBRANCH   3   4
ENDBRANCH   2   3
ENDBRANCH   1   2
BRANCH   1  23
ATOM     23  C   UNL A   1      32.073  30.174  25.780  1.00  0.00     0.002 C 
BRANCH  23  24
ATOM     24  C   UNL A   1      31.685  31.316  26.721  1.00  0.00     0.021 C 
BRANCH  24  25
ATOM     25  C   UNL A   1      32.867  32.126  27.244  1.00  0.00     0.116 C 
BRANCH  25  26
ATOM     26  N   UNL A   1      32.523  33.527  27.439  1.00  0.00    -0.352 N 
ATOM     27  C   UNL A   1      33.025  34.425  28.346  1.00  0.00     0.251 C 
ATOM     28  H   UNL A   1      31.831  33.880  26.834  1.00  0.00     0.163 HD
ATOM     29  O   UNL A   1      32.479  35.511  28.516  1.00  0.00    -0.269 OA
BRANCH  27  30
ATOM     30  C   UNL A   1      34.217  34.069  29.142  1.00  0.00     0.039 A 
ATOM     31  C   UNL A   1      34.049  33.365  30.336  1.00  0.00     0.014 A 
ATOM     32  C   UNL A   1      35.499  34.407  28.696  1.00  0.00     0.014 A 
ATOM     33  C   UNL A   1      35.172  32.928  31.042  1.00  0.00     0.010 A 
ATOM     34  C   UNL A   1      36.614  33.911  29.363  1.00  0.00     0.010 A 
ATOM     35  C   UNL A   1      36.462  33.154  30.535  1.00  0.00    -0.014 A 
BRANCH  35  36
ATOM     36  C   UNL A   1      37.660  32.563  31.183  1.00  0.00     0.031 A 
ATOM     37  C   UNL A   1      38.361  31.390  30.557  1.00  0.00     0.074 A 
ATOM     38  C   UNL A   1      38.059  33.029  32.384  1.00  0.00     0.049 A 
ATOM     39  N   UNL A   1      39.350  30.673  31.027  1.00  0.00    -0.248 NA
ATOM     40  C   UNL A   1      37.869  30.946  29.243  1.00  0.00     0.031 C 
ATOM     41  C   UNL A   1      37.428  34.133  33.112  1.00  0.00     0.029 A 
ATOM     42  N   UNL A   1      39.070  32.619  33.217  1.00  0.00    -0.354 N 
ATOM     43  C   UNL A   1      39.585  29.686  30.079  1.00  0.00     0.074 A 
ATOM     44  C   UNL A   1      38.614  29.872  29.023  1.00  0.00     0.031 C 
ATOM     45  C   UNL A   1      38.069  34.314  34.278  1.00  0.00     0.029 A 
ATOM     46  C   UNL A   1      39.122  33.311  34.404  1.00  0.00     0.049 A 
ATOM     47  H   UNL A   1      39.699  31.897  32.987  1.00  0.00     0.167 HD
ATOM     48  C   UNL A   1      40.535  28.722  30.090  1.00  0.00     0.037 A 
ATOM     49  C   UNL A   1      39.907  33.137  35.485  1.00  0.00     0.037 A 
ATOM     50  C   UNL A   1      41.519  28.565  31.128  1.00  0.00     0.049 A 
ATOM     51  C   UNL A   1      40.940  32.042  35.471  1.00  0.00     0.074 A 
ATOM     52  C   UNL A   1      42.587  27.685  31.175  1.00  0.00     0.029 A 
ATOM     53  N   UNL A   1      41.549  29.293  32.307  1.00  0.00    -0.354 N 
ATOM     54  N   UNL A   1      41.220  31.181  34.523  1.00  0.00    -0.248 NA
ATOM     55  C   UNL A   1      41.765  31.890  36.679  1.00  0.00     0.031 C 
ATOM     56  C   UNL A   1      43.219  27.831  32.412  1.00  0.00     0.029 A 
ATOM     57  C   UNL A   1      42.586  28.846  33.111  1.00  0.00     0.049 A 
ATOM     58  H   UNL A   1      40.928  30.020  32.539  1.00  0.00     0.167 HD
ATOM     59  C   UNL A   1      42.263  30.404  35.009  1.00  0.00     0.074 A 
ATOM     60  C   UNL A   1      42.583  30.908  36.327  1.00  0.00     0.031 C 
ATOM     61  C   UNL A   1      42.894  29.361  34.419  1.00  0.00     0.037 A 
BRANCH  48  62
ATOM     62  C   UNL A   1      40.568  27.746  28.950  1.00  0.00     0.064 A 
ATOM     63  C   UNL A   1      39.769  26.594  28.938  1.00  0.00     0.173 A 
ATOM     64  C   UNL A   1      41.345  28.018  27.812  1.00  0.00     0.173 A 
ATOM     65  F   UNL A   1      39.014  26.285  30.003  1.00  0.00    -0.203 F 
ATOM     66  C   UNL A   1      39.756  25.742  27.835  1.00  0.00     0.198 A 
ATOM     67  C   UNL A   1      41.307  27.180  26.700  1.00  0.00     0.198 A 
ATOM     68  F   UNL A   1      42.122  29.110  27.769  1.00  0.00    -0.203 F 
ATOM     69  F   UNL A   1      39.007  24.631  27.858  1.00  0.00    -0.200 F 
ATOM     70  C   UNL A   1      40.516  26.042  26.715  1.00  0.00     0.200 A 
ATOM     71  F   UNL A   1      42.029  27.481  25.612  1.00  0.00    -0.200 F 
ATOM     72  F   UNL A   1      40.485  25.233  25.646  1.00  0.00    -0.200 F 
ENDBRANCH  48  62
BRANCH  49  73
ATOM     73  C   UNL A   1      39.733  34.000  36.685  1.00  0.00     0.064 A 
ATOM     74  C   UNL A   1      40.404  35.227  36.799  1.00  0.00     0.173 A 
ATOM     75  C   UNL A   1      38.924  33.600  37.759  1.00  0.00     0.173 A 
ATOM     76  F   UNL A   1      41.206  35.644  35.809  1.00  0.00    -0.203 F 
ATOM     77  C   UNL A   1      40.298  36.001  37.953  1.00  0.00     0.198 A 
ATOM     78  C   UNL A   1      38.791  34.393  38.897  1.00  0.00     0.198 A 
ATOM     79  F   UNL A   1      38.255  32.439  37.702  1.00  0.00    -0.203 F 
ATOM     80  F   UNL A   1      41.003  37.136  38.061  1.00  0.00    -0.200 F 
ATOM     81  C   UNL A   1      39.489  35.585  38.999  1.00  0.00     0.200 A 
ATOM     82  F   UNL A   1      37.993  33.995  39.898  1.00  0.00    -0.200 F 
ATOM     83  F   UNL A   1      39.391  36.329  40.110  1.00  0.00    -0.200 F 
ENDBRANCH  49  73
BRANCH  61  84
ATOM     84  C   UNL A   1      44.005  28.701  35.183  1.00  0.00     0.064 A 
ATOM     85  C   UNL A   1      43.766  27.605  36.025  1.00  0.00     0.173 A 
ATOM     86  C   UNL A   1      45.332  29.129  35.024  1.00  0.00     0.173 A 
ATOM     87  F   UNL A   1      42.512  27.168  36.224  1.00  0.00    -0.203 F 
ATOM     88  C   UNL A   1      44.812  26.972  36.691  1.00  0.00     0.198 A 
ATOM     89  C   UNL A   1      46.378  28.473  35.665  1.00  0.00     0.198 A 
ATOM     90  F   UNL A   1      45.616  30.168  34.225  1.00  0.00    -0.203 F 
ATOM     91  F   UNL A   1      44.554  25.952  37.522  1.00  0.00    -0.200 F 
ATOM     92  C   UNL A   1      46.117  27.399  36.502  1.00  0.00     0.200 A 
ATOM     93  F   UNL A   1      47.641  28.877  35.469  1.00  0.00    -0.200 F 
ATOM     94  F   UNL A   1      47.124  26.777  37.130  1.00  0.00    -0.200 F 
ENDBRANCH  61  84
ENDBRANCH  35  36
ENDBRANCH  27  30
ENDBRANCH  25  26
ENDBRANCH  24  25
ENDBRANCH  23  24
ENDBRANCH   1  23
TORSDOF 15
ENDMDL
MODEL 3
REMARK VINA RESULT:     -12.9      5.233     10.688
REMARK SMILES C[C@@H](C(=O)NCCCCCCNC(=O)c1ccc(-c2c3nc(c(-c4c(F)c(F)c(F)c(F)c4F)c4ccc([nH]4)c(-c4c(F)c(F)c(F)c(F)c4F)c4nc(c(-c5c(F)c(F)c(F)c(F)c5F)c5ccc2[nH]5)C=C4)C=C3)cc1)c1ccc(-c2ccccc2)c(F)c1
REMARK SMILES IDX 8 1 7 2 6 3 5 4 3 5 4 6 2 8 1 9 78 10 79 11 90 12 80 13
REMARK SMILES IDX 88 14 81 15 89 16 82 17 83 18 87 19 84 20 86 21 85 22 9 23
REMARK SMILES IDX 10 24 11 25 12 26 13 27 14 29 15 30 16 31 77 32 17 33 76 34
REMARK SMILES IDX 18 35 19 36 20 37 70 38 21 39 75 40 69 41 71 42 22 43 74 44
REMARK SMILES IDX 68 45 67 46 23 48 55 49 35 50 54 51 36 52 39 53 53 54 72 55
REMARK SMILES IDX 37 56 38 57 52 59 73 60 40 61 24 62 25 63 33 64 26 65 27 66
REMARK SMILES IDX 31 67 34 68 28 69 29 70 32 71 30 72 56 73 57 74 65 75 58 76
REMARK SMILES IDX 59 77 63 78 66 79 60 80 61 81 64 82 62 83 41 84 42 85 50 86
REMARK SMILES IDX 43 87 44 88 48 89 51 90 45 91 46 92 49 93 47 94
REMARK H PARENT 5 7 12 28 71 47 39 58
REMARK Flexibility Score: inf
ROOT
ATOM      1  C   UNL A   1      34.760  24.019  24.714  1.00  0.00     0.002 C 
ENDROOT
BRANCH   1   2
ATOM      2  C   UNL A   1      34.436  25.505  24.498  1.00  0.00     0.021 C 
BRANCH   2   3
ATOM      3  C   UNL A   1      33.180  25.975  25.236  1.00  0.00     0.116 C 
BRANCH   3   4
ATOM      4  N   UNL A   1      32.277  26.625  24.313  1.00  0.00    -0.356 N 
ATOM      5  C   UNL A   1      31.044  26.244  23.879  1.00  0.00     0.227 C 
ATOM      6  O   UNL A   1      30.581  26.875  22.928  1.00  0.00    -0.274 OA
ATOM      7  H   UNL A   1      32.605  27.474  23.940  1.00  0.00     0.163 HD
BRANCH   5   8
ATOM      8  C   UNL A   1      30.284  25.116  24.600  1.00  0.00     0.105 C 
ATOM      9  C   UNL A   1      30.091  25.377  26.098  1.00  0.00     0.023 C 
BRANCH   8  10
ATOM     10  C   UNL A   1      30.971  23.768  24.406  1.00  0.00    -0.033 A 
ATOM     11  C   UNL A   1      31.168  22.906  25.495  1.00  0.00     0.005 A 
ATOM     12  C   UNL A   1      31.439  23.373  23.148  1.00  0.00     0.044 A 
ATOM     13  C   UNL A   1      31.799  21.674  25.328  1.00  0.00     0.012 A 
ATOM     14  C   UNL A   1      32.073  22.138  22.990  1.00  0.00     0.131 A 
ATOM     15  C   UNL A   1      32.257  21.261  24.068  1.00  0.00     0.017 A 
ATOM     16  F   UNL A   1      32.497  21.800  21.762  1.00  0.00    -0.206 F 
BRANCH  15  17
ATOM     17  C   UNL A   1      32.906  19.951  23.925  1.00  0.00    -0.015 A 
ATOM     18  C   UNL A   1      32.321  18.950  23.130  1.00  0.00     0.009 A 
ATOM     19  C   UNL A   1      34.089  19.643  24.614  1.00  0.00     0.009 A 
ATOM     20  C   UNL A   1      32.891  17.679  23.036  1.00  0.00     0.001 A 
ATOM     21  C   UNL A   1      34.658  18.371  24.523  1.00  0.00     0.001 A 
ATOM     22  C   UNL A   1      34.057  17.389  23.737  1.00  0.00     0.000 A 
ENDBRANCH  15  17
ENDBRANCH   8  10
ENDBRANCH   5   8
ENDBRANCH   3   4
ENDBRANCH   2   3
ENDBRANCH   1   2
BRANCH   1  23
ATOM     23  C   UNL A   1      35.357  23.306  23.497  1.00  0.00     0.002 C 
BRANCH  23  24
ATOM     24  C   UNL A   1      36.548  22.398  23.810  1.00  0.00     0.021 C 
BRANCH  24  25
ATOM     25  C   UNL A   1      36.825  22.219  25.299  1.00  0.00     0.116 C 
BRANCH  25  26
ATOM     26  N   UNL A   1      37.744  21.119  25.553  1.00  0.00    -0.352 N 
ATOM     27  C   UNL A   1      39.028  21.154  26.036  1.00  0.00     0.251 C 
ATOM     28  H   UNL A   1      37.394  20.221  25.349  1.00  0.00     0.163 HD
ATOM     29  O   UNL A   1      39.737  20.153  25.994  1.00  0.00    -0.269 OA
BRANCH  27  30
ATOM     30  C   UNL A   1      39.565  22.415  26.585  1.00  0.00     0.039 A 
ATOM     31  C   UNL A   1      40.563  22.359  27.560  1.00  0.00     0.014 A 
ATOM     32  C   UNL A   1      39.102  23.649  26.119  1.00  0.00     0.014 A 
ATOM     33  C   UNL A   1      41.156  23.540  28.009  1.00  0.00     0.010 A 
ATOM     34  C   UNL A   1      39.742  24.820  26.515  1.00  0.00     0.010 A 
ATOM     35  C   UNL A   1      40.785  24.776  27.454  1.00  0.00    -0.014 A 
BRANCH  35  36
ATOM     36  C   UNL A   1      41.509  26.026  27.798  1.00  0.00     0.031 A 
ATOM     37  C   UNL A   1      40.802  27.139  28.519  1.00  0.00     0.074 A 
ATOM     38  C   UNL A   1      42.779  26.190  27.375  1.00  0.00     0.049 A 
ATOM     39  N   UNL A   1      41.233  28.341  28.806  1.00  0.00    -0.248 NA
ATOM     40  C   UNL A   1      39.420  26.878  28.952  1.00  0.00     0.031 C 
ATOM     41  C   UNL A   1      43.554  25.199  26.625  1.00  0.00     0.029 A 
ATOM     42  N   UNL A   1      43.634  27.259  27.492  1.00  0.00    -0.354 N 
ATOM     43  C   UNL A   1      40.174  28.983  29.433  1.00  0.00     0.074 A 
ATOM     44  C   UNL A   1      39.066  28.053  29.455  1.00  0.00     0.031 C 
ATOM     45  C   UNL A   1      44.768  25.703  26.354  1.00  0.00     0.029 A 
ATOM     46  C   UNL A   1      44.843  27.068  26.865  1.00  0.00     0.049 A 
ATOM     47  H   UNL A   1      43.403  28.084  27.977  1.00  0.00     0.167 HD
ATOM     48  C   UNL A   1      40.139  30.233  29.952  1.00  0.00     0.037 A 
ATOM     49  C   UNL A   1      45.881  27.909  26.693  1.00  0.00     0.037 A 
ATOM     50  C   UNL A   1      41.256  31.140  29.957  1.00  0.00     0.049 A 
ATOM     51  C   UNL A   1      45.801  29.299  27.267  1.00  0.00     0.074 A 
ATOM     52  C   UNL A   1      41.349  32.386  30.553  1.00  0.00     0.029 A 
ATOM     53  N   UNL A   1      42.467  30.907  29.326  1.00  0.00    -0.354 N 
ATOM     54  N   UNL A   1      44.831  29.857  27.948  1.00  0.00    -0.248 NA
ATOM     55  C   UNL A   1      46.958  30.178  27.044  1.00  0.00     0.031 C 
ATOM     56  C   UNL A   1      42.589  32.937  30.222  1.00  0.00     0.029 A 
ATOM     57  C   UNL A   1      43.295  32.009  29.474  1.00  0.00     0.049 A 
ATOM     58  H   UNL A   1      42.705  30.082  28.845  1.00  0.00     0.167 HD
ATOM     59  C   UNL A   1      45.268  31.139  28.253  1.00  0.00     0.074 A 
ATOM     60  C   UNL A   1      46.600  31.271  27.703  1.00  0.00     0.031 C 
ATOM     61  C   UNL A   1      44.620  32.123  28.923  1.00  0.00     0.037 A 
BRANCH  48  62
ATOM     62  C   UNL A   1      38.853  30.712  30.560  1.00  0.00     0.064 A 
ATOM     63  C   UNL A   1      37.798  31.197  29.775  1.00  0.00     0.173 A 
ATOM     64  C   UNL A   1      38.642  30.598  31.944  1.00  0.00     0.173 A 
ATOM     65  F   UNL A   1      37.950  31.333  28.449  1.00  0.00    -0.203 F 
ATOM     66  C   UNL A   1      36.584  31.563  30.353  1.00  0.00     0.198 A 
ATOM     67  C   UNL A   1      37.418  30.937  32.514  1.00  0.00     0.198 A 
ATOM     68  F   UNL A   1      39.617  30.133  32.740  1.00  0.00    -0.203 F 
ATOM     69  F   UNL A   1      35.600  32.053  29.586  1.00  0.00    -0.200 F 
ATOM     70  C   UNL A   1      36.392  31.423  31.719  1.00  0.00     0.200 A 
ATOM     71  F   UNL A   1      37.230  30.784  33.832  1.00  0.00    -0.200 F 
ATOM     72  F   UNL A   1      35.217  31.755  32.270  1.00  0.00    -0.200 F 
ENDBRANCH  48  62
BRANCH  49  73
ATOM     73  C   UNL A   1      47.078  27.475  25.923  1.00  0.00     0.064 A 
ATOM     74  C   UNL A   1      48.184  26.899  26.566  1.00  0.00     0.173 A 
ATOM     75  C   UNL A   1      47.159  27.661  24.534  1.00  0.00     0.173 A 
ATOM     76  F   UNL A   1      48.166  26.719  27.895  1.00  0.00    -0.203 F 
ATOM     77  C   UNL A   1      49.334  26.558  25.855  1.00  0.00     0.198 A 
ATOM     78  C   UNL A   1      48.295  27.287  23.820  1.00  0.00     0.198 A 
ATOM     79  F   UNL A   1      46.128  28.203  23.868  1.00  0.00    -0.203 F 
ATOM     80  F   UNL A   1      50.400  26.072  26.505  1.00  0.00    -0.200 F 
ATOM     81  C   UNL A   1      49.386  26.750  24.483  1.00  0.00     0.200 A 
ATOM     82  F   UNL A   1      48.333  27.457  22.491  1.00  0.00    -0.200 F 
ATOM     83  F   UNL A   1      50.494  26.425  23.801  1.00  0.00    -0.200 F 
ENDBRANCH  49  73
BRANCH  61  84
ATOM     84  C   UNL A   1      45.344  33.424  29.114  1.00  0.00     0.064 A 
ATOM     85  C   UNL A   1      46.200  33.633  30.205  1.00  0.00     0.173 A 
ATOM     86  C   UNL A   1      45.229  34.450  28.164  1.00  0.00     0.173 A 
ATOM     87  F   UNL A   1      46.331  32.689  31.150  1.00  0.00    -0.203 F 
ATOM     88  C   UNL A   1      46.903  34.827  30.346  1.00  0.00     0.198 A 
ATOM     89  C   UNL A   1      45.958  35.629  28.290  1.00  0.00     0.198 A 
ATOM     90  F   UNL A   1      44.428  34.299  27.098  1.00  0.00    -0.203 F 
ATOM     91  F   UNL A   1      47.685  35.019  31.417  1.00  0.00    -0.200 F 
ATOM     92  C   UNL A   1      46.790  35.818  29.383  1.00  0.00     0.200 A 
ATOM     93  F   UNL A   1      45.860  36.580  27.351  1.00  0.00    -0.200 F 
ATOM     94  F   UNL A   1      47.480  36.960  29.511  1.00  0.00    -0.200 F 
ENDBRANCH  61  84
ENDBRANCH  35  36
ENDBRANCH  27  30
ENDBRANCH  25  26
ENDBRANCH  24  25
ENDBRANCH  23  24
ENDBRANCH   1  23
TORSDOF 15
ENDMDL
