MODEL 1
REMARK VINA RESULT:     -11.5      0.000      0.000
REMARK SMILES N#Cc1ccccc1NC(=O)C[N@H+]1CCCC[C@H]1C(=O)NCCCCCCNC(=O)c1ccc(-c2c3nc(c(-c4c(F)c(F)c(F)c(F)c4F)c4ccc([nH]4)c(-c4c(F)c(F)c(F)c(F)c4F)c4nc(c(-c5c(F)c(F)c(F)c(F)c5F)c5ccc2[nH]5)C=C4)C=C3)cc1
REMARK SMILES IDX 23 1 22 2 21 3 19 4 20 5 18 7 13 8 14 9 15 11 17 12 16 13
REMARK SMILES IDX 12 14 10 15 9 16 11 18 8 19 3 20 4 21 5 22 7 23 6 24 2 25
REMARK SMILES IDX 1 26 24 27 25 28 26 29 27 30 28 31 29 32 30 34 31 35 32 36
REMARK SMILES IDX 93 37 33 38 92 39 34 40 35 41 36 42 86 43 37 44 91 45 85 46
REMARK SMILES IDX 87 47 38 48 90 49 84 50 83 51 39 53 71 54 51 55 70 56 52 57
REMARK SMILES IDX 55 58 69 59 88 60 53 61 54 62 68 64 89 65 56 66 40 67 41 68
REMARK SMILES IDX 49 69 42 70 43 71 47 72 50 73 44 74 45 75 48 76 46 77 72 78
REMARK SMILES IDX 73 79 81 80 74 81 75 82 79 83 82 84 76 85 77 86 80 87 78 88
REMARK SMILES IDX 57 89 58 90 66 91 59 92 60 93 64 94 67 95 61 96 62 97 65 98
REMARK SMILES IDX 63 99
REMARK H PARENT 21 6 13 10 9 17 28 33 87 52 55 63
REMARK Flexibility Score: inf
ROOT
ATOM      1  C   UNL A   1      30.735  27.676  24.833  1.00  0.00     0.021 C 
ENDROOT
BRANCH   1   2
ATOM      2  C   UNL A   1      30.873  26.400  25.657  1.00  0.00     0.116 C 
BRANCH   2   3
ATOM      3  N   UNL A   1      30.311  25.325  24.886  1.00  0.00    -0.351 N 
ATOM      4  C   UNL A   1      30.945  24.451  24.066  1.00  0.00     0.278 C 
ATOM      5  O   UNL A   1      30.266  24.035  23.126  1.00  0.00    -0.268 OA
ATOM      6  H   UNL A   1      29.337  25.207  24.964  1.00  0.00     0.163 HD
BRANCH   4   7
ATOM      7  C   UNL A   1      32.377  23.957  24.406  1.00  0.00     0.274 C 
ATOM      8  N   UNL A   1      32.588  22.550  24.012  1.00  0.00    -0.317 N 
ATOM      9  C   UNL A   1      32.541  22.339  22.559  1.00  0.00     0.263 C 
ATOM     10  H   UNL A   1      33.556  22.394  24.292  1.00  0.00     0.349 HD
ATOM     11  C   UNL A   1      33.460  23.309  21.786  1.00  0.00     0.062 C 
ATOM     12  C   UNL A   1      33.490  24.795  23.767  1.00  0.00     0.076 C 
ATOM     13  C   UNL A   1      33.383  24.755  22.258  1.00  0.00     0.012 C 
BRANCH   8  14
ATOM     14  C   UNL A   1      31.923  21.498  24.817  1.00  0.00     0.364 C 
BRANCH  14  15
ATOM     15  C   UNL A   1      32.730  20.275  25.279  1.00  0.00     0.279 C 
ATOM     16  N   UNL A   1      34.069  20.295  25.591  1.00  0.00    -0.320 N 
ATOM     17  H   UNL A   1      34.412  19.421  25.886  1.00  0.00     0.170 HD
ATOM     18  O   UNL A   1      32.165  19.176  25.380  1.00  0.00    -0.268 OA
BRANCH  16  19
ATOM     19  C   UNL A   1      35.061  21.305  25.575  1.00  0.00     0.059 A 
ATOM     20  C   UNL A   1      34.984  22.375  26.495  1.00  0.00     0.076 A 
ATOM     21  C   UNL A   1      35.797  23.513  26.327  1.00  0.00     0.021 A 
ATOM     22  C   UNL A   1      36.703  23.584  25.273  1.00  0.00     0.002 A 
ATOM     23  C   UNL A   1      36.086  21.336  24.628  1.00  0.00     0.027 A 
ATOM     24  C   UNL A   1      36.872  22.480  24.449  1.00  0.00     0.002 A 
BRANCH  20  25
ATOM     25  C   UNL A   1      33.994  22.433  27.529  1.00  0.00     0.101 C 
ATOM     26  N   UNL A   1      33.197  22.422  28.378  1.00  0.00    -0.192 NA
ENDBRANCH  20  25
ENDBRANCH  16  19
ENDBRANCH  14  15
ENDBRANCH   8  14
ENDBRANCH   4   7
ENDBRANCH   2   3
ENDBRANCH   1   2
BRANCH   1  27
ATOM     27  C   UNL A   1      32.043  28.024  24.097  1.00  0.00     0.002 C 
BRANCH  27  28
ATOM     28  C   UNL A   1      32.940  29.010  24.857  1.00  0.00     0.002 C 
BRANCH  28  29
ATOM     29  C   UNL A   1      33.950  28.326  25.778  1.00  0.00     0.021 C 
BRANCH  29  30
ATOM     30  C   UNL A   1      33.680  28.582  27.254  1.00  0.00     0.116 C 
BRANCH  30  31
ATOM     31  N   UNL A   1      33.692  30.005  27.553  1.00  0.00    -0.352 N 
ATOM     32  C   UNL A   1      34.664  30.730  28.189  1.00  0.00     0.251 C 
ATOM     33  H   UNL A   1      32.900  30.511  27.260  1.00  0.00     0.163 HD
ATOM     34  O   UNL A   1      34.445  31.866  28.590  1.00  0.00    -0.269 OA
BRANCH  32  35
ATOM     35  C   UNL A   1      35.977  30.100  28.404  1.00  0.00     0.039 A 
ATOM     36  C   UNL A   1      36.929  30.159  27.385  1.00  0.00     0.014 A 
ATOM     37  C   UNL A   1      36.282  29.513  29.636  1.00  0.00     0.014 A 
ATOM     38  C   UNL A   1      38.216  29.686  27.628  1.00  0.00     0.010 A 
ATOM     39  C   UNL A   1      37.587  29.120  29.902  1.00  0.00     0.010 A 
ATOM     40  C   UNL A   1      38.567  29.208  28.902  1.00  0.00    -0.014 A 
BRANCH  40  41
ATOM     41  C   UNL A   1      39.965  28.828  29.219  1.00  0.00     0.031 A 
ATOM     42  C   UNL A   1      40.869  29.801  29.920  1.00  0.00     0.074 A 
ATOM     43  C   UNL A   1      40.435  27.635  28.803  1.00  0.00     0.049 A 
ATOM     44  N   UNL A   1      42.140  29.686  30.204  1.00  0.00    -0.248 NA
ATOM     45  C   UNL A   1      40.273  31.081  30.338  1.00  0.00     0.031 C 
ATOM     46  C   UNL A   1      39.658  26.628  28.076  1.00  0.00     0.029 A 
ATOM     47  N   UNL A   1      41.682  27.073  28.915  1.00  0.00    -0.354 N 
ATOM     48  C   UNL A   1      42.500  30.881  30.814  1.00  0.00     0.074 A 
ATOM     49  C   UNL A   1      41.326  31.723  30.826  1.00  0.00     0.031 C 
ATOM     50  C   UNL A   1      40.441  25.567  27.822  1.00  0.00     0.029 A 
ATOM     51  C   UNL A   1      41.787  25.842  28.313  1.00  0.00     0.049 A 
ATOM     52  H   UNL A   1      42.430  27.510  29.382  1.00  0.00     0.167 HD
ATOM     53  C   UNL A   1      43.701  31.231  31.329  1.00  0.00     0.037 A 
ATOM     54  C   UNL A   1      42.855  25.038  28.149  1.00  0.00     0.037 A 
ATOM     55  C   UNL A   1      44.857  30.373  31.334  1.00  0.00     0.049 A 
ATOM     56  C   UNL A   1      44.187  25.474  28.705  1.00  0.00     0.074 A 
ATOM     57  C   UNL A   1      46.094  30.603  31.910  1.00  0.00     0.029 A 
ATOM     58  N   UNL A   1      44.925  29.131  30.719  1.00  0.00    -0.354 N 
ATOM     59  N   UNL A   1      44.489  26.562  29.370  1.00  0.00    -0.248 NA
ATOM     60  C   UNL A   1      45.327  24.572  28.486  1.00  0.00     0.031 C 
ATOM     61  C   UNL A   1      46.936  29.541  31.571  1.00  0.00     0.029 A 
ATOM     62  C   UNL A   1      46.202  28.611  30.854  1.00  0.00     0.049 A 
ATOM     63  H   UNL A   1      44.178  28.687  30.257  1.00  0.00     0.167 HD
ATOM     64  C   UNL A   1      45.842  26.464  29.670  1.00  0.00     0.074 A 
ATOM     65  C   UNL A   1      46.297  25.198  29.136  1.00  0.00     0.031 C 
ATOM     66  C   UNL A   1      46.638  27.345  30.322  1.00  0.00     0.037 A 
BRANCH  53  67
ATOM     67  C   UNL A   1      43.850  32.603  31.917  1.00  0.00     0.064 A 
ATOM     68  C   UNL A   1      43.745  32.837  33.296  1.00  0.00     0.173 A 
ATOM     69  C   UNL A   1      44.189  33.688  31.092  1.00  0.00     0.173 A 
ATOM     70  F   UNL A   1      43.416  31.837  34.127  1.00  0.00    -0.203 F 
ATOM     71  C   UNL A   1      43.960  34.107  33.825  1.00  0.00     0.198 A 
ATOM     72  C   UNL A   1      44.436  34.947  31.627  1.00  0.00     0.198 A 
ATOM     73  F   UNL A   1      44.306  33.518  29.766  1.00  0.00    -0.203 F 
ATOM     74  F   UNL A   1      43.822  34.315  35.141  1.00  0.00    -0.200 F 
ATOM     75  C   UNL A   1      44.318  35.157  32.993  1.00  0.00     0.200 A 
ATOM     76  F   UNL A   1      44.800  35.956  30.823  1.00  0.00    -0.200 F 
ATOM     77  F   UNL A   1      44.547  36.374  33.506  1.00  0.00    -0.200 F 
ENDBRANCH  53  67
BRANCH  54  78
ATOM     78  C   UNL A   1      42.729  23.757  27.401  1.00  0.00     0.064 A 
ATOM     79  C   UNL A   1      42.267  22.592  28.029  1.00  0.00     0.173 A 
ATOM     80  C   UNL A   1      43.112  23.659  26.054  1.00  0.00     0.173 A 
ATOM     81  F   UNL A   1      41.903  22.625  29.319  1.00  0.00    -0.203 F 
ATOM     82  C   UNL A   1      42.234  21.373  27.353  1.00  0.00     0.198 A 
ATOM     83  C   UNL A   1      43.040  22.450  25.368  1.00  0.00     0.198 A 
ATOM     84  F   UNL A   1      43.556  24.744  25.400  1.00  0.00    -0.203 F 
ATOM     85  F   UNL A   1      41.860  20.261  28.000  1.00  0.00    -0.200 F 
ATOM     86  C   UNL A   1      42.617  21.303  26.022  1.00  0.00     0.200 A 
ATOM     87  F   UNL A   1      43.392  22.393  24.076  1.00  0.00    -0.200 F 
ATOM     88  F   UNL A   1      42.593  20.131  25.375  1.00  0.00    -0.200 F 
ENDBRANCH  54  78
BRANCH  66  89
ATOM     89  C   UNL A   1      48.079  26.969  30.519  1.00  0.00     0.064 A 
ATOM     90  C   UNL A   1      49.081  27.412  29.644  1.00  0.00     0.173 A 
ATOM     91  C   UNL A   1      48.468  26.211  31.634  1.00  0.00     0.173 A 
ATOM     92  F   UNL A   1      48.759  28.126  28.554  1.00  0.00    -0.203 F 
ATOM     93  C   UNL A   1      50.418  27.098  29.870  1.00  0.00     0.198 A 
ATOM     94  C   UNL A   1      49.810  25.931  31.877  1.00  0.00     0.198 A 
ATOM     95  F   UNL A   1      47.550  25.768  32.506  1.00  0.00    -0.203 F 
ATOM     96  F   UNL A   1      51.354  27.495  28.997  1.00  0.00    -0.200 F 
ATOM     97  C   UNL A   1      50.783  26.369  30.992  1.00  0.00     0.200 A 
ATOM     98  F   UNL A   1      50.161  25.244  32.972  1.00  0.00    -0.200 F 
ATOM     99  F   UNL A   1      52.072  26.085  31.218  1.00  0.00    -0.200 F 
ENDBRANCH  66  89
ENDBRANCH  40  41
ENDBRANCH  32  35
ENDBRANCH  30  31
ENDBRANCH  29  30
ENDBRANCH  28  29
ENDBRANCH  27  28
ENDBRANCH   1  27
TORSDOF 17
ENDMDL
MODEL 2
REMARK VINA RESULT:     -11.0      4.404      9.247
REMARK SMILES N#Cc1ccccc1NC(=O)C[N@H+]1CCCC[C@H]1C(=O)NCCCCCCNC(=O)c1ccc(-c2c3nc(c(-c4c(F)c(F)c(F)c(F)c4F)c4ccc([nH]4)c(-c4c(F)c(F)c(F)c(F)c4F)c4nc(c(-c5c(F)c(F)c(F)c(F)c5F)c5ccc2[nH]5)C=C4)C=C3)cc1
REMARK SMILES IDX 23 1 22 2 21 3 19 4 20 5 18 7 13 8 14 9 15 11 17 12 16 13
REMARK SMILES IDX 12 14 10 15 9 16 11 18 8 19 3 20 4 21 5 22 7 23 6 24 2 25
REMARK SMILES IDX 1 26 24 27 25 28 26 29 27 30 28 31 29 32 30 34 31 35 32 36
REMARK SMILES IDX 93 37 33 38 92 39 34 40 35 41 36 42 86 43 37 44 91 45 85 46
REMARK SMILES IDX 87 47 38 48 90 49 84 50 83 51 39 53 71 54 51 55 70 56 52 57
REMARK SMILES IDX 55 58 69 59 88 60 53 61 54 62 68 64 89 65 56 66 40 67 41 68
REMARK SMILES IDX 49 69 42 70 43 71 47 72 50 73 44 74 45 75 48 76 46 77 72 78
REMARK SMILES IDX 73 79 81 80 74 81 75 82 79 83 82 84 76 85 77 86 80 87 78 88
REMARK SMILES IDX 57 89 58 90 66 91 59 92 60 93 64 94 67 95 61 96 62 97 65 98
REMARK SMILES IDX 63 99
REMARK H PARENT 21 6 13 10 9 17 28 33 87 52 55 63
REMARK Flexibility Score: inf
ROOT
ATOM      1  C   UNL A   1      39.502  23.520  27.051  1.00  0.00     0.021 C 
ENDROOT
BRANCH   1   2
ATOM      2  C   UNL A   1      38.170  24.069  26.552  1.00  0.00     0.116 C 
BRANCH   2   3
ATOM      3  N   UNL A   1      37.964  23.560  25.223  1.00  0.00    -0.351 N 
ATOM      4  C   UNL A   1      36.833  23.049  24.679  1.00  0.00     0.278 C 
ATOM      5  O   UNL A   1      37.015  22.197  23.808  1.00  0.00    -0.268 OA
ATOM      6  H   UNL A   1      38.749  23.586  24.629  1.00  0.00     0.163 HD
BRANCH   4   7
ATOM      7  C   UNL A   1      35.446  23.620  25.078  1.00  0.00     0.274 C 
ATOM      8  N   UNL A   1      34.400  23.279  24.094  1.00  0.00    -0.317 N 
ATOM      9  C   UNL A   1      34.116  21.839  24.023  1.00  0.00     0.263 C 
ATOM     10  H   UNL A   1      33.573  23.713  24.503  1.00  0.00     0.349 HD
ATOM     11  C   UNL A   1      33.843  21.215  25.408  1.00  0.00     0.062 C 
ATOM     12  C   UNL A   1      34.959  23.161  26.457  1.00  0.00     0.076 C 
ATOM     13  C   UNL A   1      34.816  21.655  26.494  1.00  0.00     0.012 C 
BRANCH   8  14
ATOM     14  C   UNL A   1      34.425  23.976  22.786  1.00  0.00     0.364 C 
BRANCH  14  15
ATOM     15  C   UNL A   1      33.438  25.122  22.520  1.00  0.00     0.279 C 
ATOM     16  N   UNL A   1      32.333  25.396  23.291  1.00  0.00    -0.320 N 
ATOM     17  H   UNL A   1      31.828  26.181  22.979  1.00  0.00     0.170 HD
ATOM     18  O   UNL A   1      33.617  25.866  21.544  1.00  0.00    -0.268 OA
BRANCH  16  19
ATOM     19  C   UNL A   1      31.765  24.789  24.436  1.00  0.00     0.059 A 
ATOM     20  C   UNL A   1      32.075  25.291  25.721  1.00  0.00     0.076 A 
ATOM     21  C   UNL A   1      31.740  24.550  26.870  1.00  0.00     0.021 A 
ATOM     22  C   UNL A   1      31.077  23.332  26.757  1.00  0.00     0.002 A 
ATOM     23  C   UNL A   1      30.963  23.649  24.362  1.00  0.00     0.027 A 
ATOM     24  C   UNL A   1      30.655  22.903  25.505  1.00  0.00     0.002 A 
BRANCH  20  25
ATOM     25  C   UNL A   1      32.864  26.471  25.917  1.00  0.00     0.101 C 
ATOM     26  N   UNL A   1      33.521  27.409  26.128  1.00  0.00    -0.192 NA
ENDBRANCH  20  25
ENDBRANCH  16  19
ENDBRANCH  14  15
ENDBRANCH   8  14
ENDBRANCH   4   7
ENDBRANCH   2   3
ENDBRANCH   1   2
BRANCH   1  27
ATOM     27  C   UNL A   1      39.765  22.095  26.526  1.00  0.00     0.002 C 
BRANCH  27  28
ATOM     28  C   UNL A   1      40.983  21.414  27.162  1.00  0.00     0.002 C 
BRANCH  28  29
ATOM     29  C   UNL A   1      42.184  21.316  26.222  1.00  0.00     0.021 C 
BRANCH  29  30
ATOM     30  C   UNL A   1      42.382  22.566  25.376  1.00  0.00     0.116 C 
BRANCH  30  31
ATOM     31  N   UNL A   1      43.792  22.896  25.243  1.00  0.00    -0.352 N 
ATOM     32  C   UNL A   1      44.445  24.019  25.676  1.00  0.00     0.251 C 
ATOM     33  H   UNL A   1      44.347  22.225  24.784  1.00  0.00     0.163 HD
ATOM     34  O   UNL A   1      45.577  24.281  25.290  1.00  0.00    -0.269 OA
BRANCH  32  35
ATOM     35  C   UNL A   1      43.741  24.924  26.600  1.00  0.00     0.039 A 
ATOM     36  C   UNL A   1      42.969  24.375  27.624  1.00  0.00     0.014 A 
ATOM     37  C   UNL A   1      43.903  26.308  26.488  1.00  0.00     0.014 A 
ATOM     38  C   UNL A   1      42.411  25.218  28.583  1.00  0.00     0.010 A 
ATOM     39  C   UNL A   1      43.416  27.137  27.490  1.00  0.00     0.010 A 
ATOM     40  C   UNL A   1      42.670  26.599  28.549  1.00  0.00    -0.014 A 
BRANCH  40  41
ATOM     41  C   UNL A   1      42.199  27.493  29.634  1.00  0.00     0.031 A 
ATOM     42  C   UNL A   1      42.853  27.447  30.985  1.00  0.00     0.074 A 
ATOM     43  C   UNL A   1      41.131  28.286  29.418  1.00  0.00     0.049 A 
ATOM     44  N   UNL A   1      42.528  28.083  32.080  1.00  0.00    -0.248 NA
ATOM     45  C   UNL A   1      44.012  26.550  31.134  1.00  0.00     0.031 C 
ATOM     46  C   UNL A   1      40.391  28.382  28.158  1.00  0.00     0.029 A 
ATOM     47  N   UNL A   1      40.471  29.151  30.256  1.00  0.00    -0.354 N 
ATOM     48  C   UNL A   1      43.426  27.653  33.048  1.00  0.00     0.074 A 
ATOM     49  C   UNL A   1      44.285  26.672  32.425  1.00  0.00     0.031 C 
ATOM     50  C   UNL A   1      39.391  29.266  28.301  1.00  0.00     0.029 A 
ATOM     51  C   UNL A   1      39.381  29.755  29.675  1.00  0.00     0.049 A 
ATOM     52  H   UNL A   1      40.752  29.323  31.183  1.00  0.00     0.167 HD
ATOM     53  C   UNL A   1      43.527  28.055  34.336  1.00  0.00     0.037 A 
ATOM     54  C   UNL A   1      38.460  30.585  30.201  1.00  0.00     0.037 A 
ATOM     55  C   UNL A   1      42.681  29.051  34.938  1.00  0.00     0.049 A 
ATOM     56  C   UNL A   1      38.583  30.987  31.648  1.00  0.00     0.074 A 
ATOM     57  C   UNL A   1      42.761  29.591  36.210  1.00  0.00     0.029 A 
ATOM     58  N   UNL A   1      41.590  29.644  34.319  1.00  0.00    -0.354 N 
ATOM     59  N   UNL A   1      39.497  30.651  32.525  1.00  0.00    -0.248 NA
ATOM     60  C   UNL A   1      37.545  31.880  32.182  1.00  0.00     0.031 C 
ATOM     61  C   UNL A   1      41.671  30.444  36.390  1.00  0.00     0.029 A 
ATOM     62  C   UNL A   1      40.956  30.500  35.205  1.00  0.00     0.049 A 
ATOM     63  H   UNL A   1      41.309  29.481  33.390  1.00  0.00     0.167 HD
ATOM     64  C   UNL A   1      39.161  31.310  33.701  1.00  0.00     0.074 A 
ATOM     65  C   UNL A   1      37.972  32.085  33.419  1.00  0.00     0.031 C 
ATOM     66  C   UNL A   1      39.776  31.271  34.907  1.00  0.00     0.037 A 
BRANCH  53  67
ATOM     67  C   UNL A   1      44.572  27.414  35.201  1.00  0.00     0.064 A 
ATOM     68  C   UNL A   1      45.850  27.970  35.358  1.00  0.00     0.173 A 
ATOM     69  C   UNL A   1      44.258  26.269  35.951  1.00  0.00     0.173 A 
ATOM     70  F   UNL A   1      46.205  29.058  34.658  1.00  0.00    -0.203 F 
ATOM     71  C   UNL A   1      46.778  27.397  36.224  1.00  0.00     0.198 A 
ATOM     72  C   UNL A   1      45.175  25.720  36.841  1.00  0.00     0.198 A 
ATOM     73  F   UNL A   1      43.047  25.701  35.841  1.00  0.00    -0.203 F 
ATOM     74  F   UNL A   1      48.005  27.924  36.334  1.00  0.00    -0.200 F 
ATOM     75  C   UNL A   1      46.436  26.281  36.973  1.00  0.00     0.200 A 
ATOM     76  F   UNL A   1      44.835  24.653  37.577  1.00  0.00    -0.200 F 
ATOM     77  F   UNL A   1      47.322  25.744  37.824  1.00  0.00    -0.200 F 
ENDBRANCH  53  67
BRANCH  54  78
ATOM     78  C   UNL A   1      37.322  31.070  29.373  1.00  0.00     0.064 A 
ATOM     79  C   UNL A   1      37.266  32.395  28.919  1.00  0.00     0.173 A 
ATOM     80  C   UNL A   1      36.241  30.232  29.059  1.00  0.00     0.173 A 
ATOM     81  F   UNL A   1      38.264  33.244  29.205  1.00  0.00    -0.203 F 
ATOM     82  C   UNL A   1      36.158  32.873  28.222  1.00  0.00     0.198 A 
ATOM     83  C   UNL A   1      35.152  30.699  28.327  1.00  0.00     0.198 A 
ATOM     84  F   UNL A   1      36.242  28.952  29.462  1.00  0.00    -0.203 F 
ATOM     85  F   UNL A   1      36.099  34.164  27.866  1.00  0.00    -0.200 F 
ATOM     86  C   UNL A   1      35.103  32.024  27.923  1.00  0.00     0.200 A 
ATOM     87  F   UNL A   1      34.146  29.867  28.023  1.00  0.00    -0.200 F 
ATOM     88  F   UNL A   1      34.035  32.485  27.259  1.00  0.00    -0.200 F 
ENDBRANCH  54  78
BRANCH  66  89
ATOM     89  C   UNL A   1      39.194  32.104  36.013  1.00  0.00     0.064 A 
ATOM     90  C   UNL A   1      38.255  31.580  36.913  1.00  0.00     0.173 A 
ATOM     91  C   UNL A   1      39.632  33.423  36.213  1.00  0.00     0.173 A 
ATOM     92  F   UNL A   1      37.793  30.330  36.755  1.00  0.00    -0.203 F 
ATOM     93  C   UNL A   1      37.765  32.350  37.964  1.00  0.00     0.198 A 
ATOM     94  C   UNL A   1      39.167  34.176  37.287  1.00  0.00     0.198 A 
ATOM     95  F   UNL A   1      40.535  33.970  35.385  1.00  0.00    -0.203 F 
ATOM     96  F   UNL A   1      36.836  31.843  38.786  1.00  0.00    -0.200 F 
ATOM     97  C   UNL A   1      38.230  33.642  38.158  1.00  0.00     0.200 A 
ATOM     98  F   UNL A   1      39.634  35.417  37.484  1.00  0.00    -0.200 F 
ATOM     99  F   UNL A   1      37.772  34.374  39.182  1.00  0.00    -0.200 F 
ENDBRANCH  66  89
ENDBRANCH  40  41
ENDBRANCH  32  35
ENDBRANCH  30  31
ENDBRANCH  29  30
ENDBRANCH  28  29
ENDBRANCH  27  28
ENDBRANCH   1  27
TORSDOF 17
ENDMDL
MODEL 3
REMARK VINA RESULT:     -10.4      4.206      7.559
REMARK SMILES N#Cc1ccccc1NC(=O)C[N@H+]1CCCC[C@H]1C(=O)NCCCCCCNC(=O)c1ccc(-c2c3nc(c(-c4c(F)c(F)c(F)c(F)c4F)c4ccc([nH]4)c(-c4c(F)c(F)c(F)c(F)c4F)c4nc(c(-c5c(F)c(F)c(F)c(F)c5F)c5ccc2[nH]5)C=C4)C=C3)cc1
REMARK SMILES IDX 23 1 22 2 21 3 19 4 20 5 18 7 13 8 14 9 15 11 17 12 16 13
REMARK SMILES IDX 12 14 10 15 9 16 11 18 8 19 3 20 4 21 5 22 7 23 6 24 2 25
REMARK SMILES IDX 1 26 24 27 25 28 26 29 27 30 28 31 29 32 30 34 31 35 32 36
REMARK SMILES IDX 93 37 33 38 92 39 34 40 35 41 36 42 86 43 37 44 91 45 85 46
REMARK SMILES IDX 87 47 38 48 90 49 84 50 83 51 39 53 71 54 51 55 70 56 52 57
REMARK SMILES IDX 55 58 69 59 88 60 53 61 54 62 68 64 89 65 56 66 40 67 41 68
REMARK SMILES IDX 49 69 42 70 43 71 47 72 50 73 44 74 45 75 48 76 46 77 72 78
REMARK SMILES IDX 73 79 81 80 74 81 75 82 79 83 82 84 76 85 77 86 80 87 78 88
REMARK SMILES IDX 57 89 58 90 66 91 59 92 60 93 64 94 67 95 61 96 62 97 65 98
REMARK SMILES IDX 63 99
REMARK H PARENT 21 6 13 10 9 17 28 33 87 52 55 63
REMARK Flexibility Score: inf
ROOT
ATOM      1  C   UNL A   1      34.971  33.600  32.967  1.00  0.00     0.021 C 
ENDROOT
BRANCH   1   2
ATOM      2  C   UNL A   1      35.992  34.710  33.188  1.00  0.00     0.116 C 
BRANCH   2   3
ATOM      3  N   UNL A   1      37.259  34.236  32.703  1.00  0.00    -0.351 N 
ATOM      4  C   UNL A   1      38.434  34.128  33.370  1.00  0.00     0.278 C 
ATOM      5  O   UNL A   1      39.441  34.257  32.673  1.00  0.00    -0.268 OA
ATOM      6  H   UNL A   1      37.276  33.951  31.761  1.00  0.00     0.163 HD
BRANCH   4   7
ATOM      7  C   UNL A   1      38.446  33.750  34.876  1.00  0.00     0.274 C 
ATOM      8  N   UNL A   1      39.507  32.774  35.196  1.00  0.00    -0.317 N 
ATOM      9  C   UNL A   1      40.863  33.309  35.015  1.00  0.00     0.263 C 
ATOM     10  H   UNL A   1      39.382  32.645  36.200  1.00  0.00     0.349 HD
ATOM     11  C   UNL A   1      41.073  34.658  35.734  1.00  0.00     0.062 C 
ATOM     12  C   UNL A   1      38.614  34.949  35.816  1.00  0.00     0.076 C 
ATOM     13  C   UNL A   1      39.930  35.649  35.551  1.00  0.00     0.012 C 
BRANCH   8  14
ATOM     14  C   UNL A   1      39.321  31.375  34.740  1.00  0.00     0.364 C 
BRANCH  14  15
ATOM     15  C   UNL A   1      39.376  30.232  35.765  1.00  0.00     0.279 C 
ATOM     16  N   UNL A   1      40.408  29.330  35.875  1.00  0.00    -0.320 N 
ATOM     17  H   UNL A   1      40.278  28.679  36.602  1.00  0.00     0.170 HD
ATOM     18  O   UNL A   1      38.435  30.079  36.558  1.00  0.00    -0.268 OA
BRANCH  16  19
ATOM     19  C   UNL A   1      41.617  29.136  35.164  1.00  0.00     0.059 A 
ATOM     20  C   UNL A   1      41.586  28.544  33.881  1.00  0.00     0.076 A 
ATOM     21  C   UNL A   1      42.779  28.104  33.276  1.00  0.00     0.021 A 
ATOM     22  C   UNL A   1      44.001  28.273  33.919  1.00  0.00     0.002 A 
ATOM     23  C   UNL A   1      42.866  29.435  35.710  1.00  0.00     0.027 A 
ATOM     24  C   UNL A   1      44.046  28.973  35.117  1.00  0.00     0.002 A 
BRANCH  20  25
ATOM     25  C   UNL A   1      40.361  28.223  33.210  1.00  0.00     0.101 C 
ATOM     26  N   UNL A   1      39.379  27.905  32.671  1.00  0.00    -0.192 NA
ENDBRANCH  20  25
ENDBRANCH  16  19
ENDBRANCH  14  15
ENDBRANCH   8  14
ENDBRANCH   4   7
ENDBRANCH   2   3
ENDBRANCH   1   2
BRANCH   1  27
ATOM     27  C   UNL A   1      35.322  32.739  31.737  1.00  0.00     0.002 C 
BRANCH  27  28
ATOM     28  C   UNL A   1      34.810  33.316  30.411  1.00  0.00     0.002 C 
BRANCH  28  29
ATOM     29  C   UNL A   1      35.931  33.714  29.450  1.00  0.00     0.021 C 
BRANCH  29  30
ATOM     30  C   UNL A   1      35.773  33.103  28.065  1.00  0.00     0.116 C 
BRANCH  30  31
ATOM     31  N   UNL A   1      34.681  32.142  28.034  1.00  0.00    -0.352 N 
ATOM     32  C   UNL A   1      34.754  30.775  27.983  1.00  0.00     0.251 C 
ATOM     33  H   UNL A   1      33.774  32.524  28.052  1.00  0.00     0.163 HD
ATOM     34  O   UNL A   1      33.769  30.098  27.719  1.00  0.00    -0.269 OA
BRANCH  32  35
ATOM     35  C   UNL A   1      36.058  30.136  28.229  1.00  0.00     0.039 A 
ATOM     36  C   UNL A   1      36.988  30.080  27.191  1.00  0.00     0.014 A 
ATOM     37  C   UNL A   1      36.377  29.658  29.504  1.00  0.00     0.014 A 
ATOM     38  C   UNL A   1      38.270  29.601  27.451  1.00  0.00     0.010 A 
ATOM     39  C   UNL A   1      37.678  29.260  29.780  1.00  0.00     0.010 A 
ATOM     40  C   UNL A   1      38.638  29.233  28.756  1.00  0.00    -0.014 A 
BRANCH  40  41
ATOM     41  C   UNL A   1      40.034  28.851  29.079  1.00  0.00     0.031 A 
ATOM     42  C   UNL A   1      40.944  29.830  29.764  1.00  0.00     0.074 A 
ATOM     43  C   UNL A   1      40.498  27.649  28.683  1.00  0.00     0.049 A 
ATOM     44  N   UNL A   1      42.215  29.713  30.049  1.00  0.00    -0.248 NA
ATOM     45  C   UNL A   1      40.355  31.121  30.160  1.00  0.00     0.031 C 
ATOM     46  C   UNL A   1      39.715  26.633  27.973  1.00  0.00     0.029 A 
ATOM     47  N   UNL A   1      41.742  27.082  28.804  1.00  0.00    -0.354 N 
ATOM     48  C   UNL A   1      42.581  30.916  30.639  1.00  0.00     0.074 A 
ATOM     49  C   UNL A   1      41.411  31.765  30.637  1.00  0.00     0.031 C 
ATOM     50  C   UNL A   1      40.492  25.565  27.736  1.00  0.00     0.029 A 
ATOM     51  C   UNL A   1      41.840  25.840  28.223  1.00  0.00     0.049 A 
ATOM     52  H   UNL A   1      42.492  27.522  29.263  1.00  0.00     0.167 HD
ATOM     53  C   UNL A   1      43.785  31.268  31.147  1.00  0.00     0.037 A 
ATOM     54  C   UNL A   1      42.904  25.028  28.071  1.00  0.00     0.037 A 
ATOM     55  C   UNL A   1      44.936  30.404  31.166  1.00  0.00     0.049 A 
ATOM     56  C   UNL A   1      44.238  25.465  28.620  1.00  0.00     0.074 A 
ATOM     57  C   UNL A   1      46.174  30.637  31.738  1.00  0.00     0.029 A 
ATOM     58  N   UNL A   1      44.997  29.152  30.573  1.00  0.00    -0.354 N 
ATOM     59  N   UNL A   1      44.546  26.563  29.267  1.00  0.00    -0.248 NA
ATOM     60  C   UNL A   1      45.372  24.554  28.416  1.00  0.00     0.031 C 
ATOM     61  C   UNL A   1      47.010  29.565  31.417  1.00  0.00     0.029 A 
ATOM     62  C   UNL A   1      46.271  28.627  30.715  1.00  0.00     0.049 A 
ATOM     63  H   UNL A   1      44.247  28.704  30.118  1.00  0.00     0.167 HD
ATOM     64  C   UNL A   1      45.898  26.463  29.568  1.00  0.00     0.074 A 
ATOM     65  C   UNL A   1      46.347  25.186  29.055  1.00  0.00     0.031 C 
ATOM     66  C   UNL A   1      46.699  27.350  30.205  1.00  0.00     0.037 A 
BRANCH  53  67
ATOM     67  C   UNL A   1      43.941  32.649  31.713  1.00  0.00     0.064 A 
ATOM     68  C   UNL A   1      43.942  32.892  33.094  1.00  0.00     0.173 A 
ATOM     69  C   UNL A   1      44.179  33.736  30.855  1.00  0.00     0.173 A 
ATOM     70  F   UNL A   1      43.711  31.890  33.956  1.00  0.00    -0.203 F 
ATOM     71  C   UNL A   1      44.163  34.172  33.596  1.00  0.00     0.198 A 
ATOM     72  C   UNL A   1      44.433  35.006  31.361  1.00  0.00     0.198 A 
ATOM     73  F   UNL A   1      44.193  33.557  29.525  1.00  0.00    -0.203 F 
ATOM     74  F   UNL A   1      44.126  34.388  34.917  1.00  0.00    -0.200 F 
ATOM     75  C   UNL A   1      44.421  35.225  32.730  1.00  0.00     0.200 A 
ATOM     76  F   UNL A   1      44.700  36.018  30.523  1.00  0.00    -0.200 F 
ATOM     77  F   UNL A   1      44.656  36.452  33.215  1.00  0.00    -0.200 F 
ENDBRANCH  53  67
BRANCH  54  78
ATOM     78  C   UNL A   1      42.769  23.736  27.345  1.00  0.00     0.064 A 
ATOM     79  C   UNL A   1      42.313  22.580  27.995  1.00  0.00     0.173 A 
ATOM     80  C   UNL A   1      43.140  23.616  25.996  1.00  0.00     0.173 A 
ATOM     81  F   UNL A   1      41.962  22.634  29.288  1.00  0.00    -0.203 F 
ATOM     82  C   UNL A   1      42.274  21.351  27.340  1.00  0.00     0.198 A 
ATOM     83  C   UNL A   1      43.062  22.396  25.330  1.00  0.00     0.198 A 
ATOM     84  F   UNL A   1      43.578  24.690  25.321  1.00  0.00    -0.203 F 
ATOM     85  F   UNL A   1      41.905  20.250  28.008  1.00  0.00    -0.200 F 
ATOM     86  C   UNL A   1      42.644  21.260  26.006  1.00  0.00     0.200 A 
ATOM     87  F   UNL A   1      43.401  22.319  24.035  1.00  0.00    -0.200 F 
ATOM     88  F   UNL A   1      42.614  20.077  25.378  1.00  0.00    -0.200 F 
ENDBRANCH  54  78
BRANCH  66  89
ATOM     89  C   UNL A   1      48.138  26.969  30.407  1.00  0.00     0.064 A 
ATOM     90  C   UNL A   1      49.143  27.396  29.527  1.00  0.00     0.173 A 
ATOM     91  C   UNL A   1      48.524  26.225  31.533  1.00  0.00     0.173 A 
ATOM     92  F   UNL A   1      48.825  28.096  28.427  1.00  0.00    -0.203 F 
ATOM     93  C   UNL A   1      50.478  27.078  29.758  1.00  0.00     0.198 A 
ATOM     94  C   UNL A   1      49.863  25.942  31.780  1.00  0.00     0.198 A 
ATOM     95  F   UNL A   1      47.603  25.799  32.411  1.00  0.00    -0.203 F 
ATOM     96  F   UNL A   1      51.417  27.458  28.879  1.00  0.00    -0.200 F 
ATOM     97  C   UNL A   1      50.839  26.363  30.889  1.00  0.00     0.200 A 
ATOM     98  F   UNL A   1      50.211  25.267  32.885  1.00  0.00    -0.200 F 
ATOM     99  F   UNL A   1      52.127  26.075  31.120  1.00  0.00    -0.200 F 
ENDBRANCH  66  89
ENDBRANCH  40  41
ENDBRANCH  32  35
ENDBRANCH  30  31
ENDBRANCH  29  30
ENDBRANCH  28  29
ENDBRANCH  27  28
ENDBRANCH   1  27
TORSDOF 17
ENDMDL
