MODEL 1
REMARK VINA RESULT:     -11.0      0.000      0.000
REMARK SMILES C#CC[NH2+]CC(=O)N1CC[C@](CCC)(C(=O)NCCCCCCNC(=O)c2ccc(-c3c4nc(c(-c5c(F)c(F)c(F)c(F)c5F)c5ccc([nH]5)c(-c5c(F)c(F)c(F)c(F)c5F)c5nc(c(-c6c(F)c(F)c(F)c(F)c6F)c6ccc3[nH]6)C=C5)C=C4)cc2)C1
REMARK SMILES IDX 19 1 18 2 17 3 15 4 16 5 11 7 8 8 9 9 90 10 10 11 6 12 7 13
REMARK SMILES IDX 5 14 4 15 3 18 2 19 1 20 12 21 13 22 14 23 20 24 21 25 22 26
REMARK SMILES IDX 23 27 24 28 25 29 26 31 27 32 28 33 89 34 29 35 88 36 30 37
REMARK SMILES IDX 31 38 32 39 82 40 33 41 87 42 81 43 83 44 34 45 86 46 80 47
REMARK SMILES IDX 79 48 35 50 67 51 47 52 66 53 48 54 51 55 65 56 84 57 49 58
REMARK SMILES IDX 50 59 64 61 85 62 52 63 36 64 37 65 45 66 38 67 39 68 43 69
REMARK SMILES IDX 46 70 40 71 41 72 44 73 42 74 68 75 69 76 77 77 70 78 71 79
REMARK SMILES IDX 75 80 78 81 72 82 73 83 76 84 74 85 53 86 54 87 62 88 55 89
REMARK SMILES IDX 56 90 60 91 63 92 57 93 58 94 61 95 59 96
REMARK H PARENT 17 6 4 16 4 17 24 30 83 49 51 60
REMARK Flexibility Score: inf
ROOT
ATOM      1  C   UNL A   1      31.870  28.308  27.143  1.00  0.00     0.021 C 
ENDROOT
BRANCH   1   2
ATOM      2  C   UNL A   1      31.417  27.364  26.026  1.00  0.00     0.116 C 
BRANCH   2   3
ATOM      3  N   UNL A   1      30.989  26.093  26.595  1.00  0.00    -0.356 N 
ATOM      4  C   UNL A   1      31.334  24.793  26.446  1.00  0.00     0.228 C 
ATOM      5  O   UNL A   1      30.735  24.025  27.207  1.00  0.00    -0.274 OA
ATOM      6  H   UNL A   1      30.268  26.210  27.254  1.00  0.00     0.163 HD
BRANCH   4   7
ATOM      7  C   UNL A   1      32.441  24.281  25.516  1.00  0.00     0.068 C 
ATOM      8  N   UNL A   1      33.737  22.270  25.787  1.00  0.00    -0.337 N 
ATOM      9  C   UNL A   1      34.615  23.390  25.431  1.00  0.00     0.121 C 
ATOM     10  C   UNL A   1      32.375  22.727  25.554  1.00  0.00     0.136 C 
ATOM     11  C   UNL A   1      33.875  24.586  25.971  1.00  0.00     0.040 C 
BRANCH   8  12
ATOM     12  C   UNL A   1      34.026  20.929  25.480  1.00  0.00     0.277 C 
ATOM     13  O   UNL A   1      35.168  20.532  25.261  1.00  0.00    -0.268 OA
BRANCH  12  14
ATOM     14  C   UNL A   1      32.790  19.960  25.496  1.00  0.00     0.362 C 
BRANCH  14  15
ATOM     15  N   UNL A   1      32.914  18.819  26.468  1.00  0.00    -0.328 N 
ATOM     16  H   UNL A   1      33.825  18.838  26.925  1.00  0.00     0.347 HD
ATOM     17  H   UNL A   1      32.211  18.871  27.205  1.00  0.00     0.347 HD
BRANCH  15  18
ATOM     18  C   UNL A   1      32.771  17.623  25.676  1.00  0.00     0.352 C 
BRANCH  18  19
ATOM     19  C   UNL A   1      32.880  17.620  24.159  1.00  0.00    -0.047 C 
ATOM     20  C   UNL A   1      32.973  17.617  22.859  1.00  0.00     0.010 C 
ENDBRANCH  18  19
ENDBRANCH  15  18
ENDBRANCH  14  15
ENDBRANCH  12  14
ENDBRANCH   8  12
BRANCH   7  21
ATOM     21  C   UNL A   1      32.323  24.966  24.097  1.00  0.00     0.018 C 
BRANCH  21  22
ATOM     22  C   UNL A   1      31.923  24.122  22.887  1.00  0.00    -0.002 C 
ATOM     23  C   UNL A   1      33.128  23.741  22.048  1.00  0.00     0.004 C 
ENDBRANCH  21  22
ENDBRANCH   7  21
ENDBRANCH   4   7
ENDBRANCH   2   3
ENDBRANCH   1   2
BRANCH   1  24
ATOM     24  C   UNL A   1      32.480  29.620  26.634  1.00  0.00     0.002 C 
BRANCH  24  25
ATOM     25  C   UNL A   1      31.502  30.523  25.876  1.00  0.00     0.002 C 
BRANCH  25  26
ATOM     26  C   UNL A   1      31.397  31.951  26.415  1.00  0.00     0.021 C 
BRANCH  26  27
ATOM     27  C   UNL A   1      32.631  32.439  27.168  1.00  0.00     0.116 C 
BRANCH  27  28
ATOM     28  N   UNL A   1      32.496  33.819  27.607  1.00  0.00    -0.352 N 
ATOM     29  C   UNL A   1      33.182  34.492  28.580  1.00  0.00     0.251 C 
ATOM     30  H   UNL A   1      31.811  34.345  27.135  1.00  0.00     0.163 HD
ATOM     31  O   UNL A   1      32.797  35.607  28.945  1.00  0.00    -0.269 OA
BRANCH  29  32
ATOM     32  C   UNL A   1      34.370  33.888  29.211  1.00  0.00     0.039 A 
ATOM     33  C   UNL A   1      34.187  32.973  30.250  1.00  0.00     0.014 A 
ATOM     34  C   UNL A   1      35.661  34.236  28.801  1.00  0.00     0.014 A 
ATOM     35  C   UNL A   1      35.297  32.378  30.850  1.00  0.00     0.010 A 
ATOM     36  C   UNL A   1      36.764  33.584  29.347  1.00  0.00     0.010 A 
ATOM     37  C   UNL A   1      36.593  32.659  30.387  1.00  0.00    -0.014 A 
BRANCH  37  38
ATOM     38  C   UNL A   1      37.773  31.999  30.999  1.00  0.00     0.031 A 
ATOM     39  C   UNL A   1      38.218  32.369  32.388  1.00  0.00     0.074 A 
ATOM     40  C   UNL A   1      38.462  31.083  30.291  1.00  0.00     0.049 A 
ATOM     41  N   UNL A   1      39.217  31.897  33.091  1.00  0.00    -0.248 NA
ATOM     42  C   UNL A   1      37.457  33.429  33.068  1.00  0.00     0.031 C 
ATOM     43  C   UNL A   1      38.163  30.681  28.916  1.00  0.00     0.029 A 
ATOM     44  N   UNL A   1      39.553  30.324  30.631  1.00  0.00    -0.354 N 
ATOM     45  C   UNL A   1      39.205  32.603  34.287  1.00  0.00     0.074 A 
ATOM     46  C   UNL A   1      38.143  33.579  34.191  1.00  0.00     0.031 C 
ATOM     47  C   UNL A   1      39.026  29.724  28.541  1.00  0.00     0.029 A 
ATOM     48  C   UNL A   1      39.958  29.468  29.636  1.00  0.00     0.049 A 
ATOM     49  H   UNL A   1      40.002  30.385  31.504  1.00  0.00     0.167 HD
ATOM     50  C   UNL A   1      39.991  32.433  35.377  1.00  0.00     0.037 A 
ATOM     51  C   UNL A   1      40.965  28.576  29.612  1.00  0.00     0.037 A 
ATOM     52  C   UNL A   1      41.037  31.448  35.475  1.00  0.00     0.049 A 
ATOM     53  C   UNL A   1      41.821  28.405  30.838  1.00  0.00     0.074 A 
ATOM     54  C   UNL A   1      41.854  31.160  36.554  1.00  0.00     0.029 A 
ATOM     55  N   UNL A   1      41.413  30.591  34.451  1.00  0.00    -0.354 N 
ATOM     56  N   UNL A   1      41.751  29.024  31.992  1.00  0.00    -0.248 NA
ATOM     57  C   UNL A   1      42.888  27.399  30.761  1.00  0.00     0.031 C 
ATOM     58  C   UNL A   1      42.757  30.164  36.166  1.00  0.00     0.029 A 
ATOM     59  C   UNL A   1      42.466  29.789  34.865  1.00  0.00     0.049 A 
ATOM     60  H   UNL A   1      40.994  30.558  33.560  1.00  0.00     0.167 HD
ATOM     61  C   UNL A   1      42.743  28.466  32.786  1.00  0.00     0.074 A 
ATOM     62  C   UNL A   1      43.385  27.440  31.989  1.00  0.00     0.031 C 
ATOM     63  C   UNL A   1      43.095  28.775  34.059  1.00  0.00     0.037 A 
BRANCH  50  64
ATOM     64  C   UNL A   1      39.746  33.333  36.555  1.00  0.00     0.064 A 
ATOM     65  C   UNL A   1      40.420  34.556  36.700  1.00  0.00     0.173 A 
ATOM     66  C   UNL A   1      38.806  32.985  37.537  1.00  0.00     0.173 A 
ATOM     67  F   UNL A   1      41.338  34.932  35.797  1.00  0.00    -0.203 F 
ATOM     68  C   UNL A   1      40.186  35.380  37.798  1.00  0.00     0.198 A 
ATOM     69  C   UNL A   1      38.550  33.827  38.617  1.00  0.00     0.198 A 
ATOM     70  F   UNL A   1      38.129  31.830  37.447  1.00  0.00    -0.203 F 
ATOM     71  F   UNL A   1      40.881  36.516  37.941  1.00  0.00    -0.200 F 
ATOM     72  C   UNL A   1      39.246  35.019  38.750  1.00  0.00     0.200 A 
ATOM     73  F   UNL A   1      37.631  33.482  39.530  1.00  0.00    -0.200 F 
ATOM     74  F   UNL A   1      39.016  35.816  39.804  1.00  0.00    -0.200 F 
ENDBRANCH  50  64
BRANCH  51  75
ATOM     75  C   UNL A   1      41.199  27.750  28.398  1.00  0.00     0.064 A 
ATOM     76  C   UNL A   1      40.521  26.538  28.210  1.00  0.00     0.173 A 
ATOM     77  C   UNL A   1      42.111  28.146  27.410  1.00  0.00     0.173 A 
ATOM     78  F   UNL A   1      39.653  26.105  29.137  1.00  0.00    -0.203 F 
ATOM     79  C   UNL A   1      40.765  25.741  27.094  1.00  0.00     0.198 A 
ATOM     80  C   UNL A   1      42.332  27.364  26.279  1.00  0.00     0.198 A 
ATOM     81  F   UNL A   1      42.782  29.301  27.540  1.00  0.00    -0.203 F 
ATOM     82  F   UNL A   1      40.141  24.561  26.966  1.00  0.00    -0.200 F 
ATOM     83  C   UNL A   1      41.667  26.157  26.126  1.00  0.00     0.200 A 
ATOM     84  F   UNL A   1      43.192  27.778  25.338  1.00  0.00    -0.200 F 
ATOM     85  F   UNL A   1      41.900  25.392  25.051  1.00  0.00    -0.200 F 
ENDBRANCH  51  75
BRANCH  63  86
ATOM     86  C   UNL A   1      44.205  27.970  34.674  1.00  0.00     0.064 A 
ATOM     87  C   UNL A   1      43.957  26.764  35.347  1.00  0.00     0.173 A 
ATOM     88  C   UNL A   1      45.535  28.407  34.581  1.00  0.00     0.173 A 
ATOM     89  F   UNL A   1      42.702  26.308  35.477  1.00  0.00    -0.203 F 
ATOM     90  C   UNL A   1      44.994  26.050  35.942  1.00  0.00     0.198 A 
ATOM     91  C   UNL A   1      46.573  27.671  35.145  1.00  0.00     0.198 A 
ATOM     92  F   UNL A   1      45.829  29.548  33.939  1.00  0.00    -0.203 F 
ATOM     93  F   UNL A   1      44.724  24.936  36.638  1.00  0.00    -0.200 F 
ATOM     94  C   UNL A   1      46.301  26.501  35.836  1.00  0.00     0.200 A 
ATOM     95  F   UNL A   1      47.838  28.101  35.029  1.00  0.00    -0.200 F 
ATOM     96  F   UNL A   1      47.298  25.813  36.411  1.00  0.00    -0.200 F 
ENDBRANCH  63  86
ENDBRANCH  37  38
ENDBRANCH  29  32
ENDBRANCH  27  28
ENDBRANCH  26  27
ENDBRANCH  25  26
ENDBRANCH  24  25
ENDBRANCH   1  24
TORSDOF 20
ENDMDL
MODEL 2
REMARK VINA RESULT:     -10.8      2.018      4.344
REMARK SMILES C#CC[NH2+]CC(=O)N1CC[C@](CCC)(C(=O)NCCCCCCNC(=O)c2ccc(-c3c4nc(c(-c5c(F)c(F)c(F)c(F)c5F)c5ccc([nH]5)c(-c5c(F)c(F)c(F)c(F)c5F)c5nc(c(-c6c(F)c(F)c(F)c(F)c6F)c6ccc3[nH]6)C=C5)C=C4)cc2)C1
REMARK SMILES IDX 19 1 18 2 17 3 15 4 16 5 11 7 8 8 9 9 90 10 10 11 6 12 7 13
REMARK SMILES IDX 5 14 4 15 3 18 2 19 1 20 12 21 13 22 14 23 20 24 21 25 22 26
REMARK SMILES IDX 23 27 24 28 25 29 26 31 27 32 28 33 89 34 29 35 88 36 30 37
REMARK SMILES IDX 31 38 32 39 82 40 33 41 87 42 81 43 83 44 34 45 86 46 80 47
REMARK SMILES IDX 79 48 35 50 67 51 47 52 66 53 48 54 51 55 65 56 84 57 49 58
REMARK SMILES IDX 50 59 64 61 85 62 52 63 36 64 37 65 45 66 38 67 39 68 43 69
REMARK SMILES IDX 46 70 40 71 41 72 44 73 42 74 68 75 69 76 77 77 70 78 71 79
REMARK SMILES IDX 75 80 78 81 72 82 73 83 76 84 74 85 53 86 54 87 62 88 55 89
REMARK SMILES IDX 56 90 60 91 63 92 57 93 58 94 61 95 59 96
REMARK H PARENT 17 6 4 16 4 17 24 30 83 49 51 60
REMARK Flexibility Score: inf
ROOT
ATOM      1  C   UNL A   1      32.798  29.400  24.660  1.00  0.00     0.021 C 
ENDROOT
BRANCH   1   2
ATOM      2  C   UNL A   1      33.522  28.102  25.025  1.00  0.00     0.116 C 
BRANCH   2   3
ATOM      3  N   UNL A   1      33.837  27.353  23.816  1.00  0.00    -0.356 N 
ATOM      4  C   UNL A   1      33.176  26.503  22.996  1.00  0.00     0.228 C 
ATOM      5  O   UNL A   1      33.832  26.144  22.011  1.00  0.00    -0.274 OA
ATOM      6  H   UNL A   1      34.763  27.505  23.521  1.00  0.00     0.163 HD
BRANCH   4   7
ATOM      7  C   UNL A   1      31.711  26.084  23.164  1.00  0.00     0.068 C 
ATOM      8  N   UNL A   1      29.826  27.539  23.525  1.00  0.00    -0.337 N 
ATOM      9  C   UNL A   1      29.761  26.396  24.442  1.00  0.00     0.121 C 
ATOM     10  C   UNL A   1      30.846  27.215  22.538  1.00  0.00     0.136 C 
ATOM     11  C   UNL A   1      31.210  26.017  24.614  1.00  0.00     0.040 C 
BRANCH   8  12
ATOM     12  C   UNL A   1      28.693  28.237  23.072  1.00  0.00     0.277 C 
ATOM     13  O   UNL A   1      27.547  27.852  23.292  1.00  0.00    -0.268 OA
BRANCH  12  14
ATOM     14  C   UNL A   1      28.995  29.580  22.316  1.00  0.00     0.362 C 
BRANCH  14  15
ATOM     15  N   UNL A   1      27.894  30.030  21.395  1.00  0.00    -0.328 N 
ATOM     16  H   UNL A   1      27.879  29.459  20.551  1.00  0.00     0.347 HD
ATOM     17  H   UNL A   1      26.976  29.940  21.831  1.00  0.00     0.347 HD
BRANCH  15  18
ATOM     18  C   UNL A   1      28.201  31.402  21.072  1.00  0.00     0.352 C 
BRANCH  18  19
ATOM     19  C   UNL A   1      28.578  32.433  22.124  1.00  0.00    -0.047 C 
ATOM     20  C   UNL A   1      28.901  33.317  23.026  1.00  0.00     0.010 C 
ENDBRANCH  18  19
ENDBRANCH  15  18
ENDBRANCH  14  15
ENDBRANCH  12  14
ENDBRANCH   8  12
BRANCH   7  21
ATOM     21  C   UNL A   1      31.492  24.624  22.603  1.00  0.00     0.018 C 
BRANCH  21  22
ATOM     22  C   UNL A   1      31.697  23.425  23.529  1.00  0.00    -0.002 C 
ATOM     23  C   UNL A   1      32.426  22.294  22.828  1.00  0.00     0.004 C 
ENDBRANCH  21  22
ENDBRANCH   7  21
ENDBRANCH   4   7
ENDBRANCH   2   3
ENDBRANCH   1   2
BRANCH   1  24
ATOM     24  C   UNL A   1      31.635  29.745  25.600  1.00  0.00     0.002 C 
BRANCH  24  25
ATOM     25  C   UNL A   1      32.051  30.457  26.890  1.00  0.00     0.002 C 
BRANCH  25  26
ATOM     26  C   UNL A   1      31.689  31.942  26.949  1.00  0.00     0.021 C 
BRANCH  26  27
ATOM     27  C   UNL A   1      32.886  32.888  26.988  1.00  0.00     0.116 C 
BRANCH  27  28
ATOM     28  N   UNL A   1      32.582  34.129  27.682  1.00  0.00    -0.352 N 
ATOM     29  C   UNL A   1      33.130  34.643  28.825  1.00  0.00     0.251 C 
ATOM     30  H   UNL A   1      31.879  34.681  27.268  1.00  0.00     0.163 HD
ATOM     31  O   UNL A   1      32.610  35.620  29.371  1.00  0.00    -0.269 OA
BRANCH  29  32
ATOM     32  C   UNL A   1      34.330  34.026  29.420  1.00  0.00     0.039 A 
ATOM     33  C   UNL A   1      34.165  33.032  30.387  1.00  0.00     0.014 A 
ATOM     34  C   UNL A   1      35.614  34.439  29.050  1.00  0.00     0.014 A 
ATOM     35  C   UNL A   1      35.286  32.424  30.952  1.00  0.00     0.010 A 
ATOM     36  C   UNL A   1      36.730  33.779  29.557  1.00  0.00     0.010 A 
ATOM     37  C   UNL A   1      36.578  32.774  30.524  1.00  0.00    -0.014 A 
BRANCH  37  38
ATOM     38  C   UNL A   1      37.771  32.103  31.097  1.00  0.00     0.031 A 
ATOM     39  C   UNL A   1      38.268  32.474  32.467  1.00  0.00     0.074 A 
ATOM     40  C   UNL A   1      38.423  31.176  30.369  1.00  0.00     0.049 A 
ATOM     41  N   UNL A   1      39.286  31.993  33.137  1.00  0.00    -0.248 NA
ATOM     42  C   UNL A   1      37.544  33.545  33.169  1.00  0.00     0.031 C 
ATOM     43  C   UNL A   1      38.071  30.772  29.007  1.00  0.00     0.029 A 
ATOM     44  N   UNL A   1      39.517  30.405  30.674  1.00  0.00    -0.354 N 
ATOM     45  C   UNL A   1      39.325  32.704  34.329  1.00  0.00     0.074 A 
ATOM     46  C   UNL A   1      38.271  33.692  34.266  1.00  0.00     0.031 C 
ATOM     47  C   UNL A   1      38.909  29.803  28.606  1.00  0.00     0.029 A 
ATOM     48  C   UNL A   1      39.877  29.541  29.668  1.00  0.00     0.049 A 
ATOM     49  H   UNL A   1      39.997  30.465  31.530  1.00  0.00     0.167 HD
ATOM     50  C   UNL A   1      40.147  32.530  35.392  1.00  0.00     0.037 A 
ATOM     51  C   UNL A   1      40.871  28.637  29.613  1.00  0.00     0.037 A 
ATOM     52  C   UNL A   1      41.185  31.532  35.457  1.00  0.00     0.049 A 
ATOM     53  C   UNL A   1      41.768  28.462  30.809  1.00  0.00     0.074 A 
ATOM     54  C   UNL A   1      42.036  31.239  36.508  1.00  0.00     0.029 A 
ATOM     55  N   UNL A   1      41.514  30.667  34.424  1.00  0.00    -0.354 N 
ATOM     56  N   UNL A   1      41.746  29.086  31.962  1.00  0.00    -0.248 NA
ATOM     57  C   UNL A   1      42.820  27.443  30.699  1.00  0.00     0.031 C 
ATOM     58  C   UNL A   1      42.913  30.231  36.093  1.00  0.00     0.029 A 
ATOM     59  C   UNL A   1      42.571  29.855  34.804  1.00  0.00     0.049 A 
ATOM     60  H   UNL A   1      41.063  30.635  33.549  1.00  0.00     0.167 HD
ATOM     61  C   UNL A   1      42.760  28.519  32.722  1.00  0.00     0.074 A 
ATOM     62  C   UNL A   1      43.360  27.482  31.908  1.00  0.00     0.031 C 
ATOM     63  C   UNL A   1      43.160  28.829  33.981  1.00  0.00     0.037 A 
BRANCH  50  64
ATOM     64  C   UNL A   1      39.955  33.437  36.573  1.00  0.00     0.064 A 
ATOM     65  C   UNL A   1      39.099  33.095  37.632  1.00  0.00     0.173 A 
ATOM     66  C   UNL A   1      40.655  34.650  36.664  1.00  0.00     0.173 A 
ATOM     67  F   UNL A   1      38.395  31.954  37.591  1.00  0.00    -0.203 F 
ATOM     68  C   UNL A   1      38.927  33.946  38.721  1.00  0.00     0.198 A 
ATOM     69  C   UNL A   1      40.506  35.483  37.770  1.00  0.00     0.198 A 
ATOM     70  F   UNL A   1      41.489  35.025  35.683  1.00  0.00    -0.203 F 
ATOM     71  F   UNL A   1      38.064  33.623  39.693  1.00  0.00    -0.200 F 
ATOM     72  C   UNL A   1      39.637  35.135  38.793  1.00  0.00     0.200 A 
ATOM     73  F   UNL A   1      41.203  36.626  37.845  1.00  0.00    -0.200 F 
ATOM     74  F   UNL A   1      39.476  35.951  39.845  1.00  0.00    -0.200 F 
ENDBRANCH  50  64
BRANCH  51  75
ATOM     75  C   UNL A   1      41.052  27.804  28.396  1.00  0.00     0.064 A 
ATOM     76  C   UNL A   1      41.873  28.234  27.343  1.00  0.00     0.173 A 
ATOM     77  C   UNL A   1      40.402  26.570  28.252  1.00  0.00     0.173 A 
ATOM     78  F   UNL A   1      42.500  29.417  27.425  1.00  0.00    -0.203 F 
ATOM     79  C   UNL A   1      42.015  27.475  26.184  1.00  0.00     0.198 A 
ATOM     80  C   UNL A   1      40.569  25.797  27.105  1.00  0.00     0.198 A 
ATOM     81  F   UNL A   1      39.610  26.110  29.233  1.00  0.00    -0.203 F 
ATOM     82  F   UNL A   1      42.763  27.936  25.172  1.00  0.00    -0.200 F 
ATOM     83  C   UNL A   1      41.367  26.255  26.068  1.00  0.00     0.200 A 
ATOM     84  F   UNL A   1      39.955  24.611  27.004  1.00  0.00    -0.200 F 
ATOM     85  F   UNL A   1      41.506  25.524  24.953  1.00  0.00    -0.200 F 
ENDBRANCH  51  75
BRANCH  63  86
ATOM     86  C   UNL A   1      44.282  28.014  34.560  1.00  0.00     0.064 A 
ATOM     87  C   UNL A   1      44.044  26.816  35.250  1.00  0.00     0.173 A 
ATOM     88  C   UNL A   1      45.613  28.433  34.414  1.00  0.00     0.173 A 
ATOM     89  F   UNL A   1      42.788  26.377  35.429  1.00  0.00    -0.203 F 
ATOM     90  C   UNL A   1      45.093  26.092  35.811  1.00  0.00     0.198 A 
ATOM     91  C   UNL A   1      46.662  27.688  34.945  1.00  0.00     0.198 A 
ATOM     92  F   UNL A   1      45.898  29.567  33.755  1.00  0.00    -0.203 F 
ATOM     93  F   UNL A   1      44.835  24.987  36.524  1.00  0.00    -0.200 F 
ATOM     94  C   UNL A   1      46.401  26.525  35.654  1.00  0.00     0.200 A 
ATOM     95  F   UNL A   1      47.926  28.100  34.779  1.00  0.00    -0.200 F 
ATOM     96  F   UNL A   1      47.409  25.828  36.196  1.00  0.00    -0.200 F 
ENDBRANCH  63  86
ENDBRANCH  37  38
ENDBRANCH  29  32
ENDBRANCH  27  28
ENDBRANCH  26  27
ENDBRANCH  25  26
ENDBRANCH  24  25
ENDBRANCH   1  24
TORSDOF 20
ENDMDL
MODEL 3
REMARK VINA RESULT:     -10.8      1.637      7.544
REMARK SMILES C#CC[NH2+]CC(=O)N1CC[C@](CCC)(C(=O)NCCCCCCNC(=O)c2ccc(-c3c4nc(c(-c5c(F)c(F)c(F)c(F)c5F)c5ccc([nH]5)c(-c5c(F)c(F)c(F)c(F)c5F)c5nc(c(-c6c(F)c(F)c(F)c(F)c6F)c6ccc3[nH]6)C=C5)C=C4)cc2)C1
REMARK SMILES IDX 19 1 18 2 17 3 15 4 16 5 11 7 8 8 9 9 90 10 10 11 6 12 7 13
REMARK SMILES IDX 5 14 4 15 3 18 2 19 1 20 12 21 13 22 14 23 20 24 21 25 22 26
REMARK SMILES IDX 23 27 24 28 25 29 26 31 27 32 28 33 89 34 29 35 88 36 30 37
REMARK SMILES IDX 31 38 32 39 82 40 33 41 87 42 81 43 83 44 34 45 86 46 80 47
REMARK SMILES IDX 79 48 35 50 67 51 47 52 66 53 48 54 51 55 65 56 84 57 49 58
REMARK SMILES IDX 50 59 64 61 85 62 52 63 36 64 37 65 45 66 38 67 39 68 43 69
REMARK SMILES IDX 46 70 40 71 41 72 44 73 42 74 68 75 69 76 77 77 70 78 71 79
REMARK SMILES IDX 75 80 78 81 72 82 73 83 76 84 74 85 53 86 54 87 62 88 55 89
REMARK SMILES IDX 56 90 60 91 63 92 57 93 58 94 61 95 59 96
REMARK H PARENT 17 6 4 16 4 17 24 30 83 49 51 60
REMARK Flexibility Score: inf
ROOT
ATOM      1  C   UNL A   1      32.866  28.750  27.033  1.00  0.00     0.021 C 
ENDROOT
BRANCH   1   2
ATOM      2  C   UNL A   1      34.056  28.126  26.299  1.00  0.00     0.116 C 
BRANCH   2   3
ATOM      3  N   UNL A   1      34.124  28.642  24.938  1.00  0.00    -0.356 N 
ATOM      4  C   UNL A   1      33.708  28.232  23.718  1.00  0.00     0.228 C 
ATOM      5  O   UNL A   1      33.927  29.045  22.813  1.00  0.00    -0.274 OA
ATOM      6  H   UNL A   1      34.590  29.508  24.897  1.00  0.00     0.163 HD
BRANCH   4   7
ATOM      7  C   UNL A   1      32.928  26.940  23.447  1.00  0.00     0.068 C 
ATOM      8  N   UNL A   1      33.847  24.806  22.814  1.00  0.00    -0.337 N 
ATOM      9  C   UNL A   1      32.682  25.119  21.979  1.00  0.00     0.121 C 
ATOM     10  C   UNL A   1      33.834  25.763  23.910  1.00  0.00     0.136 C 
ATOM     11  C   UNL A   1      32.670  26.626  21.966  1.00  0.00     0.040 C 
BRANCH   8  12
ATOM     12  C   UNL A   1      34.259  23.495  23.111  1.00  0.00     0.277 C 
ATOM     13  O   UNL A   1      35.372  23.068  22.814  1.00  0.00    -0.268 OA
BRANCH  12  14
ATOM     14  C   UNL A   1      33.214  22.631  23.904  1.00  0.00     0.362 C 
BRANCH  14  15
ATOM     15  N   UNL A   1      32.499  21.606  23.068  1.00  0.00    -0.328 N 
ATOM     16  H   UNL A   1      31.572  21.941  22.809  1.00  0.00     0.347 HD
ATOM     17  H   UNL A   1      32.997  21.411  22.200  1.00  0.00     0.347 HD
BRANCH  15  18
ATOM     18  C   UNL A   1      32.398  20.433  23.902  1.00  0.00     0.352 C 
BRANCH  18  19
ATOM     19  C   UNL A   1      32.561  19.021  23.364  1.00  0.00    -0.047 C 
ATOM     20  C   UNL A   1      32.700  17.810  22.902  1.00  0.00     0.010 C 
ENDBRANCH  18  19
ENDBRANCH  15  18
ENDBRANCH  14  15
ENDBRANCH  12  14
ENDBRANCH   8  12
BRANCH   7  21
ATOM     21  C   UNL A   1      31.487  27.026  24.089  1.00  0.00     0.018 C 
BRANCH  21  22
ATOM     22  C   UNL A   1      30.695  28.330  23.983  1.00  0.00    -0.002 C 
ATOM     23  C   UNL A   1      29.579  28.225  22.962  1.00  0.00     0.004 C 
ENDBRANCH  21  22
ENDBRANCH   7  21
ENDBRANCH   4   7
ENDBRANCH   2   3
ENDBRANCH   1   2
BRANCH   1  24
ATOM     24  C   UNL A   1      32.868  30.284  27.023  1.00  0.00     0.002 C 
BRANCH  24  25
ATOM     25  C   UNL A   1      31.589  30.918  26.470  1.00  0.00     0.002 C 
BRANCH  25  26
ATOM     26  C   UNL A   1      31.425  32.408  26.779  1.00  0.00     0.021 C 
BRANCH  26  27
ATOM     27  C   UNL A   1      32.717  33.123  27.165  1.00  0.00     0.116 C 
BRANCH  27  28
ATOM     28  N   UNL A   1      32.469  34.445  27.717  1.00  0.00    -0.352 N 
ATOM     29  C   UNL A   1      33.017  35.045  28.817  1.00  0.00     0.251 C 
ATOM     30  H   UNL A   1      31.810  34.988  27.227  1.00  0.00     0.163 HD
ATOM     31  O   UNL A   1      32.542  36.101  29.244  1.00  0.00    -0.269 OA
BRANCH  29  32
ATOM     32  C   UNL A   1      34.164  34.428  29.510  1.00  0.00     0.039 A 
ATOM     33  C   UNL A   1      33.928  33.683  30.667  1.00  0.00     0.014 A 
ATOM     34  C   UNL A   1      35.470  34.601  29.039  1.00  0.00     0.014 A 
ATOM     35  C   UNL A   1      34.997  33.078  31.330  1.00  0.00     0.010 A 
ATOM     36  C   UNL A   1      36.525  33.934  29.656  1.00  0.00     0.010 A 
ATOM     37  C   UNL A   1      36.301  33.177  30.816  1.00  0.00    -0.014 A 
BRANCH  37  38
ATOM     38  C   UNL A   1      37.434  32.504  31.498  1.00  0.00     0.031 A 
ATOM     39  C   UNL A   1      38.148  31.357  30.836  1.00  0.00     0.074 A 
ATOM     40  C   UNL A   1      37.802  32.909  32.728  1.00  0.00     0.049 A 
ATOM     41  N   UNL A   1      39.162  30.651  31.270  1.00  0.00    -0.248 NA
ATOM     42  C   UNL A   1      37.640  30.929  29.523  1.00  0.00     0.031 C 
ATOM     43  C   UNL A   1      37.152  33.971  33.497  1.00  0.00     0.029 A 
ATOM     44  N   UNL A   1      38.815  32.476  33.547  1.00  0.00    -0.354 N 
ATOM     45  C   UNL A   1      39.407  29.698  30.290  1.00  0.00     0.074 A 
ATOM     46  C   UNL A   1      38.398  29.872  29.270  1.00  0.00     0.031 C 
ATOM     47  C   UNL A   1      37.802  34.132  34.660  1.00  0.00     0.029 A 
ATOM     48  C   UNL A   1      38.893  33.165  34.734  1.00  0.00     0.049 A 
ATOM     49  H   UNL A   1      39.426  31.744  33.309  1.00  0.00     0.167 HD
ATOM     50  C   UNL A   1      40.401  28.779  30.233  1.00  0.00     0.037 A 
ATOM     51  C   UNL A   1      39.752  33.033  35.761  1.00  0.00     0.037 A 
ATOM     52  C   UNL A   1      41.414  28.620  31.244  1.00  0.00     0.049 A 
ATOM     53  C   UNL A   1      40.849  32.006  35.671  1.00  0.00     0.074 A 
ATOM     54  C   UNL A   1      42.495  27.756  31.257  1.00  0.00     0.029 A 
ATOM     55  N   UNL A   1      41.469  29.342  32.428  1.00  0.00    -0.354 N 
ATOM     56  N   UNL A   1      41.118  31.162  34.704  1.00  0.00    -0.248 NA
ATOM     57  C   UNL A   1      41.770  31.925  36.812  1.00  0.00     0.031 C 
ATOM     58  C   UNL A   1      43.174  27.920  32.469  1.00  0.00     0.029 A 
ATOM     59  C   UNL A   1      42.552  28.927  33.188  1.00  0.00     0.049 A 
ATOM     60  H   UNL A   1      40.832  30.046  32.690  1.00  0.00     0.167 HD
ATOM     61  C   UNL A   1      42.252  30.470  35.107  1.00  0.00     0.074 A 
ATOM     62  C   UNL A   1      42.635  31.012  36.395  1.00  0.00     0.031 C 
ATOM     63  C   UNL A   1      42.917  29.475  34.469  1.00  0.00     0.037 A 
BRANCH  50  64
ATOM     64  C   UNL A   1      40.441  27.875  29.035  1.00  0.00     0.064 A 
ATOM     65  C   UNL A   1      39.692  26.688  28.982  1.00  0.00     0.173 A 
ATOM     66  C   UNL A   1      41.214  28.209  27.912  1.00  0.00     0.173 A 
ATOM     67  F   UNL A   1      38.946  26.313  30.032  1.00  0.00    -0.203 F 
ATOM     68  C   UNL A   1      39.740  25.857  27.866  1.00  0.00     0.198 A 
ATOM     69  C   UNL A   1      41.234  27.393  26.785  1.00  0.00     0.198 A 
ATOM     70  F   UNL A   1      41.946  29.334  27.906  1.00  0.00    -0.203 F 
ATOM     71  F   UNL A   1      39.059  24.703  27.862  1.00  0.00    -0.200 F 
ATOM     72  C   UNL A   1      40.504  26.213  26.766  1.00  0.00     0.200 A 
ATOM     73  F   UNL A   1      41.963  27.745  25.716  1.00  0.00    -0.200 F 
ATOM     74  F   UNL A   1      40.545  25.416  25.689  1.00  0.00    -0.200 F 
ENDBRANCH  50  64
BRANCH  51  75
ATOM     75  C   UNL A   1      39.632  33.917  36.950  1.00  0.00     0.064 A 
ATOM     76  C   UNL A   1      38.861  33.535  38.057  1.00  0.00     0.173 A 
ATOM     77  C   UNL A   1      40.271  35.164  37.000  1.00  0.00     0.173 A 
ATOM     78  F   UNL A   1      38.213  32.361  38.048  1.00  0.00    -0.203 F 
ATOM     79  C   UNL A   1      38.713  34.377  39.157  1.00  0.00     0.198 A 
ATOM     80  C   UNL A   1      40.148  35.992  38.113  1.00  0.00     0.198 A 
ATOM     81  F   UNL A   1      41.025  35.574  35.969  1.00  0.00    -0.203 F 
ATOM     82  F   UNL A   1      37.927  34.009  40.178  1.00  0.00    -0.200 F 
ATOM     83  C   UNL A   1      39.361  35.603  39.186  1.00  0.00     0.200 A 
ATOM     84  F   UNL A   1      40.789  37.168  38.145  1.00  0.00    -0.200 F 
ATOM     85  F   UNL A   1      39.220  36.412  40.246  1.00  0.00    -0.200 F 
ENDBRANCH  51  75
BRANCH  63  86
ATOM     86  C   UNL A   1      44.144  28.931  35.147  1.00  0.00     0.064 A 
ATOM     87  C   UNL A   1      44.079  27.842  36.028  1.00  0.00     0.173 A 
ATOM     88  C   UNL A   1      45.402  29.503  34.904  1.00  0.00     0.173 A 
ATOM     89  F   UNL A   1      42.899  27.266  36.306  1.00  0.00    -0.203 F 
ATOM     90  C   UNL A   1      45.220  27.374  36.675  1.00  0.00     0.198 A 
ATOM     91  C   UNL A   1      46.546  29.010  35.524  1.00  0.00     0.198 A 
ATOM     92  F   UNL A   1      45.522  30.541  34.062  1.00  0.00    -0.203 F 
ATOM     93  F   UNL A   1      45.122  26.376  37.563  1.00  0.00    -0.200 F 
ATOM     94  C   UNL A   1      46.454  27.954  36.418  1.00  0.00     0.200 A 
ATOM     95  F   UNL A   1      47.739  29.563  35.263  1.00  0.00    -0.200 F 
ATOM     96  F   UNL A   1      47.551  27.504  37.042  1.00  0.00    -0.200 F 
ENDBRANCH  63  86
ENDBRANCH  37  38
ENDBRANCH  29  32
ENDBRANCH  27  28
ENDBRANCH  26  27
ENDBRANCH  25  26
ENDBRANCH  24  25
ENDBRANCH   1  24
TORSDOF 20
ENDMDL
