MODEL 1
REMARK VINA RESULT:     -12.8      0.000      0.000
REMARK SMILES O=C(NCCCCCCNC(=O)[C@H](c1ccc(O)cc1)[NH+]1CC[NH+](Cc2cccc(Cl)c2)CC1)c1ccc(-c2c3nc(c(-c4c(F)c(F)c(F)c(F)c4F)c4ccc([nH]4)c(-c4c(F)c(F)c(F)c(F)c4F)c4nc(c(-c5c(F)c(F)c(F)c(F)c5F)c5ccc2[nH]5)C=C4)C=C3)cc1
REMARK SMILES IDX 7 1 6 2 5 3 4 4 3 5 1 6 2 7 35 9 36 10 97 11 37 12 96 13
REMARK SMILES IDX 38 14 39 15 40 16 90 17 41 18 95 19 89 20 91 21 42 22 94 23
REMARK SMILES IDX 88 24 87 25 43 27 75 28 55 29 74 30 56 31 59 32 73 33 92 34
REMARK SMILES IDX 57 35 58 36 72 38 93 39 60 40 44 41 45 42 53 43 46 44 47 45
REMARK SMILES IDX 51 46 54 47 48 48 49 49 52 50 50 51 76 52 77 53 85 54 78 55
REMARK SMILES IDX 79 56 83 57 86 58 80 59 81 60 84 61 82 62 61 63 62 64 70 65
REMARK SMILES IDX 63 66 64 67 68 68 71 69 65 70 66 71 69 72 67 73 8 74 9 75
REMARK SMILES IDX 10 76 11 77 12 79 13 80 21 81 22 82 34 83 23 85 33 86 24 87
REMARK SMILES IDX 25 89 26 90 27 91 32 92 28 93 30 94 29 95 31 96 14 97 15 98
REMARK SMILES IDX 20 99 16 100 19 101 17 102 18 103
REMARK H PARENT 3 8 91 26 59 37 10 78 21 84 24 88 18 104
REMARK Flexibility Score: inf
ROOT
ATOM      1  C   UNL A   1      32.754  30.011  26.981  1.00  0.00     0.002 C 
ENDROOT
BRANCH   1   2
ATOM      2  C   UNL A   1      31.580  30.703  26.281  1.00  0.00     0.002 C 
BRANCH   2   3
ATOM      3  C   UNL A   1      31.399  32.175  26.635  1.00  0.00     0.021 C 
BRANCH   3   4
ATOM      4  C   UNL A   1      32.641  32.833  27.208  1.00  0.00     0.116 C 
BRANCH   4   5
ATOM      5  N   UNL A   1      32.393  34.202  27.623  1.00  0.00    -0.352 N 
ATOM      6  O   UNL A   1      32.578  35.991  28.998  1.00  0.00    -0.269 OA
ATOM      7  C   UNL A   1      33.007  34.902  28.629  1.00  0.00     0.251 C 
ATOM      8  H   UNL A   1      31.698  34.686  27.121  1.00  0.00     0.163 HD
BRANCH   7   9
ATOM      9  C   UNL A   1      34.188  34.306  29.285  1.00  0.00     0.039 A 
ATOM     10  C   UNL A   1      35.472  34.593  28.814  1.00  0.00     0.014 A 
ATOM     11  C   UNL A   1      34.000  33.429  30.354  1.00  0.00     0.014 A 
ATOM     12  C   UNL A   1      36.563  33.908  29.331  1.00  0.00     0.010 A 
ATOM     13  C   UNL A   1      35.107  32.807  30.931  1.00  0.00     0.010 A 
ATOM     14  C   UNL A   1      36.393  33.027  30.410  1.00  0.00    -0.014 A 
BRANCH  14  15
ATOM     15  C   UNL A   1      37.580  32.401  31.039  1.00  0.00     0.031 A 
ATOM     16  C   UNL A   1      38.344  31.314  30.343  1.00  0.00     0.074 A 
ATOM     17  C   UNL A   1      37.951  32.823  32.262  1.00  0.00     0.049 A 
ATOM     18  N   UNL A   1      39.363  30.616  30.776  1.00  0.00    -0.248 NA
ATOM     19  C   UNL A   1      37.902  30.955  28.988  1.00  0.00     0.031 C 
ATOM     20  C   UNL A   1      37.276  33.871  33.031  1.00  0.00     0.029 A 
ATOM     21  N   UNL A   1      38.980  32.426  33.075  1.00  0.00    -0.354 N 
ATOM     22  C   UNL A   1      39.669  29.720  29.761  1.00  0.00     0.074 A 
ATOM     23  C   UNL A   1      38.715  29.948  28.697  1.00  0.00     0.031 C 
ATOM     24  C   UNL A   1      37.922  34.054  34.190  1.00  0.00     0.029 A 
ATOM     25  C   UNL A   1      39.014  33.091  34.275  1.00  0.00     0.049 A 
ATOM     26  H   UNL A   1      39.632  31.733  32.822  1.00  0.00     0.167 HD
ATOM     27  C   UNL A   1      40.660  28.795  29.726  1.00  0.00     0.037 A 
ATOM     28  C   UNL A   1      39.816  32.923  35.341  1.00  0.00     0.037 A 
ATOM     29  C   UNL A   1      41.609  28.588  30.790  1.00  0.00     0.049 A 
ATOM     30  C   UNL A   1      40.885  31.873  35.287  1.00  0.00     0.074 A 
ATOM     31  C   UNL A   1      42.672  27.702  30.841  1.00  0.00     0.029 A 
ATOM     32  N   UNL A   1      41.606  29.273  31.998  1.00  0.00    -0.354 N 
ATOM     33  N   UNL A   1      41.182  31.048  34.313  1.00  0.00    -0.248 NA
ATOM     34  C   UNL A   1      41.727  31.727  36.480  1.00  0.00     0.031 C 
ATOM     35  C   UNL A   1      43.280  27.817  32.095  1.00  0.00     0.029 A 
ATOM     36  C   UNL A   1      42.632  28.813  32.808  1.00  0.00     0.049 A 
ATOM     37  H   UNL A   1      40.967  29.982  32.243  1.00  0.00     0.167 HD
ATOM     38  C   UNL A   1      42.259  30.299  34.763  1.00  0.00     0.074 A 
ATOM     39  C   UNL A   1      42.571  30.778  36.096  1.00  0.00     0.031 C 
ATOM     40  C   UNL A   1      42.928  29.305  34.131  1.00  0.00     0.037 A 
BRANCH  27  41
ATOM     41  C   UNL A   1      40.752  27.920  28.509  1.00  0.00     0.064 A 
ATOM     42  C   UNL A   1      40.078  26.693  28.426  1.00  0.00     0.173 A 
ATOM     43  C   UNL A   1      41.501  28.332  27.396  1.00  0.00     0.173 A 
ATOM     44  F   UNL A   1      39.357  26.247  29.466  1.00  0.00    -0.203 F 
ATOM     45  C   UNL A   1      40.173  25.898  27.286  1.00  0.00     0.198 A 
ATOM     46  C   UNL A   1      41.571  27.548  26.247  1.00  0.00     0.198 A 
ATOM     47  F   UNL A   1      42.162  29.499  27.418  1.00  0.00    -0.203 F 
ATOM     48  F   UNL A   1      39.558  24.707  27.248  1.00  0.00    -0.200 F 
ATOM     49  C   UNL A   1      40.913  26.328  26.195  1.00  0.00     0.200 A 
ATOM     50  F   UNL A   1      42.278  27.972  25.189  1.00  0.00    -0.200 F 
ATOM     51  F   UNL A   1      41.001  25.563  25.099  1.00  0.00    -0.200 F 
ENDBRANCH  27  41
BRANCH  28  52
ATOM     52  C   UNL A   1      39.621  33.775  36.542  1.00  0.00     0.064 A 
ATOM     53  C   UNL A   1      40.204  35.045  36.625  1.00  0.00     0.173 A 
ATOM     54  C   UNL A   1      38.813  33.352  37.609  1.00  0.00     0.173 A 
ATOM     55  F   UNL A   1      40.995  35.484  35.635  1.00  0.00    -0.203 F 
ATOM     56  C   UNL A   1      39.995  35.859  37.736  1.00  0.00     0.198 A 
ATOM     57  C   UNL A   1      38.582  34.179  38.705  1.00  0.00     0.198 A 
ATOM     58  F   UNL A   1      38.225  32.148  37.571  1.00  0.00    -0.203 F 
ATOM     59  F   UNL A   1      40.589  37.058  37.806  1.00  0.00    -0.200 F 
ATOM     60  C   UNL A   1      39.177  35.429  38.771  1.00  0.00     0.200 A 
ATOM     61  F   UNL A   1      37.775  33.767  39.693  1.00  0.00    -0.200 F 
ATOM     62  F   UNL A   1      38.965  36.219  39.832  1.00  0.00    -0.200 F 
ENDBRANCH  28  52
BRANCH  40  63
ATOM     63  C   UNL A   1      44.088  28.695  34.860  1.00  0.00     0.064 A 
ATOM     64  C   UNL A   1      43.937  27.555  35.662  1.00  0.00     0.173 A 
ATOM     65  C   UNL A   1      45.374  29.239  34.724  1.00  0.00     0.173 A 
ATOM     66  F   UNL A   1      42.724  27.009  35.837  1.00  0.00    -0.203 F 
ATOM     67  C   UNL A   1      45.027  26.995  36.322  1.00  0.00     0.198 A 
ATOM     68  C   UNL A   1      46.468  28.660  35.362  1.00  0.00     0.198 A 
ATOM     69  F   UNL A   1      45.572  30.327  33.965  1.00  0.00    -0.203 F 
ATOM     70  F   UNL A   1      44.853  25.934  37.121  1.00  0.00    -0.200 F 
ATOM     71  C   UNL A   1      46.292  27.544  36.165  1.00  0.00     0.200 A 
ATOM     72  F   UNL A   1      47.690  29.185  35.200  1.00  0.00    -0.200 F 
ATOM     73  F   UNL A   1      47.343  27.000  36.795  1.00  0.00    -0.200 F 
ENDBRANCH  40  63
ENDBRANCH  14  15
ENDBRANCH   7   9
ENDBRANCH   4   5
ENDBRANCH   3   4
ENDBRANCH   2   3
ENDBRANCH   1   2
BRANCH   1  74
ATOM     74  C   UNL A   1      33.876  29.509  26.056  1.00  0.00     0.021 C 
BRANCH  74  75
ATOM     75  C   UNL A   1      33.638  28.119  25.455  1.00  0.00     0.116 C 
BRANCH  75  76
ATOM     76  N   UNL A   1      32.785  27.336  26.320  1.00  0.00    -0.351 N 
ATOM     77  C   UNL A   1      31.508  26.924  26.060  1.00  0.00     0.283 C 
ATOM     78  H   UNL A   1      33.166  27.071  27.188  1.00  0.00     0.163 HD
ATOM     79  O   UNL A   1      30.764  26.859  27.039  1.00  0.00    -0.268 OA
BRANCH  77  80
ATOM     80  C   UNL A   1      31.124  26.517  24.606  1.00  0.00     0.305 C 
BRANCH  80  81
ATOM     81  N   UNL A   1      30.927  25.066  24.388  1.00  0.00    -0.312 N 
ATOM     82  C   UNL A   1      31.579  24.435  23.240  1.00  0.00     0.325 C 
ATOM     83  C   UNL A   1      30.795  24.142  25.511  1.00  0.00     0.325 C 
ATOM     84  H   UNL A   1      29.956  25.235  24.126  1.00  0.00     0.349 HD
ATOM     85  C   UNL A   1      32.859  23.617  23.575  1.00  0.00     0.324 C 
ATOM     86  C   UNL A   1      32.073  23.340  25.859  1.00  0.00     0.324 C 
ATOM     87  N   UNL A   1      32.781  22.718  24.734  1.00  0.00    -0.322 N 
ATOM     88  H   UNL A   1      33.737  22.592  25.065  1.00  0.00     0.348 HD
BRANCH  87  89
ATOM     89  C   UNL A   1      32.437  21.328  24.430  1.00  0.00     0.299 C 
BRANCH  89  90
ATOM     90  C   UNL A   1      33.539  20.312  24.612  1.00  0.00     0.008 A 
ATOM     91  C   UNL A   1      34.828  20.716  24.991  1.00  0.00     0.009 A 
ATOM     92  C   UNL A   1      33.310  18.961  24.315  1.00  0.00     0.030 A 
ATOM     93  C   UNL A   1      35.890  19.811  24.968  1.00  0.00     0.002 A 
ATOM     94  C   UNL A   1      34.373  18.061  24.295  1.00  0.00     0.041 A 
ATOM     95  C   UNL A   1      35.664  18.485  24.600  1.00  0.00     0.020 A 
ATOM     96  Cl  UNL A   1      34.093  16.428  23.834  1.00  0.00    -0.084 Cl
ENDBRANCH  89  90
ENDBRANCH  87  89
ENDBRANCH  80  81
BRANCH  80  97
ATOM     97  C   UNL A   1      30.039  27.421  24.032  1.00  0.00     0.019 A 
ATOM     98  C   UNL A   1      28.714  26.975  23.896  1.00  0.00     0.014 A 
ATOM     99  C   UNL A   1      30.362  28.723  23.604  1.00  0.00     0.014 A 
ATOM    100  C   UNL A   1      27.740  27.801  23.332  1.00  0.00     0.046 A 
ATOM    101  C   UNL A   1      29.382  29.557  23.070  1.00  0.00     0.046 A 
ATOM    102  C   UNL A   1      28.084  29.086  22.926  1.00  0.00     0.115 A 
BRANCH 102 103
ATOM    103  O   UNL A   1      27.165  29.923  22.365  1.00  0.00    -0.508 OA
ATOM    104  H   UNL A   1      27.379  30.823  22.221  1.00  0.00     0.293 HD
ENDBRANCH 102 103
ENDBRANCH  80  97
ENDBRANCH  77  80
ENDBRANCH  75  76
ENDBRANCH  74  75
ENDBRANCH   1  74
TORSDOF 18
ENDMDL
MODEL 2
REMARK VINA RESULT:     -12.6      5.130     10.220
REMARK SMILES O=C(NCCCCCCNC(=O)[C@H](c1ccc(O)cc1)[NH+]1CC[NH+](Cc2cccc(Cl)c2)CC1)c1ccc(-c2c3nc(c(-c4c(F)c(F)c(F)c(F)c4F)c4ccc([nH]4)c(-c4c(F)c(F)c(F)c(F)c4F)c4nc(c(-c5c(F)c(F)c(F)c(F)c5F)c5ccc2[nH]5)C=C4)C=C3)cc1
REMARK SMILES IDX 7 1 6 2 5 3 4 4 3 5 1 6 2 7 35 9 36 10 97 11 37 12 96 13
REMARK SMILES IDX 38 14 39 15 40 16 90 17 41 18 95 19 89 20 91 21 42 22 94 23
REMARK SMILES IDX 88 24 87 25 43 27 75 28 55 29 74 30 56 31 59 32 73 33 92 34
REMARK SMILES IDX 57 35 58 36 72 38 93 39 60 40 44 41 45 42 53 43 46 44 47 45
REMARK SMILES IDX 51 46 54 47 48 48 49 49 52 50 50 51 76 52 77 53 85 54 78 55
REMARK SMILES IDX 79 56 83 57 86 58 80 59 81 60 84 61 82 62 61 63 62 64 70 65
REMARK SMILES IDX 63 66 64 67 68 68 71 69 65 70 66 71 69 72 67 73 8 74 9 75
REMARK SMILES IDX 10 76 11 77 12 79 13 80 21 81 22 82 34 83 23 85 33 86 24 87
REMARK SMILES IDX 25 89 26 90 27 91 32 92 28 93 30 94 29 95 31 96 14 97 15 98
REMARK SMILES IDX 20 99 16 100 19 101 17 102 18 103
REMARK H PARENT 3 8 91 26 59 37 10 78 21 84 24 88 18 104
REMARK Flexibility Score: inf
ROOT
ATOM      1  C   UNL A   1      37.440  22.062  24.952  1.00  0.00     0.002 C 
ENDROOT
BRANCH   1   2
ATOM      2  C   UNL A   1      37.059  20.579  24.926  1.00  0.00     0.002 C 
BRANCH   2   3
ATOM      3  C   UNL A   1      38.238  19.612  24.940  1.00  0.00     0.021 C 
BRANCH   3   4
ATOM      4  C   UNL A   1      39.273  19.911  26.011  1.00  0.00     0.116 C 
BRANCH   4   5
ATOM      5  N   UNL A   1      40.401  18.999  25.950  1.00  0.00    -0.352 N 
ATOM      6  O   UNL A   1      42.592  18.461  25.765  1.00  0.00    -0.269 OA
ATOM      7  C   UNL A   1      41.736  19.305  26.011  1.00  0.00     0.251 C 
ATOM      8  H   UNL A   1      40.180  18.045  25.854  1.00  0.00     0.163 HD
BRANCH   7   9
ATOM      9  C   UNL A   1      42.129  20.686  26.355  1.00  0.00     0.039 A 
ATOM     10  C   UNL A   1      42.297  21.640  25.347  1.00  0.00     0.014 A 
ATOM     11  C   UNL A   1      42.364  21.013  27.691  1.00  0.00     0.014 A 
ATOM     12  C   UNL A   1      42.818  22.887  25.661  1.00  0.00     0.010 A 
ATOM     13  C   UNL A   1      42.806  22.295  28.014  1.00  0.00     0.010 A 
ATOM     14  C   UNL A   1      43.054  23.234  26.999  1.00  0.00    -0.014 A 
BRANCH  14  15
ATOM     15  C   UNL A   1      43.487  24.612  27.334  1.00  0.00     0.031 A 
ATOM     16  C   UNL A   1      42.526  25.607  27.911  1.00  0.00     0.074 A 
ATOM     17  C   UNL A   1      44.766  24.955  27.092  1.00  0.00     0.049 A 
ATOM     18  N   UNL A   1      42.721  26.870  28.200  1.00  0.00    -0.248 NA
ATOM     19  C   UNL A   1      41.165  25.131  28.193  1.00  0.00     0.031 C 
ATOM     20  C   UNL A   1      45.783  24.065  26.528  1.00  0.00     0.029 A 
ATOM     21  N   UNL A   1      45.430  26.138  27.287  1.00  0.00    -0.354 N 
ATOM     22  C   UNL A   1      41.506  27.344  28.674  1.00  0.00     0.074 A 
ATOM     23  C   UNL A   1      40.571  26.239  28.614  1.00  0.00     0.031 C 
ATOM     24  C   UNL A   1      46.947  24.722  26.447  1.00  0.00     0.029 A 
ATOM     25  C   UNL A   1      46.743  26.097  26.888  1.00  0.00     0.049 A 
ATOM     26  H   UNL A   1      45.007  26.937  27.675  1.00  0.00     0.167 HD
ATOM     27  C   UNL A   1      41.205  28.589  29.118  1.00  0.00     0.037 A 
ATOM     28  C   UNL A   1      47.672  27.068  26.852  1.00  0.00     0.037 A 
ATOM     29  C   UNL A   1      42.149  29.675  29.181  1.00  0.00     0.049 A 
ATOM     30  C   UNL A   1      47.304  28.443  27.322  1.00  0.00     0.074 A 
ATOM     31  C   UNL A   1      41.955  30.964  29.647  1.00  0.00     0.029 A 
ATOM     32  N   UNL A   1      43.469  29.600  28.757  1.00  0.00    -0.354 N 
ATOM     33  N   UNL A   1      46.159  28.875  27.791  1.00  0.00    -0.248 NA
ATOM     34  C   UNL A   1      48.353  29.467  27.255  1.00  0.00     0.031 C 
ATOM     35  C   UNL A   1      43.142  31.681  29.461  1.00  0.00     0.029 A 
ATOM     36  C   UNL A   1      44.093  30.826  28.929  1.00  0.00     0.049 A 
ATOM     37  H   UNL A   1      43.899  28.794  28.388  1.00  0.00     0.167 HD
ATOM     38  C   UNL A   1      46.353  30.214  28.097  1.00  0.00     0.074 A 
ATOM     39  C   UNL A   1      47.732  30.519  27.771  1.00  0.00     0.031 C 
ATOM     40  C   UNL A   1      45.469  31.108  28.601  1.00  0.00     0.037 A 
BRANCH  27  41
ATOM     41  C   UNL A   1      39.789  28.851  29.548  1.00  0.00     0.064 A 
ATOM     42  C   UNL A   1      39.358  28.615  30.861  1.00  0.00     0.173 A 
ATOM     43  C   UNL A   1      38.859  29.378  28.638  1.00  0.00     0.173 A 
ATOM     44  F   UNL A   1      40.203  28.101  31.768  1.00  0.00    -0.203 F 
ATOM     45  C   UNL A   1      38.042  28.869  31.241  1.00  0.00     0.198 A 
ATOM     46  C   UNL A   1      37.552  29.657  29.029  1.00  0.00     0.198 A 
ATOM     47  F   UNL A   1      39.218  29.629  27.371  1.00  0.00    -0.203 F 
ATOM     48  F   UNL A   1      37.640  28.589  32.489  1.00  0.00    -0.200 F 
ATOM     49  C   UNL A   1      37.141  29.395  30.327  1.00  0.00     0.200 A 
ATOM     50  F   UNL A   1      36.687  30.178  28.147  1.00  0.00    -0.200 F 
ATOM     51  F   UNL A   1      35.877  29.642  30.695  1.00  0.00    -0.200 F 
ENDBRANCH  27  41
BRANCH  28  52
ATOM     52  C   UNL A   1      49.032  26.756  26.346  1.00  0.00     0.064 A 
ATOM     53  C   UNL A   1      49.369  26.979  25.005  1.00  0.00     0.173 A 
ATOM     54  C   UNL A   1      50.033  26.272  27.202  1.00  0.00     0.173 A 
ATOM     55  F   UNL A   1      48.441  27.428  24.148  1.00  0.00    -0.203 F 
ATOM     56  C   UNL A   1      50.655  26.719  24.535  1.00  0.00     0.198 A 
ATOM     57  C   UNL A   1      51.325  26.040  26.737  1.00  0.00     0.198 A 
ATOM     58  F   UNL A   1      49.762  26.052  28.496  1.00  0.00    -0.203 F 
ATOM     59  F   UNL A   1      50.943  26.911  23.241  1.00  0.00    -0.200 F 
ATOM     60  C   UNL A   1      51.633  26.258  25.403  1.00  0.00     0.200 A 
ATOM     61  F   UNL A   1      52.273  25.614  27.584  1.00  0.00    -0.200 F 
ATOM     62  F   UNL A   1      52.873  26.023  24.953  1.00  0.00    -0.200 F 
ENDBRANCH  28  52
BRANCH  40  63
ATOM     63  C   UNL A   1      45.979  32.494  28.865  1.00  0.00     0.064 A 
ATOM     64  C   UNL A   1      46.585  32.836  30.082  1.00  0.00     0.173 A 
ATOM     65  C   UNL A   1      45.890  33.482  27.873  1.00  0.00     0.173 A 
ATOM     66  F   UNL A   1      46.678  31.931  31.068  1.00  0.00    -0.203 F 
ATOM     67  C   UNL A   1      47.063  34.124  30.306  1.00  0.00     0.198 A 
ATOM     68  C   UNL A   1      46.394  34.761  28.089  1.00  0.00     0.198 A 
ATOM     69  F   UNL A   1      45.322  33.204  26.690  1.00  0.00    -0.203 F 
ATOM     70  F   UNL A   1      47.596  34.443  31.492  1.00  0.00    -0.200 F 
ATOM     71  C   UNL A   1      46.973  35.083  29.307  1.00  0.00     0.200 A 
ATOM     72  F   UNL A   1      46.317  35.683  27.119  1.00  0.00    -0.200 F 
ATOM     73  F   UNL A   1      47.440  36.321  29.521  1.00  0.00    -0.200 F 
ENDBRANCH  40  63
ENDBRANCH  14  15
ENDBRANCH   7   9
ENDBRANCH   4   5
ENDBRANCH   3   4
ENDBRANCH   2   3
ENDBRANCH   1   2
BRANCH   1  74
ATOM     74  C   UNL A   1      36.550  22.962  25.825  1.00  0.00     0.021 C 
BRANCH  74  75
ATOM     75  C   UNL A   1      35.993  24.199  25.112  1.00  0.00     0.116 C 
BRANCH  75  76
ATOM     76  N   UNL A   1      34.924  24.787  25.885  1.00  0.00    -0.351 N 
ATOM     77  C   UNL A   1      33.923  25.595  25.421  1.00  0.00     0.283 C 
ATOM     78  H   UNL A   1      34.914  24.583  26.848  1.00  0.00     0.163 HD
ATOM     79  O   UNL A   1      33.535  26.460  26.208  1.00  0.00    -0.268 OA
BRANCH  77  80
ATOM     80  C   UNL A   1      33.326  25.326  24.008  1.00  0.00     0.305 C 
BRANCH  80  81
ATOM     81  N   UNL A   1      32.590  24.050  23.867  1.00  0.00    -0.312 N 
ATOM     82  C   UNL A   1      33.094  23.051  22.923  1.00  0.00     0.325 C 
ATOM     83  C   UNL A   1      31.924  23.427  25.008  1.00  0.00     0.325 C 
ATOM     84  H   UNL A   1      31.825  24.539  23.404  1.00  0.00     0.349 HD
ATOM     85  C   UNL A   1      33.864  21.862  23.568  1.00  0.00     0.324 C 
ATOM     86  C   UNL A   1      32.696  22.257  25.664  1.00  0.00     0.324 C 
ATOM     87  N   UNL A   1      33.251  21.248  24.753  1.00  0.00    -0.322 N 
ATOM     88  H   UNL A   1      34.011  20.813  25.277  1.00  0.00     0.348 HD
BRANCH  87  89
ATOM     89  C   UNL A   1      32.421  20.070  24.494  1.00  0.00     0.299 C 
BRANCH  89  90
ATOM     90  C   UNL A   1      33.064  18.730  24.756  1.00  0.00     0.008 A 
ATOM     91  C   UNL A   1      34.388  18.482  24.362  1.00  0.00     0.009 A 
ATOM     92  C   UNL A   1      32.315  17.685  25.316  1.00  0.00     0.030 A 
ATOM     93  C   UNL A   1      34.916  17.192  24.424  1.00  0.00     0.002 A 
ATOM     94  C   UNL A   1      32.848  16.399  25.378  1.00  0.00     0.041 A 
ATOM     95  C   UNL A   1      34.137  16.145  24.915  1.00  0.00     0.020 A 
ATOM     96  Cl  UNL A   1      31.882  15.109  25.976  1.00  0.00    -0.084 Cl
ENDBRANCH  89  90
ENDBRANCH  87  89
ENDBRANCH  80  81
BRANCH  80  97
ATOM     97  C   UNL A   1      32.620  26.556  23.447  1.00  0.00     0.019 A 
ATOM     98  C   UNL A   1      31.228  26.576  23.256  1.00  0.00     0.014 A 
ATOM     99  C   UNL A   1      33.368  27.693  23.089  1.00  0.00     0.014 A 
ATOM    100  C   UNL A   1      30.603  27.695  22.705  1.00  0.00     0.046 A 
ATOM    101  C   UNL A   1      32.738  28.822  22.567  1.00  0.00     0.046 A 
ATOM    102  C   UNL A   1      31.364  28.809  22.367  1.00  0.00     0.115 A 
BRANCH 102 103
ATOM    103  O   UNL A   1      30.794  29.920  21.822  1.00  0.00    -0.508 OA
ATOM    104  H   UNL A   1      31.281  30.450  21.223  1.00  0.00     0.293 HD
ENDBRANCH 102 103
ENDBRANCH  80  97
ENDBRANCH  77  80
ENDBRANCH  75  76
ENDBRANCH  74  75
ENDBRANCH   1  74
TORSDOF 18
ENDMDL
MODEL 3
REMARK VINA RESULT:     -12.4      1.365      2.062
REMARK SMILES O=C(NCCCCCCNC(=O)[C@H](c1ccc(O)cc1)[NH+]1CC[NH+](Cc2cccc(Cl)c2)CC1)c1ccc(-c2c3nc(c(-c4c(F)c(F)c(F)c(F)c4F)c4ccc([nH]4)c(-c4c(F)c(F)c(F)c(F)c4F)c4nc(c(-c5c(F)c(F)c(F)c(F)c5F)c5ccc2[nH]5)C=C4)C=C3)cc1
REMARK SMILES IDX 7 1 6 2 5 3 4 4 3 5 1 6 2 7 35 9 36 10 97 11 37 12 96 13
REMARK SMILES IDX 38 14 39 15 40 16 90 17 41 18 95 19 89 20 91 21 42 22 94 23
REMARK SMILES IDX 88 24 87 25 43 27 75 28 55 29 74 30 56 31 59 32 73 33 92 34
REMARK SMILES IDX 57 35 58 36 72 38 93 39 60 40 44 41 45 42 53 43 46 44 47 45
REMARK SMILES IDX 51 46 54 47 48 48 49 49 52 50 50 51 76 52 77 53 85 54 78 55
REMARK SMILES IDX 79 56 83 57 86 58 80 59 81 60 84 61 82 62 61 63 62 64 70 65
REMARK SMILES IDX 63 66 64 67 68 68 71 69 65 70 66 71 69 72 67 73 8 74 9 75
REMARK SMILES IDX 10 76 11 77 12 79 13 80 21 81 22 82 34 83 23 85 33 86 24 87
REMARK SMILES IDX 25 89 26 90 27 91 32 92 28 93 30 94 29 95 31 96 14 97 15 98
REMARK SMILES IDX 20 99 16 100 19 101 17 102 18 103
REMARK H PARENT 3 8 91 26 59 37 10 78 21 84 24 88 18 104
REMARK Flexibility Score: inf
ROOT
ATOM      1  C   UNL A   1      32.788  30.099  25.710  1.00  0.00     0.002 C 
ENDROOT
BRANCH   1   2
ATOM      2  C   UNL A   1      31.435  30.807  25.833  1.00  0.00     0.002 C 
BRANCH   2   3
ATOM      3  C   UNL A   1      31.363  31.872  26.923  1.00  0.00     0.021 C 
BRANCH   3   4
ATOM      4  C   UNL A   1      32.650  32.655  27.109  1.00  0.00     0.116 C 
BRANCH   4   5
ATOM      5  N   UNL A   1      32.400  34.026  27.517  1.00  0.00    -0.352 N 
ATOM      6  O   UNL A   1      32.584  35.822  28.883  1.00  0.00    -0.269 OA
ATOM      7  C   UNL A   1      33.014  34.732  28.520  1.00  0.00     0.251 C 
ATOM      8  H   UNL A   1      31.705  34.507  27.013  1.00  0.00     0.163 HD
BRANCH   7   9
ATOM      9  C   UNL A   1      34.196  34.140  29.178  1.00  0.00     0.039 A 
ATOM     10  C   UNL A   1      35.481  34.552  28.816  1.00  0.00     0.014 A 
ATOM     11  C   UNL A   1      34.011  33.143  30.137  1.00  0.00     0.014 A 
ATOM     12  C   UNL A   1      36.586  33.882  29.323  1.00  0.00     0.010 A 
ATOM     13  C   UNL A   1      35.124  32.529  30.710  1.00  0.00     0.010 A 
ATOM     14  C   UNL A   1      36.418  32.881  30.292  1.00  0.00    -0.014 A 
BRANCH  14  15
ATOM     15  C   UNL A   1      37.609  32.263  30.921  1.00  0.00     0.031 A 
ATOM     16  C   UNL A   1      38.385  31.187  30.221  1.00  0.00     0.074 A 
ATOM     17  C   UNL A   1      37.972  32.680  32.148  1.00  0.00     0.049 A 
ATOM     18  N   UNL A   1      39.410  30.496  30.653  1.00  0.00    -0.248 NA
ATOM     19  C   UNL A   1      37.952  30.832  28.863  1.00  0.00     0.031 C 
ATOM     20  C   UNL A   1      37.284  33.717  32.920  1.00  0.00     0.029 A 
ATOM     21  N   UNL A   1      39.003  32.289  32.962  1.00  0.00    -0.354 N 
ATOM     22  C   UNL A   1      39.728  29.610  29.634  1.00  0.00     0.074 A 
ATOM     23  C   UNL A   1      38.775  29.835  28.568  1.00  0.00     0.031 C 
ATOM     24  C   UNL A   1      37.925  33.899  34.082  1.00  0.00     0.029 A 
ATOM     25  C   UNL A   1      39.026  32.947  34.166  1.00  0.00     0.049 A 
ATOM     26  H   UNL A   1      39.662  31.603  32.707  1.00  0.00     0.167 HD
ATOM     27  C   UNL A   1      40.728  28.695  29.597  1.00  0.00     0.037 A 
ATOM     28  C   UNL A   1      39.826  32.780  35.234  1.00  0.00     0.037 A 
ATOM     29  C   UNL A   1      41.676  28.490  30.662  1.00  0.00     0.049 A 
ATOM     30  C   UNL A   1      40.905  31.740  35.177  1.00  0.00     0.074 A 
ATOM     31  C   UNL A   1      42.747  27.614  30.711  1.00  0.00     0.029 A 
ATOM     32  N   UNL A   1      41.661  29.167  31.874  1.00  0.00    -0.354 N 
ATOM     33  N   UNL A   1      41.213  30.925  34.199  1.00  0.00    -0.248 NA
ATOM     34  C   UNL A   1      41.745  31.595  36.372  1.00  0.00     0.031 C 
ATOM     35  C   UNL A   1      43.350  27.728  31.968  1.00  0.00     0.029 A 
ATOM     36  C   UNL A   1      42.690  28.712  32.685  1.00  0.00     0.049 A 
ATOM     37  H   UNL A   1      41.015  29.869  32.122  1.00  0.00     0.167 HD
ATOM     38  C   UNL A   1      42.296  30.183  34.648  1.00  0.00     0.074 A 
ATOM     39  C   UNL A   1      42.599  30.657  35.984  1.00  0.00     0.031 C 
ATOM     40  C   UNL A   1      42.976  29.200  34.012  1.00  0.00     0.037 A 
BRANCH  27  41
ATOM     41  C   UNL A   1      40.833  27.828  28.375  1.00  0.00     0.064 A 
ATOM     42  C   UNL A   1      41.611  28.198  27.268  1.00  0.00     0.173 A 
ATOM     43  C   UNL A   1      40.171  26.591  28.324  1.00  0.00     0.173 A 
ATOM     44  F   UNL A   1      42.256  29.375  27.259  1.00  0.00    -0.203 F 
ATOM     45  C   UNL A   1      41.699  27.378  26.146  1.00  0.00     0.198 A 
ATOM     46  C   UNL A   1      40.284  25.760  27.212  1.00  0.00     0.198 A 
ATOM     47  F   UNL A   1      39.418  26.183  29.357  1.00  0.00    -0.203 F 
ATOM     48  F   UNL A   1      42.409  27.776  25.080  1.00  0.00    -0.200 F 
ATOM     49  C   UNL A   1      41.041  26.158  26.120  1.00  0.00     0.200 A 
ATOM     50  F   UNL A   1      39.657  24.575  27.196  1.00  0.00    -0.200 F 
ATOM     51  F   UNL A   1      41.130  25.368  25.041  1.00  0.00    -0.200 F 
ENDBRANCH  27  41
BRANCH  28  52
ATOM     52  C   UNL A   1      39.619  33.622  36.438  1.00  0.00     0.064 A 
ATOM     53  C   UNL A   1      40.205  34.890  36.540  1.00  0.00     0.173 A 
ATOM     54  C   UNL A   1      38.796  33.194  37.492  1.00  0.00     0.173 A 
ATOM     55  F   UNL A   1      41.010  35.335  35.564  1.00  0.00    -0.203 F 
ATOM     56  C   UNL A   1      39.985  35.695  37.655  1.00  0.00     0.198 A 
ATOM     57  C   UNL A   1      38.554  34.012  38.592  1.00  0.00     0.198 A 
ATOM     58  F   UNL A   1      38.205  31.992  37.436  1.00  0.00    -0.203 F 
ATOM     59  F   UNL A   1      40.582  36.891  37.742  1.00  0.00    -0.200 F 
ATOM     60  C   UNL A   1      39.153  35.260  38.675  1.00  0.00     0.200 A 
ATOM     61  F   UNL A   1      37.734  33.595  39.566  1.00  0.00    -0.200 F 
ATOM     62  F   UNL A   1      38.930  36.041  39.740  1.00  0.00    -0.200 F 
ENDBRANCH  28  52
BRANCH  40  63
ATOM     63  C   UNL A   1      44.140  28.596  34.741  1.00  0.00     0.064 A 
ATOM     64  C   UNL A   1      44.000  27.442  35.524  1.00  0.00     0.173 A 
ATOM     65  C   UNL A   1      45.418  29.162  34.624  1.00  0.00     0.173 A 
ATOM     66  F   UNL A   1      42.795  26.874  35.681  1.00  0.00    -0.203 F 
ATOM     67  C   UNL A   1      45.094  26.889  36.184  1.00  0.00     0.198 A 
ATOM     68  C   UNL A   1      46.516  28.591  35.262  1.00  0.00     0.198 A 
ATOM     69  F   UNL A   1      45.605  30.264  33.883  1.00  0.00    -0.203 F 
ATOM     70  F   UNL A   1      44.930  25.813  36.965  1.00  0.00    -0.200 F 
ATOM     71  C   UNL A   1      46.351  27.459  36.046  1.00  0.00     0.200 A 
ATOM     72  F   UNL A   1      47.731  29.136  35.118  1.00  0.00    -0.200 F 
ATOM     73  F   UNL A   1      47.405  26.922  36.677  1.00  0.00    -0.200 F 
ENDBRANCH  40  63
ENDBRANCH  14  15
ENDBRANCH   7   9
ENDBRANCH   4   5
ENDBRANCH   3   4
ENDBRANCH   2   3
ENDBRANCH   1   2
BRANCH   1  74
ATOM     74  C   UNL A   1      32.766  28.579  25.937  1.00  0.00     0.021 C 
BRANCH  74  75
ATOM     75  C   UNL A   1      32.397  28.149  27.361  1.00  0.00     0.116 C 
BRANCH  75  76
ATOM     76  N   UNL A   1      31.316  27.190  27.333  1.00  0.00    -0.351 N 
ATOM     77  C   UNL A   1      31.139  26.179  26.429  1.00  0.00     0.283 C 
ATOM     78  H   UNL A   1      30.638  27.272  28.041  1.00  0.00     0.163 HD
ATOM     79  O   UNL A   1      29.966  25.910  26.162  1.00  0.00    -0.268 OA
BRANCH  77  80
ATOM     80  C   UNL A   1      32.386  25.428  25.877  1.00  0.00     0.305 C 
BRANCH  80  81
ATOM     81  N   UNL A   1      32.567  24.049  26.383  1.00  0.00    -0.312 N 
ATOM     82  C   UNL A   1      31.407  23.158  26.417  1.00  0.00     0.325 C 
ATOM     83  C   UNL A   1      33.808  23.314  26.155  1.00  0.00     0.325 C 
ATOM     84  H   UNL A   1      32.695  24.410  27.328  1.00  0.00     0.349 HD
ATOM     85  C   UNL A   1      31.350  22.106  25.272  1.00  0.00     0.324 C 
ATOM     86  C   UNL A   1      33.760  22.280  25.004  1.00  0.00     0.324 C 
ATOM     87  N   UNL A   1      32.596  21.386  24.977  1.00  0.00    -0.322 N 
ATOM     88  H   UNL A   1      32.526  21.078  24.007  1.00  0.00     0.348 HD
BRANCH  87  89
ATOM     89  C   UNL A   1      32.747  20.090  25.641  1.00  0.00     0.299 C 
BRANCH  89  90
ATOM     90  C   UNL A   1      33.211  18.946  24.772  1.00  0.00     0.008 A 
ATOM     91  C   UNL A   1      32.655  18.742  23.501  1.00  0.00     0.009 A 
ATOM     92  C   UNL A   1      34.140  18.018  25.265  1.00  0.00     0.030 A 
ATOM     93  C   UNL A   1      32.937  17.579  22.782  1.00  0.00     0.002 A 
ATOM     94  C   UNL A   1      34.419  16.859  24.543  1.00  0.00     0.041 A 
ATOM     95  C   UNL A   1      33.806  16.627  23.314  1.00  0.00     0.020 A 
ATOM     96  Cl  UNL A   1      35.485  15.684  25.205  1.00  0.00    -0.084 Cl
ENDBRANCH  89  90
ENDBRANCH  87  89
ENDBRANCH  80  81
BRANCH  80  97
ATOM     97  C   UNL A   1      32.528  25.598  24.368  1.00  0.00     0.019 A 
ATOM     98  C   UNL A   1      31.492  25.235  23.492  1.00  0.00     0.014 A 
ATOM     99  C   UNL A   1      33.725  26.106  23.828  1.00  0.00     0.014 A 
ATOM    100  C   UNL A   1      31.653  25.360  22.111  1.00  0.00     0.046 A 
ATOM    101  C   UNL A   1      33.873  26.259  22.450  1.00  0.00     0.046 A 
ATOM    102  C   UNL A   1      32.842  25.872  21.603  1.00  0.00     0.115 A 
BRANCH 102 103
ATOM    103  O   UNL A   1      33.043  26.006  20.262  1.00  0.00    -0.508 OA
ATOM    104  H   UNL A   1      33.036  26.857  19.870  1.00  0.00     0.293 HD
ENDBRANCH 102 103
ENDBRANCH  80  97
ENDBRANCH  77  80
ENDBRANCH  75  76
ENDBRANCH  74  75
ENDBRANCH   1  74
TORSDOF 18
ENDMDL
