MODEL 1
REMARK VINA RESULT:     -10.9      0.000      0.000
REMARK SMILES CCCN(CCC)c1cc(C(=O)NCCCCCCNC(=O)c2ccc(-c3c4nc(c(-c5c(F)c(F)c(F)c(F)c5F)c5ccc([nH]5)c(-c5c(F)c(F)c(F)c(F)c5F)c5nc(c(-c6c(F)c(F)c(F)c(F)c6F)c6ccc3[nH]6)C=C5)C=C4)cc2)cc(C(F)(F)F)c1
REMARK SMILES IDX 16 1 15 2 14 3 13 4 11 5 12 6 10 8 8 9 9 10 92 11 87 12
REMARK SMILES IDX 86 13 4 14 3 15 2 16 1 17 5 18 6 19 7 20 88 21 89 22 90 23
REMARK SMILES IDX 91 24 17 25 18 26 19 27 20 28 21 29 22 31 23 32 24 33 85 34
REMARK SMILES IDX 25 35 84 36 26 37 27 38 28 39 78 40 29 41 83 42 77 43 79 44
REMARK SMILES IDX 30 45 82 46 76 47 75 48 31 50 63 51 43 52 62 53 44 54 47 55
REMARK SMILES IDX 61 56 80 57 45 58 46 59 60 61 81 62 48 63 32 64 33 65 41 66
REMARK SMILES IDX 34 67 35 68 39 69 42 70 36 71 37 72 40 73 38 74 64 75 65 76
REMARK SMILES IDX 73 77 66 78 67 79 71 80 74 81 68 82 69 83 72 84 70 85 49 86
REMARK SMILES IDX 50 87 58 88 51 89 52 90 56 91 59 92 53 93 54 94 57 95 55 96
REMARK H PARENT 13 7 20 30 79 49 47 60
REMARK Flexibility Score: inf
ROOT
ATOM      1  C   UNL A   1      33.126  29.377  25.624  1.00  0.00     0.002 C 
ENDROOT
BRANCH   1   2
ATOM      2  C   UNL A   1      33.705  28.758  24.361  1.00  0.00     0.021 C 
BRANCH   2   3
ATOM      3  C   UNL A   1      32.826  28.778  23.122  1.00  0.00     0.116 C 
BRANCH   3   4
ATOM      4  N   UNL A   1      33.231  27.917  22.024  1.00  0.00    -0.352 N 
ATOM      5  C   UNL A   1      33.098  26.547  21.867  1.00  0.00     0.251 C 
ATOM      6  O   UNL A   1      33.428  26.035  20.799  1.00  0.00    -0.269 OA
ATOM      7  H   UNL A   1      33.671  28.379  21.274  1.00  0.00     0.163 HD
BRANCH   5   8
ATOM      8  C   UNL A   1      32.692  25.680  23.010  1.00  0.00     0.042 A 
ATOM      9  C   UNL A   1      33.490  24.293  24.840  1.00  0.00     0.038 A 
ATOM     10  C   UNL A   1      33.637  24.798  23.546  1.00  0.00     0.039 A 
ATOM     11  C   UNL A   1      32.412  24.770  25.592  1.00  0.00     0.039 A 
ATOM     12  C   UNL A   1      31.355  25.459  24.994  1.00  0.00     0.058 A 
ATOM     13  C   UNL A   1      31.469  25.817  23.653  1.00  0.00     0.027 A 
BRANCH   9  14
ATOM     14  N   UNL A   1      34.330  23.336  25.376  1.00  0.00    -0.372 N 
BRANCH  14  15
ATOM     15  C   UNL A   1      35.717  23.728  25.699  1.00  0.00     0.116 C 
BRANCH  15  16
ATOM     16  C   UNL A   1      36.709  23.502  24.545  1.00  0.00     0.018 C 
ATOM     17  C   UNL A   1      37.212  22.061  24.439  1.00  0.00     0.006 C 
ENDBRANCH  15  16
ENDBRANCH  14  15
BRANCH  14  18
ATOM     18  C   UNL A   1      33.855  21.987  25.714  1.00  0.00     0.116 C 
BRANCH  18  19
ATOM     19  C   UNL A   1      33.586  21.098  24.496  1.00  0.00     0.018 C 
ATOM     20  C   UNL A   1      33.955  19.636  24.734  1.00  0.00     0.006 C 
ENDBRANCH  18  19
ENDBRANCH  14  18
ENDBRANCH   9  14
BRANCH  12  21
ATOM     21  C   UNL A   1      30.153  25.882  25.789  1.00  0.00     0.416 C 
ATOM     22  F   UNL A   1      29.127  26.271  24.982  1.00  0.00    -0.166 F 
ATOM     23  F   UNL A   1      29.655  24.876  26.559  1.00  0.00    -0.166 F 
ATOM     24  F   UNL A   1      30.386  26.924  26.632  1.00  0.00    -0.166 F 
ENDBRANCH  12  21
ENDBRANCH   5   8
ENDBRANCH   3   4
ENDBRANCH   2   3
ENDBRANCH   1   2
BRANCH   1  25
ATOM     25  C   UNL A   1      31.809  30.136  25.463  1.00  0.00     0.002 C 
BRANCH  25  26
ATOM     26  C   UNL A   1      31.520  31.230  26.493  1.00  0.00     0.021 C 
BRANCH  26  27
ATOM     27  C   UNL A   1      32.731  32.010  26.988  1.00  0.00     0.116 C 
BRANCH  27  28
ATOM     28  N   UNL A   1      32.420  33.397  27.287  1.00  0.00    -0.352 N 
ATOM     29  C   UNL A   1      32.988  34.241  28.210  1.00  0.00     0.251 C 
ATOM     30  H   UNL A   1      31.695  33.791  26.749  1.00  0.00     0.163 HD
ATOM     31  O   UNL A   1      32.486  35.333  28.441  1.00  0.00    -0.269 OA
BRANCH  29  32
ATOM     32  C   UNL A   1      34.198  33.817  28.949  1.00  0.00     0.039 A 
ATOM     33  C   UNL A   1      34.065  32.896  29.991  1.00  0.00     0.014 A 
ATOM     34  C   UNL A   1      35.456  34.329  28.620  1.00  0.00     0.014 A 
ATOM     35  C   UNL A   1      35.202  32.436  30.660  1.00  0.00     0.010 A 
ATOM     36  C   UNL A   1      36.594  33.815  29.236  1.00  0.00     0.010 A 
ATOM     37  C   UNL A   1      36.479  32.864  30.263  1.00  0.00    -0.014 A 
BRANCH  37  38
ATOM     38  C   UNL A   1      37.711  32.336  30.905  1.00  0.00     0.031 A 
ATOM     39  C   UNL A   1      38.507  31.256  30.228  1.00  0.00     0.074 A 
ATOM     40  C   UNL A   1      38.069  32.772  32.128  1.00  0.00     0.049 A 
ATOM     41  N   UNL A   1      39.541  30.585  30.669  1.00  0.00    -0.248 NA
ATOM     42  C   UNL A   1      38.063  30.855  28.883  1.00  0.00     0.031 C 
ATOM     43  C   UNL A   1      37.361  33.794  32.901  1.00  0.00     0.029 A 
ATOM     44  N   UNL A   1      39.107  32.399  32.944  1.00  0.00    -0.354 N 
ATOM     45  C   UNL A   1      39.859  29.678  29.667  1.00  0.00     0.074 A 
ATOM     46  C   UNL A   1      38.878  29.845  28.618  1.00  0.00     0.031 C 
ATOM     47  C   UNL A   1      37.994  33.976  34.071  1.00  0.00     0.029 A 
ATOM     48  C   UNL A   1      39.121  33.052  34.153  1.00  0.00     0.049 A 
ATOM     49  H   UNL A   1      39.779  31.726  32.688  1.00  0.00     0.167 HD
ATOM     50  C   UNL A   1      40.890  28.800  29.620  1.00  0.00     0.037 A 
ATOM     51  C   UNL A   1      39.938  32.909  35.214  1.00  0.00     0.037 A 
ATOM     52  C   UNL A   1      41.873  28.651  30.661  1.00  0.00     0.049 A 
ATOM     53  C   UNL A   1      41.057  31.904  35.148  1.00  0.00     0.074 A 
ATOM     54  C   UNL A   1      42.982  27.824  30.687  1.00  0.00     0.029 A 
ATOM     55  N   UNL A   1      41.860  29.343  31.864  1.00  0.00    -0.354 N 
ATOM     56  N   UNL A   1      41.384  31.091  34.173  1.00  0.00    -0.248 NA
ATOM     57  C   UNL A   1      41.925  31.798  36.330  1.00  0.00     0.031 C 
ATOM     58  C   UNL A   1      43.608  27.972  31.929  1.00  0.00     0.029 A 
ATOM     59  C   UNL A   1      42.930  28.942  32.649  1.00  0.00     0.049 A 
ATOM     60  H   UNL A   1      41.192  30.017  32.121  1.00  0.00     0.167 HD
ATOM     61  C   UNL A   1      42.515  30.410  34.604  1.00  0.00     0.074 A 
ATOM     62  C   UNL A   1      42.821  30.907  35.928  1.00  0.00     0.031 C 
ATOM     63  C   UNL A   1      43.237  29.462  33.957  1.00  0.00     0.037 A 
BRANCH  50  64
ATOM     64  C   UNL A   1      41.006  27.927  28.402  1.00  0.00     0.064 A 
ATOM     65  C   UNL A   1      41.753  28.319  27.281  1.00  0.00     0.173 A 
ATOM     66  C   UNL A   1      40.397  26.663  28.372  1.00  0.00     0.173 A 
ATOM     67  F   UNL A   1      42.349  29.522  27.253  1.00  0.00    -0.203 F 
ATOM     68  C   UNL A   1      41.859  27.494  26.164  1.00  0.00     0.198 A 
ATOM     69  C   UNL A   1      40.535  25.825  27.268  1.00  0.00     0.198 A 
ATOM     70  F   UNL A   1      39.677  26.233  29.420  1.00  0.00    -0.203 F 
ATOM     71  F   UNL A   1      42.534  27.913  25.085  1.00  0.00    -0.200 F 
ATOM     72  C   UNL A   1      41.257  26.245  26.163  1.00  0.00     0.200 A 
ATOM     73  F   UNL A   1      39.966  24.612  27.276  1.00  0.00    -0.200 F 
ATOM     74  F   UNL A   1      41.369  25.448  25.091  1.00  0.00    -0.200 F 
ENDBRANCH  50  64
BRANCH  51  75
ATOM     75  C   UNL A   1      39.740  33.749  36.427  1.00  0.00     0.064 A 
ATOM     76  C   UNL A   1      38.898  33.326  37.466  1.00  0.00     0.173 A 
ATOM     77  C   UNL A   1      40.376  34.990  36.569  1.00  0.00     0.173 A 
ATOM     78  F   UNL A   1      38.251  32.155  37.368  1.00  0.00    -0.203 F 
ATOM     79  C   UNL A   1      38.681  34.124  38.587  1.00  0.00     0.198 A 
ATOM     80  C   UNL A   1      40.184  35.773  37.705  1.00  0.00     0.198 A 
ATOM     81  F   UNL A   1      41.196  35.439  35.607  1.00  0.00    -0.203 F 
ATOM     82  F   UNL A   1      37.830  33.719  39.540  1.00  0.00    -0.200 F 
ATOM     83  C   UNL A   1      39.329  35.343  38.709  1.00  0.00     0.200 A 
ATOM     84  F   UNL A   1      40.825  36.943  37.827  1.00  0.00    -0.200 F 
ATOM     85  F   UNL A   1      39.122  36.109  39.789  1.00  0.00    -0.200 F 
ENDBRANCH  51  75
BRANCH  63  86
ATOM     86  C   UNL A   1      44.469  28.939  34.639  1.00  0.00     0.064 A 
ATOM     87  C   UNL A   1      44.444  27.789  35.439  1.00  0.00     0.173 A 
ATOM     88  C   UNL A   1      45.707  29.568  34.432  1.00  0.00     0.173 A 
ATOM     89  F   UNL A   1      43.284  27.159  35.681  1.00  0.00    -0.203 F 
ATOM     90  C   UNL A   1      45.609  27.299  36.024  1.00  0.00     0.198 A 
ATOM     91  C   UNL A   1      46.874  29.057  34.989  1.00  0.00     0.198 A 
ATOM     92  F   UNL A   1      45.787  30.669  33.668  1.00  0.00    -0.203 F 
ATOM     93  F   UNL A   1      45.556  26.222  36.820  1.00  0.00    -0.200 F 
ATOM     94  C   UNL A   1      46.824  27.926  35.790  1.00  0.00     0.200 A 
ATOM     95  F   UNL A   1      48.049  29.655  34.747  1.00  0.00    -0.200 F 
ATOM     96  F   UNL A   1      47.947  27.443  36.339  1.00  0.00    -0.200 F 
ENDBRANCH  63  86
ENDBRANCH  37  38
ENDBRANCH  29  32
ENDBRANCH  27  28
ENDBRANCH  26  27
ENDBRANCH  25  26
ENDBRANCH   1  25
TORSDOF 19
ENDMDL
MODEL 2
REMARK VINA RESULT:     -10.8      3.797      7.751
REMARK SMILES CCCN(CCC)c1cc(C(=O)NCCCCCCNC(=O)c2ccc(-c3c4nc(c(-c5c(F)c(F)c(F)c(F)c5F)c5ccc([nH]5)c(-c5c(F)c(F)c(F)c(F)c5F)c5nc(c(-c6c(F)c(F)c(F)c(F)c6F)c6ccc3[nH]6)C=C5)C=C4)cc2)cc(C(F)(F)F)c1
REMARK SMILES IDX 16 1 15 2 14 3 13 4 11 5 12 6 10 8 8 9 9 10 92 11 87 12
REMARK SMILES IDX 86 13 4 14 3 15 2 16 1 17 5 18 6 19 7 20 88 21 89 22 90 23
REMARK SMILES IDX 91 24 17 25 18 26 19 27 20 28 21 29 22 31 23 32 24 33 85 34
REMARK SMILES IDX 25 35 84 36 26 37 27 38 28 39 78 40 29 41 83 42 77 43 79 44
REMARK SMILES IDX 30 45 82 46 76 47 75 48 31 50 63 51 43 52 62 53 44 54 47 55
REMARK SMILES IDX 61 56 80 57 45 58 46 59 60 61 81 62 48 63 32 64 33 65 41 66
REMARK SMILES IDX 34 67 35 68 39 69 42 70 36 71 37 72 40 73 38 74 64 75 65 76
REMARK SMILES IDX 73 77 66 78 67 79 71 80 74 81 68 82 69 83 72 84 70 85 49 86
REMARK SMILES IDX 50 87 58 88 51 89 52 90 56 91 59 92 53 93 54 94 57 95 55 96
REMARK H PARENT 13 7 20 30 79 49 47 60
REMARK Flexibility Score: inf
ROOT
ATOM      1  C   UNL A   1      33.884  22.582  23.484  1.00  0.00     0.002 C 
ENDROOT
BRANCH   1   2
ATOM      2  C   UNL A   1      33.177  21.777  24.565  1.00  0.00     0.021 C 
BRANCH   2   3
ATOM      3  C   UNL A   1      33.161  22.372  25.964  1.00  0.00     0.116 C 
BRANCH   3   4
ATOM      4  N   UNL A   1      31.858  22.538  26.584  1.00  0.00    -0.352 N 
ATOM      5  C   UNL A   1      30.989  23.616  26.560  1.00  0.00     0.251 C 
ATOM      6  O   UNL A   1      29.881  23.499  27.081  1.00  0.00    -0.269 OA
ATOM      7  H   UNL A   1      31.543  21.763  27.103  1.00  0.00     0.163 HD
BRANCH   5   8
ATOM      8  C   UNL A   1      31.427  24.943  26.040  1.00  0.00     0.042 A 
ATOM      9  C   UNL A   1      31.086  26.615  24.309  1.00  0.00     0.038 A 
ATOM     10  C   UNL A   1      31.104  25.281  24.721  1.00  0.00     0.039 A 
ATOM     11  C   UNL A   1      31.322  27.587  25.287  1.00  0.00     0.039 A 
ATOM     12  C   UNL A   1      31.864  27.254  26.530  1.00  0.00     0.058 A 
ATOM     13  C   UNL A   1      32.010  25.907  26.851  1.00  0.00     0.027 A 
BRANCH   9  14
ATOM     14  N   UNL A   1      30.884  26.998  22.997  1.00  0.00    -0.372 N 
BRANCH  14  15
ATOM     15  C   UNL A   1      31.832  26.509  21.975  1.00  0.00     0.116 C 
BRANCH  15  16
ATOM     16  C   UNL A   1      33.310  26.687  22.365  1.00  0.00     0.018 C 
ATOM     17  C   UNL A   1      33.843  28.100  22.127  1.00  0.00     0.006 C 
ENDBRANCH  15  16
ENDBRANCH  14  15
BRANCH  14  18
ATOM     18  C   UNL A   1      29.714  27.788  22.590  1.00  0.00     0.116 C 
BRANCH  18  19
ATOM     19  C   UNL A   1      30.022  29.264  22.322  1.00  0.00     0.018 C 
ATOM     20  C   UNL A   1      29.562  30.182  23.452  1.00  0.00     0.006 C 
ENDBRANCH  18  19
ENDBRANCH  14  18
ENDBRANCH   9  14
BRANCH  12  21
ATOM     21  C   UNL A   1      32.208  28.313  27.538  1.00  0.00     0.416 C 
ATOM     22  F   UNL A   1      33.555  28.476  27.656  1.00  0.00    -0.166 F 
ATOM     23  F   UNL A   1      31.716  29.536  27.200  1.00  0.00    -0.166 F 
ATOM     24  F   UNL A   1      31.748  28.053  28.791  1.00  0.00    -0.166 F 
ENDBRANCH  12  21
ENDBRANCH   5   8
ENDBRANCH   3   4
ENDBRANCH   2   3
ENDBRANCH   1   2
BRANCH   1  25
ATOM     25  C   UNL A   1      34.846  23.666  23.969  1.00  0.00     0.002 C 
BRANCH  25  26
ATOM     26  C   UNL A   1      36.304  23.246  24.169  1.00  0.00     0.021 C 
BRANCH  26  27
ATOM     27  C   UNL A   1      36.857  23.422  25.577  1.00  0.00     0.116 C 
BRANCH  27  28
ATOM     28  N   UNL A   1      37.954  22.515  25.866  1.00  0.00    -0.352 N 
ATOM     29  C   UNL A   1      39.193  22.782  26.395  1.00  0.00     0.251 C 
ATOM     30  H   UNL A   1      37.786  21.569  25.649  1.00  0.00     0.163 HD
ATOM     31  O   UNL A   1      40.057  21.915  26.416  1.00  0.00    -0.269 OA
BRANCH  29  32
ATOM     32  C   UNL A   1      39.493  24.132  26.922  1.00  0.00     0.039 A 
ATOM     33  C   UNL A   1      39.170  24.426  28.249  1.00  0.00     0.014 A 
ATOM     34  C   UNL A   1      40.085  25.104  26.112  1.00  0.00     0.014 A 
ATOM     35  C   UNL A   1      39.502  25.673  28.784  1.00  0.00     0.010 A 
ATOM     36  C   UNL A   1      40.482  26.318  26.666  1.00  0.00     0.010 A 
ATOM     37  C   UNL A   1      40.193  26.617  28.007  1.00  0.00    -0.014 A 
BRANCH  37  38
ATOM     38  C   UNL A   1      40.626  27.921  28.570  1.00  0.00     0.031 A 
ATOM     39  C   UNL A   1      42.055  28.122  28.990  1.00  0.00     0.074 A 
ATOM     40  C   UNL A   1      39.719  28.896  28.775  1.00  0.00     0.049 A 
ATOM     41  N   UNL A   1      42.606  29.140  29.603  1.00  0.00    -0.248 NA
ATOM     42  C   UNL A   1      42.986  27.018  28.707  1.00  0.00     0.031 C 
ATOM     43  C   UNL A   1      38.297  28.811  28.439  1.00  0.00     0.029 A 
ATOM     44  N   UNL A   1      39.854  30.144  29.332  1.00  0.00    -0.354 N 
ATOM     45  C   UNL A   1      43.937  28.793  29.791  1.00  0.00     0.074 A 
ATOM     46  C   UNL A   1      44.101  27.451  29.277  1.00  0.00     0.031 C 
ATOM     47  C   UNL A   1      37.694  29.961  28.782  1.00  0.00     0.029 A 
ATOM     48  C   UNL A   1      38.675  30.845  29.406  1.00  0.00     0.049 A 
ATOM     49  H   UNL A   1      40.715  30.502  29.648  1.00  0.00     0.167 HD
ATOM     50  C   UNL A   1      44.936  29.536  30.326  1.00  0.00     0.037 A 
ATOM     51  C   UNL A   1      38.410  32.055  29.934  1.00  0.00     0.037 A 
ATOM     52  C   UNL A   1      44.769  30.877  30.820  1.00  0.00     0.049 A 
ATOM     53  C   UNL A   1      39.532  32.848  30.552  1.00  0.00     0.074 A 
ATOM     54  C   UNL A   1      45.728  31.730  31.337  1.00  0.00     0.029 A 
ATOM     55  N   UNL A   1      43.560  31.558  30.864  1.00  0.00    -0.354 N 
ATOM     56  N   UNL A   1      40.799  32.534  30.673  1.00  0.00    -0.248 NA
ATOM     57  C   UNL A   1      39.189  34.167  31.102  1.00  0.00     0.031 C 
ATOM     58  C   UNL A   1      45.091  32.906  31.747  1.00  0.00     0.029 A 
ATOM     59  C   UNL A   1      43.747  32.813  31.422  1.00  0.00     0.049 A 
ATOM     60  H   UNL A   1      42.700  31.204  30.546  1.00  0.00     0.167 HD
ATOM     61  C   UNL A   1      41.409  33.627  31.273  1.00  0.00     0.074 A 
ATOM     62  C   UNL A   1      40.375  34.616  31.488  1.00  0.00     0.031 C 
ATOM     63  C   UNL A   1      42.712  33.797  31.610  1.00  0.00     0.037 A 
BRANCH  50  64
ATOM     64  C   UNL A   1      46.301  28.912  30.409  1.00  0.00     0.064 A 
ATOM     65  C   UNL A   1      46.719  28.198  31.542  1.00  0.00     0.173 A 
ATOM     66  C   UNL A   1      47.187  28.994  29.323  1.00  0.00     0.173 A 
ATOM     67  F   UNL A   1      45.914  28.097  32.612  1.00  0.00    -0.203 F 
ATOM     68  C   UNL A   1      47.983  27.618  31.599  1.00  0.00     0.198 A 
ATOM     69  C   UNL A   1      48.437  28.382  29.370  1.00  0.00     0.198 A 
ATOM     70  F   UNL A   1      46.837  29.657  28.211  1.00  0.00    -0.203 F 
ATOM     71  F   UNL A   1      48.379  26.986  32.712  1.00  0.00    -0.200 F 
ATOM     72  C   UNL A   1      48.837  27.703  30.510  1.00  0.00     0.200 A 
ATOM     73  F   UNL A   1      49.254  28.451  28.311  1.00  0.00    -0.200 F 
ATOM     74  F   UNL A   1      50.050  27.135  30.562  1.00  0.00    -0.200 F 
ENDBRANCH  50  64
BRANCH  51  75
ATOM     75  C   UNL A   1      37.027  32.602  29.891  1.00  0.00     0.064 A 
ATOM     76  C   UNL A   1      36.569  33.316  28.775  1.00  0.00     0.173 A 
ATOM     77  C   UNL A   1      36.139  32.431  30.963  1.00  0.00     0.173 A 
ATOM     78  F   UNL A   1      37.386  33.524  27.732  1.00  0.00    -0.203 F 
ATOM     79  C   UNL A   1      35.287  33.861  28.744  1.00  0.00     0.198 A 
ATOM     80  C   UNL A   1      34.846  32.948  30.918  1.00  0.00     0.198 A 
ATOM     81  F   UNL A   1      36.524  31.750  32.053  1.00  0.00    -0.203 F 
ATOM     82  F   UNL A   1      34.895  34.585  27.687  1.00  0.00    -0.200 F 
ATOM     83  C   UNL A   1      34.424  33.671  29.812  1.00  0.00     0.200 A 
ATOM     84  F   UNL A   1      34.010  32.747  31.945  1.00  0.00    -0.200 F 
ATOM     85  F   UNL A   1      33.191  34.192  29.781  1.00  0.00    -0.200 F 
ENDBRANCH  51  75
BRANCH  63  86
ATOM     86  C   UNL A   1      43.113  35.124  32.189  1.00  0.00     0.064 A 
ATOM     87  C   UNL A   1      43.077  35.374  33.567  1.00  0.00     0.173 A 
ATOM     88  C   UNL A   1      43.605  36.136  31.350  1.00  0.00     0.173 A 
ATOM     89  F   UNL A   1      42.602  34.445  34.410  1.00  0.00    -0.203 F 
ATOM     90  C   UNL A   1      43.498  36.598  34.083  1.00  0.00     0.198 A 
ATOM     91  C   UNL A   1      44.056  37.345  31.872  1.00  0.00     0.198 A 
ATOM     92  F   UNL A   1      43.668  35.945  30.023  1.00  0.00    -0.203 F 
ATOM     93  F   UNL A   1      43.414  36.832  35.400  1.00  0.00    -0.200 F 
ATOM     94  C   UNL A   1      43.997  37.577  33.237  1.00  0.00     0.200 A 
ATOM     95  F   UNL A   1      44.554  38.282  31.053  1.00  0.00    -0.200 F 
ATOM     96  F   UNL A   1      44.418  38.746  33.737  1.00  0.00    -0.200 F 
ENDBRANCH  63  86
ENDBRANCH  37  38
ENDBRANCH  29  32
ENDBRANCH  27  28
ENDBRANCH  26  27
ENDBRANCH  25  26
ENDBRANCH   1  25
TORSDOF 19
ENDMDL
MODEL 3
REMARK VINA RESULT:     -10.8      4.512      9.961
REMARK SMILES CCCN(CCC)c1cc(C(=O)NCCCCCCNC(=O)c2ccc(-c3c4nc(c(-c5c(F)c(F)c(F)c(F)c5F)c5ccc([nH]5)c(-c5c(F)c(F)c(F)c(F)c5F)c5nc(c(-c6c(F)c(F)c(F)c(F)c6F)c6ccc3[nH]6)C=C5)C=C4)cc2)cc(C(F)(F)F)c1
REMARK SMILES IDX 16 1 15 2 14 3 13 4 11 5 12 6 10 8 8 9 9 10 92 11 87 12
REMARK SMILES IDX 86 13 4 14 3 15 2 16 1 17 5 18 6 19 7 20 88 21 89 22 90 23
REMARK SMILES IDX 91 24 17 25 18 26 19 27 20 28 21 29 22 31 23 32 24 33 85 34
REMARK SMILES IDX 25 35 84 36 26 37 27 38 28 39 78 40 29 41 83 42 77 43 79 44
REMARK SMILES IDX 30 45 82 46 76 47 75 48 31 50 63 51 43 52 62 53 44 54 47 55
REMARK SMILES IDX 61 56 80 57 45 58 46 59 60 61 81 62 48 63 32 64 33 65 41 66
REMARK SMILES IDX 34 67 35 68 39 69 42 70 36 71 37 72 40 73 38 74 64 75 65 76
REMARK SMILES IDX 73 77 66 78 67 79 71 80 74 81 68 82 69 83 72 84 70 85 49 86
REMARK SMILES IDX 50 87 58 88 51 89 52 90 56 91 59 92 53 93 54 94 57 95 55 96
REMARK H PARENT 13 7 20 30 79 49 47 60
REMARK Flexibility Score: inf
ROOT
ATOM      1  C   UNL A   1      34.027  22.639  23.546  1.00  0.00     0.002 C 
ENDROOT
BRANCH   1   2
ATOM      2  C   UNL A   1      33.237  22.045  24.703  1.00  0.00     0.021 C 
BRANCH   2   3
ATOM      3  C   UNL A   1      33.324  22.768  26.037  1.00  0.00     0.116 C 
BRANCH   3   4
ATOM      4  N   UNL A   1      32.068  23.020  26.722  1.00  0.00    -0.352 N 
ATOM      5  C   UNL A   1      31.123  24.013  26.518  1.00  0.00     0.251 C 
ATOM      6  O   UNL A   1      30.074  23.976  27.158  1.00  0.00    -0.269 OA
ATOM      7  H   UNL A   1      31.855  22.387  27.445  1.00  0.00     0.163 HD
BRANCH   5   8
ATOM      8  C   UNL A   1      31.418  25.185  25.645  1.00  0.00     0.042 A 
ATOM      9  C   UNL A   1      32.633  27.283  25.468  1.00  0.00     0.038 A 
ATOM     10  C   UNL A   1      31.943  26.341  26.234  1.00  0.00     0.039 A 
ATOM     11  C   UNL A   1      32.842  26.979  24.119  1.00  0.00     0.039 A 
ATOM     12  C   UNL A   1      32.134  25.956  23.484  1.00  0.00     0.058 A 
ATOM     13  C   UNL A   1      31.331  25.124  24.260  1.00  0.00     0.027 A 
BRANCH   9  14
ATOM     14  N   UNL A   1      33.073  28.490  25.975  1.00  0.00    -0.372 N 
BRANCH  14  15
ATOM     15  C   UNL A   1      33.931  28.470  27.177  1.00  0.00     0.116 C 
BRANCH  15  16
ATOM     16  C   UNL A   1      34.796  29.732  27.341  1.00  0.00     0.018 C 
ATOM     17  C   UNL A   1      36.152  29.468  27.998  1.00  0.00     0.006 C 
ENDBRANCH  15  16
ENDBRANCH  14  15
BRANCH  14  18
ATOM     18  C   UNL A   1      32.790  29.765  25.301  1.00  0.00     0.116 C 
BRANCH  18  19
ATOM     19  C   UNL A   1      31.406  30.342  25.617  1.00  0.00     0.018 C 
ATOM     20  C   UNL A   1      31.471  31.611  26.464  1.00  0.00     0.006 C 
ENDBRANCH  18  19
ENDBRANCH  14  18
ENDBRANCH   9  14
BRANCH  12  21
ATOM     21  C   UNL A   1      32.289  25.699  22.013  1.00  0.00     0.416 C 
ATOM     22  F   UNL A   1      33.515  26.086  21.561  1.00  0.00    -0.166 F 
ATOM     23  F   UNL A   1      32.179  24.379  21.698  1.00  0.00    -0.166 F 
ATOM     24  F   UNL A   1      31.380  26.350  21.239  1.00  0.00    -0.166 F 
ENDBRANCH  12  21
ENDBRANCH   5   8
ENDBRANCH   3   4
ENDBRANCH   2   3
ENDBRANCH   1   2
BRANCH   1  25
ATOM     25  C   UNL A   1      35.267  23.452  23.920  1.00  0.00     0.002 C 
BRANCH  25  26
ATOM     26  C   UNL A   1      36.550  22.659  24.178  1.00  0.00     0.021 C 
BRANCH  26  27
ATOM     27  C   UNL A   1      36.938  22.483  25.640  1.00  0.00     0.116 C 
BRANCH  27  28
ATOM     28  N   UNL A   1      37.846  21.368  25.849  1.00  0.00    -0.352 N 
ATOM     29  C   UNL A   1      39.163  21.374  26.238  1.00  0.00     0.251 C 
ATOM     30  H   UNL A   1      37.460  20.476  25.686  1.00  0.00     0.163 HD
ATOM     31  O   UNL A   1      39.823  20.344  26.203  1.00  0.00    -0.269 OA
BRANCH  29  32
ATOM     32  C   UNL A   1      39.794  22.637  26.680  1.00  0.00     0.039 A 
ATOM     33  C   UNL A   1      40.770  22.591  27.678  1.00  0.00     0.014 A 
ATOM     34  C   UNL A   1      39.423  23.861  26.117  1.00  0.00     0.014 A 
ATOM     35  C   UNL A   1      41.423  23.764  28.066  1.00  0.00     0.010 A 
ATOM     36  C   UNL A   1      40.126  25.016  26.449  1.00  0.00     0.010 A 
ATOM     37  C   UNL A   1      41.132  24.981  27.428  1.00  0.00    -0.014 A 
BRANCH  37  38
ATOM     38  C   UNL A   1      41.862  26.230  27.765  1.00  0.00     0.031 A 
ATOM     39  C   UNL A   1      41.181  27.307  28.562  1.00  0.00     0.074 A 
ATOM     40  C   UNL A   1      43.107  26.426  27.290  1.00  0.00     0.049 A 
ATOM     41  N   UNL A   1      41.603  28.510  28.862  1.00  0.00    -0.248 NA
ATOM     42  C   UNL A   1      39.832  27.002  29.065  1.00  0.00     0.031 C 
ATOM     43  C   UNL A   1      43.863  25.470  26.480  1.00  0.00     0.029 A 
ATOM     44  N   UNL A   1      43.950  27.503  27.404  1.00  0.00    -0.354 N 
ATOM     45  C   UNL A   1      40.569  29.106  29.573  1.00  0.00     0.074 A 
ATOM     46  C   UNL A   1      39.480  28.155  29.613  1.00  0.00     0.031 C 
ATOM     47  C   UNL A   1      45.062  25.996  26.183  1.00  0.00     0.029 A 
ATOM     48  C   UNL A   1      45.142  27.343  26.739  1.00  0.00     0.049 A 
ATOM     49  H   UNL A   1      43.723  28.314  27.915  1.00  0.00     0.167 HD
ATOM     50  C   UNL A   1      40.541  30.329  30.156  1.00  0.00     0.037 A 
ATOM     51  C   UNL A   1      46.174  28.194  26.579  1.00  0.00     0.037 A 
ATOM     52  C   UNL A   1      41.635  31.263  30.126  1.00  0.00     0.049 A 
ATOM     53  C   UNL A   1      46.105  29.559  27.211  1.00  0.00     0.074 A 
ATOM     54  C   UNL A   1      41.722  32.507  30.726  1.00  0.00     0.029 A 
ATOM     55  N   UNL A   1      42.831  31.057  29.454  1.00  0.00    -0.354 N 
ATOM     56  N   UNL A   1      45.146  30.092  27.929  1.00  0.00    -0.248 NA
ATOM     57  C   UNL A   1      47.264  30.442  27.014  1.00  0.00     0.031 C 
ATOM     58  C   UNL A   1      42.948  33.079  30.370  1.00  0.00     0.029 A 
ATOM     59  C   UNL A   1      43.653  32.163  29.605  1.00  0.00     0.049 A 
ATOM     60  H   UNL A   1      43.062  30.248  28.946  1.00  0.00     0.167 HD
ATOM     61  C   UNL A   1      45.600  31.349  28.303  1.00  0.00     0.074 A 
ATOM     62  C   UNL A   1      46.923  31.500  27.736  1.00  0.00     0.031 C 
ATOM     63  C   UNL A   1      44.978  32.291  29.054  1.00  0.00     0.037 A 
BRANCH  50  64
ATOM     64  C   UNL A   1      39.283  30.729  30.874  1.00  0.00     0.064 A 
ATOM     65  C   UNL A   1      39.089  30.450  32.236  1.00  0.00     0.173 A 
ATOM     66  C   UNL A   1      38.275  31.439  30.202  1.00  0.00     0.173 A 
ATOM     67  F   UNL A   1      40.017  29.766  32.924  1.00  0.00    -0.203 F 
ATOM     68  C   UNL A   1      37.922  30.837  32.889  1.00  0.00     0.198 A 
ATOM     69  C   UNL A   1      37.125  31.856  30.867  1.00  0.00     0.198 A 
ATOM     70  F   UNL A   1      38.411  31.740  28.902  1.00  0.00    -0.203 F 
ATOM     71  F   UNL A   1      37.737  30.513  34.175  1.00  0.00    -0.200 F 
ATOM     72  C   UNL A   1      36.945  31.547  32.206  1.00  0.00     0.200 A 
ATOM     73  F   UNL A   1      36.190  32.555  30.210  1.00  0.00    -0.200 F 
ATOM     74  F   UNL A   1      35.827  31.927  32.839  1.00  0.00    -0.200 F 
ENDBRANCH  50  64
BRANCH  51  75
ATOM     75  C   UNL A   1      47.371  27.777  25.799  1.00  0.00     0.064 A 
ATOM     76  C   UNL A   1      48.541  27.353  26.446  1.00  0.00     0.173 A 
ATOM     77  C   UNL A   1      47.375  27.801  24.397  1.00  0.00     0.173 A 
ATOM     78  F   UNL A   1      48.594  27.332  27.785  1.00  0.00    -0.203 F 
ATOM     79  C   UNL A   1      49.676  26.996  25.721  1.00  0.00     0.198 A 
ATOM     80  C   UNL A   1      48.499  27.412  23.672  1.00  0.00     0.198 A 
ATOM     81  F   UNL A   1      46.280  28.192  23.728  1.00  0.00    -0.203 F 
ATOM     82  F   UNL A   1      50.797  26.647  26.366  1.00  0.00    -0.200 F 
ATOM     83  C   UNL A   1      49.652  27.019  24.335  1.00  0.00     0.200 A 
ATOM     84  F   UNL A   1      48.466  27.420  22.333  1.00  0.00    -0.200 F 
ATOM     85  F   UNL A   1      50.743  26.673  23.638  1.00  0.00    -0.200 F 
ENDBRANCH  51  75
BRANCH  63  86
ATOM     86  C   UNL A   1      45.740  33.548  29.365  1.00  0.00     0.064 A 
ATOM     87  C   UNL A   1      45.651  34.690  28.558  1.00  0.00     0.173 A 
ATOM     88  C   UNL A   1      46.520  33.626  30.530  1.00  0.00     0.173 A 
ATOM     89  F   UNL A   1      44.930  34.663  27.427  1.00  0.00    -0.203 F 
ATOM     90  C   UNL A   1      46.331  35.858  28.894  1.00  0.00     0.198 A 
ATOM     91  C   UNL A   1      47.172  34.805  30.879  1.00  0.00     0.198 A 
ATOM     92  F   UNL A   1      46.633  32.563  31.342  1.00  0.00    -0.203 F 
ATOM     93  F   UNL A   1      46.267  36.925  28.084  1.00  0.00    -0.200 F 
ATOM     94  C   UNL A   1      47.082  35.918  30.058  1.00  0.00     0.200 A 
ATOM     95  F   UNL A   1      47.882  34.865  32.015  1.00  0.00    -0.200 F 
ATOM     96  F   UNL A   1      47.722  37.048  30.388  1.00  0.00    -0.200 F 
ENDBRANCH  63  86
ENDBRANCH  37  38
ENDBRANCH  29  32
ENDBRANCH  27  28
ENDBRANCH  26  27
ENDBRANCH  25  26
ENDBRANCH   1  25
TORSDOF 19
ENDMDL
