MODEL 1
REMARK VINA RESULT:     -13.3      0.000      0.000
REMARK SMILES COc1ccc(-n2c(=O)[nH]c3cc(C(=O)NCCCCCCNC(=O)c4ccc(-c5c6nc(c(-c7c(F)c(F)c(F)c(F)c7F)c7ccc([nH]7)c(-c7c(F)c(F)c(F)c(F)c7F)c7nc(c(-c8c(F)c(F)c(F)c(F)c8F)c8ccc5[nH]8)C=C7)C=C6)cc4)ccc3c2=O)cc1
REMARK SMILES IDX 19 1 18 2 17 3 16 4 14 5 15 6 13 8 7 9 8 10 92 11 9 12 10 13
REMARK SMILES IDX 91 14 93 15 11 16 90 18 12 19 89 20 6 21 3 22 4 23 95 24
REMARK SMILES IDX 5 25 94 26 2 27 1 28 20 29 21 30 22 31 23 32 24 33 25 35
REMARK SMILES IDX 26 36 27 37 88 38 28 39 87 40 29 41 30 42 31 43 81 44 32 45
REMARK SMILES IDX 86 46 80 47 82 48 33 49 85 50 79 51 78 52 34 54 66 55 46 56
REMARK SMILES IDX 65 57 47 58 50 59 64 60 83 61 48 62 49 63 63 65 84 66 51 67
REMARK SMILES IDX 35 68 36 69 44 70 37 71 38 72 42 73 45 74 39 75 40 76 43 77
REMARK SMILES IDX 41 78 67 79 68 80 76 81 69 82 70 83 74 84 77 85 71 86 72 87
REMARK SMILES IDX 75 88 73 89 52 90 53 91 61 92 54 93 55 94 59 95 62 96 56 97
REMARK SMILES IDX 57 98 60 99 58 100
REMARK H PARENT 16 7 10 17 23 34 82 53 50 64
REMARK Flexibility Score: inf
ROOT
ATOM      1  C   UNL A   1      31.977  29.949  25.373  1.00  0.00     0.002 C 
ENDROOT
BRANCH   1   2
ATOM      2  C   UNL A   1      31.017  29.021  24.625  1.00  0.00     0.021 C 
BRANCH   2   3
ATOM      3  C   UNL A   1      31.218  28.933  23.116  1.00  0.00     0.116 C 
BRANCH   3   4
ATOM      4  N   UNL A   1      32.603  29.099  22.723  1.00  0.00    -0.352 N 
ATOM      5  C   UNL A   1      33.610  28.180  22.584  1.00  0.00     0.251 C 
ATOM      6  O   UNL A   1      34.752  28.578  22.361  1.00  0.00    -0.269 OA
ATOM      7  H   UNL A   1      32.864  30.027  22.522  1.00  0.00     0.163 HD
BRANCH   5   8
ATOM      8  C   UNL A   1      33.371  26.719  22.709  1.00  0.00     0.041 A 
ATOM      9  N   UNL A   1      33.374  21.984  24.464  1.00  0.00    -0.228 N 
ATOM     10  C   UNL A   1      33.612  22.807  25.575  1.00  0.00     0.333 A 
ATOM     11  C   UNL A   1      32.844  22.529  23.281  1.00  0.00     0.268 A 
ATOM     12  O   UNL A   1      33.865  22.462  26.729  1.00  0.00    -0.247 OA
ATOM     13  N   UNL A   1      33.580  24.164  25.366  1.00  0.00    -0.306 N 
ATOM     14  C   UNL A   1      33.031  23.970  23.058  1.00  0.00     0.064 A 
ATOM     15  O   UNL A   1      32.188  21.936  22.425  1.00  0.00    -0.268 OA
ATOM     16  C   UNL A   1      33.372  24.765  24.136  1.00  0.00     0.056 A 
ATOM     17  H   UNL A   1      33.712  24.750  26.146  1.00  0.00     0.171 HD
ATOM     18  C   UNL A   1      32.883  24.530  21.787  1.00  0.00     0.017 A 
ATOM     19  C   UNL A   1      33.522  26.141  23.980  1.00  0.00     0.040 A 
ATOM     20  C   UNL A   1      33.097  25.898  21.608  1.00  0.00     0.015 A 
BRANCH   9  21
ATOM     21  C   UNL A   1      33.580  20.539  24.534  1.00  0.00     0.054 A 
ATOM     22  C   UNL A   1      33.920  17.700  24.629  1.00  0.00     0.119 A 
ATOM     23  C   UNL A   1      32.656  18.256  24.498  1.00  0.00     0.048 A 
ATOM     24  C   UNL A   1      35.019  18.547  24.669  1.00  0.00     0.048 A 
ATOM     25  C   UNL A   1      32.491  19.648  24.449  1.00  0.00     0.031 A 
ATOM     26  C   UNL A   1      34.848  19.943  24.625  1.00  0.00     0.031 A 
BRANCH  22  27
ATOM     27  O   UNL A   1      33.966  16.336  24.662  1.00  0.00    -0.497 OA
ATOM     28  C   UNL A   1      32.905  15.709  25.376  1.00  0.00     0.278 C 
ENDBRANCH  22  27
ENDBRANCH   9  21
ENDBRANCH   5   8
ENDBRANCH   3   4
ENDBRANCH   2   3
ENDBRANCH   1   2
BRANCH   1  29
ATOM     29  C   UNL A   1      31.414  30.635  26.620  1.00  0.00     0.002 C 
BRANCH  29  30
ATOM     30  C   UNL A   1      31.421  32.164  26.600  1.00  0.00     0.021 C 
BRANCH  30  31
ATOM     31  C   UNL A   1      32.633  32.821  27.252  1.00  0.00     0.116 C 
BRANCH  31  32
ATOM     32  N   UNL A   1      32.388  34.203  27.625  1.00  0.00    -0.352 N 
ATOM     33  C   UNL A   1      32.972  34.956  28.613  1.00  0.00     0.251 C 
ATOM     34  H   UNL A   1      31.705  34.668  27.090  1.00  0.00     0.163 HD
ATOM     35  O   UNL A   1      32.527  36.064  28.889  1.00  0.00    -0.269 OA
BRANCH  33  36
ATOM     36  C   UNL A   1      34.126  34.418  29.366  1.00  0.00     0.039 A 
ATOM     37  C   UNL A   1      33.895  33.795  30.595  1.00  0.00     0.014 A 
ATOM     38  C   UNL A   1      35.426  34.529  28.868  1.00  0.00     0.014 A 
ATOM     39  C   UNL A   1      34.961  33.230  31.297  1.00  0.00     0.010 A 
ATOM     40  C   UNL A   1      36.476  33.895  29.528  1.00  0.00     0.010 A 
ATOM     41  C   UNL A   1      36.256  33.246  30.752  1.00  0.00    -0.014 A 
BRANCH  41  42
ATOM     42  C   UNL A   1      37.390  32.586  31.448  1.00  0.00     0.031 A 
ATOM     43  C   UNL A   1      38.111  31.438  30.801  1.00  0.00     0.074 A 
ATOM     44  C   UNL A   1      37.730  32.983  32.689  1.00  0.00     0.049 A 
ATOM     45  N   UNL A   1      39.095  30.708  31.266  1.00  0.00    -0.248 NA
ATOM     46  C   UNL A   1      37.646  31.037  29.465  1.00  0.00     0.031 C 
ATOM     47  C   UNL A   1      37.079  34.057  33.439  1.00  0.00     0.029 A 
ATOM     48  N   UNL A   1      38.706  32.525  33.539  1.00  0.00    -0.354 N 
ATOM     49  C   UNL A   1      39.354  29.756  30.288  1.00  0.00     0.074 A 
ATOM     50  C   UNL A   1      38.385  29.962  29.233  1.00  0.00     0.031 C 
ATOM     51  C   UNL A   1      37.697  34.201  34.622  1.00  0.00     0.029 A 
ATOM     52  C   UNL A   1      38.757  33.203  34.732  1.00  0.00     0.049 A 
ATOM     53  H   UNL A   1      39.311  31.782  33.315  1.00  0.00     0.167 HD
ATOM     54  C   UNL A   1      40.325  28.811  30.262  1.00  0.00     0.037 A 
ATOM     55  C   UNL A   1      39.566  33.037  35.795  1.00  0.00     0.037 A 
ATOM     56  C   UNL A   1      41.294  28.621  31.311  1.00  0.00     0.049 A 
ATOM     57  C   UNL A   1      40.618  31.962  35.756  1.00  0.00     0.074 A 
ATOM     58  C   UNL A   1      42.359  27.741  31.353  1.00  0.00     0.029 A 
ATOM     59  N   UNL A   1      41.306  29.319  32.511  1.00  0.00    -0.354 N 
ATOM     60  N   UNL A   1      40.906  31.120  34.795  1.00  0.00    -0.248 NA
ATOM     61  C   UNL A   1      41.458  31.819  36.953  1.00  0.00     0.031 C 
ATOM     62  C   UNL A   1      42.975  27.857  32.604  1.00  0.00     0.029 A 
ATOM     63  C   UNL A   1      42.337  28.860  33.317  1.00  0.00     0.049 A 
ATOM     64  H   UNL A   1      40.675  30.034  32.756  1.00  0.00     0.167 HD
ATOM     65  C   UNL A   1      41.980  30.368  35.255  1.00  0.00     0.074 A 
ATOM     66  C   UNL A   1      42.297  30.865  36.579  1.00  0.00     0.031 C 
ATOM     67  C   UNL A   1      42.643  29.361  34.634  1.00  0.00     0.037 A 
BRANCH  54  68
ATOM     68  C   UNL A   1      40.368  27.898  29.068  1.00  0.00     0.064 A 
ATOM     69  C   UNL A   1      41.126  28.205  27.926  1.00  0.00     0.173 A 
ATOM     70  C   UNL A   1      39.641  26.698  29.065  1.00  0.00     0.173 A 
ATOM     71  F   UNL A   1      41.834  29.344  27.871  1.00  0.00    -0.203 F 
ATOM     72  C   UNL A   1      41.112  27.373  26.809  1.00  0.00     0.198 A 
ATOM     73  C   UNL A   1      39.662  25.849  27.961  1.00  0.00     0.198 A 
ATOM     74  F   UNL A   1      38.907  26.348  30.131  1.00  0.00    -0.203 F 
ATOM     75  F   UNL A   1      41.784  27.727  25.705  1.00  0.00    -0.200 F 
ATOM     76  C   UNL A   1      40.385  26.194  26.830  1.00  0.00     0.200 A 
ATOM     77  F   UNL A   1      38.970  24.701  27.988  1.00  0.00    -0.200 F 
ATOM     78  F   UNL A   1      40.371  25.395  25.753  1.00  0.00    -0.200 F 
ENDBRANCH  54  68
BRANCH  55  79
ATOM     79  C   UNL A   1      39.438  33.943  36.966  1.00  0.00     0.064 A 
ATOM     80  C   UNL A   1      38.699  33.556  38.092  1.00  0.00     0.173 A 
ATOM     81  C   UNL A   1      40.063  35.199  36.996  1.00  0.00     0.173 A 
ATOM     82  F   UNL A   1      38.067  32.373  38.103  1.00  0.00    -0.203 F 
ATOM     83  C   UNL A   1      38.580  34.394  39.199  1.00  0.00     0.198 A 
ATOM     84  C   UNL A   1      39.966  36.023  38.114  1.00  0.00     0.198 A 
ATOM     85  F   UNL A   1      40.787  35.615  35.946  1.00  0.00    -0.203 F 
ATOM     86  F   UNL A   1      37.837  34.012  40.247  1.00  0.00    -0.200 F 
ATOM     87  C   UNL A   1      39.220  35.623  39.213  1.00  0.00     0.200 A 
ATOM     88  F   UNL A   1      40.601  37.203  38.130  1.00  0.00    -0.200 F 
ATOM     89  F   UNL A   1      39.115  36.423  40.282  1.00  0.00    -0.200 F 
ENDBRANCH  55  79
BRANCH  67  90
ATOM     90  C   UNL A   1      43.806  28.749  35.364  1.00  0.00     0.064 A 
ATOM     91  C   UNL A   1      45.115  29.226  35.202  1.00  0.00     0.173 A 
ATOM     92  C   UNL A   1      43.601  27.692  36.265  1.00  0.00     0.173 A 
ATOM     93  F   UNL A   1      45.369  30.224  34.343  1.00  0.00    -0.203 F 
ATOM     94  C   UNL A   1      46.178  28.651  35.895  1.00  0.00     0.198 A 
ATOM     95  C   UNL A   1      44.661  27.142  36.981  1.00  0.00     0.198 A 
ATOM     96  F   UNL A   1      42.368  27.201  36.462  1.00  0.00    -0.203 F 
ATOM     97  F   UNL A   1      47.428  29.088  35.684  1.00  0.00    -0.200 F 
ATOM     98  C   UNL A   1      45.949  27.616  36.789  1.00  0.00     0.200 A 
ATOM     99  F   UNL A   1      44.434  26.154  37.858  1.00  0.00    -0.200 F 
ATOM    100  F   UNL A   1      46.972  27.070  37.461  1.00  0.00    -0.200 F 
ENDBRANCH  67  90
ENDBRANCH  41  42
ENDBRANCH  33  36
ENDBRANCH  31  32
ENDBRANCH  30  31
ENDBRANCH  29  30
ENDBRANCH   1  29
TORSDOF 15
ENDMDL
MODEL 2
REMARK VINA RESULT:     -13.2      1.740      7.522
REMARK SMILES COc1ccc(-n2c(=O)[nH]c3cc(C(=O)NCCCCCCNC(=O)c4ccc(-c5c6nc(c(-c7c(F)c(F)c(F)c(F)c7F)c7ccc([nH]7)c(-c7c(F)c(F)c(F)c(F)c7F)c7nc(c(-c8c(F)c(F)c(F)c(F)c8F)c8ccc5[nH]8)C=C7)C=C6)cc4)ccc3c2=O)cc1
REMARK SMILES IDX 19 1 18 2 17 3 16 4 14 5 15 6 13 8 7 9 8 10 92 11 9 12 10 13
REMARK SMILES IDX 91 14 93 15 11 16 90 18 12 19 89 20 6 21 3 22 4 23 95 24
REMARK SMILES IDX 5 25 94 26 2 27 1 28 20 29 21 30 22 31 23 32 24 33 25 35
REMARK SMILES IDX 26 36 27 37 88 38 28 39 87 40 29 41 30 42 31 43 81 44 32 45
REMARK SMILES IDX 86 46 80 47 82 48 33 49 85 50 79 51 78 52 34 54 66 55 46 56
REMARK SMILES IDX 65 57 47 58 50 59 64 60 83 61 48 62 49 63 63 65 84 66 51 67
REMARK SMILES IDX 35 68 36 69 44 70 37 71 38 72 42 73 45 74 39 75 40 76 43 77
REMARK SMILES IDX 41 78 67 79 68 80 76 81 69 82 70 83 74 84 77 85 71 86 72 87
REMARK SMILES IDX 75 88 73 89 52 90 53 91 61 92 54 93 55 94 59 95 62 96 56 97
REMARK SMILES IDX 57 98 60 99 58 100
REMARK H PARENT 16 7 10 17 23 34 82 53 50 64
REMARK Flexibility Score: inf
ROOT
ATOM      1  C   UNL A   1      35.550  32.969  28.245  1.00  0.00     0.002 C 
ENDROOT
BRANCH   1   2
ATOM      2  C   UNL A   1      34.593  31.909  28.795  1.00  0.00     0.021 C 
BRANCH   2   3
ATOM      3  C   UNL A   1      34.041  30.920  27.774  1.00  0.00     0.116 C 
BRANCH   3   4
ATOM      4  N   UNL A   1      32.786  31.352  27.193  1.00  0.00    -0.352 N 
ATOM      5  C   UNL A   1      31.977  30.753  26.263  1.00  0.00     0.251 C 
ATOM      6  O   UNL A   1      31.014  31.377  25.822  1.00  0.00    -0.269 OA
ATOM      7  H   UNL A   1      32.459  32.221  27.521  1.00  0.00     0.163 HD
BRANCH   5   8
ATOM      8  C   UNL A   1      32.234  29.380  25.758  1.00  0.00     0.041 A 
ATOM      9  N   UNL A   1      32.597  24.350  25.485  1.00  0.00    -0.228 N 
ATOM     10  C   UNL A   1      31.681  24.616  26.514  1.00  0.00     0.333 A 
ATOM     11  C   UNL A   1      32.920  25.350  24.552  1.00  0.00     0.268 A 
ATOM     12  O   UNL A   1      31.139  23.808  27.268  1.00  0.00    -0.247 OA
ATOM     13  N   UNL A   1      31.349  25.930  26.733  1.00  0.00    -0.306 N 
ATOM     14  C   UNL A   1      32.706  26.748  24.956  1.00  0.00     0.064 A 
ATOM     15  O   UNL A   1      33.318  25.183  23.399  1.00  0.00    -0.268 OA
ATOM     16  C   UNL A   1      31.887  27.002  26.039  1.00  0.00     0.056 A 
ATOM     17  H   UNL A   1      30.682  26.124  27.430  1.00  0.00     0.171 HD
ATOM     18  C   UNL A   1      33.323  27.800  24.276  1.00  0.00     0.017 A 
ATOM     19  C   UNL A   1      31.625  28.311  26.435  1.00  0.00     0.040 A 
ATOM     20  C   UNL A   1      33.120  29.112  24.706  1.00  0.00     0.015 A 
BRANCH   9  21
ATOM     21  C   UNL A   1      33.164  23.017  25.302  1.00  0.00     0.054 A 
ATOM     22  C   UNL A   1      34.239  20.400  24.875  1.00  0.00     0.119 A 
ATOM     23  C   UNL A   1      33.023  20.764  24.315  1.00  0.00     0.048 A 
ATOM     24  C   UNL A   1      34.943  21.344  25.610  1.00  0.00     0.048 A 
ATOM     25  C   UNL A   1      32.499  22.048  24.524  1.00  0.00     0.031 A 
ATOM     26  C   UNL A   1      34.411  22.629  25.820  1.00  0.00     0.031 A 
BRANCH  22  27
ATOM     27  O   UNL A   1      34.657  19.129  24.606  1.00  0.00    -0.497 OA
ATOM     28  C   UNL A   1      33.676  18.113  24.791  1.00  0.00     0.278 C 
ENDBRANCH  22  27
ENDBRANCH   9  21
ENDBRANCH   5   8
ENDBRANCH   3   4
ENDBRANCH   2   3
ENDBRANCH   1   2
BRANCH   1  29
ATOM     29  C   UNL A   1      35.045  34.414  28.279  1.00  0.00     0.002 C 
BRANCH  29  30
ATOM     30  C   UNL A   1      33.724  34.640  29.015  1.00  0.00     0.021 C 
BRANCH  30  31
ATOM     31  C   UNL A   1      33.505  36.053  29.544  1.00  0.00     0.116 C 
BRANCH  31  32
ATOM     32  N   UNL A   1      32.529  36.104  30.618  1.00  0.00    -0.352 N 
ATOM     33  C   UNL A   1      32.574  35.531  31.864  1.00  0.00     0.251 C 
ATOM     34  H   UNL A   1      31.717  36.627  30.425  1.00  0.00     0.163 HD
ATOM     35  O   UNL A   1      31.585  35.547  32.588  1.00  0.00    -0.269 OA
BRANCH  33  36
ATOM     36  C   UNL A   1      33.812  34.866  32.327  1.00  0.00     0.039 A 
ATOM     37  C   UNL A   1      33.743  33.536  32.748  1.00  0.00     0.014 A 
ATOM     38  C   UNL A   1      35.031  35.548  32.349  1.00  0.00     0.014 A 
ATOM     39  C   UNL A   1      34.909  32.871  33.135  1.00  0.00     0.010 A 
ATOM     40  C   UNL A   1      36.203  34.862  32.657  1.00  0.00     0.010 A 
ATOM     41  C   UNL A   1      36.153  33.519  33.059  1.00  0.00    -0.014 A 
BRANCH  41  42
ATOM     42  C   UNL A   1      37.411  32.806  33.396  1.00  0.00     0.031 A 
ATOM     43  C   UNL A   1      38.128  33.102  34.683  1.00  0.00     0.074 A 
ATOM     44  C   UNL A   1      37.939  31.935  32.515  1.00  0.00     0.049 A 
ATOM     45  N   UNL A   1      39.258  32.615  35.134  1.00  0.00    -0.248 NA
ATOM     46  C   UNL A   1      37.509  34.100  35.568  1.00  0.00     0.031 C 
ATOM     47  C   UNL A   1      37.359  31.594  31.216  1.00  0.00     0.029 A 
ATOM     48  N   UNL A   1      39.084  31.181  32.578  1.00  0.00    -0.354 N 
ATOM     49  C   UNL A   1      39.489  33.258  36.343  1.00  0.00     0.074 A 
ATOM     50  C   UNL A   1      38.417  34.212  36.526  1.00  0.00     0.031 C 
ATOM     51  C   UNL A   1      38.132  30.672  30.620  1.00  0.00     0.029 A 
ATOM     52  C   UNL A   1      39.281  30.389  31.474  1.00  0.00     0.049 A 
ATOM     53  H   UNL A   1      39.705  31.206  33.341  1.00  0.00     0.167 HD
ATOM     54  C   UNL A   1      40.492  33.055  37.232  1.00  0.00     0.037 A 
ATOM     55  C   UNL A   1      40.278  29.532  31.183  1.00  0.00     0.037 A 
ATOM     56  C   UNL A   1      41.550  32.093  37.049  1.00  0.00     0.049 A 
ATOM     57  C   UNL A   1      41.397  29.345  32.171  1.00  0.00     0.074 A 
ATOM     58  C   UNL A   1      42.574  31.761  37.918  1.00  0.00     0.029 A 
ATOM     59  N   UNL A   1      41.724  31.318  35.911  1.00  0.00    -0.354 N 
ATOM     60  N   UNL A   1      41.565  29.898  33.347  1.00  0.00    -0.248 NA
ATOM     61  C   UNL A   1      42.464  28.409  31.789  1.00  0.00     0.031 C 
ATOM     62  C   UNL A   1      43.406  30.835  37.279  1.00  0.00     0.029 A 
ATOM     63  C   UNL A   1      42.862  30.536  36.040  1.00  0.00     0.049 A 
ATOM     64  H   UNL A   1      41.128  31.322  35.128  1.00  0.00     0.167 HD
ATOM     65  C   UNL A   1      42.737  29.356  33.860  1.00  0.00     0.074 A 
ATOM     66  C   UNL A   1      43.231  28.421  32.869  1.00  0.00     0.031 C 
ATOM     67  C   UNL A   1      43.345  29.609  35.045  1.00  0.00     0.037 A 
BRANCH  54  68
ATOM     68  C   UNL A   1      40.502  33.908  38.470  1.00  0.00     0.064 A 
ATOM     69  C   UNL A   1      41.230  35.106  38.541  1.00  0.00     0.173 A 
ATOM     70  C   UNL A   1      39.772  33.520  39.605  1.00  0.00     0.173 A 
ATOM     71  F   UNL A   1      41.952  35.521  37.489  1.00  0.00    -0.203 F 
ATOM     72  C   UNL A   1      41.269  35.856  39.715  1.00  0.00     0.198 A 
ATOM     73  C   UNL A   1      39.782  34.294  40.764  1.00  0.00     0.198 A 
ATOM     74  F   UNL A   1      39.051  32.390  39.593  1.00  0.00    -0.203 F 
ATOM     75  F   UNL A   1      42.032  36.956  39.780  1.00  0.00    -0.200 F 
ATOM     76  C   UNL A   1      40.541  35.452  40.822  1.00  0.00     0.200 A 
ATOM     77  F   UNL A   1      39.065  33.909  41.829  1.00  0.00    -0.200 F 
ATOM     78  F   UNL A   1      40.581  36.172  41.952  1.00  0.00    -0.200 F 
ENDBRANCH  54  68
BRANCH  55  79
ATOM     79  C   UNL A   1      40.234  28.754  29.918  1.00  0.00     0.064 A 
ATOM     80  C   UNL A   1      40.868  29.234  28.762  1.00  0.00     0.173 A 
ATOM     81  C   UNL A   1      39.581  27.516  29.837  1.00  0.00     0.173 A 
ATOM     82  F   UNL A   1      41.489  30.422  28.784  1.00  0.00    -0.203 F 
ATOM     83  C   UNL A   1      40.841  28.509  27.573  1.00  0.00     0.198 A 
ATOM     84  C   UNL A   1      39.578  26.780  28.655  1.00  0.00     0.198 A 
ATOM     85  F   UNL A   1      38.964  27.011  30.915  1.00  0.00    -0.203 F 
ATOM     86  F   UNL A   1      41.425  29.008  26.475  1.00  0.00    -0.200 F 
ATOM     87  C   UNL A   1      40.203  27.279  27.522  1.00  0.00     0.200 A 
ATOM     88  F   UNL A   1      38.976  25.583  28.615  1.00  0.00    -0.200 F 
ATOM     89  F   UNL A   1      40.188  26.577  26.381  1.00  0.00    -0.200 F 
ENDBRANCH  55  79
BRANCH  67  90
ATOM     90  C   UNL A   1      44.596  28.837  35.357  1.00  0.00     0.064 A 
ATOM     91  C   UNL A   1      45.870  29.329  35.037  1.00  0.00     0.173 A 
ATOM     92  C   UNL A   1      44.520  27.600  36.018  1.00  0.00     0.173 A 
ATOM     93  F   UNL A   1      46.000  30.498  34.392  1.00  0.00    -0.203 F 
ATOM     94  C   UNL A   1      47.018  28.602  35.343  1.00  0.00     0.198 A 
ATOM     95  C   UNL A   1      45.671  26.892  36.353  1.00  0.00     0.198 A 
ATOM     96  F   UNL A   1      43.327  27.085  36.352  1.00  0.00    -0.203 F 
ATOM     97  F   UNL A   1      48.221  29.068  34.979  1.00  0.00    -0.200 F 
ATOM     98  C   UNL A   1      46.918  27.388  36.008  1.00  0.00     0.200 A 
ATOM     99  F   UNL A   1      45.571  25.729  37.011  1.00  0.00    -0.200 F 
ATOM    100  F   UNL A   1      48.023  26.694  36.309  1.00  0.00    -0.200 F 
ENDBRANCH  67  90
ENDBRANCH  41  42
ENDBRANCH  33  36
ENDBRANCH  31  32
ENDBRANCH  30  31
ENDBRANCH  29  30
ENDBRANCH   1  29
TORSDOF 15
ENDMDL
MODEL 3
REMARK VINA RESULT:     -13.2      0.850      7.130
REMARK SMILES COc1ccc(-n2c(=O)[nH]c3cc(C(=O)NCCCCCCNC(=O)c4ccc(-c5c6nc(c(-c7c(F)c(F)c(F)c(F)c7F)c7ccc([nH]7)c(-c7c(F)c(F)c(F)c(F)c7F)c7nc(c(-c8c(F)c(F)c(F)c(F)c8F)c8ccc5[nH]8)C=C7)C=C6)cc4)ccc3c2=O)cc1
REMARK SMILES IDX 19 1 18 2 17 3 16 4 14 5 15 6 13 8 7 9 8 10 92 11 9 12 10 13
REMARK SMILES IDX 91 14 93 15 11 16 90 18 12 19 89 20 6 21 3 22 4 23 95 24
REMARK SMILES IDX 5 25 94 26 2 27 1 28 20 29 21 30 22 31 23 32 24 33 25 35
REMARK SMILES IDX 26 36 27 37 88 38 28 39 87 40 29 41 30 42 31 43 81 44 32 45
REMARK SMILES IDX 86 46 80 47 82 48 33 49 85 50 79 51 78 52 34 54 66 55 46 56
REMARK SMILES IDX 65 57 47 58 50 59 64 60 83 61 48 62 49 63 63 65 84 66 51 67
REMARK SMILES IDX 35 68 36 69 44 70 37 71 38 72 42 73 45 74 39 75 40 76 43 77
REMARK SMILES IDX 41 78 67 79 68 80 76 81 69 82 70 83 74 84 77 85 71 86 72 87
REMARK SMILES IDX 75 88 73 89 52 90 53 91 61 92 54 93 55 94 59 95 62 96 56 97
REMARK SMILES IDX 57 98 60 99 58 100
REMARK H PARENT 16 7 10 17 23 34 82 53 50 64
REMARK Flexibility Score: inf
ROOT
ATOM      1  C   UNL A   1      31.559  29.931  25.370  1.00  0.00     0.002 C 
ENDROOT
BRANCH   1   2
ATOM      2  C   UNL A   1      31.481  28.403  25.418  1.00  0.00     0.021 C 
BRANCH   2   3
ATOM      3  C   UNL A   1      31.277  27.706  24.078  1.00  0.00     0.116 C 
BRANCH   3   4
ATOM      4  N   UNL A   1      32.399  27.878  23.177  1.00  0.00    -0.352 N 
ATOM      5  C   UNL A   1      33.264  26.960  22.641  1.00  0.00     0.251 C 
ATOM      6  O   UNL A   1      34.231  27.360  21.997  1.00  0.00    -0.269 OA
ATOM      7  H   UNL A   1      32.568  28.809  22.905  1.00  0.00     0.163 HD
BRANCH   5   8
ATOM      8  C   UNL A   1      33.082  25.498  22.827  1.00  0.00     0.041 A 
ATOM      9  N   UNL A   1      33.266  20.841  24.773  1.00  0.00    -0.228 N 
ATOM     10  C   UNL A   1      33.473  21.718  25.849  1.00  0.00     0.333 A 
ATOM     11  C   UNL A   1      32.716  21.317  23.570  1.00  0.00     0.268 A 
ATOM     12  O   UNL A   1      33.738  21.430  27.016  1.00  0.00    -0.247 OA
ATOM     13  N   UNL A   1      33.388  23.063  25.586  1.00  0.00    -0.306 N 
ATOM     14  C   UNL A   1      32.847  22.754  23.288  1.00  0.00     0.064 A 
ATOM     15  O   UNL A   1      32.082  20.665  22.740  1.00  0.00    -0.268 OA
ATOM     16  C   UNL A   1      33.158  23.604  24.332  1.00  0.00     0.056 A 
ATOM     17  H   UNL A   1      33.498  23.685  26.340  1.00  0.00     0.171 HD
ATOM     18  C   UNL A   1      32.677  23.255  21.996  1.00  0.00     0.017 A 
ATOM     19  C   UNL A   1      33.255  24.978  24.120  1.00  0.00     0.040 A 
ATOM     20  C   UNL A   1      32.838  24.622  21.760  1.00  0.00     0.015 A 
BRANCH   9  21
ATOM     21  C   UNL A   1      33.527  19.410  24.902  1.00  0.00     0.054 A 
ATOM     22  C   UNL A   1      33.963  16.593  25.143  1.00  0.00     0.119 A 
ATOM     23  C   UNL A   1      32.748  17.154  25.510  1.00  0.00     0.048 A 
ATOM     24  C   UNL A   1      34.947  17.420  24.618  1.00  0.00     0.048 A 
ATOM     25  C   UNL A   1      32.535  18.534  25.389  1.00  0.00     0.031 A 
ATOM     26  C   UNL A   1      34.730  18.804  24.502  1.00  0.00     0.031 A 
BRANCH  22  27
ATOM     27  O   UNL A   1      34.062  15.240  25.300  1.00  0.00    -0.497 OA
ATOM     28  C   UNL A   1      32.828  14.559  25.502  1.00  0.00     0.278 C 
ENDBRANCH  22  27
ENDBRANCH   9  21
ENDBRANCH   5   8
ENDBRANCH   3   4
ENDBRANCH   2   3
ENDBRANCH   1   2
BRANCH   1  29
ATOM     29  C   UNL A   1      31.572  30.646  26.723  1.00  0.00     0.002 C 
BRANCH  29  30
ATOM     30  C   UNL A   1      31.481  32.172  26.671  1.00  0.00     0.021 C 
BRANCH  30  31
ATOM     31  C   UNL A   1      32.756  32.916  27.054  1.00  0.00     0.116 C 
BRANCH  31  32
ATOM     32  N   UNL A   1      32.493  34.239  27.590  1.00  0.00    -0.352 N 
ATOM     33  C   UNL A   1      33.069  34.877  28.661  1.00  0.00     0.251 C 
ATOM     34  H   UNL A   1      31.800  34.755  27.117  1.00  0.00     0.163 HD
ATOM     35  O   UNL A   1      32.609  35.937  29.069  1.00  0.00    -0.269 OA
BRANCH  33  36
ATOM     36  C   UNL A   1      34.233  34.270  29.342  1.00  0.00     0.039 A 
ATOM     37  C   UNL A   1      34.007  33.358  30.376  1.00  0.00     0.014 A 
ATOM     38  C   UNL A   1      35.539  34.598  28.967  1.00  0.00     0.014 A 
ATOM     39  C   UNL A   1      35.090  32.731  30.995  1.00  0.00     0.010 A 
ATOM     40  C   UNL A   1      36.613  33.913  29.528  1.00  0.00     0.010 A 
ATOM     41  C   UNL A   1      36.400  32.977  30.552  1.00  0.00    -0.014 A 
BRANCH  41  42
ATOM     42  C   UNL A   1      37.558  32.265  31.148  1.00  0.00     0.031 A 
ATOM     43  C   UNL A   1      38.043  32.625  32.524  1.00  0.00     0.074 A 
ATOM     44  C   UNL A   1      38.211  31.335  30.426  1.00  0.00     0.049 A 
ATOM     45  N   UNL A   1      39.061  32.147  33.197  1.00  0.00    -0.248 NA
ATOM     46  C   UNL A   1      37.304  33.684  33.227  1.00  0.00     0.031 C 
ATOM     47  C   UNL A   1      37.862  30.926  29.065  1.00  0.00     0.029 A 
ATOM     48  N   UNL A   1      39.306  30.566  30.734  1.00  0.00    -0.354 N 
ATOM     49  C   UNL A   1      39.091  32.856  34.390  1.00  0.00     0.074 A 
ATOM     50  C   UNL A   1      38.029  33.837  34.324  1.00  0.00     0.031 C 
ATOM     51  C   UNL A   1      38.703  29.957  28.669  1.00  0.00     0.029 A 
ATOM     52  C   UNL A   1      39.674  29.706  29.730  1.00  0.00     0.049 A 
ATOM     53  H   UNL A   1      39.781  30.627  31.594  1.00  0.00     0.167 HD
ATOM     54  C   UNL A   1      39.914  32.690  35.454  1.00  0.00     0.037 A 
ATOM     55  C   UNL A   1      40.683  28.817  29.670  1.00  0.00     0.037 A 
ATOM     56  C   UNL A   1      40.961  31.702  35.518  1.00  0.00     0.049 A 
ATOM     57  C   UNL A   1      41.603  28.670  30.851  1.00  0.00     0.074 A 
ATOM     58  C   UNL A   1      41.804  31.405  36.572  1.00  0.00     0.029 A 
ATOM     59  N   UNL A   1      41.313  30.857  34.474  1.00  0.00    -0.354 N 
ATOM     60  N   UNL A   1      41.575  29.289  32.006  1.00  0.00    -0.248 NA
ATOM     61  C   UNL A   1      42.695  27.695  30.719  1.00  0.00     0.031 C 
ATOM     62  C   UNL A   1      42.711  30.428  36.145  1.00  0.00     0.029 A 
ATOM     63  C   UNL A   1      42.389  30.065  34.848  1.00  0.00     0.049 A 
ATOM     64  H   UNL A   1      40.866  30.824  33.598  1.00  0.00     0.167 HD
ATOM     65  C   UNL A   1      42.621  28.760  32.750  1.00  0.00     0.074 A 
ATOM     66  C   UNL A   1      43.257  27.759  31.917  1.00  0.00     0.031 C 
ATOM     67  C   UNL A   1      43.016  29.073  34.009  1.00  0.00     0.037 A 
BRANCH  54  68
ATOM     68  C   UNL A   1      39.726  33.615  36.625  1.00  0.00     0.064 A 
ATOM     69  C   UNL A   1      38.874  33.294  37.694  1.00  0.00     0.173 A 
ATOM     70  C   UNL A   1      40.407  34.841  36.678  1.00  0.00     0.173 A 
ATOM     71  F   UNL A   1      38.191  32.139  37.691  1.00  0.00    -0.203 F 
ATOM     72  C   UNL A   1      38.672  34.187  38.744  1.00  0.00     0.198 A 
ATOM     73  C   UNL A   1      40.232  35.713  37.750  1.00  0.00     0.198 A 
ATOM     74  F   UNL A   1      41.240  35.196  35.690  1.00  0.00    -0.203 F 
ATOM     75  F   UNL A   1      37.796  33.889  39.715  1.00  0.00    -0.200 F 
ATOM     76  C   UNL A   1      39.355  35.392  38.774  1.00  0.00     0.200 A 
ATOM     77  F   UNL A   1      40.905  36.871  37.785  1.00  0.00    -0.200 F 
ATOM     78  F   UNL A   1      39.157  36.251  39.784  1.00  0.00    -0.200 F 
ENDBRANCH  54  68
BRANCH  55  79
ATOM     79  C   UNL A   1      40.844  27.966  28.462  1.00  0.00     0.064 A 
ATOM     80  C   UNL A   1      40.206  26.721  28.376  1.00  0.00     0.173 A 
ATOM     81  C   UNL A   1      41.617  28.381  27.367  1.00  0.00     0.173 A 
ATOM     82  F   UNL A   1      39.473  26.272  29.405  1.00  0.00    -0.203 F 
ATOM     83  C   UNL A   1      40.343  25.918  27.245  1.00  0.00     0.198 A 
ATOM     84  C   UNL A   1      41.730  27.591  26.227  1.00  0.00     0.198 A 
ATOM     85  F   UNL A   1      42.243  29.567  27.398  1.00  0.00    -0.203 F 
ATOM     86  F   UNL A   1      39.751  24.717  27.205  1.00  0.00    -0.200 F 
ATOM     87  C   UNL A   1      41.098  26.357  26.168  1.00  0.00     0.200 A 
ATOM     88  F   UNL A   1      42.446  28.026  25.181  1.00  0.00    -0.200 F 
ATOM     89  F   UNL A   1      41.219  25.590  25.076  1.00  0.00    -0.200 F 
ENDBRANCH  55  79
BRANCH  67  90
ATOM     90  C   UNL A   1      44.169  28.299  34.582  1.00  0.00     0.064 A 
ATOM     91  C   UNL A   1      45.496  28.736  34.445  1.00  0.00     0.173 A 
ATOM     92  C   UNL A   1      43.942  27.120  35.310  1.00  0.00     0.173 A 
ATOM     93  F   UNL A   1      45.771  29.847  33.746  1.00  0.00    -0.203 F 
ATOM     94  C   UNL A   1      46.550  28.009  34.991  1.00  0.00     0.198 A 
ATOM     95  C   UNL A   1      44.995  26.415  35.885  1.00  0.00     0.198 A 
ATOM     96  F   UNL A   1      42.692  26.660  35.477  1.00  0.00    -0.203 F 
ATOM     97  F   UNL A   1      47.813  28.418  34.802  1.00  0.00    -0.200 F 
ATOM     98  C   UNL A   1      46.299  26.855  35.718  1.00  0.00     0.200 A 
ATOM     99  F   UNL A   1      44.747  25.310  36.601  1.00  0.00    -0.200 F 
ATOM    100  F   UNL A   1      47.314  26.162  36.251  1.00  0.00    -0.200 F 
ENDBRANCH  67  90
ENDBRANCH  41  42
ENDBRANCH  33  36
ENDBRANCH  31  32
ENDBRANCH  30  31
ENDBRANCH  29  30
ENDBRANCH   1  29
TORSDOF 15
ENDMDL
