MODEL 1
REMARK VINA RESULT:     -12.3      0.000      0.000
REMARK SMILES Cc1nc(-c2ccccn2)cc(N2CCC[C@H](C(=O)NCCCCCCNC(=O)c3ccc(-c4c5nc(c(-c6c(F)c(F)c(F)c(F)c6F)c6ccc([nH]6)c(-c6c(F)c(F)c(F)c(F)c6F)c6nc(c(-c7c(F)c(F)c(F)c(F)c7F)c7ccc4[nH]7)C=C6)C=C5)cc3)C2)n1
REMARK SMILES IDX 23 1 22 2 21 3 20 4 18 5 19 6 17 8 13 9 14 10 93 11 15 12
REMARK SMILES IDX 16 13 12 14 1 15 2 16 3 17 94 18 4 19 11 20 5 21 6 22 10 23
REMARK SMILES IDX 7 24 9 25 8 26 24 27 25 28 26 29 27 30 28 31 29 33 30 34
REMARK SMILES IDX 31 35 92 36 32 37 91 38 33 39 34 40 35 41 85 42 36 43 90 44
REMARK SMILES IDX 84 45 86 46 37 47 89 48 83 49 82 50 38 52 70 53 50 54 69 55
REMARK SMILES IDX 51 56 54 57 68 58 87 59 52 60 53 61 67 63 88 64 55 65 39 66
REMARK SMILES IDX 40 67 48 68 41 69 42 70 46 71 49 72 43 73 44 74 47 75 45 76
REMARK SMILES IDX 71 77 72 78 80 79 73 80 74 81 78 82 81 83 75 84 76 85 79 86
REMARK SMILES IDX 77 87 56 88 57 89 65 90 58 91 59 92 63 93 66 94 60 95 61 96
REMARK SMILES IDX 64 97 62 98
REMARK H PARENT 20 7 27 32 86 51 54 62
REMARK Flexibility Score: inf
ROOT
ATOM      1  C   UNL A   1      41.619  21.685  26.470  1.00  0.00     0.002 C 
ENDROOT
BRANCH   1   2
ATOM      2  C   UNL A   1      40.313  22.130  27.126  1.00  0.00     0.021 C 
BRANCH   2   3
ATOM      3  C   UNL A   1      39.054  21.986  26.285  1.00  0.00     0.116 C 
BRANCH   3   4
ATOM      4  N   UNL A   1      38.123  23.081  26.355  1.00  0.00    -0.356 N 
ATOM      5  C   UNL A   1      36.979  23.266  25.639  1.00  0.00     0.224 C 
ATOM      6  O   UNL A   1      36.283  24.238  25.953  1.00  0.00    -0.275 OA
ATOM      7  H   UNL A   1      38.340  23.788  27.005  1.00  0.00     0.163 HD
BRANCH   5   8
ATOM      8  C   UNL A   1      36.483  22.310  24.542  1.00  0.00     0.098 C 
ATOM      9  N   UNL A   1      34.445  23.291  23.659  1.00  0.00    -0.356 N 
ATOM     10  C   UNL A   1      33.637  22.077  23.638  1.00  0.00     0.118 C 
ATOM     11  C   UNL A   1      35.861  23.091  23.392  1.00  0.00     0.131 C 
ATOM     12  C   UNL A   1      34.167  21.051  24.650  1.00  0.00     0.022 C 
ATOM     13  C   UNL A   1      35.680  21.065  24.952  1.00  0.00     0.017 C 
BRANCH   9  14
ATOM     14  C   UNL A   1      33.895  24.412  23.028  1.00  0.00     0.132 A 
ATOM     15  C   UNL A   1      32.502  25.451  19.818  1.00  0.00     0.090 C 
ATOM     16  C   UNL A   1      32.855  25.444  21.271  1.00  0.00     0.128 A 
ATOM     17  N   UNL A   1      32.583  26.562  21.967  1.00  0.00    -0.231 NA
ATOM     18  N   UNL A   1      33.443  24.339  21.772  1.00  0.00    -0.216 NA
ATOM     19  C   UNL A   1      33.027  26.606  23.237  1.00  0.00     0.094 A 
ATOM     20  C   UNL A   1      33.781  25.576  23.763  1.00  0.00     0.077 A 
BRANCH  19  21
ATOM     21  C   UNL A   1      32.550  27.704  24.105  1.00  0.00     0.089 A 
ATOM     22  C   UNL A   1      31.248  28.205  24.032  1.00  0.00     0.030 A 
ATOM     23  N   UNL A   1      33.509  28.334  24.839  1.00  0.00    -0.255 NA
ATOM     24  C   UNL A   1      30.936  29.397  24.688  1.00  0.00     0.004 A 
ATOM     25  C   UNL A   1      33.177  29.481  25.472  1.00  0.00     0.112 A 
ATOM     26  C   UNL A   1      31.922  30.057  25.410  1.00  0.00     0.020 A 
ENDBRANCH  19  21
ENDBRANCH   9  14
ENDBRANCH   5   8
ENDBRANCH   3   4
ENDBRANCH   2   3
ENDBRANCH   1   2
BRANCH   1  27
ATOM     27  C   UNL A   1      42.270  20.428  27.047  1.00  0.00     0.002 C 
BRANCH  27  28
ATOM     28  C   UNL A   1      42.404  19.235  26.097  1.00  0.00     0.021 C 
BRANCH  28  29
ATOM     29  C   UNL A   1      43.775  18.579  26.056  1.00  0.00     0.116 C 
BRANCH  29  30
ATOM     30  N   UNL A   1      44.343  18.566  24.717  1.00  0.00    -0.352 N 
ATOM     31  C   UNL A   1      44.723  19.599  23.899  1.00  0.00     0.251 C 
ATOM     32  H   UNL A   1      44.476  17.668  24.335  1.00  0.00     0.163 HD
ATOM     33  O   UNL A   1      44.962  19.376  22.717  1.00  0.00    -0.269 OA
BRANCH  31  34
ATOM     34  C   UNL A   1      44.838  20.980  24.424  1.00  0.00     0.039 A 
ATOM     35  C   UNL A   1      45.524  21.186  25.624  1.00  0.00     0.014 A 
ATOM     36  C   UNL A   1      44.243  22.062  23.771  1.00  0.00     0.014 A 
ATOM     37  C   UNL A   1      45.663  22.478  26.135  1.00  0.00     0.010 A 
ATOM     38  C   UNL A   1      44.460  23.357  24.229  1.00  0.00     0.010 A 
ATOM     39  C   UNL A   1      45.162  23.579  25.422  1.00  0.00    -0.014 A 
BRANCH  39  40
ATOM     40  C   UNL A   1      45.354  24.968  25.909  1.00  0.00     0.031 A 
ATOM     41  C   UNL A   1      46.716  25.605  25.857  1.00  0.00     0.074 A 
ATOM     42  C   UNL A   1      44.317  25.627  26.461  1.00  0.00     0.049 A 
ATOM     43  N   UNL A   1      47.103  26.773  26.305  1.00  0.00    -0.248 NA
ATOM     44  C   UNL A   1      47.795  24.810  25.248  1.00  0.00     0.031 C 
ATOM     45  C   UNL A   1      42.963  25.094  26.615  1.00  0.00     0.029 A 
ATOM     46  N   UNL A   1      44.243  26.884  27.006  1.00  0.00    -0.354 N 
ATOM     47  C   UNL A   1      48.466  26.843  26.048  1.00  0.00     0.074 A 
ATOM     48  C   UNL A   1      48.853  25.580  25.459  1.00  0.00     0.031 C 
ATOM     49  C   UNL A   1      42.186  26.025  27.190  1.00  0.00     0.029 A 
ATOM     50  C   UNL A   1      42.996  27.202  27.486  1.00  0.00     0.049 A 
ATOM     51  H   UNL A   1      45.011  27.499  27.049  1.00  0.00     0.167 HD
ATOM     52  C   UNL A   1      49.313  27.878  26.261  1.00  0.00     0.037 A 
ATOM     53  C   UNL A   1      42.560  28.315  28.105  1.00  0.00     0.037 A 
ATOM     54  C   UNL A   1      48.915  29.142  26.825  1.00  0.00     0.049 A 
ATOM     55  C   UNL A   1      43.523  29.448  28.336  1.00  0.00     0.074 A 
ATOM     56  C   UNL A   1      49.681  30.277  27.026  1.00  0.00     0.029 A 
ATOM     57  N   UNL A   1      47.637  29.435  27.281  1.00  0.00    -0.354 N 
ATOM     58  N   UNL A   1      44.794  29.532  28.025  1.00  0.00    -0.248 NA
ATOM     59  C   UNL A   1      42.989  30.645  29.000  1.00  0.00     0.031 C 
ATOM     60  C   UNL A   1      48.882  31.237  27.653  1.00  0.00     0.029 A 
ATOM     61  C   UNL A   1      47.601  30.725  27.787  1.00  0.00     0.049 A 
ATOM     62  H   UNL A   1      46.871  28.818  27.250  1.00  0.00     0.167 HD
ATOM     63  C   UNL A   1      45.204  30.797  28.425  1.00  0.00     0.074 A 
ATOM     64  C   UNL A   1      44.041  31.452  28.987  1.00  0.00     0.031 C 
ATOM     65  C   UNL A   1      46.432  31.364  28.335  1.00  0.00     0.037 A 
BRANCH  52  66
ATOM     66  C   UNL A   1      50.754  27.689  25.881  1.00  0.00     0.064 A 
ATOM     67  C   UNL A   1      51.204  27.893  24.566  1.00  0.00     0.173 A 
ATOM     68  C   UNL A   1      51.706  27.333  26.849  1.00  0.00     0.173 A 
ATOM     69  F   UNL A   1      50.335  28.224  23.599  1.00  0.00    -0.203 F 
ATOM     70  C   UNL A   1      52.544  27.714  24.230  1.00  0.00     0.198 A 
ATOM     71  C   UNL A   1      53.050  27.189  26.515  1.00  0.00     0.198 A 
ATOM     72  F   UNL A   1      51.333  27.131  28.121  1.00  0.00    -0.203 F 
ATOM     73  F   UNL A   1      52.938  27.861  22.957  1.00  0.00    -0.200 F 
ATOM     74  C   UNL A   1      53.467  27.372  25.206  1.00  0.00     0.200 A 
ATOM     75  F   UNL A   1      53.944  26.871  27.462  1.00  0.00    -0.200 F 
ATOM     76  F   UNL A   1      54.757  27.208  24.882  1.00  0.00    -0.200 F 
ENDBRANCH  52  66
BRANCH  53  77
ATOM     77  C   UNL A   1      41.139  28.422  28.529  1.00  0.00     0.064 A 
ATOM     78  C   UNL A   1      40.732  27.988  29.798  1.00  0.00     0.173 A 
ATOM     79  C   UNL A   1      40.159  28.952  27.677  1.00  0.00     0.173 A 
ATOM     80  F   UNL A   1      41.628  27.453  30.642  1.00  0.00    -0.203 F 
ATOM     81  C   UNL A   1      39.397  28.057  30.190  1.00  0.00     0.198 A 
ATOM     82  C   UNL A   1      38.829  29.052  28.082  1.00  0.00     0.198 A 
ATOM     83  F   UNL A   1      40.496  29.386  26.453  1.00  0.00    -0.203 F 
ATOM     84  F   UNL A   1      39.028  27.587  31.389  1.00  0.00    -0.200 F 
ATOM     85  C   UNL A   1      38.447  28.595  29.335  1.00  0.00     0.200 A 
ATOM     86  F   UNL A   1      37.917  29.584  27.256  1.00  0.00    -0.200 F 
ATOM     87  F   UNL A   1      37.164  28.663  29.713  1.00  0.00    -0.200 F 
ENDBRANCH  53  77
BRANCH  65  88
ATOM     88  C   UNL A   1      46.572  32.778  28.820  1.00  0.00     0.064 A 
ATOM     89  C   UNL A   1      46.344  33.875  27.976  1.00  0.00     0.173 A 
ATOM     90  C   UNL A   1      46.899  33.039  30.160  1.00  0.00     0.173 A 
ATOM     91  F   UNL A   1      46.042  33.680  26.683  1.00  0.00    -0.203 F 
ATOM     92  C   UNL A   1      46.466  35.179  28.448  1.00  0.00     0.198 A 
ATOM     93  C   UNL A   1      46.986  34.343  30.637  1.00  0.00     0.198 A 
ATOM     94  F   UNL A   1      47.119  32.025  31.012  1.00  0.00    -0.203 F 
ATOM     95  F   UNL A   1      46.295  36.211  27.610  1.00  0.00    -0.200 F 
ATOM     96  C   UNL A   1      46.779  35.412  29.779  1.00  0.00     0.200 A 
ATOM     97  F   UNL A   1      47.272  34.565  31.928  1.00  0.00    -0.200 F 
ATOM     98  F   UNL A   1      46.887  36.667  30.233  1.00  0.00    -0.200 F 
ENDBRANCH  65  88
ENDBRANCH  39  40
ENDBRANCH  31  34
ENDBRANCH  29  30
ENDBRANCH  28  29
ENDBRANCH  27  28
ENDBRANCH   1  27
TORSDOF 15
ENDMDL
MODEL 2
REMARK VINA RESULT:     -12.1      1.903      7.738
REMARK SMILES Cc1nc(-c2ccccn2)cc(N2CCC[C@H](C(=O)NCCCCCCNC(=O)c3ccc(-c4c5nc(c(-c6c(F)c(F)c(F)c(F)c6F)c6ccc([nH]6)c(-c6c(F)c(F)c(F)c(F)c6F)c6nc(c(-c7c(F)c(F)c(F)c(F)c7F)c7ccc4[nH]7)C=C6)C=C5)cc3)C2)n1
REMARK SMILES IDX 23 1 22 2 21 3 20 4 18 5 19 6 17 8 13 9 14 10 93 11 15 12
REMARK SMILES IDX 16 13 12 14 1 15 2 16 3 17 94 18 4 19 11 20 5 21 6 22 10 23
REMARK SMILES IDX 7 24 9 25 8 26 24 27 25 28 26 29 27 30 28 31 29 33 30 34
REMARK SMILES IDX 31 35 92 36 32 37 91 38 33 39 34 40 35 41 85 42 36 43 90 44
REMARK SMILES IDX 84 45 86 46 37 47 89 48 83 49 82 50 38 52 70 53 50 54 69 55
REMARK SMILES IDX 51 56 54 57 68 58 87 59 52 60 53 61 67 63 88 64 55 65 39 66
REMARK SMILES IDX 40 67 48 68 41 69 42 70 46 71 49 72 43 73 44 74 47 75 45 76
REMARK SMILES IDX 71 77 72 78 80 79 73 80 74 81 78 82 81 83 75 84 76 85 79 86
REMARK SMILES IDX 77 87 56 88 57 89 65 90 58 91 59 92 63 93 66 94 60 95 61 96
REMARK SMILES IDX 64 97 62 98
REMARK H PARENT 20 7 27 32 86 51 54 62
REMARK Flexibility Score: inf
ROOT
ATOM      1  C   UNL A   1      35.910  20.749  24.816  1.00  0.00     0.002 C 
ENDROOT
BRANCH   1   2
ATOM      2  C   UNL A   1      34.426  20.389  24.865  1.00  0.00     0.021 C 
BRANCH   2   3
ATOM      3  C   UNL A   1      33.457  21.470  24.412  1.00  0.00     0.116 C 
BRANCH   3   4
ATOM      4  N   UNL A   1      32.125  21.385  24.951  1.00  0.00    -0.356 N 
ATOM      5  C   UNL A   1      31.502  22.247  25.803  1.00  0.00     0.224 C 
ATOM      6  O   UNL A   1      30.311  22.019  26.044  1.00  0.00    -0.275 OA
ATOM      7  H   UNL A   1      31.596  20.605  24.669  1.00  0.00     0.163 HD
BRANCH   5   8
ATOM      8  C   UNL A   1      32.163  23.499  26.402  1.00  0.00     0.098 C 
ATOM      9  N   UNL A   1      32.863  24.862  24.518  1.00  0.00    -0.356 N 
ATOM     10  C   UNL A   1      34.199  25.190  25.002  1.00  0.00     0.118 C 
ATOM     11  C   UNL A   1      31.851  24.726  25.556  1.00  0.00     0.131 C 
ATOM     12  C   UNL A   1      34.692  24.137  26.004  1.00  0.00     0.022 C 
ATOM     13  C   UNL A   1      33.628  23.416  26.858  1.00  0.00     0.017 C 
BRANCH   9  14
ATOM     14  C   UNL A   1      32.429  25.551  23.380  1.00  0.00     0.132 A 
ATOM     15  C   UNL A   1      32.628  25.404  19.739  1.00  0.00     0.090 C 
ATOM     16  C   UNL A   1      32.185  25.778  21.118  1.00  0.00     0.128 A 
ATOM     17  N   UNL A   1      31.310  26.793  21.219  1.00  0.00    -0.231 NA
ATOM     18  N   UNL A   1      32.712  25.097  22.155  1.00  0.00    -0.216 NA
ATOM     19  C   UNL A   1      31.020  27.219  22.463  1.00  0.00     0.094 A 
ATOM     20  C   UNL A   1      31.651  26.677  23.565  1.00  0.00     0.077 A 
BRANCH  19  21
ATOM     21  C   UNL A   1      29.895  28.164  22.634  1.00  0.00     0.089 A 
ATOM     22  C   UNL A   1      28.713  27.810  23.289  1.00  0.00     0.030 A 
ATOM     23  N   UNL A   1      29.997  29.332  21.941  1.00  0.00    -0.255 NA
ATOM     24  C   UNL A   1      27.603  28.649  23.196  1.00  0.00     0.004 A 
ATOM     25  C   UNL A   1      28.908  30.131  21.876  1.00  0.00     0.112 A 
ATOM     26  C   UNL A   1      27.694  29.826  22.464  1.00  0.00     0.020 A 
ENDBRANCH  19  21
ENDBRANCH   9  14
ENDBRANCH   5   8
ENDBRANCH   3   4
ENDBRANCH   2   3
ENDBRANCH   1   2
BRANCH   1  27
ATOM     27  C   UNL A   1      36.891  19.585  24.951  1.00  0.00     0.002 C 
BRANCH  27  28
ATOM     28  C   UNL A   1      38.373  19.918  24.755  1.00  0.00     0.021 C 
BRANCH  28  29
ATOM     29  C   UNL A   1      39.203  19.991  26.026  1.00  0.00     0.116 C 
BRANCH  29  30
ATOM     30  N   UNL A   1      40.325  19.065  26.010  1.00  0.00    -0.352 N 
ATOM     31  C   UNL A   1      41.676  19.299  26.038  1.00  0.00     0.251 C 
ATOM     32  H   UNL A   1      40.073  18.114  25.972  1.00  0.00     0.163 HD
ATOM     33  O   UNL A   1      42.452  18.385  25.781  1.00  0.00    -0.269 OA
BRANCH  31  34
ATOM     34  C   UNL A   1      42.206  20.644  26.363  1.00  0.00     0.039 A 
ATOM     35  C   UNL A   1      42.561  21.497  25.313  1.00  0.00     0.014 A 
ATOM     36  C   UNL A   1      42.395  21.055  27.683  1.00  0.00     0.014 A 
ATOM     37  C   UNL A   1      43.048  22.776  25.589  1.00  0.00     0.010 A 
ATOM     38  C   UNL A   1      42.792  22.360  27.958  1.00  0.00     0.010 A 
ATOM     39  C   UNL A   1      43.133  23.231  26.913  1.00  0.00    -0.014 A 
BRANCH  39  40
ATOM     40  C   UNL A   1      43.584  24.609  27.230  1.00  0.00     0.031 A 
ATOM     41  C   UNL A   1      42.605  25.621  27.760  1.00  0.00     0.074 A 
ATOM     42  C   UNL A   1      44.857  24.967  26.974  1.00  0.00     0.049 A 
ATOM     43  N   UNL A   1      42.785  26.892  28.020  1.00  0.00    -0.248 NA
ATOM     44  C   UNL A   1      41.232  25.150  28.001  1.00  0.00     0.031 C 
ATOM     45  C   UNL A   1      45.884  24.088  26.411  1.00  0.00     0.029 A 
ATOM     46  N   UNL A   1      45.502  26.166  27.142  1.00  0.00    -0.354 N 
ATOM     47  C   UNL A   1      41.549  27.371  28.435  1.00  0.00     0.074 A 
ATOM     48  C   UNL A   1      40.614  26.272  28.338  1.00  0.00     0.031 C 
ATOM     49  C   UNL A   1      47.035  24.769  26.305  1.00  0.00     0.029 A 
ATOM     50  C   UNL A   1      46.818  26.142  26.749  1.00  0.00     0.049 A 
ATOM     51  H   UNL A   1      45.064  26.967  27.510  1.00  0.00     0.167 HD
ATOM     52  C   UNL A   1      41.230  28.609  28.882  1.00  0.00     0.037 A 
ATOM     53  C   UNL A   1      47.741  27.122  26.738  1.00  0.00     0.037 A 
ATOM     54  C   UNL A   1      42.173  29.691  29.000  1.00  0.00     0.049 A 
ATOM     55  C   UNL A   1      47.359  28.491  27.233  1.00  0.00     0.074 A 
ATOM     56  C   UNL A   1      41.968  30.965  29.498  1.00  0.00     0.029 A 
ATOM     57  N   UNL A   1      43.504  29.624  28.610  1.00  0.00    -0.354 N 
ATOM     58  N   UNL A   1      46.205  28.915  27.691  1.00  0.00    -0.248 NA
ATOM     59  C   UNL A   1      48.410  29.518  27.215  1.00  0.00     0.031 C 
ATOM     60  C   UNL A   1      43.157  31.686  29.360  1.00  0.00     0.029 A 
ATOM     61  C   UNL A   1      44.124  30.843  28.833  1.00  0.00     0.049 A 
ATOM     62  H   UNL A   1      43.942  28.827  28.232  1.00  0.00     0.167 HD
ATOM     63  C   UNL A   1      46.399  30.244  28.043  1.00  0.00     0.074 A 
ATOM     64  C   UNL A   1      47.786  30.551  27.762  1.00  0.00     0.031 C 
ATOM     65  C   UNL A   1      45.508  31.129  28.554  1.00  0.00     0.037 A 
BRANCH  52  66
ATOM     66  C   UNL A   1      39.803  28.861  29.279  1.00  0.00     0.064 A 
ATOM     67  C   UNL A   1      38.850  29.321  28.357  1.00  0.00     0.173 A 
ATOM     68  C   UNL A   1      39.373  28.606  30.591  1.00  0.00     0.173 A 
ATOM     69  F   UNL A   1      39.210  29.591  27.093  1.00  0.00    -0.203 F 
ATOM     70  C   UNL A   1      37.531  29.549  28.741  1.00  0.00     0.198 A 
ATOM     71  C   UNL A   1      38.045  28.803  30.962  1.00  0.00     0.198 A 
ATOM     72  F   UNL A   1      40.239  28.160  31.512  1.00  0.00    -0.203 F 
ATOM     73  F   UNL A   1      36.653  30.041  27.855  1.00  0.00    -0.200 F 
ATOM     74  C   UNL A   1      37.128  29.281  30.040  1.00  0.00     0.200 A 
ATOM     75  F   UNL A   1      37.654  28.530  32.214  1.00  0.00    -0.200 F 
ATOM     76  F   UNL A   1      35.856  29.494  30.405  1.00  0.00    -0.200 F 
ENDBRANCH  52  66
BRANCH  53  77
ATOM     77  C   UNL A   1      49.121  26.839  26.263  1.00  0.00     0.064 A 
ATOM     78  C   UNL A   1      49.491  27.088  24.935  1.00  0.00     0.173 A 
ATOM     79  C   UNL A   1      50.096  26.310  27.123  1.00  0.00     0.173 A 
ATOM     80  F   UNL A   1      48.588  27.573  24.068  1.00  0.00    -0.203 F 
ATOM     81  C   UNL A   1      50.774  26.796  24.476  1.00  0.00     0.198 A 
ATOM     82  C   UNL A   1      51.389  26.049  26.672  1.00  0.00     0.198 A 
ATOM     83  F   UNL A   1      49.795  26.057  28.405  1.00  0.00    -0.203 F 
ATOM     84  F   UNL A   1      51.084  26.995  23.188  1.00  0.00    -0.200 F 
ATOM     85  C   UNL A   1      51.724  26.283  25.347  1.00  0.00     0.200 A 
ATOM     86  F   UNL A   1      52.307  25.565  27.520  1.00  0.00    -0.200 F 
ATOM     87  F   UNL A   1      52.958  26.005  24.906  1.00  0.00    -0.200 F 
ENDBRANCH  53  77
BRANCH  65  88
ATOM     88  C   UNL A   1      46.016  32.504  28.880  1.00  0.00     0.064 A 
ATOM     89  C   UNL A   1      46.583  32.806  30.126  1.00  0.00     0.173 A 
ATOM     90  C   UNL A   1      45.972  33.522  27.914  1.00  0.00     0.173 A 
ATOM     91  F   UNL A   1      46.637  31.872  31.087  1.00  0.00    -0.203 F 
ATOM     92  C   UNL A   1      47.061  34.085  30.403  1.00  0.00     0.198 A 
ATOM     93  C   UNL A   1      46.481  34.789  28.184  1.00  0.00     0.198 A 
ATOM     94  F   UNL A   1      45.446  33.284  26.702  1.00  0.00    -0.203 F 
ATOM     95  F   UNL A   1      47.551  34.364  31.620  1.00  0.00    -0.200 F 
ATOM     96  C   UNL A   1      47.017  35.072  29.430  1.00  0.00     0.200 A 
ATOM     97  F   UNL A   1      46.453  35.736  27.235  1.00  0.00    -0.200 F 
ATOM     98  F   UNL A   1      47.486  36.298  29.697  1.00  0.00    -0.200 F 
ENDBRANCH  65  88
ENDBRANCH  39  40
ENDBRANCH  31  34
ENDBRANCH  29  30
ENDBRANCH  28  29
ENDBRANCH  27  28
ENDBRANCH   1  27
TORSDOF 15
ENDMDL
MODEL 3
REMARK VINA RESULT:     -12.0      6.214     10.999
REMARK SMILES Cc1nc(-c2ccccn2)cc(N2CCC[C@H](C(=O)NCCCCCCNC(=O)c3ccc(-c4c5nc(c(-c6c(F)c(F)c(F)c(F)c6F)c6ccc([nH]6)c(-c6c(F)c(F)c(F)c(F)c6F)c6nc(c(-c7c(F)c(F)c(F)c(F)c7F)c7ccc4[nH]7)C=C6)C=C5)cc3)C2)n1
REMARK SMILES IDX 23 1 22 2 21 3 20 4 18 5 19 6 17 8 13 9 14 10 93 11 15 12
REMARK SMILES IDX 16 13 12 14 1 15 2 16 3 17 94 18 4 19 11 20 5 21 6 22 10 23
REMARK SMILES IDX 7 24 9 25 8 26 24 27 25 28 26 29 27 30 28 31 29 33 30 34
REMARK SMILES IDX 31 35 92 36 32 37 91 38 33 39 34 40 35 41 85 42 36 43 90 44
REMARK SMILES IDX 84 45 86 46 37 47 89 48 83 49 82 50 38 52 70 53 50 54 69 55
REMARK SMILES IDX 51 56 54 57 68 58 87 59 52 60 53 61 67 63 88 64 55 65 39 66
REMARK SMILES IDX 40 67 48 68 41 69 42 70 46 71 49 72 43 73 44 74 47 75 45 76
REMARK SMILES IDX 71 77 72 78 80 79 73 80 74 81 78 82 81 83 75 84 76 85 79 86
REMARK SMILES IDX 77 87 56 88 57 89 65 90 58 91 59 92 63 93 66 94 60 95 61 96
REMARK SMILES IDX 64 97 62 98
REMARK H PARENT 20 7 27 32 86 51 54 62
REMARK Flexibility Score: inf
ROOT
ATOM      1  C   UNL A   1      31.854  29.686  27.065  1.00  0.00     0.002 C 
ENDROOT
BRANCH   1   2
ATOM      2  C   UNL A   1      32.785  28.581  26.569  1.00  0.00     0.021 C 
BRANCH   2   3
ATOM      3  C   UNL A   1      32.148  27.498  25.713  1.00  0.00     0.116 C 
BRANCH   3   4
ATOM      4  N   UNL A   1      31.101  26.736  26.340  1.00  0.00    -0.356 N 
ATOM      5  C   UNL A   1      30.164  25.941  25.751  1.00  0.00     0.224 C 
ATOM      6  O   UNL A   1      29.429  25.298  26.510  1.00  0.00    -0.275 OA
ATOM      7  H   UNL A   1      31.055  26.795  27.321  1.00  0.00     0.163 HD
BRANCH   5   8
ATOM      8  C   UNL A   1      30.027  25.748  24.232  1.00  0.00     0.098 C 
ATOM      9  N   UNL A   1      32.175  24.916  23.460  1.00  0.00    -0.356 N 
ATOM     10  C   UNL A   1      32.311  25.781  22.295  1.00  0.00     0.118 C 
ATOM     11  C   UNL A   1      30.809  24.522  23.775  1.00  0.00     0.131 C 
ATOM     12  C   UNL A   1      31.480  27.061  22.464  1.00  0.00     0.022 C 
ATOM     13  C   UNL A   1      30.195  26.968  23.312  1.00  0.00     0.017 C 
BRANCH   9  14
ATOM     14  C   UNL A   1      33.111  23.882  23.578  1.00  0.00     0.132 A 
ATOM     15  C   UNL A   1      36.699  23.350  23.983  1.00  0.00     0.090 C 
ATOM     16  C   UNL A   1      35.226  23.094  23.950  1.00  0.00     0.128 A 
ATOM     17  N   UNL A   1      34.829  21.817  24.079  1.00  0.00    -0.231 NA
ATOM     18  N   UNL A   1      34.407  24.150  23.766  1.00  0.00    -0.216 NA
ATOM     19  C   UNL A   1      33.515  21.573  23.910  1.00  0.00     0.094 A 
ATOM     20  C   UNL A   1      32.644  22.583  23.553  1.00  0.00     0.077 A 
BRANCH  19  21
ATOM     21  C   UNL A   1      33.002  20.234  24.272  1.00  0.00     0.089 A 
ATOM     22  C   UNL A   1      33.175  19.686  25.546  1.00  0.00     0.030 A 
ATOM     23  N   UNL A   1      32.528  19.484  23.239  1.00  0.00    -0.255 NA
ATOM     24  C   UNL A   1      32.897  18.334  25.752  1.00  0.00     0.004 A 
ATOM     25  C   UNL A   1      32.259  18.180  23.469  1.00  0.00     0.112 A 
ATOM     26  C   UNL A   1      32.445  17.560  24.691  1.00  0.00     0.020 A 
ENDBRANCH  19  21
ENDBRANCH   9  14
ENDBRANCH   5   8
ENDBRANCH   3   4
ENDBRANCH   2   3
ENDBRANCH   1   2
BRANCH   1  27
ATOM     27  C   UNL A   1      31.403  30.707  26.020  1.00  0.00     0.002 C 
BRANCH  27  28
ATOM     28  C   UNL A   1      31.341  32.166  26.478  1.00  0.00     0.021 C 
BRANCH  28  29
ATOM     29  C   UNL A   1      32.551  32.664  27.252  1.00  0.00     0.116 C 
BRANCH  29  30
ATOM     30  N   UNL A   1      32.432  34.065  27.626  1.00  0.00    -0.352 N 
ATOM     31  C   UNL A   1      33.066  34.784  28.607  1.00  0.00     0.251 C 
ATOM     32  H   UNL A   1      31.789  34.582  27.087  1.00  0.00     0.163 HD
ATOM     33  O   UNL A   1      32.648  35.898  28.905  1.00  0.00    -0.269 OA
BRANCH  31  34
ATOM     34  C   UNL A   1      34.241  34.226  29.316  1.00  0.00     0.039 A 
ATOM     35  C   UNL A   1      34.027  33.422  30.440  1.00  0.00     0.014 A 
ATOM     36  C   UNL A   1      35.545  34.520  28.912  1.00  0.00     0.014 A 
ATOM     37  C   UNL A   1      35.115  32.869  31.119  1.00  0.00     0.010 A 
ATOM     38  C   UNL A   1      36.624  33.896  29.531  1.00  0.00     0.010 A 
ATOM     39  C   UNL A   1      36.421  33.072  30.647  1.00  0.00    -0.014 A 
BRANCH  39  40
ATOM     40  C   UNL A   1      37.589  32.441  31.311  1.00  0.00     0.031 A 
ATOM     41  C   UNL A   1      38.324  31.316  30.637  1.00  0.00     0.074 A 
ATOM     42  C   UNL A   1      37.942  32.836  32.550  1.00  0.00     0.049 A 
ATOM     43  N   UNL A   1      39.314  30.585  31.086  1.00  0.00    -0.248 NA
ATOM     44  C   UNL A   1      37.866  30.940  29.289  1.00  0.00     0.031 C 
ATOM     45  C   UNL A   1      37.272  33.881  33.326  1.00  0.00     0.029 A 
ATOM     46  N   UNL A   1      38.943  32.397  33.379  1.00  0.00    -0.354 N 
ATOM     47  C   UNL A   1      39.581  29.658  30.087  1.00  0.00     0.074 A 
ATOM     48  C   UNL A   1      38.615  29.877  29.034  1.00  0.00     0.031 C 
ATOM     49  C   UNL A   1      37.897  34.020  34.506  1.00  0.00     0.029 A 
ATOM     50  C   UNL A   1      38.980  33.047  34.588  1.00  0.00     0.049 A 
ATOM     51  H   UNL A   1      39.576  31.685  33.130  1.00  0.00     0.167 HD
ATOM     52  C   UNL A   1      40.561  28.724  30.042  1.00  0.00     0.037 A 
ATOM     53  C   UNL A   1      39.791  32.868  35.648  1.00  0.00     0.037 A 
ATOM     54  C   UNL A   1      41.535  28.527  31.084  1.00  0.00     0.049 A 
ATOM     55  C   UNL A   1      40.868  31.819  35.576  1.00  0.00     0.074 A 
ATOM     56  C   UNL A   1      42.606  27.652  31.111  1.00  0.00     0.029 A 
ATOM     57  N   UNL A   1      41.553  29.219  32.288  1.00  0.00    -0.354 N 
ATOM     58  N   UNL A   1      41.158  30.995  34.597  1.00  0.00    -0.248 NA
ATOM     59  C   UNL A   1      41.735  31.679  36.753  1.00  0.00     0.031 C 
ATOM     60  C   UNL A   1      43.239  27.774  32.351  1.00  0.00     0.029 A 
ATOM     61  C   UNL A   1      42.602  28.770  33.074  1.00  0.00     0.049 A 
ATOM     62  H   UNL A   1      40.916  29.924  32.544  1.00  0.00     0.167 HD
ATOM     63  C   UNL A   1      42.256  30.262  35.027  1.00  0.00     0.074 A 
ATOM     64  C   UNL A   1      42.590  30.751  36.349  1.00  0.00     0.031 C 
ATOM     65  C   UNL A   1      42.925  29.274  34.385  1.00  0.00     0.037 A 
BRANCH  52  66
ATOM     66  C   UNL A   1      40.631  27.844  28.826  1.00  0.00     0.064 A 
ATOM     67  C   UNL A   1      41.433  28.173  27.721  1.00  0.00     0.173 A 
ATOM     68  C   UNL A   1      39.914  26.638  28.776  1.00  0.00     0.173 A 
ATOM     69  F   UNL A   1      42.129  29.320  27.711  1.00  0.00    -0.203 F 
ATOM     70  C   UNL A   1      41.487  27.347  26.601  1.00  0.00     0.198 A 
ATOM     71  C   UNL A   1      39.999  25.798  27.669  1.00  0.00     0.198 A 
ATOM     72  F   UNL A   1      39.137  26.271  29.806  1.00  0.00    -0.203 F 
ATOM     73  F   UNL A   1      42.217  27.711  25.537  1.00  0.00    -0.200 F 
ATOM     74  C   UNL A   1      40.778  26.156  26.580  1.00  0.00     0.200 A 
ATOM     75  F   UNL A   1      39.323  24.641  27.656  1.00  0.00    -0.200 F 
ATOM     76  F   UNL A   1      40.837  25.358  25.505  1.00  0.00    -0.200 F 
ENDBRANCH  52  66
BRANCH  53  77
ATOM     77  C   UNL A   1      39.631  33.716  36.858  1.00  0.00     0.064 A 
ATOM     78  C   UNL A   1      38.797  33.318  37.912  1.00  0.00     0.173 A 
ATOM     79  C   UNL A   1      40.302  34.942  36.986  1.00  0.00     0.173 A 
ATOM     80  F   UNL A   1      38.117  32.164  37.827  1.00  0.00    -0.203 F 
ATOM     81  C   UNL A   1      38.620  34.122  39.036  1.00  0.00     0.198 A 
ATOM     82  C   UNL A   1      40.150  35.731  38.125  1.00  0.00     0.198 A 
ATOM     83  F   UNL A   1      41.115  35.368  36.009  1.00  0.00    -0.203 F 
ATOM     84  F   UNL A   1      37.776  33.741  40.003  1.00  0.00    -0.200 F 
ATOM     85  C   UNL A   1      39.301  35.325  39.144  1.00  0.00     0.200 A 
ATOM     86  F   UNL A   1      40.819  36.887  38.232  1.00  0.00    -0.200 F 
ATOM     87  F   UNL A   1      39.131  36.097  40.225  1.00  0.00    -0.200 F 
ENDBRANCH  53  77
BRANCH  65  88
ATOM     88  C   UNL A   1      44.114  28.681  35.086  1.00  0.00     0.064 A 
ATOM     89  C   UNL A   1      43.999  27.551  35.909  1.00  0.00     0.173 A 
ATOM     90  C   UNL A   1      45.393  29.229  34.898  1.00  0.00     0.173 A 
ATOM     91  F   UNL A   1      42.798  26.998  36.133  1.00  0.00    -0.203 F 
ATOM     92  C   UNL A   1      45.116  27.010  36.540  1.00  0.00     0.198 A 
ATOM     93  C   UNL A   1      46.511  28.664  35.503  1.00  0.00     0.198 A 
ATOM     94  F   UNL A   1      45.559  30.305  34.114  1.00  0.00    -0.203 F 
ATOM     95  F   UNL A   1      44.974  25.962  37.364  1.00  0.00    -0.200 F 
ATOM     96  C   UNL A   1      46.371  27.561  36.330  1.00  0.00     0.200 A 
ATOM     97  F   UNL A   1      47.725  29.188  35.284  1.00  0.00    -0.200 F 
ATOM     98  F   UNL A   1      47.445  27.032  36.930  1.00  0.00    -0.200 F 
ENDBRANCH  65  88
ENDBRANCH  39  40
ENDBRANCH  31  34
ENDBRANCH  29  30
ENDBRANCH  28  29
ENDBRANCH  27  28
ENDBRANCH   1  27
TORSDOF 15
ENDMDL
