MODEL 1
REMARK VINA RESULT:     -13.6      0.000      0.000
REMARK SMILES C[NH2+][C@@]1(C(=O)NCCCCCCNC(=O)c2ccc(-c3c4nc(c(-c5c(F)c(F)c(F)c(F)c5F)c5ccc([nH]5)c(-c5c(F)c(F)c(F)c(F)c5F)c5nc(c(-c6c(F)c(F)c(F)c(F)c6F)c6ccc3[nH]6)C=C5)C=C4)cc2)CC[C@H]([NH+]2CC[NH+](C)CC2)C1
REMARK SMILES IDX 10 1 9 2 8 3 7 4 6 5 4 6 5 7 3 9 79 10 89 11 80 12 81 13
REMARK SMILES IDX 2 14 1 15 82 18 83 19 88 20 84 22 87 23 85 24 86 25 11 27
REMARK SMILES IDX 12 28 13 29 14 30 15 32 16 33 17 34 78 35 18 36 77 37 19 38
REMARK SMILES IDX 20 39 21 40 71 41 22 42 76 43 70 44 72 45 23 46 75 47 69 48
REMARK SMILES IDX 68 49 24 51 56 52 36 53 55 54 37 55 40 56 54 57 73 58 38 59
REMARK SMILES IDX 39 60 53 62 74 63 41 64 25 65 26 66 34 67 27 68 28 69 32 70
REMARK SMILES IDX 35 71 29 72 30 73 33 74 31 75 57 76 58 77 66 78 59 79 60 80
REMARK SMILES IDX 64 81 67 82 61 83 62 84 65 85 63 86 42 87 43 88 51 89 44 90
REMARK SMILES IDX 45 91 49 92 52 93 46 94 47 95 50 96 48 97
REMARK H PARENT 6 8 2 16 2 17 82 21 85 26 13 31 72 50 40 61
REMARK Flexibility Score: inf
ROOT
ATOM      1  C   UNL A   1      31.634  30.858  26.117  1.00  0.00     0.002 C 
ENDROOT
BRANCH   1   2
ATOM      2  C   UNL A   1      31.956  29.775  27.176  1.00  0.00     0.002 C 
BRANCH   2   3
ATOM      3  C   UNL A   1      32.608  28.257  26.705  1.00  0.00     0.021 C 
BRANCH   3   4
ATOM      4  C   UNL A   1      31.901  26.281  26.368  1.00  0.00     0.116 C 
BRANCH   4   5
ATOM      5  N   UNL A   1      32.138  25.234  25.166  1.00  0.00    -0.351 N 
ATOM      6  C   UNL A   1      32.153  23.902  24.924  1.00  0.00     0.281 C 
ATOM      7  O   UNL A   1      32.611  23.590  23.811  1.00  0.00    -0.268 OA
ATOM      8  H   UNL A   1      32.336  25.724  24.335  1.00  0.00     0.163 HD
BRANCH   6   9
ATOM      9  C   UNL A   1      31.650  22.794  25.890  1.00  0.00     0.181 C 
ATOM     10  C   UNL A   1      32.163  23.136  27.291  1.00  0.00     0.085 C 
ATOM     11  C   UNL A   1      32.217  21.403  25.573  1.00  0.00     0.144 C 
ATOM     12  C   UNL A   1      33.261  22.119  27.574  1.00  0.00     0.072 C 
ATOM     13  C   UNL A   1      33.581  21.378  26.243  1.00  0.00     0.191 C 
BRANCH   9  14
ATOM     14  N   UNL A   1      30.162  22.927  25.912  1.00  0.00    -0.336 N 
ATOM     15  C   UNL A   1      29.499  22.707  27.184  1.00  0.00     0.331 C 
ATOM     16  H   UNL A   1      29.932  23.873  25.605  1.00  0.00     0.346 HD
ATOM     17  H   UNL A   1      29.821  22.182  25.305  1.00  0.00     0.346 HD
ENDBRANCH   9  14
BRANCH  13  18
ATOM     18  N   UNL A   1      34.715  21.811  25.415  1.00  0.00    -0.323 N 
ATOM     19  C   UNL A   1      35.773  20.405  24.896  1.00  0.00     0.324 C 
ATOM     20  C   UNL A   1      35.510  23.487  25.653  1.00  0.00     0.324 C 
ATOM     21  H   UNL A   1      34.243  22.149  24.577  1.00  0.00     0.348 HD
ATOM     22  C   UNL A   1      37.699  20.497  25.122  1.00  0.00     0.324 C 
ATOM     23  C   UNL A   1      37.495  23.601  25.823  1.00  0.00     0.324 C 
ATOM     24  N   UNL A   1      38.518  22.129  25.330  1.00  0.00    -0.328 N 
ATOM     25  C   UNL A   1      39.762  22.000  26.075  1.00  0.00     0.333 C 
ATOM     26  H   UNL A   1      38.722  22.396  24.367  1.00  0.00     0.348 HD
ENDBRANCH  13  18
ENDBRANCH   6   9
ENDBRANCH   4   5
ENDBRANCH   3   4
ENDBRANCH   2   3
ENDBRANCH   1   2
BRANCH   1  27
ATOM     27  C   UNL A   1      31.444  32.270  26.663  1.00  0.00     0.021 C 
BRANCH  27  28
ATOM     28  C   UNL A   1      32.694  32.817  27.320  1.00  0.00     0.116 C 
BRANCH  28  29
ATOM     29  N   UNL A   1      32.535  34.236  27.591  1.00  0.00    -0.352 N 
ATOM     30  C   UNL A   1      33.046  34.921  28.663  1.00  0.00     0.251 C 
ATOM     31  H   UNL A   1      32.009  34.757  26.941  1.00  0.00     0.163 HD
ATOM     32  O   UNL A   1      32.577  35.991  29.029  1.00  0.00    -0.269 OA
BRANCH  30  33
ATOM     33  C   UNL A   1      34.199  34.323  29.361  1.00  0.00     0.039 A 
ATOM     34  C   UNL A   1      35.488  34.519  28.870  1.00  0.00     0.014 A 
ATOM     35  C   UNL A   1      33.976  33.602  30.540  1.00  0.00     0.014 A 
ATOM     36  C   UNL A   1      36.567  33.986  29.573  1.00  0.00     0.010 A 
ATOM     37  C   UNL A   1      35.055  33.156  31.286  1.00  0.00     0.010 A 
ATOM     38  C   UNL A   1      36.356  33.306  30.785  1.00  0.00    -0.014 A 
BRANCH  38  39
ATOM     39  C   UNL A   1      37.472  32.654  31.506  1.00  0.00     0.031 A 
ATOM     40  C   UNL A   1      38.179  31.494  30.860  1.00  0.00     0.074 A 
ATOM     41  C   UNL A   1      37.811  33.069  32.740  1.00  0.00     0.049 A 
ATOM     42  N   UNL A   1      39.141  30.742  31.331  1.00  0.00    -0.248 NA
ATOM     43  C   UNL A   1      37.716  31.101  29.518  1.00  0.00     0.031 C 
ATOM     44  C   UNL A   1      37.157  34.149  33.479  1.00  0.00     0.029 A 
ATOM     45  N   UNL A   1      38.788  32.625  33.591  1.00  0.00    -0.354 N 
ATOM     46  C   UNL A   1      39.378  29.784  30.355  1.00  0.00     0.074 A 
ATOM     47  C   UNL A   1      38.416  29.999  29.299  1.00  0.00     0.031 C 
ATOM     48  C   UNL A   1      37.772  34.305  34.662  1.00  0.00     0.029 A 
ATOM     49  C   UNL A   1      38.839  33.316  34.777  1.00  0.00     0.049 A 
ATOM     50  H   UNL A   1      39.396  31.883  33.374  1.00  0.00     0.167 HD
ATOM     51  C   UNL A   1      40.338  28.830  30.325  1.00  0.00     0.037 A 
ATOM     52  C   UNL A   1      39.660  33.161  35.832  1.00  0.00     0.037 A 
ATOM     53  C   UNL A   1      41.314  28.651  31.365  1.00  0.00     0.049 A 
ATOM     54  C   UNL A   1      40.727  32.100  35.771  1.00  0.00     0.074 A 
ATOM     55  C   UNL A   1      42.372  27.763  31.413  1.00  0.00     0.029 A 
ATOM     56  N   UNL A   1      41.351  29.386  32.542  1.00  0.00    -0.354 N 
ATOM     57  N   UNL A   1      40.991  31.246  34.813  1.00  0.00    -0.248 NA
ATOM     58  C   UNL A   1      41.615  31.989  36.937  1.00  0.00     0.031 C 
ATOM     59  C   UNL A   1      43.021  27.926  32.641  1.00  0.00     0.029 A 
ATOM     60  C   UNL A   1      42.400  28.955  33.334  1.00  0.00     0.049 A 
ATOM     61  H   UNL A   1      40.723  30.106  32.778  1.00  0.00     0.167 HD
ATOM     62  C   UNL A   1      42.091  30.516  35.243  1.00  0.00     0.074 A 
ATOM     63  C   UNL A   1      42.454  31.042  36.545  1.00  0.00     0.031 C 
ATOM     64  C   UNL A   1      42.744  29.502  34.622  1.00  0.00     0.037 A 
BRANCH  51  65
ATOM     65  C   UNL A   1      40.379  27.920  29.132  1.00  0.00     0.064 A 
ATOM     66  C   UNL A   1      39.667  26.710  29.102  1.00  0.00     0.173 A 
ATOM     67  C   UNL A   1      41.122  28.269  27.994  1.00  0.00     0.173 A 
ATOM     68  F   UNL A   1      38.954  26.319  30.169  1.00  0.00    -0.203 F 
ATOM     69  C   UNL A   1      39.726  25.870  27.993  1.00  0.00     0.198 A 
ATOM     70  C   UNL A   1      41.150  27.443  26.874  1.00  0.00     0.198 A 
ATOM     71  F   UNL A   1      41.819  29.415  27.967  1.00  0.00    -0.203 F 
ATOM     72  F   UNL A   1      39.085  24.693  28.012  1.00  0.00    -0.200 F 
ATOM     73  C   UNL A   1      40.460  26.240  26.877  1.00  0.00     0.200 A 
ATOM     74  F   UNL A   1      41.850  27.810  25.792  1.00  0.00    -0.200 F 
ATOM     75  F   UNL A   1      40.509  25.435  25.807  1.00  0.00    -0.200 F 
ENDBRANCH  51  65
BRANCH  52  76
ATOM     76  C   UNL A   1      39.528  34.052  37.014  1.00  0.00     0.064 A 
ATOM     77  C   UNL A   1      40.172  35.297  37.053  1.00  0.00     0.173 A 
ATOM     78  C   UNL A   1      38.757  33.684  38.127  1.00  0.00     0.173 A 
ATOM     79  F   UNL A   1      40.934  35.689  36.021  1.00  0.00    -0.203 F 
ATOM     80  C   UNL A   1      40.070  36.128  38.166  1.00  0.00     0.198 A 
ATOM     81  C   UNL A   1      38.632  34.529  39.227  1.00  0.00     0.198 A 
ATOM     82  F   UNL A   1      38.113  32.508  38.137  1.00  0.00    -0.203 F 
ATOM     83  F   UNL A   1      40.734  37.291  38.195  1.00  0.00    -0.200 F 
ATOM     84  C   UNL A   1      39.296  35.746  39.251  1.00  0.00     0.200 A 
ATOM     85  F   UNL A   1      37.868  34.163  40.266  1.00  0.00    -0.200 F 
ATOM     86  F   UNL A   1      39.194  36.547  40.320  1.00  0.00    -0.200 F 
ENDBRANCH  52  76
BRANCH  64  87
ATOM     87  C   UNL A   1      43.935  28.921  35.325  1.00  0.00     0.064 A 
ATOM     88  C   UNL A   1      45.234  29.391  35.082  1.00  0.00     0.173 A 
ATOM     89  C   UNL A   1      43.767  27.913  36.286  1.00  0.00     0.173 A 
ATOM     90  F   UNL A   1      45.446  30.343  34.161  1.00  0.00    -0.203 F 
ATOM     91  C   UNL A   1      46.325  28.854  35.758  1.00  0.00     0.198 A 
ATOM     92  C   UNL A   1      44.857  27.402  36.985  1.00  0.00     0.198 A 
ATOM     93  F   UNL A   1      42.544  27.437  36.562  1.00  0.00    -0.203 F 
ATOM     94  F   UNL A   1      47.563  29.283  35.475  1.00  0.00    -0.200 F 
ATOM     95  C   UNL A   1      46.135  27.867  36.714  1.00  0.00     0.200 A 
ATOM     96  F   UNL A   1      44.670  26.462  37.920  1.00  0.00    -0.200 F 
ATOM     97  F   UNL A   1      47.187  27.358  37.371  1.00  0.00    -0.200 F 
ENDBRANCH  64  87
ENDBRANCH  38  39
ENDBRANCH  30  33
ENDBRANCH  28  29
ENDBRANCH  27  28
ENDBRANCH   1  27
TORSDOF 15
ENDMDL
MODEL 2
REMARK VINA RESULT:     -13.6      0.822      7.450
REMARK SMILES C[NH2+][C@@]1(C(=O)NCCCCCCNC(=O)c2ccc(-c3c4nc(c(-c5c(F)c(F)c(F)c(F)c5F)c5ccc([nH]5)c(-c5c(F)c(F)c(F)c(F)c5F)c5nc(c(-c6c(F)c(F)c(F)c(F)c6F)c6ccc3[nH]6)C=C5)C=C4)cc2)CC[C@H]([NH+]2CC[NH+](C)CC2)C1
REMARK SMILES IDX 10 1 9 2 8 3 7 4 6 5 4 6 5 7 3 9 79 10 89 11 80 12 81 13
REMARK SMILES IDX 2 14 1 15 82 18 83 19 88 20 84 22 87 23 85 24 86 25 11 27
REMARK SMILES IDX 12 28 13 29 14 30 15 32 16 33 17 34 78 35 18 36 77 37 19 38
REMARK SMILES IDX 20 39 21 40 71 41 22 42 76 43 70 44 72 45 23 46 75 47 69 48
REMARK SMILES IDX 68 49 24 51 56 52 36 53 55 54 37 55 40 56 54 57 73 58 38 59
REMARK SMILES IDX 39 60 53 62 74 63 41 64 25 65 26 66 34 67 27 68 28 69 32 70
REMARK SMILES IDX 35 71 29 72 30 73 33 74 31 75 57 76 58 77 66 78 59 79 60 80
REMARK SMILES IDX 64 81 67 82 61 83 62 84 65 85 63 86 42 87 43 88 51 89 44 90
REMARK SMILES IDX 45 91 49 92 52 93 46 94 47 95 50 96 48 97
REMARK H PARENT 6 8 2 16 2 17 82 21 85 26 13 31 72 50 40 61
REMARK Flexibility Score: inf
ROOT
ATOM      1  C   UNL A   1      31.457  30.450  26.160  1.00  0.00     0.002 C 
ENDROOT
BRANCH   1   2
ATOM      2  C   UNL A   1      32.124  29.552  27.230  1.00  0.00     0.002 C 
BRANCH   2   3
ATOM      3  C   UNL A   1      32.079  27.841  27.089  1.00  0.00     0.021 C 
BRANCH   3   4
ATOM      4  C   UNL A   1      31.220  26.395  25.788  1.00  0.00     0.116 C 
BRANCH   4   5
ATOM      5  N   UNL A   1      31.871  25.261  24.846  1.00  0.00    -0.351 N 
ATOM      6  C   UNL A   1      32.156  23.937  24.842  1.00  0.00     0.281 C 
ATOM      7  O   UNL A   1      32.879  23.573  23.899  1.00  0.00    -0.268 OA
ATOM      8  H   UNL A   1      32.153  25.663  23.992  1.00  0.00     0.163 HD
BRANCH   6   9
ATOM      9  C   UNL A   1      31.652  22.895  25.877  1.00  0.00     0.181 C 
ATOM     10  C   UNL A   1      32.124  23.352  27.260  1.00  0.00     0.085 C 
ATOM     11  C   UNL A   1      32.256  21.496  25.679  1.00  0.00     0.144 C 
ATOM     12  C   UNL A   1      33.236  22.384  27.644  1.00  0.00     0.072 C 
ATOM     13  C   UNL A   1      33.603  21.553  26.380  1.00  0.00     0.191 C 
BRANCH   9  14
ATOM     14  N   UNL A   1      30.161  22.995  25.856  1.00  0.00    -0.336 N 
ATOM     15  C   UNL A   1      29.475  22.893  27.130  1.00  0.00     0.331 C 
ATOM     16  H   UNL A   1      29.919  23.898  25.447  1.00  0.00     0.346 HD
ATOM     17  H   UNL A   1      29.849  22.183  25.323  1.00  0.00     0.346 HD
ENDBRANCH   9  14
BRANCH  13  18
ATOM     18  N   UNL A   1      34.747  21.947  25.548  1.00  0.00    -0.323 N 
ATOM     19  C   UNL A   1      35.661  20.499  24.889  1.00  0.00     0.324 C 
ATOM     20  C   UNL A   1      35.696  23.525  25.882  1.00  0.00     0.324 C 
ATOM     21  H   UNL A   1      34.284  22.390  24.754  1.00  0.00     0.348 HD
ATOM     22  C   UNL A   1      37.592  20.405  25.054  1.00  0.00     0.324 C 
ATOM     23  C   UNL A   1      37.687  23.452  25.991  1.00  0.00     0.324 C 
ATOM     24  N   UNL A   1      38.560  21.938  25.354  1.00  0.00    -0.328 N 
ATOM     25  C   UNL A   1      39.807  21.645  26.044  1.00  0.00     0.333 C 
ATOM     26  H   UNL A   1      38.760  22.260  24.408  1.00  0.00     0.348 HD
ENDBRANCH  13  18
ENDBRANCH   6   9
ENDBRANCH   4   5
ENDBRANCH   3   4
ENDBRANCH   2   3
ENDBRANCH   1   2
BRANCH   1  27
ATOM     27  C   UNL A   1      31.396  31.936  26.498  1.00  0.00     0.021 C 
BRANCH  27  28
ATOM     28  C   UNL A   1      32.648  32.430  27.192  1.00  0.00     0.116 C 
BRANCH  28  29
ATOM     29  N   UNL A   1      32.521  33.846  27.501  1.00  0.00    -0.352 N 
ATOM     30  C   UNL A   1      33.119  34.507  28.543  1.00  0.00     0.251 C 
ATOM     31  H   UNL A   1      31.950  34.382  26.905  1.00  0.00     0.163 HD
ATOM     32  O   UNL A   1      32.688  35.572  28.964  1.00  0.00    -0.269 OA
BRANCH  30  33
ATOM     33  C   UNL A   1      34.319  33.888  29.137  1.00  0.00     0.039 A 
ATOM     34  C   UNL A   1      35.586  34.340  28.776  1.00  0.00     0.014 A 
ATOM     35  C   UNL A   1      34.156  32.881  30.096  1.00  0.00     0.014 A 
ATOM     36  C   UNL A   1      36.705  33.775  29.387  1.00  0.00     0.010 A 
ATOM     37  C   UNL A   1      35.262  32.390  30.769  1.00  0.00     0.010 A 
ATOM     38  C   UNL A   1      36.547  32.801  30.388  1.00  0.00    -0.014 A 
BRANCH  38  39
ATOM     39  C   UNL A   1      37.716  32.121  30.989  1.00  0.00     0.031 A 
ATOM     40  C   UNL A   1      38.152  32.509  32.376  1.00  0.00     0.074 A 
ATOM     41  C   UNL A   1      38.402  31.206  30.280  1.00  0.00     0.049 A 
ATOM     42  N   UNL A   1      39.177  32.087  33.072  1.00  0.00    -0.248 NA
ATOM     43  C   UNL A   1      37.350  33.540  33.058  1.00  0.00     0.031 C 
ATOM     44  C   UNL A   1      38.097  30.795  28.910  1.00  0.00     0.029 A 
ATOM     45  N   UNL A   1      39.502  30.461  30.617  1.00  0.00    -0.354 N 
ATOM     46  C   UNL A   1      39.149  32.813  34.256  1.00  0.00     0.074 A 
ATOM     47  C   UNL A   1      38.055  33.751  34.158  1.00  0.00     0.031 C 
ATOM     48  C   UNL A   1      38.971  29.848  28.533  1.00  0.00     0.029 A 
ATOM     49  C   UNL A   1      39.915  29.611  29.621  1.00  0.00     0.049 A 
ATOM     50  H   UNL A   1      39.953  30.528  31.489  1.00  0.00     0.167 HD
ATOM     51  C   UNL A   1      39.944  32.683  35.344  1.00  0.00     0.037 A 
ATOM     52  C   UNL A   1      40.940  28.740  29.598  1.00  0.00     0.037 A 
ATOM     53  C   UNL A   1      41.004  31.718  35.443  1.00  0.00     0.049 A 
ATOM     54  C   UNL A   1      41.804  28.606  30.824  1.00  0.00     0.074 A 
ATOM     55  C   UNL A   1      41.831  31.451  36.518  1.00  0.00     0.029 A 
ATOM     56  N   UNL A   1      41.378  30.855  34.422  1.00  0.00    -0.354 N 
ATOM     57  N   UNL A   1      41.725  29.244  31.967  1.00  0.00    -0.248 NA
ATOM     58  C   UNL A   1      42.894  27.622  30.760  1.00  0.00     0.031 C 
ATOM     59  C   UNL A   1      42.738  30.459  36.132  1.00  0.00     0.029 A 
ATOM     60  C   UNL A   1      42.440  30.070  34.835  1.00  0.00     0.049 A 
ATOM     61  H   UNL A   1      40.952  30.809  33.536  1.00  0.00     0.167 HD
ATOM     62  C   UNL A   1      42.732  28.722  32.767  1.00  0.00     0.074 A 
ATOM     63  C   UNL A   1      43.398  27.701  31.983  1.00  0.00     0.031 C 
ATOM     64  C   UNL A   1      43.078  29.055  34.036  1.00  0.00     0.037 A 
BRANCH  51  65
ATOM     65  C   UNL A   1      39.688  33.598  36.506  1.00  0.00     0.064 A 
ATOM     66  C   UNL A   1      38.829  33.236  37.555  1.00  0.00     0.173 A 
ATOM     67  C   UNL A   1      40.323  34.846  36.583  1.00  0.00     0.173 A 
ATOM     68  F   UNL A   1      38.182  32.061  37.524  1.00  0.00    -0.203 F 
ATOM     69  C   UNL A   1      38.591  34.101  38.620  1.00  0.00     0.198 A 
ATOM     70  C   UNL A   1      40.110  35.695  37.666  1.00  0.00     0.198 A 
ATOM     71  F   UNL A   1      41.157  35.243  35.609  1.00  0.00    -0.203 F 
ATOM     72  F   UNL A   1      37.721  33.757  39.580  1.00  0.00    -0.200 F 
ATOM     73  C   UNL A   1      39.237  35.327  38.678  1.00  0.00     0.200 A 
ATOM     74  F   UNL A   1      40.746  36.873  37.727  1.00  0.00    -0.200 F 
ATOM     75  F   UNL A   1      39.014  36.155  39.708  1.00  0.00    -0.200 F 
ENDBRANCH  51  65
BRANCH  52  76
ATOM     76  C   UNL A   1      41.182  27.906  28.392  1.00  0.00     0.064 A 
ATOM     77  C   UNL A   1      40.634  26.620  28.284  1.00  0.00     0.173 A 
ATOM     78  C   UNL A   1      41.962  28.374  27.324  1.00  0.00     0.173 A 
ATOM     79  F   UNL A   1      39.894  26.122  29.286  1.00  0.00    -0.203 F 
ATOM     80  C   UNL A   1      40.874  25.826  27.165  1.00  0.00     0.198 A 
ATOM     81  C   UNL A   1      42.177  27.589  26.192  1.00  0.00     0.198 A 
ATOM     82  F   UNL A   1      42.502  29.600  27.372  1.00  0.00    -0.203 F 
ATOM     83  F   UNL A   1      40.376  24.583  27.109  1.00  0.00    -0.200 F 
ATOM     84  C   UNL A   1      41.641  26.312  26.118  1.00  0.00     0.200 A 
ATOM     85  F   UNL A   1      42.904  28.070  25.175  1.00  0.00    -0.200 F 
ATOM     86  F   UNL A   1      41.868  25.549  25.040  1.00  0.00    -0.200 F 
ENDBRANCH  52  76
BRANCH  64  87
ATOM     87  C   UNL A   1      44.203  28.285  34.664  1.00  0.00     0.064 A 
ATOM     88  C   UNL A   1      43.978  27.079  35.345  1.00  0.00     0.173 A 
ATOM     89  C   UNL A   1      45.525  28.737  34.543  1.00  0.00     0.173 A 
ATOM     90  F   UNL A   1      42.730  26.614  35.499  1.00  0.00    -0.203 F 
ATOM     91  C   UNL A   1      45.035  26.368  35.904  1.00  0.00     0.198 A 
ATOM     92  C   UNL A   1      46.583  28.006  35.074  1.00  0.00     0.198 A 
ATOM     93  F   UNL A   1      45.793  29.879  33.892  1.00  0.00    -0.203 F 
ATOM     94  F   UNL A   1      44.793  25.244  36.593  1.00  0.00    -0.200 F 
ATOM     95  C   UNL A   1      46.336  26.827  35.761  1.00  0.00     0.200 A 
ATOM     96  F   UNL A   1      47.840  28.442  34.920  1.00  0.00    -0.200 F 
ATOM     97  F   UNL A   1      47.354  26.135  36.293  1.00  0.00    -0.200 F 
ENDBRANCH  64  87
ENDBRANCH  38  39
ENDBRANCH  30  33
ENDBRANCH  28  29
ENDBRANCH  27  28
ENDBRANCH   1  27
TORSDOF 15
ENDMDL
MODEL 3
REMARK VINA RESULT:     -13.4      6.059     11.085
REMARK SMILES C[NH2+][C@@]1(C(=O)NCCCCCCNC(=O)c2ccc(-c3c4nc(c(-c5c(F)c(F)c(F)c(F)c5F)c5ccc([nH]5)c(-c5c(F)c(F)c(F)c(F)c5F)c5nc(c(-c6c(F)c(F)c(F)c(F)c6F)c6ccc3[nH]6)C=C5)C=C4)cc2)CC[C@H]([NH+]2CC[NH+](C)CC2)C1
REMARK SMILES IDX 10 1 9 2 8 3 7 4 6 5 4 6 5 7 3 9 79 10 89 11 80 12 81 13
REMARK SMILES IDX 2 14 1 15 82 18 83 19 88 20 84 22 87 23 85 24 86 25 11 27
REMARK SMILES IDX 12 28 13 29 14 30 15 32 16 33 17 34 78 35 18 36 77 37 19 38
REMARK SMILES IDX 20 39 21 40 71 41 22 42 76 43 70 44 72 45 23 46 75 47 69 48
REMARK SMILES IDX 68 49 24 51 56 52 36 53 55 54 37 55 40 56 54 57 73 58 38 59
REMARK SMILES IDX 39 60 53 62 74 63 41 64 25 65 26 66 34 67 27 68 28 69 32 70
REMARK SMILES IDX 35 71 29 72 30 73 33 74 31 75 57 76 58 77 66 78 59 79 60 80
REMARK SMILES IDX 64 81 67 82 61 83 62 84 65 85 63 86 42 87 43 88 51 89 44 90
REMARK SMILES IDX 45 91 49 92 52 93 46 94 47 95 50 96 48 97
REMARK H PARENT 6 8 2 16 2 17 82 21 85 26 13 31 72 50 40 61
REMARK Flexibility Score: inf
ROOT
ATOM      1  C   UNL A   1      41.631  20.546  27.495  1.00  0.00     0.002 C 
ENDROOT
BRANCH   1   2
ATOM      2  C   UNL A   1      41.333  21.707  26.514  1.00  0.00     0.002 C 
BRANCH   2   3
ATOM      3  C   UNL A   1      39.844  22.559  26.592  1.00  0.00     0.021 C 
BRANCH   3   4
ATOM      4  C   UNL A   1      37.877  22.356  25.811  1.00  0.00     0.116 C 
BRANCH   4   5
ATOM      5  N   UNL A   1      36.423  22.434  26.501  1.00  0.00    -0.351 N 
ATOM      6  C   UNL A   1      35.116  22.224  26.218  1.00  0.00     0.281 C 
ATOM      7  O   UNL A   1      34.330  22.643  27.086  1.00  0.00    -0.268 OA
ATOM      8  H   UNL A   1      36.515  22.730  27.436  1.00  0.00     0.163 HD
BRANCH   6   9
ATOM      9  C   UNL A   1      34.560  21.517  24.951  1.00  0.00     0.181 C 
ATOM     10  C   UNL A   1      35.179  22.203  23.731  1.00  0.00     0.085 C 
ATOM     11  C   UNL A   1      33.041  21.669  24.783  1.00  0.00     0.144 C 
ATOM     12  C   UNL A   1      34.047  23.010  23.108  1.00  0.00     0.072 C 
ATOM     13  C   UNL A   1      32.860  23.023  24.116  1.00  0.00     0.191 C 
BRANCH   9  14
ATOM     14  N   UNL A   1      35.097  20.123  25.002  1.00  0.00    -0.336 N 
ATOM     15  C   UNL A   1      34.191  19.053  24.626  1.00  0.00     0.331 C 
ATOM     16  H   UNL A   1      35.901  20.079  24.376  1.00  0.00     0.346 HD
ATOM     17  H   UNL A   1      35.307  19.956  25.986  1.00  0.00     0.346 HD
ENDBRANCH   9  14
BRANCH  13  18
ATOM     18  N   UNL A   1      32.674  24.167  25.018  1.00  0.00    -0.323 N 
ATOM     19  C   UNL A   1      30.906  24.607  25.229  1.00  0.00     0.324 C 
ATOM     20  C   UNL A   1      33.954  25.527  25.142  1.00  0.00     0.324 C 
ATOM     21  H   UNL A   1      32.991  23.783  25.909  1.00  0.00     0.348 HD
ATOM     22  C   UNL A   1      30.327  26.449  25.032  1.00  0.00     0.324 C 
ATOM     23  C   UNL A   1      33.362  27.427  25.003  1.00  0.00     0.324 C 
ATOM     24  N   UNL A   1      31.552  27.812  25.175  1.00  0.00    -0.328 N 
ATOM     25  C   UNL A   1      31.125  28.982  24.421  1.00  0.00     0.333 C 
ATOM     26  H   UNL A   1      31.531  28.022  26.173  1.00  0.00     0.348 HD
ENDBRANCH  13  18
ENDBRANCH   6   9
ENDBRANCH   4   5
ENDBRANCH   3   4
ENDBRANCH   2   3
ENDBRANCH   1   2
BRANCH   1  27
ATOM     27  C   UNL A   1      42.349  19.345  26.889  1.00  0.00     0.021 C 
BRANCH  27  28
ATOM     28  C   UNL A   1      42.396  19.393  25.376  1.00  0.00     0.116 C 
BRANCH  28  29
ATOM     29  N   UNL A   1      43.650  18.832  24.898  1.00  0.00    -0.352 N 
ATOM     30  C   UNL A   1      44.729  19.536  24.429  1.00  0.00     0.251 C 
ATOM     31  H   UNL A   1      43.733  17.851  24.912  1.00  0.00     0.163 HD
ATOM     32  O   UNL A   1      45.574  19.020  23.710  1.00  0.00    -0.269 OA
BRANCH  30  33
ATOM     33  C   UNL A   1      44.843  20.950  24.835  1.00  0.00     0.039 A 
ATOM     34  C   UNL A   1      44.463  21.960  23.954  1.00  0.00     0.014 A 
ATOM     35  C   UNL A   1      45.293  21.249  26.126  1.00  0.00     0.014 A 
ATOM     36  C   UNL A   1      44.533  23.286  24.375  1.00  0.00     0.010 A 
ATOM     37  C   UNL A   1      45.270  22.559  26.574  1.00  0.00     0.010 A 
ATOM     38  C   UNL A   1      44.933  23.591  25.688  1.00  0.00    -0.014 A 
BRANCH  38  39
ATOM     39  C   UNL A   1      45.101  24.992  26.134  1.00  0.00     0.031 A 
ATOM     40  C   UNL A   1      46.460  25.631  26.038  1.00  0.00     0.074 A 
ATOM     41  C   UNL A   1      44.059  25.661  26.662  1.00  0.00     0.049 A 
ATOM     42  N   UNL A   1      46.846  26.820  26.422  1.00  0.00    -0.248 NA
ATOM     43  C   UNL A   1      47.540  24.806  25.470  1.00  0.00     0.031 C 
ATOM     44  C   UNL A   1      42.713  25.119  26.850  1.00  0.00     0.029 A 
ATOM     45  N   UNL A   1      43.974  26.942  27.141  1.00  0.00    -0.354 N 
ATOM     46  C   UNL A   1      48.208  26.874  26.158  1.00  0.00     0.074 A 
ATOM     47  C   UNL A   1      48.598  25.578  25.653  1.00  0.00     0.031 C 
ATOM     48  C   UNL A   1      41.928  26.072  27.376  1.00  0.00     0.029 A 
ATOM     49  C   UNL A   1      42.722  27.278  27.593  1.00  0.00     0.049 A 
ATOM     50  H   UNL A   1      44.738  27.562  27.160  1.00  0.00     0.167 HD
ATOM     51  C   UNL A   1      49.053  27.923  26.293  1.00  0.00     0.037 A 
ATOM     52  C   UNL A   1      42.274  28.432  28.120  1.00  0.00     0.037 A 
ATOM     53  C   UNL A   1      48.643  29.219  26.760  1.00  0.00     0.049 A 
ATOM     54  C   UNL A   1      43.230  29.588  28.249  1.00  0.00     0.074 A 
ATOM     55  C   UNL A   1      49.395  30.373  26.875  1.00  0.00     0.029 A 
ATOM     56  N   UNL A   1      47.359  29.530  27.186  1.00  0.00    -0.354 N 
ATOM     57  N   UNL A   1      44.499  29.653  27.930  1.00  0.00    -0.248 NA
ATOM     58  C   UNL A   1      42.686  30.836  28.804  1.00  0.00     0.031 C 
ATOM     59  C   UNL A   1      48.579  31.371  27.417  1.00  0.00     0.029 A 
ATOM     60  C   UNL A   1      47.304  30.853  27.586  1.00  0.00     0.049 A 
ATOM     61  H   UNL A   1      46.602  28.902  27.201  1.00  0.00     0.167 HD
ATOM     62  C   UNL A   1      44.901  30.951  28.216  1.00  0.00     0.074 A 
ATOM     63  C   UNL A   1      43.732  31.644  28.720  1.00  0.00     0.031 C 
ATOM     64  C   UNL A   1      46.124  31.520  28.077  1.00  0.00     0.037 A 
BRANCH  51  65
ATOM     65  C   UNL A   1      50.492  27.710  25.923  1.00  0.00     0.064 A 
ATOM     66  C   UNL A   1      50.937  27.823  24.596  1.00  0.00     0.173 A 
ATOM     67  C   UNL A   1      51.444  27.407  26.908  1.00  0.00     0.173 A 
ATOM     68  F   UNL A   1      50.067  28.094  23.611  1.00  0.00    -0.203 F 
ATOM     69  C   UNL A   1      52.273  27.608  24.266  1.00  0.00     0.198 A 
ATOM     70  C   UNL A   1      52.785  27.228  26.579  1.00  0.00     0.198 A 
ATOM     71  F   UNL A   1      51.074  27.290  28.192  1.00  0.00    -0.203 F 
ATOM     72  F   UNL A   1      52.663  27.665  22.985  1.00  0.00    -0.200 F 
ATOM     73  C   UNL A   1      53.197  27.319  25.258  1.00  0.00     0.200 A 
ATOM     74  F   UNL A   1      53.678  26.961  27.542  1.00  0.00    -0.200 F 
ATOM     75  F   UNL A   1      54.484  27.121  24.941  1.00  0.00    -0.200 F 
ENDBRANCH  51  65
BRANCH  52  76
ATOM     76  C   UNL A   1      40.851  28.561  28.528  1.00  0.00     0.064 A 
ATOM     77  C   UNL A   1      39.878  29.001  27.619  1.00  0.00     0.173 A 
ATOM     78  C   UNL A   1      40.432  28.248  29.829  1.00  0.00     0.173 A 
ATOM     79  F   UNL A   1      40.232  29.328  26.367  1.00  0.00    -0.203 F 
ATOM     80  C   UNL A   1      38.546  29.144  28.001  1.00  0.00     0.198 A 
ATOM     81  C   UNL A   1      39.094  28.363  30.202  1.00  0.00     0.198 A 
ATOM     82  F   UNL A   1      41.320  27.814  30.735  1.00  0.00    -0.203 F 
ATOM     83  F   UNL A   1      37.647  29.611  27.125  1.00  0.00    -0.200 F 
ATOM     84  C   UNL A   1      38.154  28.820  29.291  1.00  0.00     0.200 A 
ATOM     85  F   UNL A   1      38.716  28.032  31.444  1.00  0.00    -0.200 F 
ATOM     86  F   UNL A   1      36.872  28.954  29.657  1.00  0.00    -0.200 F 
ENDBRANCH  52  76
BRANCH  64  87
ATOM     87  C   UNL A   1      46.251  32.970  28.441  1.00  0.00     0.064 A 
ATOM     88  C   UNL A   1      46.024  33.987  27.501  1.00  0.00     0.173 A 
ATOM     89  C   UNL A   1      46.557  33.345  29.757  1.00  0.00     0.173 A 
ATOM     90  F   UNL A   1      45.743  33.678  26.227  1.00  0.00    -0.203 F 
ATOM     91  C   UNL A   1      46.126  35.327  27.862  1.00  0.00     0.198 A 
ATOM     92  C   UNL A   1      46.625  34.686  30.122  1.00  0.00     0.198 A 
ATOM     93  F   UNL A   1      46.772  32.411  30.695  1.00  0.00    -0.203 F 
ATOM     94  F   UNL A   1      45.955  36.282  26.937  1.00  0.00    -0.200 F 
ATOM     95  C   UNL A   1      46.418  35.675  29.172  1.00  0.00     0.200 A 
ATOM     96  F   UNL A   1      46.889  35.021  31.392  1.00  0.00    -0.200 F 
ATOM     97  F   UNL A   1      46.507  36.967  29.520  1.00  0.00    -0.200 F 
ENDBRANCH  64  87
ENDBRANCH  38  39
ENDBRANCH  30  33
ENDBRANCH  28  29
ENDBRANCH  27  28
ENDBRANCH   1  27
TORSDOF 15
ENDMDL
