MODEL 1
REMARK VINA RESULT:     -10.9      0.000      0.000
REMARK SMILES CCCC[C@@H](Sc1nc(OCCC2CCCCC2)cc(OCCC2CCCCC2)n1)C(=O)NCCCCCCNC(=O)c1ccc(-c2c3nc(c(-c4c(F)c(F)c(F)c(F)c4F)c4ccc([nH]4)c(-c4c(F)c(F)c(F)c(F)c4F)c4nc(c(-c5c(F)c(F)c(F)c(F)c5F)c5ccc2[nH]5)C=C4)C=C3)cc1
REMARK SMILES IDX 34 1 33 2 31 3 32 4 5 6 4 7 3 8 2 9 1 10 6 11 7 12 8 13
REMARK SMILES IDX 30 14 9 15 20 16 19 17 10 18 11 19 12 20 13 21 14 22 18 23
REMARK SMILES IDX 15 24 17 25 16 26 21 27 22 28 23 29 24 30 25 31 29 32 26 33
REMARK SMILES IDX 28 34 27 35 35 36 36 37 37 38 38 39 39 40 40 41 41 42 42 44
REMARK SMILES IDX 43 45 44 46 105 47 45 48 104 49 46 50 47 51 48 52 98 53
REMARK SMILES IDX 49 54 103 55 97 56 99 57 50 58 102 59 96 60 95 61 51 63
REMARK SMILES IDX 83 64 63 65 82 66 64 67 67 68 81 69 100 70 65 71 66 72 80 74
REMARK SMILES IDX 101 75 68 76 52 77 53 78 61 79 54 80 55 81 59 82 62 83 56 84
REMARK SMILES IDX 57 85 60 86 58 87 84 88 85 89 93 90 86 91 87 92 91 93 94 94
REMARK SMILES IDX 88 95 89 96 92 97 90 98 69 99 70 100 78 101 71 102 72 103
REMARK SMILES IDX 76 104 79 105 73 106 74 107 77 108 75 109
REMARK H PARENT 33 5 40 43 99 62 67 73
REMARK Flexibility Score: inf
ROOT
ATOM      1  C   UNL A   1      34.875  21.464  26.656  1.00  0.00     0.116 C 
ENDROOT
BRANCH   1   2
ATOM      2  N   UNL A   1      33.431  21.354  26.524  1.00  0.00    -0.355 N 
ATOM      3  C   UNL A   1      32.680  20.913  25.462  1.00  0.00     0.233 C 
ATOM      4  O   UNL A   1      31.452  20.911  25.578  1.00  0.00    -0.274 OA
ATOM      5  H   UNL A   1      32.914  21.635  27.313  1.00  0.00     0.163 HD
BRANCH   3   6
ATOM      6  C   UNL A   1      33.371  20.458  24.154  1.00  0.00     0.144 C 
BRANCH   6   7
ATOM      7  C   UNL A   1      33.806  18.985  24.387  1.00  0.00     0.025 C 
BRANCH   7   8
ATOM      8  C   UNL A   1      33.266  17.835  23.530  1.00  0.00     0.001 C 
BRANCH   8   9
ATOM      9  C   UNL A   1      33.408  16.421  24.087  1.00  0.00    -0.003 C 
ATOM     10  C   UNL A   1      34.617  16.267  24.992  1.00  0.00     0.004 C 
ENDBRANCH   8   9
ENDBRANCH   7   8
ENDBRANCH   6   7
BRANCH   6  11
ATOM     11  S   UNL A   1      32.153  21.018  22.852  1.00  0.00    -0.073 SA
BRANCH  11  12
ATOM     12  C   UNL A   1      31.936  22.735  23.084  1.00  0.00     0.195 A 
ATOM     13  N   UNL A   1      30.703  23.228  23.156  1.00  0.00    -0.187 NA
ATOM     14  N   UNL A   1      33.065  23.455  23.159  1.00  0.00    -0.187 NA
ATOM     15  C   UNL A   1      30.585  24.547  23.283  1.00  0.00     0.221 A 
ATOM     16  C   UNL A   1      32.924  24.776  23.249  1.00  0.00     0.221 A 
ATOM     17  C   UNL A   1      31.687  25.351  23.316  1.00  0.00     0.136 A 
BRANCH  15  18
ATOM     18  O   UNL A   1      29.291  24.983  23.394  1.00  0.00    -0.477 OA
BRANCH  18  19
ATOM     19  C   UNL A   1      29.041  26.290  23.916  1.00  0.00     0.231 C 
BRANCH  19  20
ATOM     20  C   UNL A   1      29.720  27.425  23.109  1.00  0.00     0.045 C 
BRANCH  20  21
ATOM     21  C   UNL A   1      29.160  28.814  23.431  1.00  0.00    -0.008 C 
ATOM     22  C   UNL A   1      30.114  30.001  23.309  1.00  0.00     0.004 C 
ATOM     23  C   UNL A   1      27.834  29.117  22.732  1.00  0.00     0.004 C 
ATOM     24  C   UNL A   1      29.466  31.212  24.008  1.00  0.00     0.000 C 
ATOM     25  C   UNL A   1      27.150  30.283  23.438  1.00  0.00     0.000 C 
ATOM     26  C   UNL A   1      28.054  31.513  23.496  1.00  0.00     0.000 C 
ENDBRANCH  20  21
ENDBRANCH  19  20
ENDBRANCH  18  19
ENDBRANCH  15  18
BRANCH  16  27
ATOM     27  O   UNL A   1      34.091  25.480  23.102  1.00  0.00    -0.477 OA
BRANCH  27  28
ATOM     28  C   UNL A   1      34.489  26.392  24.131  1.00  0.00     0.231 C 
BRANCH  28  29
ATOM     29  C   UNL A   1      33.929  27.836  24.009  1.00  0.00     0.045 C 
BRANCH  29  30
ATOM     30  C   UNL A   1      32.899  28.274  25.068  1.00  0.00    -0.008 C 
ATOM     31  C   UNL A   1      32.626  27.244  26.174  1.00  0.00     0.004 C 
ATOM     32  C   UNL A   1      33.266  29.597  25.759  1.00  0.00     0.004 C 
ATOM     33  C   UNL A   1      31.442  27.715  27.040  1.00  0.00     0.000 C 
ATOM     34  C   UNL A   1      32.056  30.134  26.516  1.00  0.00     0.000 C 
ATOM     35  C   UNL A   1      31.595  29.143  27.575  1.00  0.00     0.000 C 
ENDBRANCH  29  30
ENDBRANCH  28  29
ENDBRANCH  27  28
ENDBRANCH  16  27
ENDBRANCH  11  12
ENDBRANCH   6  11
ENDBRANCH   3   6
ENDBRANCH   1   2
BRANCH   1  36
ATOM     36  C   UNL A   1      35.410  22.645  25.857  1.00  0.00     0.021 C 
BRANCH  36  37
ATOM     37  C   UNL A   1      36.843  22.430  25.374  1.00  0.00     0.002 C 
BRANCH  37  38
ATOM     38  C   UNL A   1      37.008  21.266  24.389  1.00  0.00     0.002 C 
BRANCH  38  39
ATOM     39  C   UNL A   1      37.802  20.074  24.933  1.00  0.00     0.021 C 
BRANCH  39  40
ATOM     40  C   UNL A   1      38.964  20.463  25.840  1.00  0.00     0.116 C 
BRANCH  40  41
ATOM     41  N   UNL A   1      39.971  19.414  25.897  1.00  0.00    -0.352 N 
ATOM     42  C   UNL A   1      41.323  19.521  26.072  1.00  0.00     0.251 C 
ATOM     43  H   UNL A   1      39.629  18.496  25.796  1.00  0.00     0.163 HD
ATOM     44  O   UNL A   1      42.057  18.553  25.859  1.00  0.00    -0.269 OA
BRANCH  42  45
ATOM     45  C   UNL A   1      41.907  20.804  26.503  1.00  0.00     0.039 A 
ATOM     46  C   UNL A   1      42.333  21.713  25.533  1.00  0.00     0.014 A 
ATOM     47  C   UNL A   1      42.033  21.109  27.862  1.00  0.00     0.014 A 
ATOM     48  C   UNL A   1      42.834  22.955  25.926  1.00  0.00     0.010 A 
ATOM     49  C   UNL A   1      42.459  22.374  28.249  1.00  0.00     0.010 A 
ATOM     50  C   UNL A   1      42.865  23.309  27.286  1.00  0.00    -0.014 A 
BRANCH  50  51
ATOM     51  C   UNL A   1      43.301  24.661  27.711  1.00  0.00     0.031 A 
ATOM     52  C   UNL A   1      42.287  25.721  28.035  1.00  0.00     0.074 A 
ATOM     53  C   UNL A   1      44.616  24.951  27.743  1.00  0.00     0.049 A 
ATOM     54  N   UNL A   1      42.476  26.971  28.374  1.00  0.00    -0.248 NA
ATOM     55  C   UNL A   1      40.871  25.331  27.941  1.00  0.00     0.031 C 
ATOM     56  C   UNL A   1      45.693  24.021  27.400  1.00  0.00     0.029 A 
ATOM     57  N   UNL A   1      45.272  26.111  28.071  1.00  0.00    -0.354 N 
ATOM     58  C   UNL A   1      41.207  27.517  28.524  1.00  0.00     0.074 A 
ATOM     59  C   UNL A   1      40.258  26.480  28.185  1.00  0.00     0.031 C 
ATOM     60  C   UNL A   1      46.874  24.638  27.558  1.00  0.00     0.029 A 
ATOM     61  C   UNL A   1      46.638  26.018  27.971  1.00  0.00     0.049 A 
ATOM     62  H   UNL A   1      44.806  26.932  28.352  1.00  0.00     0.167 HD
ATOM     63  C   UNL A   1      40.869  28.764  28.930  1.00  0.00     0.037 A 
ATOM     64  C   UNL A   1      47.593  26.944  28.176  1.00  0.00     0.037 A 
ATOM     65  C   UNL A   1      41.821  29.787  29.279  1.00  0.00     0.049 A 
ATOM     66  C   UNL A   1      47.188  28.327  28.608  1.00  0.00     0.074 A 
ATOM     67  C   UNL A   1      41.580  31.060  29.765  1.00  0.00     0.029 A 
ATOM     68  N   UNL A   1      43.199  29.655  29.169  1.00  0.00    -0.354 N 
ATOM     69  N   UNL A   1      45.989  28.810  28.826  1.00  0.00    -0.248 NA
ATOM     70  C   UNL A   1      48.272  29.295  28.829  1.00  0.00     0.031 C 
ATOM     71  C   UNL A   1      42.808  31.720  29.889  1.00  0.00     0.029 A 
ATOM     72  C   UNL A   1      43.819  30.838  29.545  1.00  0.00     0.049 A 
ATOM     73  H   UNL A   1      43.667  28.842  28.870  1.00  0.00     0.167 HD
ATOM     74  C   UNL A   1      46.174  30.125  29.230  1.00  0.00     0.074 A 
ATOM     75  C   UNL A   1      47.603  30.357  29.249  1.00  0.00     0.031 C 
ATOM     76  C   UNL A   1      45.243  31.056  29.555  1.00  0.00     0.037 A 
BRANCH  63  77
ATOM     77  C   UNL A   1      39.406  29.097  29.012  1.00  0.00     0.064 A 
ATOM     78  C   UNL A   1      38.664  29.453  27.874  1.00  0.00     0.173 A 
ATOM     79  C   UNL A   1      38.727  29.021  30.237  1.00  0.00     0.173 A 
ATOM     80  F   UNL A   1      39.265  29.551  26.679  1.00  0.00    -0.203 F 
ATOM     81  C   UNL A   1      37.306  29.751  27.967  1.00  0.00     0.198 A 
ATOM     82  C   UNL A   1      37.362  29.286  30.321  1.00  0.00     0.198 A 
ATOM     83  F   UNL A   1      39.384  28.679  31.356  1.00  0.00    -0.203 F 
ATOM     84  F   UNL A   1      36.632  30.140  26.876  1.00  0.00    -0.200 F 
ATOM     85  C   UNL A   1      36.655  29.659  29.188  1.00  0.00     0.200 A 
ATOM     86  F   UNL A   1      36.731  29.181  31.499  1.00  0.00    -0.200 F 
ATOM     87  F   UNL A   1      35.347  29.937  29.273  1.00  0.00    -0.200 F 
ENDBRANCH  63  77
BRANCH  64  88
ATOM     88  C   UNL A   1      49.025  26.589  27.988  1.00  0.00     0.064 A 
ATOM     89  C   UNL A   1      49.854  26.327  29.087  1.00  0.00     0.173 A 
ATOM     90  C   UNL A   1      49.592  26.506  26.708  1.00  0.00     0.173 A 
ATOM     91  F   UNL A   1      49.363  26.414  30.332  1.00  0.00    -0.203 F 
ATOM     92  C   UNL A   1      51.202  26.019  28.914  1.00  0.00     0.198 A 
ATOM     93  C   UNL A   1      50.932  26.165  26.535  1.00  0.00     0.198 A 
ATOM     94  F   UNL A   1      48.841  26.742  25.623  1.00  0.00    -0.203 F 
ATOM     95  F   UNL A   1      51.984  25.823  29.984  1.00  0.00    -0.200 F 
ATOM     96  C   UNL A   1      51.739  25.931  27.639  1.00  0.00     0.200 A 
ATOM     97  F   UNL A   1      51.442  26.067  25.300  1.00  0.00    -0.200 F 
ATOM     98  F   UNL A   1      53.034  25.630  27.473  1.00  0.00    -0.200 F 
ENDBRANCH  64  88
BRANCH  76  99
ATOM     99  C   UNL A   1      45.742  32.407  29.983  1.00  0.00     0.064 A 
ATOM    100  C   UNL A   1      46.051  32.688  31.322  1.00  0.00     0.173 A 
ATOM    101  C   UNL A   1      45.947  33.423  29.036  1.00  0.00     0.173 A 
ATOM    102  F   UNL A   1      45.859  31.757  32.269  1.00  0.00    -0.203 F 
ATOM    103  C   UNL A   1      46.518  33.944  31.701  1.00  0.00     0.198 A 
ATOM    104  C   UNL A   1      46.448  34.665  29.413  1.00  0.00     0.198 A 
ATOM    105  F   UNL A   1      45.674  33.205  27.741  1.00  0.00    -0.203 F 
ATOM    106  F   UNL A   1      46.756  34.207  32.994  1.00  0.00    -0.200 F 
ATOM    107  C   UNL A   1      46.724  34.928  30.746  1.00  0.00     0.200 A 
ATOM    108  F   UNL A   1      46.661  35.609  28.486  1.00  0.00    -0.200 F 
ATOM    109  F   UNL A   1      47.182  36.133  31.112  1.00  0.00    -0.200 F 
ENDBRANCH  76  99
ENDBRANCH  50  51
ENDBRANCH  42  45
ENDBRANCH  40  41
ENDBRANCH  39  40
ENDBRANCH  38  39
ENDBRANCH  37  38
ENDBRANCH  36  37
ENDBRANCH   1  36
TORSDOF 26
ENDMDL
MODEL 2
REMARK VINA RESULT:     -10.7      4.452      9.075
REMARK SMILES CCCC[C@@H](Sc1nc(OCCC2CCCCC2)cc(OCCC2CCCCC2)n1)C(=O)NCCCCCCNC(=O)c1ccc(-c2c3nc(c(-c4c(F)c(F)c(F)c(F)c4F)c4ccc([nH]4)c(-c4c(F)c(F)c(F)c(F)c4F)c4nc(c(-c5c(F)c(F)c(F)c(F)c5F)c5ccc2[nH]5)C=C4)C=C3)cc1
REMARK SMILES IDX 34 1 33 2 31 3 32 4 5 6 4 7 3 8 2 9 1 10 6 11 7 12 8 13
REMARK SMILES IDX 30 14 9 15 20 16 19 17 10 18 11 19 12 20 13 21 14 22 18 23
REMARK SMILES IDX 15 24 17 25 16 26 21 27 22 28 23 29 24 30 25 31 29 32 26 33
REMARK SMILES IDX 28 34 27 35 35 36 36 37 37 38 38 39 39 40 40 41 41 42 42 44
REMARK SMILES IDX 43 45 44 46 105 47 45 48 104 49 46 50 47 51 48 52 98 53
REMARK SMILES IDX 49 54 103 55 97 56 99 57 50 58 102 59 96 60 95 61 51 63
REMARK SMILES IDX 83 64 63 65 82 66 64 67 67 68 81 69 100 70 65 71 66 72 80 74
REMARK SMILES IDX 101 75 68 76 52 77 53 78 61 79 54 80 55 81 59 82 62 83 56 84
REMARK SMILES IDX 57 85 60 86 58 87 84 88 85 89 93 90 86 91 87 92 91 93 94 94
REMARK SMILES IDX 88 95 89 96 92 97 90 98 69 99 70 100 78 101 71 102 72 103
REMARK SMILES IDX 76 104 79 105 73 106 74 107 77 108 75 109
REMARK H PARENT 33 5 40 43 99 62 67 73
REMARK Flexibility Score: inf
ROOT
ATOM      1  C   UNL A   1      38.314  23.594  26.583  1.00  0.00     0.116 C 
ENDROOT
BRANCH   1   2
ATOM      2  N   UNL A   1      38.585  22.269  26.047  1.00  0.00    -0.355 N 
ATOM      3  C   UNL A   1      37.748  21.406  25.382  1.00  0.00     0.233 C 
ATOM      4  O   UNL A   1      38.202  20.318  25.020  1.00  0.00    -0.274 OA
ATOM      5  H   UNL A   1      39.504  21.941  26.179  1.00  0.00     0.163 HD
BRANCH   3   6
ATOM      6  C   UNL A   1      36.272  21.794  25.125  1.00  0.00     0.144 C 
BRANCH   6   7
ATOM      7  C   UNL A   1      35.579  21.793  26.515  1.00  0.00     0.025 C 
BRANCH   7   8
ATOM      8  C   UNL A   1      34.593  22.890  26.930  1.00  0.00     0.001 C 
BRANCH   8   9
ATOM      9  C   UNL A   1      33.109  22.532  26.935  1.00  0.00    -0.003 C 
ATOM     10  C   UNL A   1      32.261  23.542  26.184  1.00  0.00     0.004 C 
ENDBRANCH   8   9
ENDBRANCH   7   8
ENDBRANCH   6   7
BRANCH   6  11
ATOM     11  S   UNL A   1      36.446  23.291  24.020  1.00  0.00    -0.073 SA
BRANCH  11  12
ATOM     12  C   UNL A   1      34.851  23.638  23.402  1.00  0.00     0.195 A 
ATOM     13  N   UNL A   1      34.079  22.633  23.000  1.00  0.00    -0.187 NA
ATOM     14  N   UNL A   1      34.517  24.936  23.362  1.00  0.00    -0.187 NA
ATOM     15  C   UNL A   1      32.892  22.947  22.490  1.00  0.00     0.221 A 
ATOM     16  C   UNL A   1      33.340  25.232  22.814  1.00  0.00     0.221 A 
ATOM     17  C   UNL A   1      32.501  24.250  22.370  1.00  0.00     0.136 A 
BRANCH  15  18
ATOM     18  O   UNL A   1      32.132  21.865  22.136  1.00  0.00    -0.477 OA
BRANCH  18  19
ATOM     19  C   UNL A   1      32.009  20.772  23.050  1.00  0.00     0.231 C 
BRANCH  19  20
ATOM     20  C   UNL A   1      32.232  19.385  22.399  1.00  0.00     0.045 C 
BRANCH  20  21
ATOM     21  C   UNL A   1      32.596  18.293  23.410  1.00  0.00    -0.008 C 
ATOM     22  C   UNL A   1      33.736  17.346  23.040  1.00  0.00     0.004 C 
ATOM     23  C   UNL A   1      32.774  18.816  24.837  1.00  0.00     0.004 C 
ATOM     24  C   UNL A   1      33.691  16.143  24.002  1.00  0.00     0.000 C 
ATOM     25  C   UNL A   1      32.685  17.647  25.813  1.00  0.00     0.000 C 
ATOM     26  C   UNL A   1      33.701  16.557  25.477  1.00  0.00     0.000 C 
ENDBRANCH  20  21
ENDBRANCH  19  20
ENDBRANCH  18  19
ENDBRANCH  15  18
BRANCH  16  27
ATOM     27  O   UNL A   1      33.138  26.570  22.595  1.00  0.00    -0.477 OA
BRANCH  27  28
ATOM     28  C   UNL A   1      31.828  27.030  22.250  1.00  0.00     0.231 C 
BRANCH  28  29
ATOM     29  C   UNL A   1      31.310  28.256  23.050  1.00  0.00     0.045 C 
BRANCH  29  30
ATOM     30  C   UNL A   1      31.726  28.345  24.532  1.00  0.00    -0.008 C 
ATOM     31  C   UNL A   1      31.448  29.696  25.206  1.00  0.00     0.004 C 
ATOM     32  C   UNL A   1      31.084  27.258  25.408  1.00  0.00     0.004 C 
ATOM     33  C   UNL A   1      32.093  29.720  26.605  1.00  0.00     0.000 C 
ATOM     34  C   UNL A   1      31.802  27.190  26.752  1.00  0.00     0.000 C 
ATOM     35  C   UNL A   1      31.711  28.523  27.483  1.00  0.00     0.000 C 
ENDBRANCH  29  30
ENDBRANCH  28  29
ENDBRANCH  27  28
ENDBRANCH  16  27
ENDBRANCH  11  12
ENDBRANCH   6  11
ENDBRANCH   3   6
ENDBRANCH   1   2
BRANCH   1  36
ATOM     36  C   UNL A   1      39.552  24.179  27.250  1.00  0.00     0.021 C 
BRANCH  36  37
ATOM     37  C   UNL A   1      39.876  25.589  26.758  1.00  0.00     0.002 C 
BRANCH  37  38
ATOM     38  C   UNL A   1      41.294  25.749  26.196  1.00  0.00     0.002 C 
BRANCH  38  39
ATOM     39  C   UNL A   1      41.953  24.444  25.740  1.00  0.00     0.021 C 
BRANCH  39  40
ATOM     40  C   UNL A   1      43.271  24.639  24.999  1.00  0.00     0.116 C 
BRANCH  40  41
ATOM     41  N   UNL A   1      44.300  23.735  25.491  1.00  0.00    -0.352 N 
ATOM     42  C   UNL A   1      45.014  23.789  26.656  1.00  0.00     0.251 C 
ATOM     43  H   UNL A   1      44.512  22.976  24.900  1.00  0.00     0.163 HD
ATOM     44  O   UNL A   1      46.011  23.080  26.809  1.00  0.00    -0.269 OA
BRANCH  42  45
ATOM     45  C   UNL A   1      44.597  24.710  27.729  1.00  0.00     0.039 A 
ATOM     46  C   UNL A   1      45.042  26.033  27.696  1.00  0.00     0.014 A 
ATOM     47  C   UNL A   1      43.768  24.268  28.765  1.00  0.00     0.014 A 
ATOM     48  C   UNL A   1      44.608  26.929  28.673  1.00  0.00     0.010 A 
ATOM     49  C   UNL A   1      43.276  25.180  29.692  1.00  0.00     0.010 A 
ATOM     50  C   UNL A   1      43.692  26.519  29.656  1.00  0.00    -0.014 A 
BRANCH  50  51
ATOM     51  C   UNL A   1      43.146  27.485  30.640  1.00  0.00     0.031 A 
ATOM     52  C   UNL A   1      43.800  27.658  31.981  1.00  0.00     0.074 A 
ATOM     53  C   UNL A   1      42.020  28.162  30.344  1.00  0.00     0.049 A 
ATOM     54  N   UNL A   1      43.440  28.415  32.986  1.00  0.00    -0.248 NA
ATOM     55  C   UNL A   1      45.007  26.855  32.236  1.00  0.00     0.031 C 
ATOM     56  C   UNL A   1      41.266  28.040  29.095  1.00  0.00     0.029 A 
ATOM     57  N   UNL A   1      41.307  29.080  31.074  1.00  0.00    -0.354 N 
ATOM     58  C   UNL A   1      44.366  28.172  33.993  1.00  0.00     0.074 A 
ATOM     59  C   UNL A   1      45.271  27.158  33.499  1.00  0.00     0.031 C 
ATOM     60  C   UNL A   1      40.211  28.868  29.136  1.00  0.00     0.029 A 
ATOM     61  C   UNL A   1      40.188  29.547  30.428  1.00  0.00     0.049 A 
ATOM     62  H   UNL A   1      41.572  29.375  31.974  1.00  0.00     0.167 HD
ATOM     63  C   UNL A   1      44.463  28.761  35.209  1.00  0.00     0.037 A 
ATOM     64  C   UNL A   1      39.245  30.416  30.835  1.00  0.00     0.037 A 
ATOM     65  C   UNL A   1      43.565  29.781  35.688  1.00  0.00     0.049 A 
ATOM     66  C   UNL A   1      39.366  31.040  32.199  1.00  0.00     0.074 A 
ATOM     67  C   UNL A   1      43.617  30.486  36.877  1.00  0.00     0.029 A 
ATOM     68  N   UNL A   1      42.445  30.232  35.003  1.00  0.00    -0.354 N 
ATOM     69  N   UNL A   1      40.291  30.865  33.111  1.00  0.00    -0.248 NA
ATOM     70  C   UNL A   1      38.314  31.990  32.588  1.00  0.00     0.031 C 
ATOM     71  C   UNL A   1      42.495  31.319  36.940  1.00  0.00     0.029 A 
ATOM     72  C   UNL A   1      41.778  31.182  35.762  1.00  0.00     0.049 A 
ATOM     73  H   UNL A   1      42.166  29.925  34.111  1.00  0.00     0.167 HD
ATOM     74  C   UNL A   1      39.947  31.696  34.169  1.00  0.00     0.074 A 
ATOM     75  C   UNL A   1      38.741  32.392  33.776  1.00  0.00     0.031 C 
ATOM     76  C   UNL A   1      40.574  31.864  35.359  1.00  0.00     0.037 A 
BRANCH  63  77
ATOM     77  C   UNL A   1      45.575  28.311  36.113  1.00  0.00     0.064 A 
ATOM     78  C   UNL A   1      46.850  28.898  36.064  1.00  0.00     0.173 A 
ATOM     79  C   UNL A   1      45.353  27.310  37.070  1.00  0.00     0.173 A 
ATOM     80  F   UNL A   1      47.120  29.852  35.161  1.00  0.00    -0.203 F 
ATOM     81  C   UNL A   1      47.869  28.474  36.916  1.00  0.00     0.198 A 
ATOM     82  C   UNL A   1      46.364  26.913  37.944  1.00  0.00     0.198 A 
ATOM     83  F   UNL A   1      44.152  26.719  37.167  1.00  0.00    -0.203 F 
ATOM     84  F   UNL A   1      49.092  29.012  36.812  1.00  0.00    -0.200 F 
ATOM     85  C   UNL A   1      47.622  27.489  37.860  1.00  0.00     0.200 A 
ATOM     86  F   UNL A   1      46.119  25.971  38.866  1.00  0.00    -0.200 F 
ATOM     87  F   UNL A   1      48.600  27.090  38.684  1.00  0.00    -0.200 F 
ENDBRANCH  63  77
BRANCH  64  88
ATOM     88  C   UNL A   1      38.110  30.755  29.937  1.00  0.00     0.064 A 
ATOM     89  C   UNL A   1      37.073  29.840  29.707  1.00  0.00     0.173 A 
ATOM     90  C   UNL A   1      38.040  31.997  29.288  1.00  0.00     0.173 A 
ATOM     91  F   UNL A   1      37.105  28.632  30.288  1.00  0.00    -0.203 F 
ATOM     92  C   UNL A   1      36.021  30.146  28.845  1.00  0.00     0.198 A 
ATOM     93  C   UNL A   1      36.970  32.314  28.453  1.00  0.00     0.198 A 
ATOM     94  F   UNL A   1      39.003  32.910  29.478  1.00  0.00    -0.203 F 
ATOM     95  F   UNL A   1      35.070  29.234  28.605  1.00  0.00    -0.200 F 
ATOM     96  C   UNL A   1      35.967  31.385  28.224  1.00  0.00     0.200 A 
ATOM     97  F   UNL A   1      36.915  33.518  27.867  1.00  0.00    -0.200 F 
ATOM     98  F   UNL A   1      34.953  31.680  27.400  1.00  0.00    -0.200 F 
ENDBRANCH  64  88
BRANCH  76  99
ATOM     99  C   UNL A   1      39.980  32.861  36.315  1.00  0.00     0.064 A 
ATOM    100  C   UNL A   1      38.984  32.498  37.233  1.00  0.00     0.173 A 
ATOM    101  C   UNL A   1      40.438  34.188  36.334  1.00  0.00     0.173 A 
ATOM    102  F   UNL A   1      38.500  31.247  37.245  1.00  0.00    -0.203 F 
ATOM    103  C   UNL A   1      38.448  33.433  38.116  1.00  0.00     0.198 A 
ATOM    104  C   UNL A   1      39.926  35.110  37.242  1.00  0.00     0.198 A 
ATOM    105  F   UNL A   1      41.394  34.586  35.482  1.00  0.00    -0.203 F 
ATOM    106  F   UNL A   1      37.459  33.076  38.947  1.00  0.00    -0.200 F 
ATOM    107  C   UNL A   1      38.925  34.735  38.125  1.00  0.00     0.200 A 
ATOM    108  F   UNL A   1      40.400  36.363  37.261  1.00  0.00    -0.200 F 
ATOM    109  F   UNL A   1      38.414  35.630  38.981  1.00  0.00    -0.200 F 
ENDBRANCH  76  99
ENDBRANCH  50  51
ENDBRANCH  42  45
ENDBRANCH  40  41
ENDBRANCH  39  40
ENDBRANCH  38  39
ENDBRANCH  37  38
ENDBRANCH  36  37
ENDBRANCH   1  36
TORSDOF 26
ENDMDL
MODEL 3
REMARK VINA RESULT:     -10.7      1.797      3.760
REMARK SMILES CCCC[C@@H](Sc1nc(OCCC2CCCCC2)cc(OCCC2CCCCC2)n1)C(=O)NCCCCCCNC(=O)c1ccc(-c2c3nc(c(-c4c(F)c(F)c(F)c(F)c4F)c4ccc([nH]4)c(-c4c(F)c(F)c(F)c(F)c4F)c4nc(c(-c5c(F)c(F)c(F)c(F)c5F)c5ccc2[nH]5)C=C4)C=C3)cc1
REMARK SMILES IDX 34 1 33 2 31 3 32 4 5 6 4 7 3 8 2 9 1 10 6 11 7 12 8 13
REMARK SMILES IDX 30 14 9 15 20 16 19 17 10 18 11 19 12 20 13 21 14 22 18 23
REMARK SMILES IDX 15 24 17 25 16 26 21 27 22 28 23 29 24 30 25 31 29 32 26 33
REMARK SMILES IDX 28 34 27 35 35 36 36 37 37 38 38 39 39 40 40 41 41 42 42 44
REMARK SMILES IDX 43 45 44 46 105 47 45 48 104 49 46 50 47 51 48 52 98 53
REMARK SMILES IDX 49 54 103 55 97 56 99 57 50 58 102 59 96 60 95 61 51 63
REMARK SMILES IDX 83 64 63 65 82 66 64 67 67 68 81 69 100 70 65 71 66 72 80 74
REMARK SMILES IDX 101 75 68 76 52 77 53 78 61 79 54 80 55 81 59 82 62 83 56 84
REMARK SMILES IDX 57 85 60 86 58 87 84 88 85 89 93 90 86 91 87 92 91 93 94 94
REMARK SMILES IDX 88 95 89 96 92 97 90 98 69 99 70 100 78 101 71 102 72 103
REMARK SMILES IDX 76 104 79 105 73 106 74 107 77 108 75 109
REMARK H PARENT 33 5 40 43 99 62 67 73
REMARK Flexibility Score: inf
ROOT
ATOM      1  C   UNL A   1      36.067  23.091  24.618  1.00  0.00     0.116 C 
ENDROOT
BRANCH   1   2
ATOM      2  N   UNL A   1      35.428  23.683  23.453  1.00  0.00    -0.355 N 
ATOM      3  C   UNL A   1      34.114  24.034  23.259  1.00  0.00     0.233 C 
ATOM      4  O   UNL A   1      33.797  24.524  22.172  1.00  0.00    -0.274 OA
ATOM      5  H   UNL A   1      36.024  23.859  22.690  1.00  0.00     0.163 HD
BRANCH   3   6
ATOM      6  C   UNL A   1      33.069  23.793  24.375  1.00  0.00     0.144 C 
BRANCH   6   7
ATOM      7  C   UNL A   1      33.122  22.274  24.692  1.00  0.00     0.025 C 
BRANCH   7   8
ATOM      8  C   UNL A   1      32.287  21.253  23.911  1.00  0.00     0.001 C 
BRANCH   8   9
ATOM      9  C   UNL A   1      32.832  19.830  23.816  1.00  0.00    -0.003 C 
ATOM     10  C   UNL A   1      32.903  19.140  25.167  1.00  0.00     0.004 C 
ENDBRANCH   8   9
ENDBRANCH   7   8
ENDBRANCH   6   7
BRANCH   6  11
ATOM     11  S   UNL A   1      33.474  25.153  25.592  1.00  0.00    -0.073 SA
BRANCH  11  12
ATOM     12  C   UNL A   1      32.712  26.602  24.986  1.00  0.00     0.195 A 
ATOM     13  N   UNL A   1      33.150  27.787  25.401  1.00  0.00    -0.187 NA
ATOM     14  N   UNL A   1      31.696  26.406  24.132  1.00  0.00    -0.187 NA
ATOM     15  C   UNL A   1      32.506  28.861  24.953  1.00  0.00     0.221 A 
ATOM     16  C   UNL A   1      31.043  27.492  23.724  1.00  0.00     0.221 A 
ATOM     17  C   UNL A   1      31.431  28.740  24.119  1.00  0.00     0.136 A 
BRANCH  15  18
ATOM     18  O   UNL A   1      33.035  30.048  25.384  1.00  0.00    -0.477 OA
BRANCH  18  19
ATOM     19  C   UNL A   1      33.381  30.195  26.764  1.00  0.00     0.231 C 
BRANCH  19  20
ATOM     20  C   UNL A   1      32.743  31.433  27.440  1.00  0.00     0.045 C 
BRANCH  20  21
ATOM     21  C   UNL A   1      33.768  32.494  27.850  1.00  0.00    -0.008 C 
ATOM     22  C   UNL A   1      33.266  33.928  28.016  1.00  0.00     0.004 C 
ATOM     23  C   UNL A   1      34.629  32.085  29.046  1.00  0.00     0.004 C 
ATOM     24  C   UNL A   1      34.490  34.862  28.071  1.00  0.00     0.000 C 
ATOM     25  C   UNL A   1      35.873  32.965  29.092  1.00  0.00     0.000 C 
ATOM     26  C   UNL A   1      35.511  34.448  29.136  1.00  0.00     0.000 C 
ENDBRANCH  20  21
ENDBRANCH  19  20
ENDBRANCH  18  19
ENDBRANCH  15  18
BRANCH  16  27
ATOM     27  O   UNL A   1      29.887  27.231  23.034  1.00  0.00    -0.477 OA
BRANCH  27  28
ATOM     28  C   UNL A   1      28.632  27.325  23.715  1.00  0.00     0.231 C 
BRANCH  28  29
ATOM     29  C   UNL A   1      27.624  28.354  23.134  1.00  0.00     0.045 C 
BRANCH  29  30
ATOM     30  C   UNL A   1      28.180  29.747  22.779  1.00  0.00    -0.008 C 
ATOM     31  C   UNL A   1      27.981  30.174  21.318  1.00  0.00     0.004 C 
ATOM     32  C   UNL A   1      27.613  30.869  23.662  1.00  0.00     0.004 C 
ATOM     33  C   UNL A   1      28.755  31.478  21.048  1.00  0.00     0.000 C 
ATOM     34  C   UNL A   1      28.454  32.130  23.496  1.00  0.00     0.000 C 
ATOM     35  C   UNL A   1      28.447  32.599  22.047  1.00  0.00     0.000 C 
ENDBRANCH  29  30
ENDBRANCH  28  29
ENDBRANCH  27  28
ENDBRANCH  16  27
ENDBRANCH  11  12
ENDBRANCH   6  11
ENDBRANCH   3   6
ENDBRANCH   1   2
BRANCH   1  36
ATOM     36  C   UNL A   1      36.970  21.932  24.219  1.00  0.00     0.021 C 
BRANCH  36  37
ATOM     37  C   UNL A   1      36.655  20.648  24.984  1.00  0.00     0.002 C 
BRANCH  37  38
ATOM     38  C   UNL A   1      37.786  19.612  24.968  1.00  0.00     0.002 C 
BRANCH  38  39
ATOM     39  C   UNL A   1      39.173  20.173  25.292  1.00  0.00     0.021 C 
BRANCH  39  40
ATOM     40  C   UNL A   1      39.852  19.505  26.483  1.00  0.00     0.116 C 
BRANCH  40  41
ATOM     41  N   UNL A   1      41.092  18.851  26.093  1.00  0.00    -0.352 N 
ATOM     42  C   UNL A   1      42.312  19.403  25.818  1.00  0.00     0.251 C 
ATOM     43  H   UNL A   1      41.046  17.870  26.017  1.00  0.00     0.163 HD
ATOM     44  O   UNL A   1      43.192  18.732  25.274  1.00  0.00    -0.269 OA
BRANCH  42  45
ATOM     45  C   UNL A   1      42.572  20.814  26.160  1.00  0.00     0.039 A 
ATOM     46  C   UNL A   1      42.721  21.169  27.502  1.00  0.00     0.014 A 
ATOM     47  C   UNL A   1      42.667  21.784  25.157  1.00  0.00     0.014 A 
ATOM     48  C   UNL A   1      43.025  22.489  27.835  1.00  0.00     0.010 A 
ATOM     49  C   UNL A   1      43.044  23.081  25.485  1.00  0.00     0.010 A 
ATOM     50  C   UNL A   1      43.225  23.447  26.827  1.00  0.00    -0.014 A 
BRANCH  50  51
ATOM     51  C   UNL A   1      43.646  24.829  27.163  1.00  0.00     0.031 A 
ATOM     52  C   UNL A   1      42.654  25.813  27.716  1.00  0.00     0.074 A 
ATOM     53  C   UNL A   1      44.911  25.214  26.908  1.00  0.00     0.049 A 
ATOM     54  N   UNL A   1      42.823  27.075  28.021  1.00  0.00    -0.248 NA
ATOM     55  C   UNL A   1      41.284  25.320  27.932  1.00  0.00     0.031 C 
ATOM     56  C   UNL A   1      45.950  24.364  26.324  1.00  0.00     0.029 A 
ATOM     57  N   UNL A   1      45.537  26.420  27.098  1.00  0.00    -0.354 N 
ATOM     58  C   UNL A   1      41.583  27.527  28.454  1.00  0.00     0.074 A 
ATOM     59  C   UNL A   1      40.659  26.422  28.319  1.00  0.00     0.031 C 
ATOM     60  C   UNL A   1      47.089  25.066  26.225  1.00  0.00     0.029 A 
ATOM     61  C   UNL A   1      46.851  26.427  26.697  1.00  0.00     0.049 A 
ATOM     62  H   UNL A   1      45.087  27.206  27.485  1.00  0.00     0.167 HD
ATOM     63  C   UNL A   1      41.254  28.748  28.940  1.00  0.00     0.037 A 
ATOM     64  C   UNL A   1      47.758  27.421  26.699  1.00  0.00     0.037 A 
ATOM     65  C   UNL A   1      42.183  29.838  29.084  1.00  0.00     0.049 A 
ATOM     66  C   UNL A   1      47.360  28.773  27.227  1.00  0.00     0.074 A 
ATOM     67  C   UNL A   1      41.965  31.092  29.627  1.00  0.00     0.029 A 
ATOM     68  N   UNL A   1      43.508  29.807  28.672  1.00  0.00    -0.354 N 
ATOM     69  N   UNL A   1      46.207  29.167  27.710  1.00  0.00    -0.248 NA
ATOM     70  C   UNL A   1      48.394  29.818  27.216  1.00  0.00     0.031 C 
ATOM     71  C   UNL A   1      43.138  31.840  29.486  1.00  0.00     0.029 A 
ATOM     72  C   UNL A   1      44.109  31.033  28.916  1.00  0.00     0.049 A 
ATOM     73  H   UNL A   1      43.956  29.030  28.266  1.00  0.00     0.167 HD
ATOM     74  C   UNL A   1      46.382  30.493  28.081  1.00  0.00     0.074 A 
ATOM     75  C   UNL A   1      47.758  30.830  27.787  1.00  0.00     0.031 C 
ATOM     76  C   UNL A   1      45.481  31.355  28.614  1.00  0.00     0.037 A 
BRANCH  63  77
ATOM     77  C   UNL A   1      39.825  28.973  29.347  1.00  0.00     0.064 A 
ATOM     78  C   UNL A   1      38.838  29.328  28.414  1.00  0.00     0.173 A 
ATOM     79  C   UNL A   1      39.429  28.793  30.681  1.00  0.00     0.173 A 
ATOM     80  F   UNL A   1      39.164  29.523  27.128  1.00  0.00    -0.203 F 
ATOM     81  C   UNL A   1      37.515  29.525  28.807  1.00  0.00     0.198 A 
ATOM     82  C   UNL A   1      38.099  28.957  31.065  1.00  0.00     0.198 A 
ATOM     83  F   UNL A   1      40.328  28.447  31.615  1.00  0.00    -0.203 F 
ATOM     84  F   UNL A   1      36.603  29.916  27.907  1.00  0.00    -0.200 F 
ATOM     85  C   UNL A   1      37.147  29.332  30.130  1.00  0.00     0.200 A 
ATOM     86  F   UNL A   1      37.741  28.754  32.340  1.00  0.00    -0.200 F 
ATOM     87  F   UNL A   1      35.873  29.513  30.505  1.00  0.00    -0.200 F 
ENDBRANCH  63  77
BRANCH  64  88
ATOM     88  C   UNL A   1      49.135  27.171  26.196  1.00  0.00     0.064 A 
ATOM     89  C   UNL A   1      49.445  27.322  24.837  1.00  0.00     0.173 A 
ATOM     90  C   UNL A   1      50.166  26.774  27.060  1.00  0.00     0.173 A 
ATOM     91  F   UNL A   1      48.489  27.679  23.968  1.00  0.00    -0.203 F 
ATOM     92  C   UNL A   1      50.728  27.063  24.359  1.00  0.00     0.198 A 
ATOM     93  C   UNL A   1      51.456  26.548  26.586  1.00  0.00     0.198 A 
ATOM     94  F   UNL A   1      49.924  26.619  28.370  1.00  0.00    -0.203 F 
ATOM     95  F   UNL A   1      50.984  27.166  23.048  1.00  0.00    -0.200 F 
ATOM     96  C   UNL A   1      51.735  26.683  25.234  1.00  0.00     0.200 A 
ATOM     97  F   UNL A   1      52.429  26.195  27.438  1.00  0.00    -0.200 F 
ATOM     98  F   UNL A   1      52.969  26.439  24.774  1.00  0.00    -0.200 F 
ENDBRANCH  64  88
BRANCH  76  99
ATOM     99  C   UNL A   1      45.964  32.741  28.939  1.00  0.00     0.064 A 
ATOM    100  C   UNL A   1      46.482  33.063  30.202  1.00  0.00     0.173 A 
ATOM    101  C   UNL A   1      45.939  33.749  27.963  1.00  0.00     0.173 A 
ATOM    102  F   UNL A   1      46.514  32.140  31.175  1.00  0.00    -0.203 F 
ATOM    103  C   UNL A   1      46.930  34.351  30.485  1.00  0.00     0.198 A 
ATOM    104  C   UNL A   1      46.421  35.025  28.239  1.00  0.00     0.198 A 
ATOM    105  F   UNL A   1      45.460  33.493  26.737  1.00  0.00    -0.203 F 
ATOM    106  F   UNL A   1      47.371  34.650  31.714  1.00  0.00    -0.200 F 
ATOM    107  C   UNL A   1      46.907  35.328  29.501  1.00  0.00     0.200 A 
ATOM    108  F   UNL A   1      46.414  35.963  27.281  1.00  0.00    -0.200 F 
ATOM    109  F   UNL A   1      47.348  36.564  29.772  1.00  0.00    -0.200 F 
ENDBRANCH  76  99
ENDBRANCH  50  51
ENDBRANCH  42  45
ENDBRANCH  40  41
ENDBRANCH  39  40
ENDBRANCH  38  39
ENDBRANCH  37  38
ENDBRANCH  36  37
ENDBRANCH   1  36
TORSDOF 26
ENDMDL
