MODEL 1
REMARK VINA RESULT:     -12.3      0.000      0.000
REMARK SMILES C[C@@H](Oc1ccc(Oc2ccccc2)cc1)C(=O)NCCCCCCNC(=O)c1ccc(-c2c3nc(c(-c4c(F)c(F)c(F)c(F)c4F)c4ccc([nH]4)c(-c4c(F)c(F)c(F)c(F)c4F)c4nc(c(-c5c(F)c(F)c(F)c(F)c5F)c5ccc2[nH]5)C=C4)C=C3)cc1
REMARK SMILES IDX 21 1 20 2 19 3 17 4 18 5 2 7 1 8 3 9 4 10 5 11 16 12 6 13
REMARK SMILES IDX 15 14 7 15 8 16 9 17 10 18 14 19 11 20 13 21 12 22 22 23
REMARK SMILES IDX 23 24 24 25 25 26 26 27 27 28 28 30 29 31 30 32 91 33 31 34
REMARK SMILES IDX 90 35 32 36 33 37 34 38 84 39 35 40 89 41 83 42 85 43 36 44
REMARK SMILES IDX 88 45 82 46 81 47 37 49 69 50 49 51 68 52 50 53 53 54 67 55
REMARK SMILES IDX 86 56 51 57 52 58 66 60 87 61 54 62 38 63 39 64 47 65 40 66
REMARK SMILES IDX 41 67 45 68 48 69 42 70 43 71 46 72 44 73 70 74 71 75 79 76
REMARK SMILES IDX 72 77 73 78 77 79 80 80 74 81 75 82 78 83 76 84 55 85 56 86
REMARK SMILES IDX 64 87 57 88 58 89 62 90 65 91 59 92 60 93 63 94 61 95
REMARK H PARENT 19 6 26 29 85 48 53 59
REMARK Flexibility Score: inf
ROOT
ATOM      1  C   UNL A   1      32.256  28.663  27.565  1.00  0.00     0.021 C 
ENDROOT
BRANCH   1   2
ATOM      2  C   UNL A   1      31.370  27.819  26.654  1.00  0.00     0.116 C 
BRANCH   2   3
ATOM      3  N   UNL A   1      31.602  26.397  26.846  1.00  0.00    -0.353 N 
ATOM      4  C   UNL A   1      32.243  25.502  26.032  1.00  0.00     0.260 C 
ATOM      5  O   UNL A   1      32.319  24.329  26.404  1.00  0.00    -0.271 OA
ATOM      6  H   UNL A   1      31.247  26.023  27.686  1.00  0.00     0.163 HD
BRANCH   4   7
ATOM      7  C   UNL A   1      32.780  25.944  24.663  1.00  0.00     0.258 C 
ATOM      8  C   UNL A   1      34.223  25.448  24.552  1.00  0.00     0.064 C 
BRANCH   7   9
ATOM      9  O   UNL A   1      31.840  25.441  23.703  1.00  0.00    -0.481 OA
BRANCH   9  10
ATOM     10  C   UNL A   1      30.726  26.179  23.452  1.00  0.00     0.120 A 
ATOM     11  C   UNL A   1      30.901  27.416  22.833  1.00  0.00     0.050 A 
ATOM     12  C   UNL A   1      29.480  25.837  23.960  1.00  0.00     0.050 A 
ATOM     13  C   UNL A   1      29.820  28.295  22.701  1.00  0.00     0.051 A 
ATOM     14  C   UNL A   1      28.393  26.692  23.794  1.00  0.00     0.051 A 
ATOM     15  C   UNL A   1      28.560  27.939  23.189  1.00  0.00     0.127 A 
BRANCH  15  16
ATOM     16  O   UNL A   1      27.568  28.890  23.044  1.00  0.00    -0.457 OA
BRANCH  16  17
ATOM     17  C   UNL A   1      27.947  30.166  22.702  1.00  0.00     0.127 A 
ATOM     18  C   UNL A   1      27.935  30.509  21.352  1.00  0.00     0.047 A 
ATOM     19  C   UNL A   1      28.352  31.093  23.667  1.00  0.00     0.047 A 
ATOM     20  C   UNL A   1      28.260  31.810  20.969  1.00  0.00     0.004 A 
ATOM     21  C   UNL A   1      28.653  32.399  23.283  1.00  0.00     0.004 A 
ATOM     22  C   UNL A   1      28.601  32.758  21.936  1.00  0.00     0.000 A 
ENDBRANCH  16  17
ENDBRANCH  15  16
ENDBRANCH   9  10
ENDBRANCH   7   9
ENDBRANCH   4   7
ENDBRANCH   2   3
ENDBRANCH   1   2
BRANCH   1  23
ATOM     23  C   UNL A   1      32.607  30.039  26.996  1.00  0.00     0.002 C 
BRANCH  23  24
ATOM     24  C   UNL A   1      31.459  30.752  26.274  1.00  0.00     0.002 C 
BRANCH  24  25
ATOM     25  C   UNL A   1      31.375  32.260  26.521  1.00  0.00     0.021 C 
BRANCH  25  26
ATOM     26  C   UNL A   1      32.571  32.847  27.263  1.00  0.00     0.116 C 
BRANCH  26  27
ATOM     27  N   UNL A   1      32.362  34.243  27.617  1.00  0.00    -0.352 N 
ATOM     28  C   UNL A   1      32.964  34.990  28.596  1.00  0.00     0.251 C 
ATOM     29  H   UNL A   1      31.693  34.720  27.074  1.00  0.00     0.163 HD
ATOM     30  O   UNL A   1      32.524  36.100  28.887  1.00  0.00    -0.269 OA
BRANCH  28  31
ATOM     31  C   UNL A   1      34.135  34.451  29.317  1.00  0.00     0.039 A 
ATOM     32  C   UNL A   1      33.936  33.791  30.533  1.00  0.00     0.014 A 
ATOM     33  C   UNL A   1      35.425  34.603  28.802  1.00  0.00     0.014 A 
ATOM     34  C   UNL A   1      35.027  33.231  31.202  1.00  0.00     0.010 A 
ATOM     35  C   UNL A   1      36.499  33.978  29.429  1.00  0.00     0.010 A 
ATOM     36  C   UNL A   1      36.312  33.292  30.639  1.00  0.00    -0.014 A 
BRANCH  36  37
ATOM     37  C   UNL A   1      37.476  32.650  31.302  1.00  0.00     0.031 A 
ATOM     38  C   UNL A   1      38.190  31.507  30.636  1.00  0.00     0.074 A 
ATOM     39  C   UNL A   1      37.851  33.056  32.532  1.00  0.00     0.049 A 
ATOM     40  N   UNL A   1      39.174  30.770  31.085  1.00  0.00    -0.248 NA
ATOM     41  C   UNL A   1      37.716  31.124  29.296  1.00  0.00     0.031 C 
ATOM     42  C   UNL A   1      37.212  34.126  33.300  1.00  0.00     0.029 A 
ATOM     43  N   UNL A   1      38.852  32.609  33.357  1.00  0.00    -0.354 N 
ATOM     44  C   UNL A   1      39.427  29.833  30.092  1.00  0.00     0.074 A 
ATOM     45  C   UNL A   1      38.457  30.055  29.042  1.00  0.00     0.031 C 
ATOM     46  C   UNL A   1      37.850  34.267  34.472  1.00  0.00     0.029 A 
ATOM     47  C   UNL A   1      38.912  33.270  34.560  1.00  0.00     0.049 A 
ATOM     48  H   UNL A   1      39.469  31.882  33.109  1.00  0.00     0.167 HD
ATOM     49  C   UNL A   1      40.397  28.887  30.048  1.00  0.00     0.037 A 
ATOM     50  C   UNL A   1      39.725  33.084  35.617  1.00  0.00     0.037 A 
ATOM     51  C   UNL A   1      41.372  28.683  31.086  1.00  0.00     0.049 A 
ATOM     52  C   UNL A   1      40.781  32.012  35.552  1.00  0.00     0.074 A 
ATOM     53  C   UNL A   1      42.428  27.789  31.114  1.00  0.00     0.029 A 
ATOM     54  N   UNL A   1      41.409  29.381  32.285  1.00  0.00    -0.354 N 
ATOM     55  N   UNL A   1      41.053  31.176  34.580  1.00  0.00    -0.248 NA
ATOM     56  C   UNL A   1      41.646  31.862  36.730  1.00  0.00     0.031 C 
ATOM     57  C   UNL A   1      43.069  27.905  32.352  1.00  0.00     0.029 A 
ATOM     58  C   UNL A   1      42.454  28.918  33.070  1.00  0.00     0.049 A 
ATOM     59  H   UNL A   1      40.787  30.100  32.540  1.00  0.00     0.167 HD
ATOM     60  C   UNL A   1      42.140  30.427  35.012  1.00  0.00     0.074 A 
ATOM     61  C   UNL A   1      42.485  30.918  36.330  1.00  0.00     0.031 C 
ATOM     62  C   UNL A   1      42.794  29.425  34.376  1.00  0.00     0.037 A 
BRANCH  49  63
ATOM     63  C   UNL A   1      40.450  27.998  28.838  1.00  0.00     0.064 A 
ATOM     64  C   UNL A   1      41.217  28.332  27.711  1.00  0.00     0.173 A 
ATOM     65  C   UNL A   1      39.758  26.777  28.820  1.00  0.00     0.173 A 
ATOM     66  F   UNL A   1      41.890  29.492  27.670  1.00  0.00    -0.203 F 
ATOM     67  C   UNL A   1      41.265  27.491  26.601  1.00  0.00     0.198 A 
ATOM     68  C   UNL A   1      39.836  25.924  27.723  1.00  0.00     0.198 A 
ATOM     69  F   UNL A   1      39.014  26.406  29.873  1.00  0.00    -0.203 F 
ATOM     70  F   UNL A   1      41.962  27.856  25.516  1.00  0.00    -0.200 F 
ATOM     71  C   UNL A   1      40.581  26.285  26.611  1.00  0.00     0.200 A 
ATOM     72  F   UNL A   1      39.188  24.752  27.742  1.00  0.00    -0.200 F 
ATOM     73  F   UNL A   1      40.636  25.473  25.546  1.00  0.00    -0.200 F 
ENDBRANCH  49  63
BRANCH  50  74
ATOM     74  C   UNL A   1      39.586  33.941  36.824  1.00  0.00     0.064 A 
ATOM     75  C   UNL A   1      40.230  35.185  36.904  1.00  0.00     0.173 A 
ATOM     76  C   UNL A   1      38.823  33.532  37.927  1.00  0.00     0.173 A 
ATOM     77  F   UNL A   1      40.987  35.612  35.883  1.00  0.00    -0.203 F 
ATOM     78  C   UNL A   1      40.139  35.972  38.050  1.00  0.00     0.198 A 
ATOM     79  C   UNL A   1      38.706  34.334  39.061  1.00  0.00     0.198 A 
ATOM     80  F   UNL A   1      38.182  32.354  37.902  1.00  0.00    -0.203 F 
ATOM     81  F   UNL A   1      40.810  37.130  38.120  1.00  0.00    -0.200 F 
ATOM     82  C   UNL A   1      39.373  35.549  39.125  1.00  0.00     0.200 A 
ATOM     83  F   UNL A   1      37.952  33.928  40.091  1.00  0.00    -0.200 F 
ATOM     84  F   UNL A   1      39.284  36.306  40.228  1.00  0.00    -0.200 F 
ENDBRANCH  50  74
BRANCH  62  85
ATOM     85  C   UNL A   1      43.980  28.821  35.072  1.00  0.00     0.064 A 
ATOM     86  C   UNL A   1      45.274  29.337  34.917  1.00  0.00     0.173 A 
ATOM     87  C   UNL A   1      43.808  27.733  35.944  1.00  0.00     0.173 A 
ATOM     88  F   UNL A   1      45.494  30.367  34.086  1.00  0.00    -0.203 F 
ATOM     89  C   UNL A   1      46.356  28.771  35.585  1.00  0.00     0.198 A 
ATOM     90  C   UNL A   1      44.886  27.192  36.636  1.00  0.00     0.198 A 
ATOM     91  F   UNL A   1      42.590  27.205  36.135  1.00  0.00    -0.203 F 
ATOM     92  F   UNL A   1      47.592  29.248  35.380  1.00  0.00    -0.200 F 
ATOM     93  C   UNL A   1      46.161  27.705  36.451  1.00  0.00     0.200 A 
ATOM     94  F   UNL A   1      44.692  26.172  37.486  1.00  0.00    -0.200 F 
ATOM     95  F   UNL A   1      47.202  27.167  37.100  1.00  0.00    -0.200 F 
ENDBRANCH  62  85
ENDBRANCH  36  37
ENDBRANCH  28  31
ENDBRANCH  26  27
ENDBRANCH  25  26
ENDBRANCH  24  25
ENDBRANCH  23  24
ENDBRANCH   1  23
TORSDOF 17
ENDMDL
MODEL 2
REMARK VINA RESULT:     -12.2      0.585      2.097
REMARK SMILES C[C@@H](Oc1ccc(Oc2ccccc2)cc1)C(=O)NCCCCCCNC(=O)c1ccc(-c2c3nc(c(-c4c(F)c(F)c(F)c(F)c4F)c4ccc([nH]4)c(-c4c(F)c(F)c(F)c(F)c4F)c4nc(c(-c5c(F)c(F)c(F)c(F)c5F)c5ccc2[nH]5)C=C4)C=C3)cc1
REMARK SMILES IDX 21 1 20 2 19 3 17 4 18 5 2 7 1 8 3 9 4 10 5 11 16 12 6 13
REMARK SMILES IDX 15 14 7 15 8 16 9 17 10 18 14 19 11 20 13 21 12 22 22 23
REMARK SMILES IDX 23 24 24 25 25 26 26 27 27 28 28 30 29 31 30 32 91 33 31 34
REMARK SMILES IDX 90 35 32 36 33 37 34 38 84 39 35 40 89 41 83 42 85 43 36 44
REMARK SMILES IDX 88 45 82 46 81 47 37 49 69 50 49 51 68 52 50 53 53 54 67 55
REMARK SMILES IDX 86 56 51 57 52 58 66 60 87 61 54 62 38 63 39 64 47 65 40 66
REMARK SMILES IDX 41 67 45 68 48 69 42 70 43 71 46 72 44 73 70 74 71 75 79 76
REMARK SMILES IDX 72 77 73 78 77 79 80 80 74 81 75 82 78 83 76 84 55 85 56 86
REMARK SMILES IDX 64 87 57 88 58 89 62 90 65 91 59 92 60 93 63 94 61 95
REMARK H PARENT 19 6 26 29 85 48 53 59
REMARK Flexibility Score: inf
ROOT
ATOM      1  C   UNL A   1      32.055  29.375  26.151  1.00  0.00     0.021 C 
ENDROOT
BRANCH   1   2
ATOM      2  C   UNL A   1      33.366  28.995  25.469  1.00  0.00     0.116 C 
BRANCH   2   3
ATOM      3  N   UNL A   1      33.846  27.697  25.913  1.00  0.00    -0.353 N 
ATOM      4  C   UNL A   1      33.762  26.480  25.293  1.00  0.00     0.260 C 
ATOM      5  O   UNL A   1      34.245  25.501  25.865  1.00  0.00    -0.271 OA
ATOM      6  H   UNL A   1      34.299  27.693  26.788  1.00  0.00     0.163 HD
BRANCH   4   7
ATOM      7  C   UNL A   1      33.019  26.339  23.956  1.00  0.00     0.258 C 
ATOM      8  C   UNL A   1      33.918  25.541  23.010  1.00  0.00     0.064 C 
BRANCH   7   9
ATOM      9  O   UNL A   1      31.745  25.767  24.285  1.00  0.00    -0.481 OA
BRANCH   9  10
ATOM     10  C   UNL A   1      30.627  26.391  23.828  1.00  0.00     0.120 A 
ATOM     11  C   UNL A   1      30.803  27.513  23.019  1.00  0.00     0.050 A 
ATOM     12  C   UNL A   1      29.358  26.075  24.295  1.00  0.00     0.050 A 
ATOM     13  C   UNL A   1      29.703  28.298  22.658  1.00  0.00     0.051 A 
ATOM     14  C   UNL A   1      28.256  26.831  23.903  1.00  0.00     0.051 A 
ATOM     15  C   UNL A   1      28.422  27.964  23.106  1.00  0.00     0.127 A 
BRANCH  15  16
ATOM     16  O   UNL A   1      27.409  28.823  22.725  1.00  0.00    -0.457 OA
BRANCH  16  17
ATOM     17  C   UNL A   1      27.739  30.132  22.466  1.00  0.00     0.127 A 
ATOM     18  C   UNL A   1      27.816  31.010  23.545  1.00  0.00     0.047 A 
ATOM     19  C   UNL A   1      27.973  30.583  21.164  1.00  0.00     0.047 A 
ATOM     20  C   UNL A   1      28.200  32.333  23.330  1.00  0.00     0.004 A 
ATOM     21  C   UNL A   1      28.380  31.900  20.955  1.00  0.00     0.004 A 
ATOM     22  C   UNL A   1      28.499  32.772  22.038  1.00  0.00     0.000 A 
ENDBRANCH  16  17
ENDBRANCH  15  16
ENDBRANCH   9  10
ENDBRANCH   7   9
ENDBRANCH   4   7
ENDBRANCH   2   3
ENDBRANCH   1   2
BRANCH   1  23
ATOM     23  C   UNL A   1      31.117  30.212  25.279  1.00  0.00     0.002 C 
BRANCH  23  24
ATOM     24  C   UNL A   1      30.970  31.676  25.707  1.00  0.00     0.002 C 
BRANCH  24  25
ATOM     25  C   UNL A   1      31.494  31.996  27.110  1.00  0.00     0.021 C 
BRANCH  25  26
ATOM     26  C   UNL A   1      32.747  32.866  27.133  1.00  0.00     0.116 C 
BRANCH  26  27
ATOM     27  N   UNL A   1      32.461  34.223  27.574  1.00  0.00    -0.352 N 
ATOM     28  C   UNL A   1      32.994  34.925  28.623  1.00  0.00     0.251 C 
ATOM     29  H   UNL A   1      31.787  34.706  27.043  1.00  0.00     0.163 HD
ATOM     30  O   UNL A   1      32.493  35.991  28.974  1.00  0.00    -0.269 OA
BRANCH  28  31
ATOM     31  C   UNL A   1      34.166  34.391  29.347  1.00  0.00     0.039 A 
ATOM     32  C   UNL A   1      33.965  33.710  30.551  1.00  0.00     0.014 A 
ATOM     33  C   UNL A   1      35.458  34.566  28.845  1.00  0.00     0.014 A 
ATOM     34  C   UNL A   1      35.057  33.155  31.221  1.00  0.00     0.010 A 
ATOM     35  C   UNL A   1      36.535  33.946  29.472  1.00  0.00     0.010 A 
ATOM     36  C   UNL A   1      36.346  33.239  30.670  1.00  0.00    -0.014 A 
BRANCH  36  37
ATOM     37  C   UNL A   1      37.512  32.603  31.334  1.00  0.00     0.031 A 
ATOM     38  C   UNL A   1      38.240  31.472  30.662  1.00  0.00     0.074 A 
ATOM     39  C   UNL A   1      37.877  33.001  32.569  1.00  0.00     0.049 A 
ATOM     40  N   UNL A   1      39.229  30.740  31.109  1.00  0.00    -0.248 NA
ATOM     41  C   UNL A   1      37.777  31.096  29.316  1.00  0.00     0.031 C 
ATOM     42  C   UNL A   1      37.225  34.059  33.343  1.00  0.00     0.029 A 
ATOM     43  N   UNL A   1      38.878  32.556  33.395  1.00  0.00    -0.354 N 
ATOM     44  C   UNL A   1      39.495  29.814  30.110  1.00  0.00     0.074 A 
ATOM     45  C   UNL A   1      38.528  30.036  29.057  1.00  0.00     0.031 C 
ATOM     46  C   UNL A   1      37.855  34.195  34.519  1.00  0.00     0.029 A 
ATOM     47  C   UNL A   1      38.926  33.207  34.604  1.00  0.00     0.049 A 
ATOM     48  H   UNL A   1      39.503  31.837  33.145  1.00  0.00     0.167 HD
ATOM     49  C   UNL A   1      40.474  28.878  30.063  1.00  0.00     0.037 A 
ATOM     50  C   UNL A   1      39.735  33.020  35.664  1.00  0.00     0.037 A 
ATOM     51  C   UNL A   1      41.446  28.673  31.105  1.00  0.00     0.049 A 
ATOM     52  C   UNL A   1      40.800  31.958  35.595  1.00  0.00     0.074 A 
ATOM     53  C   UNL A   1      42.510  27.788  31.130  1.00  0.00     0.029 A 
ATOM     54  N   UNL A   1      41.470  29.361  32.310  1.00  0.00    -0.354 N 
ATOM     55  N   UNL A   1      41.086  31.133  34.617  1.00  0.00    -0.248 NA
ATOM     56  C   UNL A   1      41.661  31.806  36.777  1.00  0.00     0.031 C 
ATOM     57  C   UNL A   1      43.143  27.900  32.373  1.00  0.00     0.029 A 
ATOM     58  C   UNL A   1      42.515  28.901  33.096  1.00  0.00     0.049 A 
ATOM     59  H   UNL A   1      40.840  30.072  32.568  1.00  0.00     0.167 HD
ATOM     60  C   UNL A   1      42.177  30.390  35.049  1.00  0.00     0.074 A 
ATOM     61  C   UNL A   1      42.511  30.872  36.373  1.00  0.00     0.031 C 
ATOM     62  C   UNL A   1      42.843  29.400  34.408  1.00  0.00     0.037 A 
BRANCH  49  63
ATOM     63  C   UNL A   1      40.542  27.999  28.846  1.00  0.00     0.064 A 
ATOM     64  C   UNL A   1      39.803  26.810  28.752  1.00  0.00     0.173 A 
ATOM     65  C   UNL A   1      41.324  28.372  27.742  1.00  0.00     0.173 A 
ATOM     66  F   UNL A   1      39.047  26.401  29.782  1.00  0.00    -0.203 F 
ATOM     67  C   UNL A   1      39.868  26.012  27.612  1.00  0.00     0.198 A 
ATOM     68  C   UNL A   1      41.359  27.590  26.590  1.00  0.00     0.198 A 
ATOM     69  F   UNL A   1      42.046  29.502  27.775  1.00  0.00    -0.203 F 
ATOM     70  F   UNL A   1      39.195  24.854  27.567  1.00  0.00    -0.200 F 
ATOM     71  C   UNL A   1      40.640  26.406  26.530  1.00  0.00     0.200 A 
ATOM     72  F   UNL A   1      42.093  27.981  25.540  1.00  0.00    -0.200 F 
ATOM     73  F   UNL A   1      40.694  25.643  25.430  1.00  0.00    -0.200 F 
ENDBRANCH  49  63
BRANCH  50  74
ATOM     74  C   UNL A   1      39.582  33.865  36.878  1.00  0.00     0.064 A 
ATOM     75  C   UNL A   1      38.818  33.429  37.970  1.00  0.00     0.173 A 
ATOM     76  C   UNL A   1      40.180  35.130  36.967  1.00  0.00     0.173 A 
ATOM     77  F   UNL A   1      38.209  32.234  37.925  1.00  0.00    -0.203 F 
ATOM     78  C   UNL A   1      38.636  34.236  39.091  1.00  0.00     0.198 A 
ATOM     79  C   UNL A   1      40.025  35.923  38.103  1.00  0.00     0.198 A 
ATOM     80  F   UNL A   1      40.926  35.595  35.954  1.00  0.00    -0.203 F 
ATOM     81  F   UNL A   1      37.855  33.815  40.096  1.00  0.00    -0.200 F 
ATOM     82  C   UNL A   1      39.244  35.479  39.159  1.00  0.00     0.200 A 
ATOM     83  F   UNL A   1      40.627  37.118  38.170  1.00  0.00    -0.200 F 
ATOM     84  F   UNL A   1      39.070  36.255  40.238  1.00  0.00    -0.200 F 
ENDBRANCH  50  74
BRANCH  62  85
ATOM     85  C   UNL A   1      44.031  28.800  35.105  1.00  0.00     0.064 A 
ATOM     86  C   UNL A   1      43.907  27.710  35.977  1.00  0.00     0.173 A 
ATOM     87  C   UNL A   1      45.321  29.300  34.860  1.00  0.00     0.173 A 
ATOM     88  F   UNL A   1      42.696  27.203  36.256  1.00  0.00    -0.203 F 
ATOM     89  C   UNL A   1      45.024  27.160  36.601  1.00  0.00     0.198 A 
ATOM     90  C   UNL A   1      46.438  28.726  35.458  1.00  0.00     0.198 A 
ATOM     91  F   UNL A   1      45.497  30.337  34.028  1.00  0.00    -0.203 F 
ATOM     92  F   UNL A   1      44.874  26.152  37.472  1.00  0.00    -0.200 F 
ATOM     93  C   UNL A   1      46.289  27.662  36.334  1.00  0.00     0.200 A 
ATOM     94  F   UNL A   1      47.661  29.202  35.185  1.00  0.00    -0.200 F 
ATOM     95  F   UNL A   1      47.363  27.125  36.927  1.00  0.00    -0.200 F 
ENDBRANCH  62  85
ENDBRANCH  36  37
ENDBRANCH  28  31
ENDBRANCH  26  27
ENDBRANCH  25  26
ENDBRANCH  24  25
ENDBRANCH  23  24
ENDBRANCH   1  23
TORSDOF 17
ENDMDL
MODEL 3
REMARK VINA RESULT:     -12.2      0.692      7.281
REMARK SMILES C[C@@H](Oc1ccc(Oc2ccccc2)cc1)C(=O)NCCCCCCNC(=O)c1ccc(-c2c3nc(c(-c4c(F)c(F)c(F)c(F)c4F)c4ccc([nH]4)c(-c4c(F)c(F)c(F)c(F)c4F)c4nc(c(-c5c(F)c(F)c(F)c(F)c5F)c5ccc2[nH]5)C=C4)C=C3)cc1
REMARK SMILES IDX 21 1 20 2 19 3 17 4 18 5 2 7 1 8 3 9 4 10 5 11 16 12 6 13
REMARK SMILES IDX 15 14 7 15 8 16 9 17 10 18 14 19 11 20 13 21 12 22 22 23
REMARK SMILES IDX 23 24 24 25 25 26 26 27 27 28 28 30 29 31 30 32 91 33 31 34
REMARK SMILES IDX 90 35 32 36 33 37 34 38 84 39 35 40 89 41 83 42 85 43 36 44
REMARK SMILES IDX 88 45 82 46 81 47 37 49 69 50 49 51 68 52 50 53 53 54 67 55
REMARK SMILES IDX 86 56 51 57 52 58 66 60 87 61 54 62 38 63 39 64 47 65 40 66
REMARK SMILES IDX 41 67 45 68 48 69 42 70 43 71 46 72 44 73 70 74 71 75 79 76
REMARK SMILES IDX 72 77 73 78 77 79 80 80 74 81 75 82 78 83 76 84 55 85 56 86
REMARK SMILES IDX 64 87 57 88 58 89 62 90 65 91 59 92 60 93 63 94 61 95
REMARK H PARENT 19 6 26 29 85 48 53 59
REMARK Flexibility Score: inf
ROOT
ATOM      1  C   UNL A   1      31.873  29.031  26.918  1.00  0.00     0.021 C 
ENDROOT
BRANCH   1   2
ATOM      2  C   UNL A   1      32.780  27.804  26.940  1.00  0.00     0.116 C 
BRANCH   2   3
ATOM      3  N   UNL A   1      32.029  26.587  27.197  1.00  0.00    -0.353 N 
ATOM      4  C   UNL A   1      31.914  25.458  26.430  1.00  0.00     0.260 C 
ATOM      5  O   UNL A   1      31.211  24.537  26.852  1.00  0.00    -0.271 OA
ATOM      6  H   UNL A   1      31.530  26.571  28.046  1.00  0.00     0.163 HD
BRANCH   4   7
ATOM      7  C   UNL A   1      32.585  25.384  25.051  1.00  0.00     0.258 C 
ATOM      8  C   UNL A   1      33.692  24.331  25.133  1.00  0.00     0.064 C 
BRANCH   7   9
ATOM      9  O   UNL A   1      31.521  25.143  24.120  1.00  0.00    -0.481 OA
BRANCH   9  10
ATOM     10  C   UNL A   1      30.638  26.150  23.883  1.00  0.00     0.120 A 
ATOM     11  C   UNL A   1      29.299  25.914  24.191  1.00  0.00     0.050 A 
ATOM     12  C   UNL A   1      30.989  27.295  23.180  1.00  0.00     0.050 A 
ATOM     13  C   UNL A   1      28.319  26.839  23.815  1.00  0.00     0.051 A 
ATOM     14  C   UNL A   1      30.020  28.237  22.841  1.00  0.00     0.051 A 
ATOM     15  C   UNL A   1      28.675  28.004  23.130  1.00  0.00     0.127 A 
BRANCH  15  16
ATOM     16  O   UNL A   1      27.631  28.835  22.772  1.00  0.00    -0.457 OA
BRANCH  16  17
ATOM     17  C   UNL A   1      27.920  30.152  22.508  1.00  0.00     0.127 A 
ATOM     18  C   UNL A   1      27.987  30.549  21.174  1.00  0.00     0.047 A 
ATOM     19  C   UNL A   1      28.160  31.069  23.535  1.00  0.00     0.047 A 
ATOM     20  C   UNL A   1      28.225  31.888  20.865  1.00  0.00     0.004 A 
ATOM     21  C   UNL A   1      28.373  32.411  23.223  1.00  0.00     0.004 A 
ATOM     22  C   UNL A   1      28.399  32.821  21.890  1.00  0.00     0.000 A 
ENDBRANCH  16  17
ENDBRANCH  15  16
ENDBRANCH   9  10
ENDBRANCH   7   9
ENDBRANCH   4   7
ENDBRANCH   2   3
ENDBRANCH   1   2
BRANCH   1  23
ATOM     23  C   UNL A   1      32.151  29.993  25.760  1.00  0.00     0.002 C 
BRANCH  23  24
ATOM     24  C   UNL A   1      31.173  31.166  25.645  1.00  0.00     0.002 C 
BRANCH  24  25
ATOM     25  C   UNL A   1      31.192  32.144  26.823  1.00  0.00     0.021 C 
BRANCH  25  26
ATOM     26  C   UNL A   1      32.545  32.799  27.079  1.00  0.00     0.116 C 
BRANCH  26  27
ATOM     27  N   UNL A   1      32.409  34.183  27.508  1.00  0.00    -0.352 N 
ATOM     28  C   UNL A   1      33.052  34.845  28.520  1.00  0.00     0.251 C 
ATOM     29  H   UNL A   1      31.762  34.721  26.996  1.00  0.00     0.163 HD
ATOM     30  O   UNL A   1      32.670  35.959  28.873  1.00  0.00    -0.269 OA
BRANCH  28  31
ATOM     31  C   UNL A   1      34.198  34.211  29.204  1.00  0.00     0.039 A 
ATOM     32  C   UNL A   1      33.951  33.272  30.209  1.00  0.00     0.014 A 
ATOM     33  C   UNL A   1      35.510  34.545  28.861  1.00  0.00     0.014 A 
ATOM     34  C   UNL A   1      35.022  32.626  30.830  1.00  0.00     0.010 A 
ATOM     35  C   UNL A   1      36.573  33.845  29.424  1.00  0.00     0.010 A 
ATOM     36  C   UNL A   1      36.341  32.883  30.419  1.00  0.00    -0.014 A 
BRANCH  36  37
ATOM     37  C   UNL A   1      37.490  32.162  31.021  1.00  0.00     0.031 A 
ATOM     38  C   UNL A   1      37.990  32.544  32.387  1.00  0.00     0.074 A 
ATOM     39  C   UNL A   1      38.124  31.205  30.315  1.00  0.00     0.049 A 
ATOM     40  N   UNL A   1      39.022  32.088  33.050  1.00  0.00    -0.248 NA
ATOM     41  C   UNL A   1      37.245  33.600  33.091  1.00  0.00     0.031 C 
ATOM     42  C   UNL A   1      37.761  30.772  28.964  1.00  0.00     0.029 A 
ATOM     43  N   UNL A   1      39.212  30.431  30.628  1.00  0.00    -0.354 N 
ATOM     44  C   UNL A   1      39.056  32.807  34.238  1.00  0.00     0.074 A 
ATOM     45  C   UNL A   1      37.979  33.770  34.181  1.00  0.00     0.031 C 
ATOM     46  C   UNL A   1      38.596  29.798  28.575  1.00  0.00     0.029 A 
ATOM     47  C   UNL A   1      39.582  29.566  29.626  1.00  0.00     0.049 A 
ATOM     48  H   UNL A   1      39.685  30.491  31.490  1.00  0.00     0.167 HD
ATOM     49  C   UNL A   1      39.896  32.661  35.291  1.00  0.00     0.037 A 
ATOM     50  C   UNL A   1      40.605  28.694  29.560  1.00  0.00     0.037 A 
ATOM     51  C   UNL A   1      40.955  31.688  35.351  1.00  0.00     0.049 A 
ATOM     52  C   UNL A   1      41.537  28.566  30.736  1.00  0.00     0.074 A 
ATOM     53  C   UNL A   1      41.826  31.423  36.393  1.00  0.00     0.029 A 
ATOM     54  N   UNL A   1      41.290  30.820  34.321  1.00  0.00    -0.354 N 
ATOM     55  N   UNL A   1      41.519  29.206  31.881  1.00  0.00    -0.248 NA
ATOM     56  C   UNL A   1      42.630  27.591  30.613  1.00  0.00     0.031 C 
ATOM     57  C   UNL A   1      42.724  30.436  35.974  1.00  0.00     0.029 A 
ATOM     58  C   UNL A   1      42.372  30.038  34.695  1.00  0.00     0.049 A 
ATOM     59  H   UNL A   1      40.827  30.766  33.454  1.00  0.00     0.167 HD
ATOM     60  C   UNL A   1      42.571  28.687  32.625  1.00  0.00     0.074 A 
ATOM     61  C   UNL A   1      43.198  27.670  31.807  1.00  0.00     0.031 C 
ATOM     62  C   UNL A   1      42.979  29.020  33.874  1.00  0.00     0.037 A 
BRANCH  49  63
ATOM     63  C   UNL A   1      39.706  33.577  36.466  1.00  0.00     0.064 A 
ATOM     64  C   UNL A   1      40.342  34.827  36.538  1.00  0.00     0.173 A 
ATOM     65  C   UNL A   1      38.847  33.220  37.516  1.00  0.00     0.173 A 
ATOM     66  F   UNL A   1      41.183  35.214  35.567  1.00  0.00    -0.203 F 
ATOM     67  C   UNL A   1      40.147  35.670  37.629  1.00  0.00     0.198 A 
ATOM     68  C   UNL A   1      38.627  34.080  38.589  1.00  0.00     0.198 A 
ATOM     69  F   UNL A   1      38.209  32.040  37.496  1.00  0.00    -0.203 F 
ATOM     70  F   UNL A   1      40.805  36.835  37.700  1.00  0.00    -0.200 F 
ATOM     71  C   UNL A   1      39.284  35.299  38.650  1.00  0.00     0.200 A 
ATOM     72  F   UNL A   1      37.781  33.727  39.566  1.00  0.00    -0.200 F 
ATOM     73  F   UNL A   1      39.090  36.116  39.695  1.00  0.00    -0.200 F 
ENDBRANCH  49  63
BRANCH  50  74
ATOM     74  C   UNL A   1      40.797  27.859  28.345  1.00  0.00     0.064 A 
ATOM     75  C   UNL A   1      41.565  28.322  27.266  1.00  0.00     0.173 A 
ATOM     76  C   UNL A   1      40.208  26.592  28.228  1.00  0.00     0.173 A 
ATOM     77  F   UNL A   1      42.133  29.535  27.321  1.00  0.00    -0.203 F 
ATOM     78  C   UNL A   1      41.711  27.562  26.107  1.00  0.00     0.198 A 
ATOM     79  C   UNL A   1      40.382  25.819  27.082  1.00  0.00     0.198 A 
ATOM     80  F   UNL A   1      39.468  26.099  29.232  1.00  0.00    -0.203 F 
ATOM     81  F   UNL A   1      42.404  28.053  25.071  1.00  0.00    -0.200 F 
ATOM     82  C   UNL A   1      41.125  26.309  26.018  1.00  0.00     0.200 A 
ATOM     83  F   UNL A   1      39.825  24.603  27.006  1.00  0.00    -0.200 F 
ATOM     84  F   UNL A   1      41.266  25.578  24.904  1.00  0.00    -0.200 F 
ENDBRANCH  50  74
BRANCH  62  85
ATOM     85  C   UNL A   1      44.130  28.249  34.455  1.00  0.00     0.064 A 
ATOM     86  C   UNL A   1      43.941  27.049  35.153  1.00  0.00     0.173 A 
ATOM     87  C   UNL A   1      45.447  28.701  34.270  1.00  0.00     0.173 A 
ATOM     88  F   UNL A   1      42.702  26.580  35.368  1.00  0.00    -0.203 F 
ATOM     89  C   UNL A   1      45.025  26.342  35.669  1.00  0.00     0.198 A 
ATOM     90  C   UNL A   1      46.529  27.975  34.757  1.00  0.00     0.198 A 
ATOM     91  F   UNL A   1      45.684  29.840  33.603  1.00  0.00    -0.203 F 
ATOM     92  F   UNL A   1      44.816  25.224  36.379  1.00  0.00    -0.200 F 
ATOM     93  C   UNL A   1      46.317  26.800  35.464  1.00  0.00     0.200 A 
ATOM     94  F   UNL A   1      47.779  28.411  34.543  1.00  0.00    -0.200 F 
ATOM     95  F   UNL A   1      47.359  26.114  35.952  1.00  0.00    -0.200 F 
ENDBRANCH  62  85
ENDBRANCH  36  37
ENDBRANCH  28  31
ENDBRANCH  26  27
ENDBRANCH  25  26
ENDBRANCH  24  25
ENDBRANCH  23  24
ENDBRANCH   1  23
TORSDOF 17
ENDMDL
