MODEL 1
REMARK VINA RESULT:     -11.4      0.000      0.000
REMARK SMILES COc1cc(C[N@@H+]2CCO[C@@H](CC(=O)NCCCCCCNC(=O)c3ccc(-c4c5nc(c(-c6c(F)c(F)c(F)c(F)c6F)c6ccc([nH]6)c(-c6c(F)c(F)c(F)c(F)c6F)c6nc(c(-c7c(F)c(F)c(F)c(F)c7F)c7ccc4[nH]7)C=C6)C=C5)cc3)C2)ccc1O
REMARK SMILES IDX 17 1 16 2 15 3 13 4 14 5 12 7 11 8 7 9 8 10 88 11 9 13 10 14
REMARK SMILES IDX 6 15 5 16 3 17 4 18 91 19 90 20 89 21 2 22 1 23 92 24 18 26
REMARK SMILES IDX 19 27 20 28 21 29 22 30 23 31 24 33 25 34 26 35 87 36 27 37
REMARK SMILES IDX 86 38 28 39 29 40 30 41 80 42 31 43 85 44 79 45 81 46 32 47
REMARK SMILES IDX 84 48 78 49 77 50 33 52 65 53 45 54 64 55 46 56 49 57 63 58
REMARK SMILES IDX 82 59 47 60 48 61 62 63 83 64 50 65 34 66 35 67 43 68 36 69
REMARK SMILES IDX 37 70 41 71 44 72 38 73 39 74 42 75 40 76 66 77 67 78 75 79
REMARK SMILES IDX 68 80 69 81 73 82 76 83 70 84 71 85 74 86 72 87 51 88 52 89
REMARK SMILES IDX 60 90 53 91 54 92 58 93 61 94 55 95 56 96 59 97 57 98
REMARK H PARENT 15 6 7 12 92 25 22 32 81 51 49 62
REMARK Flexibility Score: inf
ROOT
ATOM      1  C   UNL A   1      35.392  31.690  28.119  1.00  0.00     0.021 C 
ENDROOT
BRANCH   1   2
ATOM      2  C   UNL A   1      34.396  30.538  27.951  1.00  0.00     0.116 C 
BRANCH   2   3
ATOM      3  N   UNL A   1      33.211  31.030  27.273  1.00  0.00    -0.356 N 
ATOM      4  C   UNL A   1      32.148  30.324  26.790  1.00  0.00     0.222 C 
ATOM      5  O   UNL A   1      31.379  30.874  26.002  1.00  0.00    -0.275 OA
ATOM      6  H   UNL A   1      33.168  32.005  27.145  1.00  0.00     0.163 HD
BRANCH   4   7
ATOM      7  C   UNL A   1      31.915  28.913  27.269  1.00  0.00     0.138 C 
BRANCH   7   8
ATOM      8  C   UNL A   1      31.594  27.848  26.212  1.00  0.00     0.182 C 
ATOM      9  N   UNL A   1      32.450  26.595  24.129  1.00  0.00    -0.327 N 
ATOM     10  C   UNL A   1      32.195  25.366  24.891  1.00  0.00     0.291 C 
ATOM     11  C   UNL A   1      32.581  27.754  25.025  1.00  0.00     0.295 C 
ATOM     12  H   UNL A   1      33.363  26.464  23.693  1.00  0.00     0.348 HD
ATOM     13  C   UNL A   1      31.228  25.511  26.078  1.00  0.00     0.222 C 
ATOM     14  O   UNL A   1      31.594  26.594  26.934  1.00  0.00    -0.366 OA
BRANCH   9  15
ATOM     15  C   UNL A   1      31.654  26.798  22.917  1.00  0.00     0.299 C 
BRANCH  15  16
ATOM     16  C   UNL A   1      30.342  27.510  23.122  1.00  0.00     0.010 A 
ATOM     17  C   UNL A   1      28.943  29.430  22.690  1.00  0.00     0.160 A 
ATOM     18  C   UNL A   1      30.210  28.861  22.767  1.00  0.00     0.060 A 
ATOM     19  C   UNL A   1      27.826  28.705  23.099  1.00  0.00     0.157 A 
ATOM     20  C   UNL A   1      27.953  27.397  23.546  1.00  0.00     0.051 A 
ATOM     21  C   UNL A   1      29.211  26.797  23.554  1.00  0.00     0.013 A 
BRANCH  17  22
ATOM     22  O   UNL A   1      28.816  30.705  22.206  1.00  0.00    -0.493 OA
ATOM     23  C   UNL A   1      28.833  31.667  23.269  1.00  0.00     0.278 C 
ENDBRANCH  17  22
BRANCH  19  24
ATOM     24  O   UNL A   1      26.578  29.258  23.057  1.00  0.00    -0.504 OA
ATOM     25  H   UNL A   1      26.072  29.215  22.270  1.00  0.00     0.293 HD
ENDBRANCH  19  24
ENDBRANCH  15  16
ENDBRANCH   9  15
ENDBRANCH   7   8
ENDBRANCH   4   7
ENDBRANCH   2   3
ENDBRANCH   1   2
BRANCH   1  26
ATOM     26  C   UNL A   1      34.771  33.067  27.907  1.00  0.00     0.002 C 
BRANCH  26  27
ATOM     27  C   UNL A   1      34.369  33.771  29.204  1.00  0.00     0.002 C 
BRANCH  27  28
ATOM     28  C   UNL A   1      33.114  34.640  29.098  1.00  0.00     0.021 C 
BRANCH  28  29
ATOM     29  C   UNL A   1      33.316  36.087  29.537  1.00  0.00     0.116 C 
BRANCH  29  30
ATOM     30  N   UNL A   1      32.484  36.412  30.686  1.00  0.00    -0.352 N 
ATOM     31  C   UNL A   1      32.534  35.903  31.958  1.00  0.00     0.251 C 
ATOM     32  H   UNL A   1      31.789  37.092  30.527  1.00  0.00     0.163 HD
ATOM     33  O   UNL A   1      31.600  36.066  32.733  1.00  0.00    -0.269 OA
BRANCH  31  34
ATOM     34  C   UNL A   1      33.730  35.153  32.386  1.00  0.00     0.039 A 
ATOM     35  C   UNL A   1      33.580  33.856  32.883  1.00  0.00     0.014 A 
ATOM     36  C   UNL A   1      34.997  35.738  32.304  1.00  0.00     0.014 A 
ATOM     37  C   UNL A   1      34.710  33.128  33.254  1.00  0.00     0.010 A 
ATOM     38  C   UNL A   1      36.126  34.986  32.602  1.00  0.00     0.010 A 
ATOM     39  C   UNL A   1      35.994  33.677  33.091  1.00  0.00    -0.014 A 
BRANCH  39  40
ATOM     40  C   UNL A   1      37.211  32.909  33.449  1.00  0.00     0.031 A 
ATOM     41  C   UNL A   1      37.935  33.209  34.733  1.00  0.00     0.074 A 
ATOM     42  C   UNL A   1      37.691  31.983  32.597  1.00  0.00     0.049 A 
ATOM     43  N   UNL A   1      39.056  32.708  35.188  1.00  0.00    -0.248 NA
ATOM     44  C   UNL A   1      37.333  34.226  35.610  1.00  0.00     0.031 C 
ATOM     45  C   UNL A   1      37.096  31.629  31.307  1.00  0.00     0.029 A 
ATOM     46  N   UNL A   1      38.798  31.176  32.683  1.00  0.00    -0.354 N 
ATOM     47  C   UNL A   1      39.293  33.350  36.396  1.00  0.00     0.074 A 
ATOM     48  C   UNL A   1      38.236  34.322  36.575  1.00  0.00     0.031 C 
ATOM     49  C   UNL A   1      37.829  30.661  30.734  1.00  0.00     0.029 A 
ATOM     50  C   UNL A   1      38.969  30.357  31.592  1.00  0.00     0.049 A 
ATOM     51  H   UNL A   1      39.411  31.182  33.453  1.00  0.00     0.167 HD
ATOM     52  C   UNL A   1      40.284  33.129  37.290  1.00  0.00     0.037 A 
ATOM     53  C   UNL A   1      39.944  29.470  31.315  1.00  0.00     0.037 A 
ATOM     54  C   UNL A   1      41.323  32.148  37.116  1.00  0.00     0.049 A 
ATOM     55  C   UNL A   1      41.056  29.273  32.313  1.00  0.00     0.074 A 
ATOM     56  C   UNL A   1      42.358  31.824  37.976  1.00  0.00     0.029 A 
ATOM     57  N   UNL A   1      41.458  31.332  36.003  1.00  0.00    -0.354 N 
ATOM     58  N   UNL A   1      41.238  29.846  33.478  1.00  0.00    -0.248 NA
ATOM     59  C   UNL A   1      42.096  28.297  31.958  1.00  0.00     0.031 C 
ATOM     60  C   UNL A   1      43.145  30.845  37.365  1.00  0.00     0.029 A 
ATOM     61  C   UNL A   1      42.569  30.516  36.148  1.00  0.00     0.049 A 
ATOM     62  H   UNL A   1      40.854  31.331  35.225  1.00  0.00     0.167 HD
ATOM     63  C   UNL A   1      42.385  29.272  34.011  1.00  0.00     0.074 A 
ATOM     64  C   UNL A   1      42.849  28.297  33.048  1.00  0.00     0.031 C 
ATOM     65  C   UNL A   1      43.000  29.531  35.191  1.00  0.00     0.037 A 
BRANCH  52  66
ATOM     66  C   UNL A   1      40.289  33.949  38.547  1.00  0.00     0.064 A 
ATOM     67  C   UNL A   1      40.994  35.160  38.629  1.00  0.00     0.173 A 
ATOM     68  C   UNL A   1      39.536  33.554  39.663  1.00  0.00     0.173 A 
ATOM     69  F   UNL A   1      41.740  35.578  37.594  1.00  0.00    -0.203 F 
ATOM     70  C   UNL A   1      40.963  35.933  39.787  1.00  0.00     0.198 A 
ATOM     71  C   UNL A   1      39.481  34.345  40.808  1.00  0.00     0.198 A 
ATOM     72  F   UNL A   1      38.839  32.408  39.637  1.00  0.00    -0.203 F 
ATOM     73  F   UNL A   1      41.680  37.064  39.855  1.00  0.00    -0.200 F 
ATOM     74  C   UNL A   1      40.200  35.530  40.871  1.00  0.00     0.200 A 
ATOM     75  F   UNL A   1      38.731  33.961  41.849  1.00  0.00    -0.200 F 
ATOM     76  F   UNL A   1      40.157  36.282  41.980  1.00  0.00    -0.200 F 
ENDBRANCH  52  66
BRANCH  53  77
ATOM     77  C   UNL A   1      39.917  28.691  30.049  1.00  0.00     0.064 A 
ATOM     78  C   UNL A   1      39.350  27.409  30.004  1.00  0.00     0.173 A 
ATOM     79  C   UNL A   1      40.494  29.187  28.871  1.00  0.00     0.173 A 
ATOM     80  F   UNL A   1      38.802  26.882  31.109  1.00  0.00    -0.203 F 
ATOM     81  C   UNL A   1      39.395  26.639  28.844  1.00  0.00     0.198 A 
ATOM     82  C   UNL A   1      40.508  28.429  27.701  1.00  0.00     0.198 A 
ATOM     83  F   UNL A   1      41.046  30.408  28.855  1.00  0.00    -0.203 F 
ATOM     84  F   UNL A   1      38.906  25.391  28.851  1.00  0.00    -0.200 F 
ATOM     85  C   UNL A   1      39.972  27.151  27.692  1.00  0.00     0.200 A 
ATOM     86  F   UNL A   1      41.053  28.934  26.586  1.00  0.00    -0.200 F 
ATOM     87  F   UNL A   1      40.023  26.408  26.578  1.00  0.00    -0.200 F 
ENDBRANCH  53  77
BRANCH  65  88
ATOM     88  C   UNL A   1      44.207  28.707  35.535  1.00  0.00     0.064 A 
ATOM     89  C   UNL A   1      45.502  29.097  35.162  1.00  0.00     0.173 A 
ATOM     90  C   UNL A   1      44.067  27.530  36.286  1.00  0.00     0.173 A 
ATOM     91  F   UNL A   1      45.688  30.207  34.431  1.00  0.00    -0.203 F 
ATOM     92  C   UNL A   1      46.608  28.323  35.503  1.00  0.00     0.198 A 
ATOM     93  C   UNL A   1      45.178  26.777  36.655  1.00  0.00     0.198 A 
ATOM     94  F   UNL A   1      42.852  27.116  36.676  1.00  0.00    -0.203 F 
ATOM     95  F   UNL A   1      47.830  28.686  35.089  1.00  0.00    -0.200 F 
ATOM     96  C   UNL A   1      46.446  27.169  36.256  1.00  0.00     0.200 A 
ATOM     97  F   UNL A   1      45.021  25.672  37.397  1.00  0.00    -0.200 F 
ATOM     98  F   UNL A   1      47.513  26.431  36.591  1.00  0.00    -0.200 F 
ENDBRANCH  65  88
ENDBRANCH  39  40
ENDBRANCH  31  34
ENDBRANCH  29  30
ENDBRANCH  28  29
ENDBRANCH  27  28
ENDBRANCH  26  27
ENDBRANCH   1  26
TORSDOF 18
ENDMDL
MODEL 2
REMARK VINA RESULT:     -11.1      2.580      4.605
REMARK SMILES COc1cc(C[N@@H+]2CCO[C@@H](CC(=O)NCCCCCCNC(=O)c3ccc(-c4c5nc(c(-c6c(F)c(F)c(F)c(F)c6F)c6ccc([nH]6)c(-c6c(F)c(F)c(F)c(F)c6F)c6nc(c(-c7c(F)c(F)c(F)c(F)c7F)c7ccc4[nH]7)C=C6)C=C5)cc3)C2)ccc1O
REMARK SMILES IDX 17 1 16 2 15 3 13 4 14 5 12 7 11 8 7 9 8 10 88 11 9 13 10 14
REMARK SMILES IDX 6 15 5 16 3 17 4 18 91 19 90 20 89 21 2 22 1 23 92 24 18 26
REMARK SMILES IDX 19 27 20 28 21 29 22 30 23 31 24 33 25 34 26 35 87 36 27 37
REMARK SMILES IDX 86 38 28 39 29 40 30 41 80 42 31 43 85 44 79 45 81 46 32 47
REMARK SMILES IDX 84 48 78 49 77 50 33 52 65 53 45 54 64 55 46 56 49 57 63 58
REMARK SMILES IDX 82 59 47 60 48 61 62 63 83 64 50 65 34 66 35 67 43 68 36 69
REMARK SMILES IDX 37 70 41 71 44 72 38 73 39 74 42 75 40 76 66 77 67 78 75 79
REMARK SMILES IDX 68 80 69 81 73 82 76 83 70 84 71 85 74 86 72 87 51 88 52 89
REMARK SMILES IDX 60 90 53 91 54 92 58 93 61 94 55 95 56 96 59 97 57 98
REMARK H PARENT 15 6 7 12 92 25 22 32 81 51 49 62
REMARK Flexibility Score: inf
ROOT
ATOM      1  C   UNL A   1      32.855  28.971  25.546  1.00  0.00     0.021 C 
ENDROOT
BRANCH   1   2
ATOM      2  C   UNL A   1      32.932  29.293  24.050  1.00  0.00     0.116 C 
BRANCH   2   3
ATOM      3  N   UNL A   1      31.592  29.294  23.495  1.00  0.00    -0.356 N 
ATOM      4  C   UNL A   1      31.052  28.456  22.563  1.00  0.00     0.222 C 
ATOM      5  O   UNL A   1      30.001  28.780  22.011  1.00  0.00    -0.275 OA
ATOM      6  H   UNL A   1      30.990  29.994  23.837  1.00  0.00     0.163 HD
BRANCH   4   7
ATOM      7  C   UNL A   1      31.725  27.137  22.273  1.00  0.00     0.138 C 
BRANCH   7   8
ATOM      8  C   UNL A   1      31.354  25.941  23.158  1.00  0.00     0.182 C 
ATOM      9  N   UNL A   1      32.250  24.042  24.652  1.00  0.00    -0.327 N 
ATOM     10  C   UNL A   1      31.385  24.597  25.700  1.00  0.00     0.291 C 
ATOM     11  C   UNL A   1      32.529  25.043  23.611  1.00  0.00     0.295 C 
ATOM     12  H   UNL A   1      33.142  23.844  25.107  1.00  0.00     0.348 HD
ATOM     13  C   UNL A   1      30.245  25.504  25.206  1.00  0.00     0.222 C 
ATOM     14  O   UNL A   1      30.719  26.520  24.322  1.00  0.00    -0.366 OA
BRANCH   9  15
ATOM     15  C   UNL A   1      31.937  22.690  24.184  1.00  0.00     0.299 C 
BRANCH  15  16
ATOM     16  C   UNL A   1      32.943  21.632  24.560  1.00  0.00     0.010 A 
ATOM     17  C   UNL A   1      33.579  19.303  24.591  1.00  0.00     0.160 A 
ATOM     18  C   UNL A   1      32.587  20.276  24.524  1.00  0.00     0.060 A 
ATOM     19  C   UNL A   1      34.901  19.670  24.834  1.00  0.00     0.157 A 
ATOM     20  C   UNL A   1      35.254  21.005  24.970  1.00  0.00     0.051 A 
ATOM     21  C   UNL A   1      34.275  21.989  24.828  1.00  0.00     0.013 A 
BRANCH  17  22
ATOM     22  O   UNL A   1      33.235  17.989  24.412  1.00  0.00    -0.493 OA
ATOM     23  C   UNL A   1      32.820  17.742  23.062  1.00  0.00     0.278 C 
ENDBRANCH  17  22
BRANCH  19  24
ATOM     24  O   UNL A   1      35.883  18.726  24.931  1.00  0.00    -0.504 OA
ATOM     25  H   UNL A   1      35.755  17.877  24.558  1.00  0.00     0.293 HD
ENDBRANCH  19  24
ENDBRANCH  15  16
ENDBRANCH   9  15
ENDBRANCH   7   8
ENDBRANCH   4   7
ENDBRANCH   2   3
ENDBRANCH   1   2
BRANCH   1  26
ATOM     26  C   UNL A   1      32.775  30.211  26.432  1.00  0.00     0.002 C 
BRANCH  26  27
ATOM     27  C   UNL A   1      31.388  30.855  26.470  1.00  0.00     0.002 C 
BRANCH  27  28
ATOM     28  C   UNL A   1      31.392  32.365  26.722  1.00  0.00     0.021 C 
BRANCH  28  29
ATOM     29  C   UNL A   1      32.755  32.931  27.110  1.00  0.00     0.116 C 
BRANCH  29  30
ATOM     30  N   UNL A   1      32.638  34.283  27.632  1.00  0.00    -0.352 N 
ATOM     31  C   UNL A   1      33.219  34.831  28.746  1.00  0.00     0.251 C 
ATOM     32  H   UNL A   1      32.060  34.889  27.113  1.00  0.00     0.163 HD
ATOM     33  O   UNL A   1      32.809  35.888  29.210  1.00  0.00    -0.269 OA
BRANCH  31  34
ATOM     34  C   UNL A   1      34.349  34.130  29.386  1.00  0.00     0.039 A 
ATOM     35  C   UNL A   1      34.088  33.136  30.331  1.00  0.00     0.014 A 
ATOM     36  C   UNL A   1      35.665  34.467  29.056  1.00  0.00     0.014 A 
ATOM     37  C   UNL A   1      35.151  32.444  30.912  1.00  0.00     0.010 A 
ATOM     38  C   UNL A   1      36.719  33.726  29.578  1.00  0.00     0.010 A 
ATOM     39  C   UNL A   1      36.473  32.715  30.520  1.00  0.00    -0.014 A 
BRANCH  39  40
ATOM     40  C   UNL A   1      37.617  31.969  31.100  1.00  0.00     0.031 A 
ATOM     41  C   UNL A   1      38.089  32.289  32.492  1.00  0.00     0.074 A 
ATOM     42  C   UNL A   1      38.259  31.048  30.358  1.00  0.00     0.049 A 
ATOM     43  N   UNL A   1      39.115  31.809  33.149  1.00  0.00    -0.248 NA
ATOM     44  C   UNL A   1      37.321  33.300  33.236  1.00  0.00     0.031 C 
ATOM     45  C   UNL A   1      37.915  30.677  28.984  1.00  0.00     0.029 A 
ATOM     46  N   UNL A   1      39.344  30.260  30.651  1.00  0.00    -0.354 N 
ATOM     47  C   UNL A   1      39.117  32.462  34.374  1.00  0.00     0.074 A 
ATOM     48  C   UNL A   1      38.030  33.417  34.349  1.00  0.00     0.031 C 
ATOM     49  C   UNL A   1      38.755  29.719  28.562  1.00  0.00     0.029 A 
ATOM     50  C   UNL A   1      39.724  29.438  29.617  1.00  0.00     0.049 A 
ATOM     51  H   UNL A   1      39.806  30.281  31.520  1.00  0.00     0.167 HD
ATOM     52  C   UNL A   1      39.932  32.262  35.436  1.00  0.00     0.037 A 
ATOM     53  C   UNL A   1      40.748  28.567  29.530  1.00  0.00     0.037 A 
ATOM     54  C   UNL A   1      41.001  31.299  35.462  1.00  0.00     0.049 A 
ATOM     55  C   UNL A   1      41.661  28.394  30.716  1.00  0.00     0.074 A 
ATOM     56  C   UNL A   1      41.865  30.997  36.500  1.00  0.00     0.029 A 
ATOM     57  N   UNL A   1      41.350  30.479  34.399  1.00  0.00    -0.354 N 
ATOM     58  N   UNL A   1      41.618  28.976  31.889  1.00  0.00    -0.248 NA
ATOM     59  C   UNL A   1      42.764  27.435  30.565  1.00  0.00     0.031 C 
ATOM     60  C   UNL A   1      42.767  30.028  36.051  1.00  0.00     0.029 A 
ATOM     61  C   UNL A   1      42.428  29.682  34.752  1.00  0.00     0.049 A 
ATOM     62  H   UNL A   1      40.898  30.464  33.525  1.00  0.00     0.167 HD
ATOM     63  C   UNL A   1      42.658  28.425  32.628  1.00  0.00     0.074 A 
ATOM     64  C   UNL A   1      43.305  27.452  31.774  1.00  0.00     0.031 C 
ATOM     65  C   UNL A   1      43.042  28.700  33.898  1.00  0.00     0.037 A 
BRANCH  52  66
ATOM     66  C   UNL A   1      39.694  33.089  36.666  1.00  0.00     0.064 A 
ATOM     67  C   UNL A   1      38.766  32.698  37.643  1.00  0.00     0.173 A 
ATOM     68  C   UNL A   1      40.439  34.255  36.900  1.00  0.00     0.173 A 
ATOM     69  F   UNL A   1      38.018  31.598  37.463  1.00  0.00    -0.203 F 
ATOM     70  C   UNL A   1      38.578  33.454  38.798  1.00  0.00     0.198 A 
ATOM     71  C   UNL A   1      40.272  34.991  38.070  1.00  0.00     0.198 A 
ATOM     72  F   UNL A   1      41.343  34.671  36.001  1.00  0.00    -0.203 F 
ATOM     73  F   UNL A   1      37.655  33.083  39.696  1.00  0.00    -0.200 F 
ATOM     74  C   UNL A   1      39.337  34.593  39.015  1.00  0.00     0.200 A 
ATOM     75  F   UNL A   1      41.017  36.083  38.285  1.00  0.00    -0.200 F 
ATOM     76  F   UNL A   1      39.167  35.311  40.134  1.00  0.00    -0.200 F 
ENDBRANCH  52  66
BRANCH  53  77
ATOM     77  C   UNL A   1      40.965  27.781  28.286  1.00  0.00     0.064 A 
ATOM     78  C   UNL A   1      40.376  26.519  28.121  1.00  0.00     0.173 A 
ATOM     79  C   UNL A   1      41.797  28.249  27.259  1.00  0.00     0.173 A 
ATOM     80  F   UNL A   1      39.587  26.018  29.082  1.00  0.00    -0.203 F 
ATOM     81  C   UNL A   1      40.642  25.740  26.996  1.00  0.00     0.198 A 
ATOM     82  C   UNL A   1      42.034  27.483  26.119  1.00  0.00     0.198 A 
ATOM     83  F   UNL A   1      42.382  29.451  27.363  1.00  0.00    -0.203 F 
ATOM     84  F   UNL A   1      40.119  24.510  26.898  1.00  0.00    -0.200 F 
ATOM     85  C   UNL A   1      41.469  26.225  25.995  1.00  0.00     0.200 A 
ATOM     86  F   UNL A   1      42.822  27.963  25.147  1.00  0.00    -0.200 F 
ATOM     87  F   UNL A   1      41.731  25.473  24.917  1.00  0.00    -0.200 F 
ENDBRANCH  53  77
BRANCH  65  88
ATOM     88  C   UNL A   1      44.179  27.899  34.463  1.00  0.00     0.064 A 
ATOM     89  C   UNL A   1      43.974  26.661  35.090  1.00  0.00     0.173 A 
ATOM     90  C   UNL A   1      45.499  28.361  34.338  1.00  0.00     0.173 A 
ATOM     91  F   UNL A   1      42.730  26.182  35.248  1.00  0.00    -0.203 F 
ATOM     92  C   UNL A   1      45.044  25.930  35.597  1.00  0.00     0.198 A 
ATOM     93  C   UNL A   1      46.570  27.610  34.814  1.00  0.00     0.198 A 
ATOM     94  F   UNL A   1      45.751  29.534  33.740  1.00  0.00    -0.203 F 
ATOM     95  F   UNL A   1      44.820  24.775  36.240  1.00  0.00    -0.200 F 
ATOM     96  C   UNL A   1      46.342  26.400  35.451  1.00  0.00     0.200 A 
ATOM     97  F   UNL A   1      47.823  28.058  34.657  1.00  0.00    -0.200 F 
ATOM     98  F   UNL A   1      47.371  25.689  35.930  1.00  0.00    -0.200 F 
ENDBRANCH  65  88
ENDBRANCH  39  40
ENDBRANCH  31  34
ENDBRANCH  29  30
ENDBRANCH  28  29
ENDBRANCH  27  28
ENDBRANCH  26  27
ENDBRANCH   1  26
TORSDOF 18
ENDMDL
MODEL 3
REMARK VINA RESULT:     -11.0      2.267      8.267
REMARK SMILES COc1cc(C[N@@H+]2CCO[C@@H](CC(=O)NCCCCCCNC(=O)c3ccc(-c4c5nc(c(-c6c(F)c(F)c(F)c(F)c6F)c6ccc([nH]6)c(-c6c(F)c(F)c(F)c(F)c6F)c6nc(c(-c7c(F)c(F)c(F)c(F)c7F)c7ccc4[nH]7)C=C6)C=C5)cc3)C2)ccc1O
REMARK SMILES IDX 17 1 16 2 15 3 13 4 14 5 12 7 11 8 7 9 8 10 88 11 9 13 10 14
REMARK SMILES IDX 6 15 5 16 3 17 4 18 91 19 90 20 89 21 2 22 1 23 92 24 18 26
REMARK SMILES IDX 19 27 20 28 21 29 22 30 23 31 24 33 25 34 26 35 87 36 27 37
REMARK SMILES IDX 86 38 28 39 29 40 30 41 80 42 31 43 85 44 79 45 81 46 32 47
REMARK SMILES IDX 84 48 78 49 77 50 33 52 65 53 45 54 64 55 46 56 49 57 63 58
REMARK SMILES IDX 82 59 47 60 48 61 62 63 83 64 50 65 34 66 35 67 43 68 36 69
REMARK SMILES IDX 37 70 41 71 44 72 38 73 39 74 42 75 40 76 66 77 67 78 75 79
REMARK SMILES IDX 68 80 69 81 73 82 76 83 70 84 71 85 74 86 72 87 51 88 52 89
REMARK SMILES IDX 60 90 53 91 54 92 58 93 61 94 55 95 56 96 59 97 57 98
REMARK H PARENT 15 6 7 12 92 25 22 32 81 51 49 62
REMARK Flexibility Score: inf
ROOT
ATOM      1  C   UNL A   1      32.404  28.713  27.516  1.00  0.00     0.021 C 
ENDROOT
BRANCH   1   2
ATOM      2  C   UNL A   1      32.467  27.521  26.555  1.00  0.00     0.116 C 
BRANCH   2   3
ATOM      3  N   UNL A   1      31.376  26.612  26.854  1.00  0.00    -0.356 N 
ATOM      4  C   UNL A   1      30.511  26.003  25.992  1.00  0.00     0.222 C 
ATOM      5  O   UNL A   1      29.484  25.496  26.442  1.00  0.00    -0.275 OA
ATOM      6  H   UNL A   1      31.242  26.407  27.808  1.00  0.00     0.163 HD
BRANCH   4   7
ATOM      7  C   UNL A   1      30.858  25.923  24.526  1.00  0.00     0.138 C 
BRANCH   7   8
ATOM      8  C   UNL A   1      31.744  24.757  24.070  1.00  0.00     0.182 C 
ATOM      9  N   UNL A   1      32.005  22.811  22.399  1.00  0.00    -0.327 N 
ATOM     10  C   UNL A   1      33.290  23.425  22.044  1.00  0.00     0.291 C 
ATOM     11  C   UNL A   1      31.113  23.788  23.042  1.00  0.00     0.295 C 
ATOM     12  H   UNL A   1      31.565  22.560  21.514  1.00  0.00     0.348 HD
ATOM     13  C   UNL A   1      33.869  24.401  23.082  1.00  0.00     0.222 C 
ATOM     14  O   UNL A   1      32.911  25.380  23.484  1.00  0.00    -0.366 OA
BRANCH   9  15
ATOM     15  C   UNL A   1      32.055  21.480  23.006  1.00  0.00     0.299 C 
BRANCH  15  16
ATOM     16  C   UNL A   1      32.739  21.410  24.347  1.00  0.00     0.010 A 
ATOM     17  C   UNL A   1      34.788  21.255  25.615  1.00  0.00     0.160 A 
ATOM     18  C   UNL A   1      34.092  21.045  24.429  1.00  0.00     0.060 A 
ATOM     19  C   UNL A   1      34.114  21.693  26.753  1.00  0.00     0.157 A 
ATOM     20  C   UNL A   1      32.754  21.965  26.712  1.00  0.00     0.051 A 
ATOM     21  C   UNL A   1      32.066  21.828  25.506  1.00  0.00     0.013 A 
BRANCH  17  22
ATOM     22  O   UNL A   1      36.139  21.028  25.641  1.00  0.00    -0.493 OA
ATOM     23  C   UNL A   1      36.842  21.997  24.852  1.00  0.00     0.278 C 
ENDBRANCH  17  22
BRANCH  19  24
ATOM     24  O   UNL A   1      34.777  21.877  27.932  1.00  0.00    -0.504 OA
ATOM     25  H   UNL A   1      35.636  21.522  28.048  1.00  0.00     0.293 HD
ENDBRANCH  19  24
ENDBRANCH  15  16
ENDBRANCH   9  15
ENDBRANCH   7   8
ENDBRANCH   4   7
ENDBRANCH   2   3
ENDBRANCH   1   2
BRANCH   1  26
ATOM     26  C   UNL A   1      32.646  30.057  26.835  1.00  0.00     0.002 C 
BRANCH  26  27
ATOM     27  C   UNL A   1      31.369  30.743  26.349  1.00  0.00     0.002 C 
BRANCH  27  28
ATOM     28  C   UNL A   1      31.342  32.260  26.549  1.00  0.00     0.021 C 
BRANCH  28  29
ATOM     29  C   UNL A   1      32.583  32.822  27.236  1.00  0.00     0.116 C 
BRANCH  29  30
ATOM     30  N   UNL A   1      32.418  34.230  27.560  1.00  0.00    -0.352 N 
ATOM     31  C   UNL A   1      32.977  34.951  28.583  1.00  0.00     0.251 C 
ATOM     32  H   UNL A   1      31.821  34.735  26.961  1.00  0.00     0.163 HD
ATOM     33  O   UNL A   1      32.529  36.048  28.892  1.00  0.00    -0.269 OA
BRANCH  31  34
ATOM     34  C   UNL A   1      34.129  34.389  29.313  1.00  0.00     0.039 A 
ATOM     35  C   UNL A   1      33.904  33.653  30.478  1.00  0.00     0.014 A 
ATOM     36  C   UNL A   1      35.430  34.601  28.848  1.00  0.00     0.014 A 
ATOM     37  C   UNL A   1      34.986  33.088  31.153  1.00  0.00     0.010 A 
ATOM     38  C   UNL A   1      36.499  33.974  29.477  1.00  0.00     0.010 A 
ATOM     39  C   UNL A   1      36.289  33.221  30.643  1.00  0.00    -0.014 A 
BRANCH  39  40
ATOM     40  C   UNL A   1      37.450  32.601  31.326  1.00  0.00     0.031 A 
ATOM     41  C   UNL A   1      38.187  31.466  30.668  1.00  0.00     0.074 A 
ATOM     42  C   UNL A   1      37.806  33.022  32.554  1.00  0.00     0.049 A 
ATOM     43  N   UNL A   1      39.173  30.740  31.131  1.00  0.00    -0.248 NA
ATOM     44  C   UNL A   1      37.740  31.080  29.320  1.00  0.00     0.031 C 
ATOM     45  C   UNL A   1      37.146  34.089  33.308  1.00  0.00     0.029 A 
ATOM     46  N   UNL A   1      38.806  32.595  33.392  1.00  0.00    -0.354 N 
ATOM     47  C   UNL A   1      39.457  29.813  30.137  1.00  0.00     0.074 A 
ATOM     48  C   UNL A   1      38.501  30.024  29.072  1.00  0.00     0.031 C 
ATOM     49  C   UNL A   1      37.773  34.251  34.485  1.00  0.00     0.029 A 
ATOM     50  C   UNL A   1      38.848  33.270  34.589  1.00  0.00     0.049 A 
ATOM     51  H   UNL A   1      39.434  31.874  33.158  1.00  0.00     0.167 HD
ATOM     52  C   UNL A   1      40.446  28.888  30.102  1.00  0.00     0.037 A 
ATOM     53  C   UNL A   1      39.659  33.105  35.652  1.00  0.00     0.037 A 
ATOM     54  C   UNL A   1      41.405  28.694  31.156  1.00  0.00     0.049 A 
ATOM     55  C   UNL A   1      40.725  32.042  35.598  1.00  0.00     0.074 A 
ATOM     56  C   UNL A   1      42.465  27.805  31.205  1.00  0.00     0.029 A 
ATOM     57  N   UNL A   1      41.422  29.403  32.348  1.00  0.00    -0.354 N 
ATOM     58  N   UNL A   1      41.020  31.210  34.629  1.00  0.00    -0.248 NA
ATOM     59  C   UNL A   1      41.578  31.902  36.787  1.00  0.00     0.031 C 
ATOM     60  C   UNL A   1      43.095  27.943  32.446  1.00  0.00     0.029 A 
ATOM     61  C   UNL A   1      42.464  28.959  33.146  1.00  0.00     0.049 A 
ATOM     62  H   UNL A   1      40.788  30.116  32.591  1.00  0.00     0.167 HD
ATOM     63  C   UNL A   1      42.114  30.478  35.074  1.00  0.00     0.074 A 
ATOM     64  C   UNL A   1      42.439  30.975  36.394  1.00  0.00     0.031 C 
ATOM     65  C   UNL A   1      42.789  29.484  34.447  1.00  0.00     0.037 A 
BRANCH  52  66
ATOM     66  C   UNL A   1      40.552  28.025  28.879  1.00  0.00     0.064 A 
ATOM     67  C   UNL A   1      39.850  26.813  28.775  1.00  0.00     0.173 A 
ATOM     68  C   UNL A   1      41.315  28.435  27.776  1.00  0.00     0.173 A 
ATOM     69  F   UNL A   1      39.115  26.368  29.806  1.00  0.00    -0.203 F 
ATOM     70  C   UNL A   1      39.927  26.036  27.622  1.00  0.00     0.198 A 
ATOM     71  C   UNL A   1      41.364  27.672  26.612  1.00  0.00     0.198 A 
ATOM     72  F   UNL A   1      42.001  29.587  27.820  1.00  0.00    -0.203 F 
ATOM     73  F   UNL A   1      39.282  24.862  27.563  1.00  0.00    -0.200 F 
ATOM     74  C   UNL A   1      40.674  26.470  26.539  1.00  0.00     0.200 A 
ATOM     75  F   UNL A   1      42.075  28.101  25.561  1.00  0.00    -0.200 F 
ATOM     76  F   UNL A   1      40.735  25.730  25.423  1.00  0.00    -0.200 F 
ENDBRANCH  52  66
BRANCH  53  77
ATOM     77  C   UNL A   1      39.509  33.967  36.855  1.00  0.00     0.064 A 
ATOM     78  C   UNL A   1      40.163  35.204  36.940  1.00  0.00     0.173 A 
ATOM     79  C   UNL A   1      38.750  33.556  37.960  1.00  0.00     0.173 A 
ATOM     80  F   UNL A   1      40.917  35.634  35.917  1.00  0.00    -0.203 F 
ATOM     81  C   UNL A   1      40.096  35.979  38.096  1.00  0.00     0.198 A 
ATOM     82  C   UNL A   1      38.655  34.348  39.103  1.00  0.00     0.198 A 
ATOM     83  F   UNL A   1      38.099  32.384  37.931  1.00  0.00    -0.203 F 
ATOM     84  F   UNL A   1      40.787  37.124  38.174  1.00  0.00    -0.200 F 
ATOM     85  C   UNL A   1      39.339  35.551  39.176  1.00  0.00     0.200 A 
ATOM     86  F   UNL A   1      37.910  33.937  40.139  1.00  0.00    -0.200 F 
ATOM     87  F   UNL A   1      39.280  36.291  40.292  1.00  0.00    -0.200 F 
ENDBRANCH  53  77
BRANCH  65  88
ATOM     88  C   UNL A   1      43.981  28.907  35.153  1.00  0.00     0.064 A 
ATOM     89  C   UNL A   1      45.273  29.425  34.973  1.00  0.00     0.173 A 
ATOM     90  C   UNL A   1      43.821  27.844  36.056  1.00  0.00     0.173 A 
ATOM     91  F   UNL A   1      45.482  30.431  34.109  1.00  0.00    -0.203 F 
ATOM     92  C   UNL A   1      46.362  28.881  35.647  1.00  0.00     0.198 A 
ATOM     93  C   UNL A   1      44.907  27.327  36.755  1.00  0.00     0.198 A 
ATOM     94  F   UNL A   1      42.606  27.318  36.272  1.00  0.00    -0.203 F 
ATOM     95  F   UNL A   1      47.595  29.357  35.418  1.00  0.00    -0.200 F 
ATOM     96  C   UNL A   1      46.178  27.839  36.544  1.00  0.00     0.200 A 
ATOM     97  F   UNL A   1      44.724  26.331  37.634  1.00  0.00    -0.200 F 
ATOM     98  F   UNL A   1      47.226  27.324  37.200  1.00  0.00    -0.200 F 
ENDBRANCH  65  88
ENDBRANCH  39  40
ENDBRANCH  31  34
ENDBRANCH  29  30
ENDBRANCH  28  29
ENDBRANCH  27  28
ENDBRANCH  26  27
ENDBRANCH   1  26
TORSDOF 18
ENDMDL
