MODEL 1
REMARK VINA RESULT:     -12.2      0.000      0.000
REMARK SMILES Cc1csc(NC(=O)[C@@H]2CC=CC[C@H]2C(=O)NCCCCCCNC(=O)c2ccc(-c3c4nc(c(-c5c(F)c(F)c(F)c(F)c5F)c5ccc([nH]5)c(-c5c(F)c(F)c(F)c(F)c5F)c5nc(c(-c6c(F)c(F)c(F)c(F)c6F)c6ccc3[nH]6)C=C5)C=C4)cc2)n1
REMARK SMILES IDX 20 1 19 2 18 3 17 4 15 5 16 6 14 8 9 9 10 10 11 11 13 12
REMARK SMILES IDX 12 13 7 14 6 15 8 17 5 18 1 19 2 20 3 21 90 22 4 23 21 24
REMARK SMILES IDX 22 25 23 26 24 27 25 28 26 30 27 31 28 32 89 33 29 34 88 35
REMARK SMILES IDX 30 36 31 37 32 38 82 39 33 40 87 41 81 42 83 43 34 44 86 45
REMARK SMILES IDX 80 46 79 47 35 49 67 50 47 51 66 52 48 53 51 54 65 55 84 56
REMARK SMILES IDX 49 57 50 58 64 60 85 61 52 62 36 63 37 64 45 65 38 66 39 67
REMARK SMILES IDX 43 68 46 69 40 70 41 71 44 72 42 73 68 74 69 75 77 76 70 77
REMARK SMILES IDX 71 78 75 79 78 80 72 81 73 82 76 83 74 84 53 85 54 86 62 87
REMARK SMILES IDX 55 88 56 89 60 90 63 91 57 92 58 93 61 94 59 95
REMARK H PARENT 17 7 6 16 24 29 83 48 51 59
REMARK Flexibility Score: inf
ROOT
ATOM      1  C   UNL A   1      36.772  22.139  24.400  1.00  0.00     0.002 C 
ENDROOT
BRANCH   1   2
ATOM      2  C   UNL A   1      36.616  23.274  25.419  1.00  0.00     0.021 C 
BRANCH   2   3
ATOM      3  C   UNL A   1      35.169  23.734  25.581  1.00  0.00     0.116 C 
BRANCH   3   4
ATOM      4  N   UNL A   1      34.594  23.168  26.786  1.00  0.00    -0.356 N 
ATOM      5  C   UNL A   1      33.379  22.598  27.009  1.00  0.00     0.224 C 
ATOM      6  O   UNL A   1      33.168  22.123  28.128  1.00  0.00    -0.275 OA
ATOM      7  H   UNL A   1      35.182  23.203  27.575  1.00  0.00     0.163 HD
BRANCH   5   8
ATOM      8  C   UNL A   1      32.374  22.409  25.877  1.00  0.00     0.095 C 
ATOM      9  C   UNL A   1      31.763  23.729  25.303  1.00  0.00     0.095 C 
ATOM     10  C   UNL A   1      31.167  23.470  23.921  1.00  0.00     0.041 C 
ATOM     11  C   UNL A   1      31.881  22.534  23.007  1.00  0.00    -0.030 C 
ATOM     12  C   UNL A   1      33.055  21.433  24.883  1.00  0.00     0.041 C 
ATOM     13  C   UNL A   1      32.733  21.609  23.442  1.00  0.00    -0.030 C 
BRANCH   9  14
ATOM     14  C   UNL A   1      30.865  24.390  26.389  1.00  0.00     0.230 C 
ATOM     15  N   UNL A   1      30.636  25.703  26.635  1.00  0.00    -0.302 N 
ATOM     16  H   UNL A   1      30.071  25.870  27.423  1.00  0.00     0.172 HD
ATOM     17  O   UNL A   1      30.318  23.645  27.221  1.00  0.00    -0.274 OA
BRANCH  15  18
ATOM     18  C   UNL A   1      31.040  26.828  25.994  1.00  0.00     0.189 A 
ATOM     19  C   UNL A   1      30.622  29.164  23.347  1.00  0.00     0.068 C 
ATOM     20  C   UNL A   1      31.102  28.534  24.601  1.00  0.00     0.051 A 
ATOM     21  C   UNL A   1      31.740  29.114  25.679  1.00  0.00     0.092 A 
ATOM     22  N   UNL A   1      30.829  27.198  24.768  1.00  0.00    -0.225 NA
ATOM     23  S   UNL A   1      31.893  27.958  26.951  1.00  0.00    -0.105 S 
ENDBRANCH  15  18
ENDBRANCH   9  14
ENDBRANCH   5   8
ENDBRANCH   3   4
ENDBRANCH   2   3
ENDBRANCH   1   2
BRANCH   1  24
ATOM     24  C   UNL A   1      36.732  20.731  25.006  1.00  0.00     0.002 C 
BRANCH  24  25
ATOM     25  C   UNL A   1      38.030  19.935  24.854  1.00  0.00     0.021 C 
BRANCH  25  26
ATOM     26  C   UNL A   1      39.066  20.225  25.932  1.00  0.00     0.116 C 
BRANCH  26  27
ATOM     27  N   UNL A   1      40.102  19.205  25.972  1.00  0.00    -0.352 N 
ATOM     28  C   UNL A   1      41.463  19.355  26.055  1.00  0.00     0.251 C 
ATOM     29  H   UNL A   1      39.781  18.275  25.935  1.00  0.00     0.163 HD
ATOM     30  O   UNL A   1      42.207  18.402  25.860  1.00  0.00    -0.269 OA
BRANCH  28  31
ATOM     31  C   UNL A   1      42.030  20.683  26.365  1.00  0.00     0.039 A 
ATOM     32  C   UNL A   1      42.306  21.561  25.315  1.00  0.00     0.014 A 
ATOM     33  C   UNL A   1      42.291  21.056  27.687  1.00  0.00     0.014 A 
ATOM     34  C   UNL A   1      42.798  22.836  25.596  1.00  0.00     0.010 A 
ATOM     35  C   UNL A   1      42.707  22.351  27.970  1.00  0.00     0.010 A 
ATOM     36  C   UNL A   1      42.974  23.252  26.927  1.00  0.00    -0.014 A 
BRANCH  36  37
ATOM     37  C   UNL A   1      43.445  24.621  27.247  1.00  0.00     0.031 A 
ATOM     38  C   UNL A   1      42.493  25.630  27.825  1.00  0.00     0.074 A 
ATOM     39  C   UNL A   1      44.712  24.973  26.959  1.00  0.00     0.049 A 
ATOM     40  N   UNL A   1      42.697  26.890  28.117  1.00  0.00    -0.248 NA
ATOM     41  C   UNL A   1      41.119  25.169  28.081  1.00  0.00     0.031 C 
ATOM     42  C   UNL A   1      45.715  24.095  26.355  1.00  0.00     0.029 A 
ATOM     43  N   UNL A   1      45.370  26.165  27.130  1.00  0.00    -0.354 N 
ATOM     44  C   UNL A   1      41.480  27.372  28.578  1.00  0.00     0.074 A 
ATOM     45  C   UNL A   1      40.527  26.289  28.469  1.00  0.00     0.031 C 
ATOM     46  C   UNL A   1      46.869  24.769  26.231  1.00  0.00     0.029 A 
ATOM     47  C   UNL A   1      46.677  26.135  26.707  1.00  0.00     0.049 A 
ATOM     48  H   UNL A   1      44.947  26.964  27.518  1.00  0.00     0.167 HD
ATOM     49  C   UNL A   1      41.188  28.600  29.070  1.00  0.00     0.037 A 
ATOM     50  C   UNL A   1      47.610  27.105  26.699  1.00  0.00     0.037 A 
ATOM     51  C   UNL A   1      42.146  29.667  29.192  1.00  0.00     0.049 A 
ATOM     52  C   UNL A   1      47.258  28.466  27.234  1.00  0.00     0.074 A 
ATOM     53  C   UNL A   1      41.968  30.929  29.733  1.00  0.00     0.029 A 
ATOM     54  N   UNL A   1      43.462  29.601  28.758  1.00  0.00    -0.354 N 
ATOM     55  N   UNL A   1      46.124  28.891  27.735  1.00  0.00    -0.248 NA
ATOM     56  C   UNL A   1      48.321  29.480  27.209  1.00  0.00     0.031 C 
ATOM     57  C   UNL A   1      43.160  31.645  29.574  1.00  0.00     0.029 A 
ATOM     58  C   UNL A   1      44.101  30.809  28.991  1.00  0.00     0.049 A 
ATOM     59  H   UNL A   1      43.881  28.811  28.344  1.00  0.00     0.167 HD
ATOM     60  C   UNL A   1      46.342  30.210  28.111  1.00  0.00     0.074 A 
ATOM     61  C   UNL A   1      47.724  30.510  27.793  1.00  0.00     0.031 C 
ATOM     62  C   UNL A   1      45.478  31.092  28.671  1.00  0.00     0.037 A 
BRANCH  49  63
ATOM     63  C   UNL A   1      39.773  28.852  29.507  1.00  0.00     0.064 A 
ATOM     64  C   UNL A   1      39.345  28.590  30.819  1.00  0.00     0.173 A 
ATOM     65  C   UNL A   1      38.833  29.378  28.607  1.00  0.00     0.173 A 
ATOM     66  F   UNL A   1      40.199  28.077  31.717  1.00  0.00    -0.203 F 
ATOM     67  C   UNL A   1      38.024  28.805  31.200  1.00  0.00     0.198 A 
ATOM     68  C   UNL A   1      37.520  29.626  29.002  1.00  0.00     0.198 A 
ATOM     69  F   UNL A   1      39.187  29.654  27.343  1.00  0.00    -0.203 F 
ATOM     70  F   UNL A   1      37.626  28.487  32.439  1.00  0.00    -0.200 F 
ATOM     71  C   UNL A   1      37.114  29.328  30.294  1.00  0.00     0.200 A 
ATOM     72  F   UNL A   1      36.647  30.145  28.129  1.00  0.00    -0.200 F 
ATOM     73  F   UNL A   1      35.843  29.538  30.662  1.00  0.00    -0.200 F 
ENDBRANCH  49  63
BRANCH  50  74
ATOM     74  C   UNL A   1      48.978  26.810  26.195  1.00  0.00     0.064 A 
ATOM     75  C   UNL A   1      49.942  26.232  27.032  1.00  0.00     0.173 A 
ATOM     76  C   UNL A   1      49.344  27.089  24.870  1.00  0.00     0.173 A 
ATOM     77  F   UNL A   1      49.645  25.965  28.311  1.00  0.00    -0.203 F 
ATOM     78  C   UNL A   1      51.227  25.960  26.567  1.00  0.00     0.198 A 
ATOM     79  C   UNL A   1      50.621  26.789  24.399  1.00  0.00     0.198 A 
ATOM     80  F   UNL A   1      48.457  27.637  24.027  1.00  0.00    -0.203 F 
ATOM     81  F   UNL A   1      52.143  25.446  27.400  1.00  0.00    -0.200 F 
ATOM     82  C   UNL A   1      51.564  26.232  25.250  1.00  0.00     0.200 A 
ATOM     83  F   UNL A   1      50.937  27.038  23.121  1.00  0.00    -0.200 F 
ATOM     84  F   UNL A   1      52.797  25.962  24.802  1.00  0.00    -0.200 F 
ENDBRANCH  50  74
BRANCH  62  85
ATOM     85  C   UNL A   1      46.007  32.457  29.007  1.00  0.00     0.064 A 
ATOM     86  C   UNL A   1      46.624  32.728  30.236  1.00  0.00     0.173 A 
ATOM     87  C   UNL A   1      45.928  33.498  28.069  1.00  0.00     0.173 A 
ATOM     88  F   UNL A   1      46.710  31.772  31.174  1.00  0.00    -0.203 F 
ATOM     89  C   UNL A   1      47.119  33.997  30.524  1.00  0.00     0.198 A 
ATOM     90  C   UNL A   1      46.455  34.756  28.347  1.00  0.00     0.198 A 
ATOM     91  F   UNL A   1      45.353  33.290  26.874  1.00  0.00    -0.203 F 
ATOM     92  F   UNL A   1      47.660  34.247  31.725  1.00  0.00    -0.200 F 
ATOM     93  C   UNL A   1      47.042  35.007  29.577  1.00  0.00     0.200 A 
ATOM     94  F   UNL A   1      46.394  35.725  27.423  1.00  0.00    -0.200 F 
ATOM     95  F   UNL A   1      47.529  36.225  29.852  1.00  0.00    -0.200 F 
ENDBRANCH  62  85
ENDBRANCH  36  37
ENDBRANCH  28  31
ENDBRANCH  26  27
ENDBRANCH  25  26
ENDBRANCH  24  25
ENDBRANCH   1  24
TORSDOF 15
ENDMDL
MODEL 2
REMARK VINA RESULT:     -12.1      5.506     11.049
REMARK SMILES Cc1csc(NC(=O)[C@@H]2CC=CC[C@H]2C(=O)NCCCCCCNC(=O)c2ccc(-c3c4nc(c(-c5c(F)c(F)c(F)c(F)c5F)c5ccc([nH]5)c(-c5c(F)c(F)c(F)c(F)c5F)c5nc(c(-c6c(F)c(F)c(F)c(F)c6F)c6ccc3[nH]6)C=C5)C=C4)cc2)n1
REMARK SMILES IDX 20 1 19 2 18 3 17 4 15 5 16 6 14 8 9 9 10 10 11 11 13 12
REMARK SMILES IDX 12 13 7 14 6 15 8 17 5 18 1 19 2 20 3 21 90 22 4 23 21 24
REMARK SMILES IDX 22 25 23 26 24 27 25 28 26 30 27 31 28 32 89 33 29 34 88 35
REMARK SMILES IDX 30 36 31 37 32 38 82 39 33 40 87 41 81 42 83 43 34 44 86 45
REMARK SMILES IDX 80 46 79 47 35 49 67 50 47 51 66 52 48 53 51 54 65 55 84 56
REMARK SMILES IDX 49 57 50 58 64 60 85 61 52 62 36 63 37 64 45 65 38 66 39 67
REMARK SMILES IDX 43 68 46 69 40 70 41 71 44 72 42 73 68 74 69 75 77 76 70 77
REMARK SMILES IDX 71 78 75 79 78 80 72 81 73 82 76 83 74 84 53 85 54 86 62 87
REMARK SMILES IDX 55 88 56 89 60 90 63 91 57 92 58 93 61 94 59 95
REMARK H PARENT 17 7 6 16 24 29 83 48 51 59
REMARK Flexibility Score: inf
ROOT
ATOM      1  C   UNL A   1      32.147  29.715  26.869  1.00  0.00     0.002 C 
ENDROOT
BRANCH   1   2
ATOM      2  C   UNL A   1      33.578  29.305  26.501  1.00  0.00     0.021 C 
BRANCH   2   3
ATOM      3  C   UNL A   1      33.633  28.069  25.608  1.00  0.00     0.116 C 
BRANCH   3   4
ATOM      4  N   UNL A   1      34.172  28.411  24.306  1.00  0.00    -0.356 N 
ATOM      5  C   UNL A   1      33.716  28.140  23.054  1.00  0.00     0.224 C 
ATOM      6  O   UNL A   1      34.338  28.620  22.103  1.00  0.00    -0.275 OA
ATOM      7  H   UNL A   1      35.010  28.927  24.335  1.00  0.00     0.163 HD
BRANCH   5   8
ATOM      8  C   UNL A   1      32.398  27.405  22.835  1.00  0.00     0.095 C 
ATOM      9  C   UNL A   1      32.333  25.962  23.435  1.00  0.00     0.095 C 
ATOM     10  C   UNL A   1      30.878  25.519  23.576  1.00  0.00     0.041 C 
ATOM     11  C   UNL A   1      29.869  26.533  23.993  1.00  0.00    -0.030 C 
ATOM     12  C   UNL A   1      31.293  28.411  23.248  1.00  0.00     0.041 C 
ATOM     13  C   UNL A   1      30.054  27.842  23.842  1.00  0.00    -0.030 C 
BRANCH   9  14
ATOM     14  C   UNL A   1      33.319  25.041  22.658  1.00  0.00     0.230 C 
ATOM     15  N   UNL A   1      34.287  24.221  23.132  1.00  0.00    -0.302 N 
ATOM     16  H   UNL A   1      34.822  23.784  22.431  1.00  0.00     0.172 HD
ATOM     17  O   UNL A   1      33.300  25.090  21.416  1.00  0.00    -0.274 OA
BRANCH  15  18
ATOM     18  C   UNL A   1      34.654  23.889  24.396  1.00  0.00     0.189 A 
ATOM     19  C   UNL A   1      33.806  22.563  27.584  1.00  0.00     0.068 C 
ATOM     20  C   UNL A   1      34.604  23.075  26.442  1.00  0.00     0.051 A 
ATOM     21  C   UNL A   1      35.952  22.928  26.187  1.00  0.00     0.092 A 
ATOM     22  N   UNL A   1      33.917  23.737  25.453  1.00  0.00    -0.225 NA
ATOM     23  S   UNL A   1      36.314  23.554  24.620  1.00  0.00    -0.105 S 
ENDBRANCH  15  18
ENDBRANCH   9  14
ENDBRANCH   5   8
ENDBRANCH   3   4
ENDBRANCH   2   3
ENDBRANCH   1   2
BRANCH   1  24
ATOM     24  C   UNL A   1      31.573  30.856  26.021  1.00  0.00     0.002 C 
BRANCH  24  25
ATOM     25  C   UNL A   1      31.362  32.169  26.778  1.00  0.00     0.021 C 
BRANCH  25  26
ATOM     26  C   UNL A   1      32.654  32.861  27.194  1.00  0.00     0.116 C 
BRANCH  26  27
ATOM     27  N   UNL A   1      32.425  34.244  27.580  1.00  0.00    -0.352 N 
ATOM     28  C   UNL A   1      32.988  34.964  28.602  1.00  0.00     0.251 C 
ATOM     29  H   UNL A   1      31.773  34.734  27.028  1.00  0.00     0.163 HD
ATOM     30  O   UNL A   1      32.527  36.052  28.925  1.00  0.00    -0.269 OA
BRANCH  28  31
ATOM     31  C   UNL A   1      34.150  34.409  29.326  1.00  0.00     0.039 A 
ATOM     32  C   UNL A   1      33.938  33.747  30.537  1.00  0.00     0.014 A 
ATOM     33  C   UNL A   1      35.442  34.548  28.813  1.00  0.00     0.014 A 
ATOM     34  C   UNL A   1      35.019  33.178  31.209  1.00  0.00     0.010 A 
ATOM     35  C   UNL A   1      36.507  33.914  29.442  1.00  0.00     0.010 A 
ATOM     36  C   UNL A   1      36.308  33.230  30.651  1.00  0.00    -0.014 A 
BRANCH  36  37
ATOM     37  C   UNL A   1      37.462  32.585  31.324  1.00  0.00     0.031 A 
ATOM     38  C   UNL A   1      38.183  31.447  30.658  1.00  0.00     0.074 A 
ATOM     39  C   UNL A   1      37.819  32.983  32.559  1.00  0.00     0.049 A 
ATOM     40  N   UNL A   1      39.173  30.717  31.107  1.00  0.00    -0.248 NA
ATOM     41  C   UNL A   1      37.708  31.058  29.321  1.00  0.00     0.031 C 
ATOM     42  C   UNL A   1      37.167  34.045  33.326  1.00  0.00     0.029 A 
ATOM     43  N   UNL A   1      38.815  32.535  33.390  1.00  0.00    -0.354 N 
ATOM     44  C   UNL A   1      39.429  29.779  30.115  1.00  0.00     0.074 A 
ATOM     45  C   UNL A   1      38.452  29.991  29.069  1.00  0.00     0.031 C 
ATOM     46  C   UNL A   1      37.796  34.186  34.503  1.00  0.00     0.029 A 
ATOM     47  C   UNL A   1      38.867  33.198  34.592  1.00  0.00     0.049 A 
ATOM     48  H   UNL A   1      39.432  31.807  33.149  1.00  0.00     0.167 HD
ATOM     49  C   UNL A   1      40.406  28.842  30.071  1.00  0.00     0.037 A 
ATOM     50  C   UNL A   1      39.685  33.024  35.647  1.00  0.00     0.037 A 
ATOM     51  C   UNL A   1      41.385  28.649  31.108  1.00  0.00     0.049 A 
ATOM     52  C   UNL A   1      40.751  31.965  35.581  1.00  0.00     0.074 A 
ATOM     53  C   UNL A   1      42.453  27.768  31.133  1.00  0.00     0.029 A 
ATOM     54  N   UNL A   1      41.411  29.342  32.309  1.00  0.00    -0.354 N 
ATOM     55  N   UNL A   1      41.031  31.131  34.609  1.00  0.00    -0.248 NA
ATOM     56  C   UNL A   1      41.618  31.827  36.759  1.00  0.00     0.031 C 
ATOM     57  C   UNL A   1      43.090  27.890  32.373  1.00  0.00     0.029 A 
ATOM     58  C   UNL A   1      42.458  28.890  33.096  1.00  0.00     0.049 A 
ATOM     59  H   UNL A   1      40.778  30.053  32.565  1.00  0.00     0.167 HD
ATOM     60  C   UNL A   1      42.123  30.391  35.044  1.00  0.00     0.074 A 
ATOM     61  C   UNL A   1      42.463  30.886  36.362  1.00  0.00     0.031 C 
ATOM     62  C   UNL A   1      42.786  29.394  34.407  1.00  0.00     0.037 A 
BRANCH  49  63
ATOM     63  C   UNL A   1      40.455  27.952  28.862  1.00  0.00     0.064 A 
ATOM     64  C   UNL A   1      41.221  28.281  27.731  1.00  0.00     0.173 A 
ATOM     65  C   UNL A   1      39.740  26.745  28.837  1.00  0.00     0.173 A 
ATOM     66  F   UNL A   1      41.916  29.427  27.697  1.00  0.00    -0.203 F 
ATOM     67  C   UNL A   1      41.236  27.457  26.609  1.00  0.00     0.198 A 
ATOM     68  C   UNL A   1      39.786  25.905  27.725  1.00  0.00     0.198 A 
ATOM     69  F   UNL A   1      38.997  26.376  29.890  1.00  0.00    -0.203 F 
ATOM     70  F   UNL A   1      41.923  27.825  25.519  1.00  0.00    -0.200 F 
ATOM     71  C   UNL A   1      40.523  26.268  26.609  1.00  0.00     0.200 A 
ATOM     72  F   UNL A   1      39.108  24.750  27.733  1.00  0.00    -0.200 F 
ATOM     73  F   UNL A   1      40.540  25.474  25.529  1.00  0.00    -0.200 F 
ENDBRANCH  49  63
BRANCH  50  74
ATOM     74  C   UNL A   1      39.545  33.897  36.842  1.00  0.00     0.064 A 
ATOM     75  C   UNL A   1      40.180  35.146  36.897  1.00  0.00     0.173 A 
ATOM     76  C   UNL A   1      38.770  33.509  37.944  1.00  0.00     0.173 A 
ATOM     77  F   UNL A   1      40.947  35.552  35.876  1.00  0.00    -0.203 F 
ATOM     78  C   UNL A   1      40.058  35.965  38.018  1.00  0.00     0.198 A 
ATOM     79  C   UNL A   1      38.626  34.343  39.051  1.00  0.00     0.198 A 
ATOM     80  F   UNL A   1      38.138  32.326  37.939  1.00  0.00    -0.203 F 
ATOM     81  F   UNL A   1      40.709  37.136  38.061  1.00  0.00    -0.200 F 
ATOM     82  C   UNL A   1      39.276  35.567  39.091  1.00  0.00     0.200 A 
ATOM     83  F   UNL A   1      37.856  33.960  40.079  1.00  0.00    -0.200 F 
ATOM     84  F   UNL A   1      39.153  36.360  40.164  1.00  0.00    -0.200 F 
ENDBRANCH  50  74
BRANCH  62  85
ATOM     85  C   UNL A   1      43.967  28.791  35.112  1.00  0.00     0.064 A 
ATOM     86  C   UNL A   1      45.262  29.305  34.957  1.00  0.00     0.173 A 
ATOM     87  C   UNL A   1      43.792  27.707  35.987  1.00  0.00     0.173 A 
ATOM     88  F   UNL A   1      45.486  30.330  34.121  1.00  0.00    -0.203 F 
ATOM     89  C   UNL A   1      46.342  28.739  35.629  1.00  0.00     0.198 A 
ATOM     90  C   UNL A   1      44.869  27.166  36.683  1.00  0.00     0.198 A 
ATOM     91  F   UNL A   1      42.572  27.181  36.177  1.00  0.00    -0.203 F 
ATOM     92  F   UNL A   1      47.579  29.215  35.426  1.00  0.00    -0.200 F 
ATOM     93  C   UNL A   1      46.144  27.677  36.498  1.00  0.00     0.200 A 
ATOM     94  F   UNL A   1      44.671  26.150  37.534  1.00  0.00    -0.200 F 
ATOM     95  F   UNL A   1      47.183  27.141  37.152  1.00  0.00    -0.200 F 
ENDBRANCH  62  85
ENDBRANCH  36  37
ENDBRANCH  28  31
ENDBRANCH  26  27
ENDBRANCH  25  26
ENDBRANCH  24  25
ENDBRANCH   1  24
TORSDOF 15
ENDMDL
MODEL 3
REMARK VINA RESULT:     -12.1      5.497     10.989
REMARK SMILES Cc1csc(NC(=O)[C@@H]2CC=CC[C@H]2C(=O)NCCCCCCNC(=O)c2ccc(-c3c4nc(c(-c5c(F)c(F)c(F)c(F)c5F)c5ccc([nH]5)c(-c5c(F)c(F)c(F)c(F)c5F)c5nc(c(-c6c(F)c(F)c(F)c(F)c6F)c6ccc3[nH]6)C=C5)C=C4)cc2)n1
REMARK SMILES IDX 20 1 19 2 18 3 17 4 15 5 16 6 14 8 9 9 10 10 11 11 13 12
REMARK SMILES IDX 12 13 7 14 6 15 8 17 5 18 1 19 2 20 3 21 90 22 4 23 21 24
REMARK SMILES IDX 22 25 23 26 24 27 25 28 26 30 27 31 28 32 89 33 29 34 88 35
REMARK SMILES IDX 30 36 31 37 32 38 82 39 33 40 87 41 81 42 83 43 34 44 86 45
REMARK SMILES IDX 80 46 79 47 35 49 67 50 47 51 66 52 48 53 51 54 65 55 84 56
REMARK SMILES IDX 49 57 50 58 64 60 85 61 52 62 36 63 37 64 45 65 38 66 39 67
REMARK SMILES IDX 43 68 46 69 40 70 41 71 44 72 42 73 68 74 69 75 77 76 70 77
REMARK SMILES IDX 71 78 75 79 78 80 72 81 73 82 76 83 74 84 53 85 54 86 62 87
REMARK SMILES IDX 55 88 56 89 60 90 63 91 57 92 58 93 61 94 59 95
REMARK H PARENT 17 7 6 16 24 29 83 48 51 59
REMARK Flexibility Score: inf
ROOT
ATOM      1  C   UNL A   1      32.700  29.975  26.840  1.00  0.00     0.002 C 
ENDROOT
BRANCH   1   2
ATOM      2  C   UNL A   1      32.330  28.523  27.166  1.00  0.00     0.021 C 
BRANCH   2   3
ATOM      3  C   UNL A   1      33.115  27.509  26.339  1.00  0.00     0.116 C 
BRANCH   3   4
ATOM      4  N   UNL A   1      33.747  28.161  25.209  1.00  0.00    -0.356 N 
ATOM      5  C   UNL A   1      33.502  28.068  23.874  1.00  0.00     0.224 C 
ATOM      6  O   UNL A   1      34.148  28.799  23.121  1.00  0.00    -0.275 OA
ATOM      7  H   UNL A   1      34.478  28.776  25.449  1.00  0.00     0.163 HD
BRANCH   5   8
ATOM      8  C   UNL A   1      32.362  27.207  23.339  1.00  0.00     0.095 C 
ATOM      9  C   UNL A   1      32.443  25.690  23.711  1.00  0.00     0.095 C 
ATOM     10  C   UNL A   1      31.071  25.038  23.545  1.00  0.00     0.041 C 
ATOM     11  C   UNL A   1      29.864  25.825  23.929  1.00  0.00    -0.030 C 
ATOM     12  C   UNL A   1      31.064  27.974  23.701  1.00  0.00     0.041 C 
ATOM     13  C   UNL A   1      29.859  27.153  23.996  1.00  0.00    -0.030 C 
BRANCH   9  14
ATOM     14  C   UNL A   1      33.663  25.050  22.985  1.00  0.00     0.230 C 
ATOM     15  N   UNL A   1      34.570  24.158  23.450  1.00  0.00    -0.302 N 
ATOM     16  H   UNL A   1      35.290  23.950  22.812  1.00  0.00     0.172 HD
ATOM     17  O   UNL A   1      33.923  25.443  21.835  1.00  0.00    -0.274 OA
BRANCH  15  18
ATOM     18  C   UNL A   1      34.668  23.498  24.631  1.00  0.00     0.189 A 
ATOM     19  C   UNL A   1      33.197  22.478  27.702  1.00  0.00     0.068 C 
ATOM     20  C   UNL A   1      34.145  22.585  26.566  1.00  0.00     0.051 A 
ATOM     21  C   UNL A   1      35.146  21.716  26.183  1.00  0.00     0.092 A 
ATOM     22  N   UNL A   1      33.982  23.656  25.721  1.00  0.00    -0.225 NA
ATOM     23  S   UNL A   1      35.810  22.228  24.675  1.00  0.00    -0.105 S 
ENDBRANCH  15  18
ENDBRANCH   9  14
ENDBRANCH   5   8
ENDBRANCH   3   4
ENDBRANCH   2   3
ENDBRANCH   1   2
BRANCH   1  24
ATOM     24  C   UNL A   1      31.595  30.771  26.134  1.00  0.00     0.002 C 
BRANCH  24  25
ATOM     25  C   UNL A   1      31.383  32.186  26.676  1.00  0.00     0.021 C 
BRANCH  25  26
ATOM     26  C   UNL A   1      32.648  32.839  27.219  1.00  0.00     0.116 C 
BRANCH  26  27
ATOM     27  N   UNL A   1      32.420  34.225  27.596  1.00  0.00    -0.352 N 
ATOM     28  C   UNL A   1      32.983  34.950  28.615  1.00  0.00     0.251 C 
ATOM     29  H   UNL A   1      31.769  34.711  27.041  1.00  0.00     0.163 HD
ATOM     30  O   UNL A   1      32.524  36.039  28.932  1.00  0.00    -0.269 OA
BRANCH  28  31
ATOM     31  C   UNL A   1      34.144  34.397  29.343  1.00  0.00     0.039 A 
ATOM     32  C   UNL A   1      33.927  33.713  30.540  1.00  0.00     0.014 A 
ATOM     33  C   UNL A   1      35.440  34.561  28.846  1.00  0.00     0.014 A 
ATOM     34  C   UNL A   1      35.008  33.146  31.215  1.00  0.00     0.010 A 
ATOM     35  C   UNL A   1      36.506  33.930  29.477  1.00  0.00     0.010 A 
ATOM     36  C   UNL A   1      36.303  33.224  30.673  1.00  0.00    -0.014 A 
BRANCH  36  37
ATOM     37  C   UNL A   1      37.457  32.582  31.348  1.00  0.00     0.031 A 
ATOM     38  C   UNL A   1      38.182  31.446  30.684  1.00  0.00     0.074 A 
ATOM     39  C   UNL A   1      37.812  32.982  32.582  1.00  0.00     0.049 A 
ATOM     40  N   UNL A   1      39.173  30.719  31.134  1.00  0.00    -0.248 NA
ATOM     41  C   UNL A   1      37.710  31.054  29.346  1.00  0.00     0.031 C 
ATOM     42  C   UNL A   1      37.156  34.043  33.348  1.00  0.00     0.029 A 
ATOM     43  N   UNL A   1      38.807  32.537  33.416  1.00  0.00    -0.354 N 
ATOM     44  C   UNL A   1      39.433  29.781  30.144  1.00  0.00     0.074 A 
ATOM     45  C   UNL A   1      38.457  29.989  29.097  1.00  0.00     0.031 C 
ATOM     46  C   UNL A   1      37.783  34.187  34.526  1.00  0.00     0.029 A 
ATOM     47  C   UNL A   1      38.856  33.202  34.617  1.00  0.00     0.049 A 
ATOM     48  H   UNL A   1      39.427  31.811  33.176  1.00  0.00     0.167 HD
ATOM     49  C   UNL A   1      40.412  28.846  30.102  1.00  0.00     0.037 A 
ATOM     50  C   UNL A   1      39.673  33.031  35.673  1.00  0.00     0.037 A 
ATOM     51  C   UNL A   1      41.390  28.655  31.141  1.00  0.00     0.049 A 
ATOM     52  C   UNL A   1      40.741  31.974  35.610  1.00  0.00     0.074 A 
ATOM     53  C   UNL A   1      42.460  27.778  31.168  1.00  0.00     0.029 A 
ATOM     54  N   UNL A   1      41.413  29.351  32.342  1.00  0.00    -0.354 N 
ATOM     55  N   UNL A   1      41.025  31.140  34.639  1.00  0.00    -0.248 NA
ATOM     56  C   UNL A   1      41.608  31.840  36.789  1.00  0.00     0.031 C 
ATOM     57  C   UNL A   1      43.095  27.902  32.409  1.00  0.00     0.029 A 
ATOM     58  C   UNL A   1      42.460  28.902  33.130  1.00  0.00     0.049 A 
ATOM     59  H   UNL A   1      40.778  30.060  32.595  1.00  0.00     0.167 HD
ATOM     60  C   UNL A   1      42.119  30.403  35.076  1.00  0.00     0.074 A 
ATOM     61  C   UNL A   1      42.455  30.901  36.394  1.00  0.00     0.031 C 
ATOM     62  C   UNL A   1      42.785  29.407  34.441  1.00  0.00     0.037 A 
BRANCH  49  63
ATOM     63  C   UNL A   1      40.465  27.954  28.894  1.00  0.00     0.064 A 
ATOM     64  C   UNL A   1      41.239  28.280  27.767  1.00  0.00     0.173 A 
ATOM     65  C   UNL A   1      39.746  26.750  28.866  1.00  0.00     0.173 A 
ATOM     66  F   UNL A   1      41.938  29.424  27.737  1.00  0.00    -0.203 F 
ATOM     67  C   UNL A   1      41.257  27.455  26.646  1.00  0.00     0.198 A 
ATOM     68  C   UNL A   1      39.796  25.909  27.755  1.00  0.00     0.198 A 
ATOM     69  F   UNL A   1      38.996  26.384  29.916  1.00  0.00    -0.203 F 
ATOM     70  F   UNL A   1      41.952  27.820  25.560  1.00  0.00    -0.200 F 
ATOM     71  C   UNL A   1      40.541  26.268  26.643  1.00  0.00     0.200 A 
ATOM     72  F   UNL A   1      39.114  24.756  27.760  1.00  0.00    -0.200 F 
ATOM     73  F   UNL A   1      40.561  25.474  25.564  1.00  0.00    -0.200 F 
ENDBRANCH  49  63
BRANCH  50  74
ATOM     74  C   UNL A   1      39.529  33.905  36.867  1.00  0.00     0.064 A 
ATOM     75  C   UNL A   1      38.771  33.492  37.972  1.00  0.00     0.173 A 
ATOM     76  C   UNL A   1      40.151  35.160  36.934  1.00  0.00     0.173 A 
ATOM     77  F   UNL A   1      38.142  32.309  37.947  1.00  0.00    -0.203 F 
ATOM     78  C   UNL A   1      38.626  34.310  39.090  1.00  0.00     0.198 A 
ATOM     79  C   UNL A   1      40.029  35.964  38.066  1.00  0.00     0.198 A 
ATOM     80  F   UNL A   1      40.892  35.599  35.906  1.00  0.00    -0.203 F 
ATOM     81  F   UNL A   1      37.861  33.908  40.115  1.00  0.00    -0.200 F 
ATOM     82  C   UNL A   1      39.260  35.542  39.140  1.00  0.00     0.200 A 
ATOM     83  F   UNL A   1      40.657  37.146  38.116  1.00  0.00    -0.200 F 
ATOM     84  F   UNL A   1      39.127  36.323  40.220  1.00  0.00    -0.200 F 
ENDBRANCH  50  74
BRANCH  62  85
ATOM     85  C   UNL A   1      43.966  28.808  35.148  1.00  0.00     0.064 A 
ATOM     86  C   UNL A   1      43.836  27.700  35.997  1.00  0.00     0.173 A 
ATOM     87  C   UNL A   1      45.253  29.329  34.942  1.00  0.00     0.173 A 
ATOM     88  F   UNL A   1      42.627  27.174  36.240  1.00  0.00    -0.203 F 
ATOM     89  C   UNL A   1      44.947  27.152  36.634  1.00  0.00     0.198 A 
ATOM     90  C   UNL A   1      46.365  28.758  35.554  1.00  0.00     0.198 A 
ATOM     91  F   UNL A   1      45.435  30.386  34.135  1.00  0.00    -0.203 F 
ATOM     92  F   UNL A   1      44.792  26.124  37.481  1.00  0.00    -0.200 F 
ATOM     93  C   UNL A   1      46.211  27.675  36.406  1.00  0.00     0.200 A 
ATOM     94  F   UNL A   1      47.588  29.256  35.319  1.00  0.00    -0.200 F 
ATOM     95  F   UNL A   1      47.279  27.140  37.012  1.00  0.00    -0.200 F 
ENDBRANCH  62  85
ENDBRANCH  36  37
ENDBRANCH  28  31
ENDBRANCH  26  27
ENDBRANCH  25  26
ENDBRANCH  24  25
ENDBRANCH   1  24
TORSDOF 15
ENDMDL
