MODEL 1
REMARK VINA RESULT:     -14.1      0.000      0.000
REMARK SMILES N#Cc1cc2c(nc1N1CC[NH+]([C@H](C(=O)NCCCCCCNC(=O)c3ccc(-c4c5nc(c(-c6c(F)c(F)c(F)c(F)c6F)c6ccc([nH]6)c(-c6c(F)c(F)c(F)c(F)c6F)c6nc(c(-c7c(F)c(F)c(F)c(F)c7F)c7ccc4[nH]7)C=C6)C=C5)cc3)c3c[nH]c4cc(Cl)ccc34)CC1)CCCC2
REMARK SMILES IDX 19 1 18 2 17 3 16 4 14 5 15 6 13 8 12 9 9 10 10 11 100 12
REMARK SMILES IDX 11 13 99 14 8 16 3 17 4 18 5 19 7 20 6 21 104 22 101 23
REMARK SMILES IDX 103 24 102 25 2 26 1 27 89 28 90 29 98 30 91 31 92 32 97 33
REMARK SMILES IDX 93 35 96 36 94 37 95 38 20 39 21 40 22 41 23 42 24 43 25 45
REMARK SMILES IDX 26 46 27 47 88 48 28 49 87 50 29 51 30 52 31 53 81 54 32 55
REMARK SMILES IDX 86 56 80 57 82 58 33 59 85 60 79 61 78 62 34 64 66 65 46 66
REMARK SMILES IDX 65 67 47 68 50 69 64 70 83 71 48 72 49 73 63 75 84 76 51 77
REMARK SMILES IDX 35 78 36 79 44 80 37 81 38 82 42 83 45 84 39 85 40 86 43 87
REMARK SMILES IDX 41 88 67 89 68 90 76 91 69 92 70 93 74 94 77 95 71 96 72 97
REMARK SMILES IDX 75 98 73 99 52 100 53 101 61 102 54 103 55 104 59 105 62 106
REMARK SMILES IDX 56 107 57 108 60 109 58 110
REMARK H PARENT 16 7 12 15 91 34 23 44 82 63 50 74
REMARK Flexibility Score: inf
ROOT
ATOM      1  C   UNL A   1      32.244  30.132  27.143  1.00  0.00     0.002 C 
ENDROOT
BRANCH   1   2
ATOM      2  C   UNL A   1      31.923  28.632  27.098  1.00  0.00     0.021 C 
BRANCH   2   3
ATOM      3  C   UNL A   1      33.000  27.687  26.529  1.00  0.00     0.116 C 
BRANCH   3   4
ATOM      4  N   UNL A   1      33.709  28.134  25.336  1.00  0.00    -0.351 N 
ATOM      5  C   UNL A   1      33.834  27.623  24.060  1.00  0.00     0.283 C 
ATOM      6  O   UNL A   1      34.388  28.397  23.266  1.00  0.00    -0.268 OA
ATOM      7  H   UNL A   1      34.203  28.975  25.468  1.00  0.00     0.163 HD
BRANCH   5   8
ATOM      8  C   UNL A   1      33.317  26.174  23.634  1.00  0.00     0.307 C 
BRANCH   8   9
ATOM      9  N   UNL A   1      33.803  25.168  24.614  1.00  0.00    -0.318 N 
ATOM     10  N   UNL A   1      34.108  22.397  25.144  1.00  0.00    -0.344 N 
ATOM     11  C   UNL A   1      35.334  23.133  24.931  1.00  0.00     0.179 C 
ATOM     12  C   UNL A   1      33.119  23.069  25.967  1.00  0.00     0.179 C 
ATOM     13  C   UNL A   1      35.001  24.438  24.174  1.00  0.00     0.284 C 
ATOM     14  C   UNL A   1      32.756  24.427  25.334  1.00  0.00     0.284 C 
ATOM     15  H   UNL A   1      34.177  25.707  25.395  1.00  0.00     0.349 HD
BRANCH  10  16
ATOM     16  C   UNL A   1      33.849  21.186  24.577  1.00  0.00     0.147 A 
ATOM     17  C   UNL A   1      32.888  20.977  23.589  1.00  0.00     0.095 A 
ATOM     18  C   UNL A   1      32.497  19.674  23.273  1.00  0.00     0.029 A 
ATOM     19  C   UNL A   1      33.228  18.607  23.773  1.00  0.00    -0.025 A 
ATOM     20  N   UNL A   1      34.565  20.153  25.062  1.00  0.00    -0.234 NA
ATOM     21  C   UNL A   1      34.297  18.902  24.618  1.00  0.00     0.046 A 
ATOM     22  C   UNL A   1      32.887  17.200  23.378  1.00  0.00     0.037 C 
ATOM     23  C   UNL A   1      35.332  17.864  24.949  1.00  0.00     0.056 C 
ATOM     24  C   UNL A   1      34.101  16.278  23.447  1.00  0.00     0.005 C 
ATOM     25  C   UNL A   1      34.817  16.439  24.785  1.00  0.00     0.007 C 
BRANCH  17  26
ATOM     26  C   UNL A   1      32.479  22.007  22.702  1.00  0.00     0.103 C 
ATOM     27  N   UNL A   1      32.344  22.874  21.925  1.00  0.00    -0.192 NA
ENDBRANCH  17  26
ENDBRANCH  10  16
ENDBRANCH   8   9
BRANCH   8  28
ATOM     28  C   UNL A   1      31.763  26.075  23.286  1.00  0.00     0.044 A 
ATOM     29  C   UNL A   1      31.451  25.965  21.938  1.00  0.00     0.094 A 
ATOM     30  C   UNL A   1      30.612  26.950  23.517  1.00  0.00     0.009 A 
ATOM     31  N   UNL A   1      31.621  27.363  21.679  1.00  0.00    -0.361 N 
ATOM     32  C   UNL A   1      30.840  27.994  22.621  1.00  0.00     0.047 A 
ATOM     33  C   UNL A   1      29.235  26.792  23.830  1.00  0.00     0.012 A 
ATOM     34  H   UNL A   1      32.177  27.782  20.982  1.00  0.00     0.166 HD
ATOM     35  C   UNL A   1      30.082  29.147  22.477  1.00  0.00     0.047 A 
ATOM     36  C   UNL A   1      28.331  27.831  23.533  1.00  0.00     0.021 A 
ATOM     37  C   UNL A   1      28.773  29.011  22.929  1.00  0.00     0.043 A 
ATOM     38  Cl  UNL A   1      27.634  30.235  22.513  1.00  0.00    -0.084 Cl
ENDBRANCH   8  28
ENDBRANCH   5   8
ENDBRANCH   3   4
ENDBRANCH   2   3
ENDBRANCH   1   2
BRANCH   1  39
ATOM     39  C   UNL A   1      31.377  30.956  26.198  1.00  0.00     0.002 C 
BRANCH  39  40
ATOM     40  C   UNL A   1      31.346  32.454  26.517  1.00  0.00     0.021 C 
BRANCH  40  41
ATOM     41  C   UNL A   1      32.576  32.960  27.266  1.00  0.00     0.116 C 
BRANCH  41  42
ATOM     42  N   UNL A   1      32.411  34.349  27.655  1.00  0.00    -0.352 N 
ATOM     43  C   UNL A   1      33.010  34.995  28.706  1.00  0.00     0.251 C 
ATOM     44  H   UNL A   1      31.800  34.887  27.102  1.00  0.00     0.163 HD
ATOM     45  O   UNL A   1      32.570  36.056  29.132  1.00  0.00    -0.269 OA
BRANCH  43  46
ATOM     46  C   UNL A   1      34.194  34.371  29.330  1.00  0.00     0.039 A 
ATOM     47  C   UNL A   1      34.016  33.482  30.388  1.00  0.00     0.014 A 
ATOM     48  C   UNL A   1      35.474  34.642  28.830  1.00  0.00     0.014 A 
ATOM     49  C   UNL A   1      35.126  32.832  30.926  1.00  0.00     0.010 A 
ATOM     50  C   UNL A   1      36.566  33.930  29.313  1.00  0.00     0.010 A 
ATOM     51  C   UNL A   1      36.405  33.031  30.377  1.00  0.00    -0.014 A 
BRANCH  51  52
ATOM     52  C   UNL A   1      37.588  32.328  30.933  1.00  0.00     0.031 A 
ATOM     53  C   UNL A   1      38.106  32.703  32.294  1.00  0.00     0.074 A 
ATOM     54  C   UNL A   1      38.196  31.364  30.213  1.00  0.00     0.049 A 
ATOM     55  N   UNL A   1      39.136  32.223  32.946  1.00  0.00    -0.248 NA
ATOM     56  C   UNL A   1      37.384  33.764  33.015  1.00  0.00     0.031 C 
ATOM     57  C   UNL A   1      37.793  30.927  28.875  1.00  0.00     0.029 A 
ATOM     58  N   UNL A   1      39.276  30.571  30.508  1.00  0.00    -0.354 N 
ATOM     59  C   UNL A   1      39.173  32.914  34.149  1.00  0.00     0.074 A 
ATOM     60  C   UNL A   1      38.112  33.894  34.115  1.00  0.00     0.031 C 
ATOM     61  C   UNL A   1      38.589  29.920  28.483  1.00  0.00     0.029 A 
ATOM     62  C   UNL A   1      39.587  29.669  29.518  1.00  0.00     0.049 A 
ATOM     63  H   UNL A   1      39.782  30.641  31.350  1.00  0.00     0.167 HD
ATOM     64  C   UNL A   1      39.994  32.717  35.206  1.00  0.00     0.037 A 
ATOM     65  C   UNL A   1      40.569  28.748  29.455  1.00  0.00     0.037 A 
ATOM     66  C   UNL A   1      41.037  31.728  35.245  1.00  0.00     0.049 A 
ATOM     67  C   UNL A   1      41.514  28.608  30.621  1.00  0.00     0.074 A 
ATOM     68  C   UNL A   1      41.912  31.443  36.279  1.00  0.00     0.029 A 
ATOM     69  N   UNL A   1      41.341  30.856  34.211  1.00  0.00    -0.354 N 
ATOM     70  N   UNL A   1      41.506  29.231  31.774  1.00  0.00    -0.248 NA
ATOM     71  C   UNL A   1      42.604  27.632  30.478  1.00  0.00     0.031 C 
ATOM     72  C   UNL A   1      42.779  30.438  35.852  1.00  0.00     0.029 A 
ATOM     73  C   UNL A   1      42.406  30.050  34.575  1.00  0.00     0.049 A 
ATOM     74  H   UNL A   1      40.870  30.817  33.347  1.00  0.00     0.167 HD
ATOM     75  C   UNL A   1      42.560  28.698  32.504  1.00  0.00     0.074 A 
ATOM     76  C   UNL A   1      43.174  27.685  31.674  1.00  0.00     0.031 C 
ATOM     77  C   UNL A   1      42.987  29.024  33.748  1.00  0.00     0.037 A 
BRANCH  64  78
ATOM     78  C   UNL A   1      39.788  33.556  36.432  1.00  0.00     0.064 A 
ATOM     79  C   UNL A   1      40.404  34.809  36.566  1.00  0.00     0.173 A 
ATOM     80  C   UNL A   1      38.872  33.164  37.420  1.00  0.00     0.173 A 
ATOM     81  F   UNL A   1      41.298  35.222  35.653  1.00  0.00    -0.203 F 
ATOM     82  C   UNL A   1      40.107  35.642  37.640  1.00  0.00     0.198 A 
ATOM     83  C   UNL A   1      38.555  34.013  38.477  1.00  0.00     0.198 A 
ATOM     84  F   UNL A   1      38.253  31.978  37.337  1.00  0.00    -0.203 F 
ATOM     85  F   UNL A   1      40.719  36.829  37.754  1.00  0.00    -0.200 F 
ATOM     86  C   UNL A   1      39.171  35.251  38.585  1.00  0.00     0.200 A 
ATOM     87  F   UNL A   1      37.636  33.642  39.380  1.00  0.00    -0.200 F 
ATOM     88  F   UNL A   1      38.858  36.070  39.598  1.00  0.00    -0.200 F 
ENDBRANCH  64  78
BRANCH  65  89
ATOM     89  C   UNL A   1      40.706  27.867  28.262  1.00  0.00     0.064 A 
ATOM     90  C   UNL A   1      40.119  26.594  28.236  1.00  0.00     0.173 A 
ATOM     91  C   UNL A   1      41.457  28.256  27.142  1.00  0.00     0.173 A 
ATOM     92  F   UNL A   1      39.406  26.164  29.288  1.00  0.00    -0.203 F 
ATOM     93  C   UNL A   1      40.306  25.732  27.156  1.00  0.00     0.198 A 
ATOM     94  C   UNL A   1      41.611  27.410  26.046  1.00  0.00     0.198 A 
ATOM     95  F   UNL A   1      42.040  29.464  27.110  1.00  0.00    -0.203 F 
ATOM     96  F   UNL A   1      39.788  24.497  27.190  1.00  0.00    -0.200 F 
ATOM     97  C   UNL A   1      41.048  26.143  26.060  1.00  0.00     0.200 A 
ATOM     98  F   UNL A   1      42.314  27.818  24.980  1.00  0.00    -0.200 F 
ATOM     99  F   UNL A   1      41.230  25.315  25.022  1.00  0.00    -0.200 F 
ENDBRANCH  65  89
BRANCH  77 100
ATOM    100  C   UNL A   1      44.148  28.259  34.315  1.00  0.00     0.064 A 
ATOM    101  C   UNL A   1      45.465  28.726  34.197  1.00  0.00     0.173 A 
ATOM    102  C   UNL A   1      43.930  27.089  35.063  1.00  0.00     0.173 A 
ATOM    103  F   UNL A   1      45.727  29.832  33.485  1.00  0.00    -0.203 F 
ATOM    104  C   UNL A   1      46.523  28.040  34.788  1.00  0.00     0.198 A 
ATOM    105  C   UNL A   1      44.985  26.429  35.684  1.00  0.00     0.198 A 
ATOM    106  F   UNL A   1      42.688  26.607  35.219  1.00  0.00    -0.203 F 
ATOM    107  F   UNL A   1      47.777  28.482  34.626  1.00  0.00    -0.200 F 
ATOM    108  C   UNL A   1      46.281  26.901  35.542  1.00  0.00     0.200 A 
ATOM    109  F   UNL A   1      44.747  25.343  36.432  1.00  0.00    -0.200 F 
ATOM    110  F   UNL A   1      47.298  26.257  36.130  1.00  0.00    -0.200 F 
ENDBRANCH  77 100
ENDBRANCH  51  52
ENDBRANCH  43  46
ENDBRANCH  41  42
ENDBRANCH  40  41
ENDBRANCH  39  40
ENDBRANCH   1  39
TORSDOF 17
ENDMDL
MODEL 2
REMARK VINA RESULT:     -13.7      5.003     11.028
REMARK SMILES N#Cc1cc2c(nc1N1CC[NH+]([C@H](C(=O)NCCCCCCNC(=O)c3ccc(-c4c5nc(c(-c6c(F)c(F)c(F)c(F)c6F)c6ccc([nH]6)c(-c6c(F)c(F)c(F)c(F)c6F)c6nc(c(-c7c(F)c(F)c(F)c(F)c7F)c7ccc4[nH]7)C=C6)C=C5)cc3)c3c[nH]c4cc(Cl)ccc34)CC1)CCCC2
REMARK SMILES IDX 19 1 18 2 17 3 16 4 14 5 15 6 13 8 12 9 9 10 10 11 100 12
REMARK SMILES IDX 11 13 99 14 8 16 3 17 4 18 5 19 7 20 6 21 104 22 101 23
REMARK SMILES IDX 103 24 102 25 2 26 1 27 89 28 90 29 98 30 91 31 92 32 97 33
REMARK SMILES IDX 93 35 96 36 94 37 95 38 20 39 21 40 22 41 23 42 24 43 25 45
REMARK SMILES IDX 26 46 27 47 88 48 28 49 87 50 29 51 30 52 31 53 81 54 32 55
REMARK SMILES IDX 86 56 80 57 82 58 33 59 85 60 79 61 78 62 34 64 66 65 46 66
REMARK SMILES IDX 65 67 47 68 50 69 64 70 83 71 48 72 49 73 63 75 84 76 51 77
REMARK SMILES IDX 35 78 36 79 44 80 37 81 38 82 42 83 45 84 39 85 40 86 43 87
REMARK SMILES IDX 41 88 67 89 68 90 76 91 69 92 70 93 74 94 77 95 71 96 72 97
REMARK SMILES IDX 75 98 73 99 52 100 53 101 61 102 54 103 55 104 59 105 62 106
REMARK SMILES IDX 56 107 57 108 60 109 58 110
REMARK H PARENT 16 7 12 15 91 34 23 44 82 63 50 74
REMARK Flexibility Score: inf
ROOT
ATOM      1  C   UNL A   1      37.681  21.509  24.646  1.00  0.00     0.002 C 
ENDROOT
BRANCH   1   2
ATOM      2  C   UNL A   1      36.644  22.424  23.983  1.00  0.00     0.021 C 
BRANCH   2   3
ATOM      3  C   UNL A   1      36.072  23.584  24.822  1.00  0.00     0.116 C 
BRANCH   3   4
ATOM      4  N   UNL A   1      35.621  23.265  26.171  1.00  0.00    -0.351 N 
ATOM      5  C   UNL A   1      34.392  23.317  26.798  1.00  0.00     0.283 C 
ATOM      6  O   UNL A   1      34.383  22.789  27.919  1.00  0.00    -0.268 OA
ATOM      7  H   UNL A   1      36.344  22.947  26.758  1.00  0.00     0.163 HD
BRANCH   5   8
ATOM      8  C   UNL A   1      33.099  23.991  26.150  1.00  0.00     0.307 C 
BRANCH   8   9
ATOM      9  N   UNL A   1      33.440  25.355  25.667  1.00  0.00    -0.318 N 
ATOM     10  N   UNL A   1      32.417  27.738  24.516  1.00  0.00    -0.344 N 
ATOM     11  C   UNL A   1      32.873  27.848  25.883  1.00  0.00     0.179 C 
ATOM     12  C   UNL A   1      33.271  26.957  23.640  1.00  0.00     0.179 C 
ATOM     13  C   UNL A   1      32.906  26.436  26.508  1.00  0.00     0.284 C 
ATOM     14  C   UNL A   1      33.428  25.532  24.207  1.00  0.00     0.284 C 
ATOM     15  H   UNL A   1      34.442  25.458  25.828  1.00  0.00     0.349 HD
BRANCH  10  16
ATOM     16  C   UNL A   1      31.245  28.267  24.069  1.00  0.00     0.147 A 
ATOM     17  C   UNL A   1      30.267  27.538  23.393  1.00  0.00     0.095 A 
ATOM     18  C   UNL A   1      29.240  28.213  22.729  1.00  0.00     0.029 A 
ATOM     19  C   UNL A   1      29.073  29.573  22.945  1.00  0.00    -0.025 A 
ATOM     20  N   UNL A   1      31.083  29.587  24.285  1.00  0.00    -0.234 NA
ATOM     21  C   UNL A   1      29.988  30.206  23.785  1.00  0.00     0.046 A 
ATOM     22  C   UNL A   1      27.924  30.306  22.318  1.00  0.00     0.037 C 
ATOM     23  C   UNL A   1      29.715  31.579  24.333  1.00  0.00     0.056 C 
ATOM     24  C   UNL A   1      27.513  31.528  23.135  1.00  0.00     0.005 C 
ATOM     25  C   UNL A   1      28.735  32.374  23.479  1.00  0.00     0.007 C 
BRANCH  17  26
ATOM     26  C   UNL A   1      30.114  26.138  23.564  1.00  0.00     0.103 C 
ATOM     27  N   UNL A   1      29.812  25.006  23.596  1.00  0.00    -0.192 NA
ENDBRANCH  17  26
ENDBRANCH  10  16
ENDBRANCH   8   9
BRANCH   8  28
ATOM     28  C   UNL A   1      32.307  23.087  25.100  1.00  0.00     0.044 A 
ATOM     29  C   UNL A   1      31.123  22.526  25.557  1.00  0.00     0.094 A 
ATOM     30  C   UNL A   1      32.637  21.871  24.355  1.00  0.00     0.009 A 
ATOM     31  N   UNL A   1      31.779  21.471  26.271  1.00  0.00    -0.361 N 
ATOM     32  C   UNL A   1      32.621  20.892  25.348  1.00  0.00     0.047 A 
ATOM     33  C   UNL A   1      32.369  21.340  23.064  1.00  0.00     0.012 A 
ATOM     34  H   UNL A   1      31.654  21.216  27.214  1.00  0.00     0.166 HD
ATOM     35  C   UNL A   1      32.943  19.551  25.201  1.00  0.00     0.047 A 
ATOM     36  C   UNL A   1      32.465  19.951  22.850  1.00  0.00     0.021 A 
ATOM     37  C   UNL A   1      32.814  19.090  23.893  1.00  0.00     0.043 A 
ATOM     38  Cl  UNL A   1      32.854  17.389  23.620  1.00  0.00    -0.084 Cl
ENDBRANCH   8  28
ENDBRANCH   5   8
ENDBRANCH   3   4
ENDBRANCH   2   3
ENDBRANCH   1   2
BRANCH   1  39
ATOM     39  C   UNL A   1      37.250  20.048  24.684  1.00  0.00     0.002 C 
BRANCH  39  40
ATOM     40  C   UNL A   1      38.275  19.106  25.324  1.00  0.00     0.021 C 
BRANCH  40  41
ATOM     41  C   UNL A   1      39.566  19.790  25.766  1.00  0.00     0.116 C 
BRANCH  41  42
ATOM     42  N   UNL A   1      40.636  18.824  25.929  1.00  0.00    -0.352 N 
ATOM     43  C   UNL A   1      41.978  19.081  26.046  1.00  0.00     0.251 C 
ATOM     44  H   UNL A   1      40.367  17.878  25.961  1.00  0.00     0.163 HD
ATOM     45  O   UNL A   1      42.810  18.201  25.863  1.00  0.00    -0.269 OA
BRANCH  43  46
ATOM     46  C   UNL A   1      42.402  20.455  26.381  1.00  0.00     0.039 A 
ATOM     47  C   UNL A   1      42.748  21.330  25.352  1.00  0.00     0.014 A 
ATOM     48  C   UNL A   1      42.414  20.880  27.715  1.00  0.00     0.014 A 
ATOM     49  C   UNL A   1      43.073  22.650  25.661  1.00  0.00     0.010 A 
ATOM     50  C   UNL A   1      42.656  22.216  28.010  1.00  0.00     0.010 A 
ATOM     51  C   UNL A   1      43.004  23.110  26.987  1.00  0.00    -0.014 A 
BRANCH  51  52
ATOM     52  C   UNL A   1      43.330  24.519  27.321  1.00  0.00     0.031 A 
ATOM     53  C   UNL A   1      44.724  25.036  27.092  1.00  0.00     0.074 A 
ATOM     54  C   UNL A   1      42.379  25.326  27.833  1.00  0.00     0.049 A 
ATOM     55  N   UNL A   1      45.214  26.225  27.336  1.00  0.00    -0.248 NA
ATOM     56  C   UNL A   1      45.704  24.091  26.528  1.00  0.00     0.031 C 
ATOM     57  C   UNL A   1      40.998  24.931  28.113  1.00  0.00     0.029 A 
ATOM     58  N   UNL A   1      42.426  26.647  28.200  1.00  0.00    -0.354 N 
ATOM     59  C   UNL A   1      46.545  26.171  26.945  1.00  0.00     0.074 A 
ATOM     60  C   UNL A   1      46.812  24.818  26.515  1.00  0.00     0.031 C 
ATOM     61  C   UNL A   1      40.320  25.997  28.570  1.00  0.00     0.029 A 
ATOM     62  C   UNL A   1      41.227  27.137  28.660  1.00  0.00     0.049 A 
ATOM     63  H   UNL A   1      43.244  27.194  28.140  1.00  0.00     0.167 HD
ATOM     64  C   UNL A   1      47.452  27.174  26.910  1.00  0.00     0.037 A 
ATOM     65  C   UNL A   1      40.901  28.366  29.106  1.00  0.00     0.037 A 
ATOM     66  C   UNL A   1      47.179  28.525  27.320  1.00  0.00     0.049 A 
ATOM     67  C   UNL A   1      41.958  29.440  29.123  1.00  0.00     0.074 A 
ATOM     68  C   UNL A   1      48.031  29.615  27.306  1.00  0.00     0.029 A 
ATOM     69  N   UNL A   1      45.961  28.973  27.810  1.00  0.00    -0.354 N 
ATOM     70  N   UNL A   1      43.199  29.390  28.702  1.00  0.00    -0.248 NA
ATOM     71  C   UNL A   1      41.568  30.746  29.675  1.00  0.00     0.031 C 
ATOM     72  C   UNL A   1      47.347  30.710  27.837  1.00  0.00     0.029 A 
ATOM     73  C   UNL A   1      46.049  30.319  28.123  1.00  0.00     0.049 A 
ATOM     74  H   UNL A   1      45.157  28.417  27.919  1.00  0.00     0.167 HD
ATOM     75  C   UNL A   1      43.721  30.661  28.902  1.00  0.00     0.074 A 
ATOM     76  C   UNL A   1      42.659  31.468  29.462  1.00  0.00     0.031 C 
ATOM     77  C   UNL A   1      44.973  31.117  28.652  1.00  0.00     0.037 A 
BRANCH  64  78
ATOM     78  C   UNL A   1      48.821  26.876  26.376  1.00  0.00     0.064 A 
ATOM     79  C   UNL A   1      49.802  26.282  27.185  1.00  0.00     0.173 A 
ATOM     80  C   UNL A   1      49.116  27.065  25.017  1.00  0.00     0.173 A 
ATOM     81  F   UNL A   1      49.572  26.092  28.494  1.00  0.00    -0.203 F 
ATOM     82  C   UNL A   1      51.024  25.884  26.653  1.00  0.00     0.198 A 
ATOM     83  C   UNL A   1      50.328  26.639  24.483  1.00  0.00     0.198 A 
ATOM     84  F   UNL A   1      48.211  27.624  24.200  1.00  0.00    -0.203 F 
ATOM     85  F   UNL A   1      51.951  25.332  27.448  1.00  0.00    -0.200 F 
ATOM     86  C   UNL A   1      51.279  26.047  25.300  1.00  0.00     0.200 A 
ATOM     87  F   UNL A   1      50.567  26.779  23.171  1.00  0.00    -0.200 F 
ATOM     88  F   UNL A   1      52.442  25.629  24.782  1.00  0.00    -0.200 F 
ENDBRANCH  64  78
BRANCH  65  89
ATOM     89  C   UNL A   1      39.512  28.665  29.554  1.00  0.00     0.064 A 
ATOM     90  C   UNL A   1      38.576  29.225  28.672  1.00  0.00     0.173 A 
ATOM     91  C   UNL A   1      39.102  28.440  30.877  1.00  0.00     0.173 A 
ATOM     92  F   UNL A   1      38.922  29.478  27.402  1.00  0.00    -0.203 F 
ATOM     93  C   UNL A   1      37.298  29.579  29.103  1.00  0.00     0.198 A 
ATOM     94  C   UNL A   1      37.812  28.759  31.297  1.00  0.00     0.198 A 
ATOM     95  F   UNL A   1      39.954  27.905  31.764  1.00  0.00    -0.203 F 
ATOM     96  F   UNL A   1      36.449  30.174  28.255  1.00  0.00    -0.200 F 
ATOM     97  C   UNL A   1      36.916  29.342  30.414  1.00  0.00     0.200 A 
ATOM     98  F   UNL A   1      37.441  28.510  32.561  1.00  0.00    -0.200 F 
ATOM     99  F   UNL A   1      35.689  29.684  30.829  1.00  0.00    -0.200 F 
ENDBRANCH  65  89
BRANCH  77 100
ATOM    100  C   UNL A   1      45.265  32.561  28.940  1.00  0.00     0.064 A 
ATOM    101  C   UNL A   1      45.828  32.969  30.157  1.00  0.00     0.173 A 
ATOM    102  C   UNL A   1      45.059  33.538  27.951  1.00  0.00     0.173 A 
ATOM    103  F   UNL A   1      46.036  32.077  31.138  1.00  0.00    -0.203 F 
ATOM    104  C   UNL A   1      46.157  34.304  30.382  1.00  0.00     0.198 A 
ATOM    105  C   UNL A   1      45.425  34.863  28.165  1.00  0.00     0.198 A 
ATOM    106  F   UNL A   1      44.535  33.199  26.763  1.00  0.00    -0.203 F 
ATOM    107  F   UNL A   1      46.655  34.676  31.568  1.00  0.00    -0.200 F 
ATOM    108  C   UNL A   1      45.967  35.246  29.382  1.00  0.00     0.200 A 
ATOM    109  F   UNL A   1      45.263  35.767  27.190  1.00  0.00    -0.200 F 
ATOM    110  F   UNL A   1      46.307  36.525  29.593  1.00  0.00    -0.200 F 
ENDBRANCH  77 100
ENDBRANCH  51  52
ENDBRANCH  43  46
ENDBRANCH  41  42
ENDBRANCH  40  41
ENDBRANCH  39  40
ENDBRANCH   1  39
TORSDOF 17
ENDMDL
MODEL 3
REMARK VINA RESULT:     -13.7      1.018      6.925
REMARK SMILES N#Cc1cc2c(nc1N1CC[NH+]([C@H](C(=O)NCCCCCCNC(=O)c3ccc(-c4c5nc(c(-c6c(F)c(F)c(F)c(F)c6F)c6ccc([nH]6)c(-c6c(F)c(F)c(F)c(F)c6F)c6nc(c(-c7c(F)c(F)c(F)c(F)c7F)c7ccc4[nH]7)C=C6)C=C5)cc3)c3c[nH]c4cc(Cl)ccc34)CC1)CCCC2
REMARK SMILES IDX 19 1 18 2 17 3 16 4 14 5 15 6 13 8 12 9 9 10 10 11 100 12
REMARK SMILES IDX 11 13 99 14 8 16 3 17 4 18 5 19 7 20 6 21 104 22 101 23
REMARK SMILES IDX 103 24 102 25 2 26 1 27 89 28 90 29 98 30 91 31 92 32 97 33
REMARK SMILES IDX 93 35 96 36 94 37 95 38 20 39 21 40 22 41 23 42 24 43 25 45
REMARK SMILES IDX 26 46 27 47 88 48 28 49 87 50 29 51 30 52 31 53 81 54 32 55
REMARK SMILES IDX 86 56 80 57 82 58 33 59 85 60 79 61 78 62 34 64 66 65 46 66
REMARK SMILES IDX 65 67 47 68 50 69 64 70 83 71 48 72 49 73 63 75 84 76 51 77
REMARK SMILES IDX 35 78 36 79 44 80 37 81 38 82 42 83 45 84 39 85 40 86 43 87
REMARK SMILES IDX 41 88 67 89 68 90 76 91 69 92 70 93 74 94 77 95 71 96 72 97
REMARK SMILES IDX 75 98 73 99 52 100 53 101 61 102 54 103 55 104 59 105 62 106
REMARK SMILES IDX 56 107 57 108 60 109 58 110
REMARK H PARENT 16 7 12 15 91 34 23 44 82 63 50 74
REMARK Flexibility Score: inf
ROOT
ATOM      1  C   UNL A   1      32.369  30.193  27.262  1.00  0.00     0.002 C 
ENDROOT
BRANCH   1   2
ATOM      2  C   UNL A   1      31.771  28.828  27.625  1.00  0.00     0.021 C 
BRANCH   2   3
ATOM      3  C   UNL A   1      32.188  27.614  26.771  1.00  0.00     0.116 C 
BRANCH   3   4
ATOM      4  N   UNL A   1      33.108  27.866  25.669  1.00  0.00    -0.351 N 
ATOM      5  C   UNL A   1      33.196  27.383  24.378  1.00  0.00     0.283 C 
ATOM      6  O   UNL A   1      34.028  27.980  23.680  1.00  0.00    -0.268 OA
ATOM      7  H   UNL A   1      33.814  28.514  25.891  1.00  0.00     0.163 HD
BRANCH   5   8
ATOM      8  C   UNL A   1      32.315  26.172  23.826  1.00  0.00     0.307 C 
BRANCH   8   9
ATOM      9  N   UNL A   1      32.186  25.133  24.881  1.00  0.00    -0.318 N 
ATOM     10  N   UNL A   1      32.256  22.348  25.422  1.00  0.00    -0.344 N 
ATOM     11  C   UNL A   1      33.340  23.123  25.982  1.00  0.00     0.179 C 
ATOM     12  C   UNL A   1      30.942  22.956  25.528  1.00  0.00     0.179 C 
ATOM     13  C   UNL A   1      33.449  24.454  25.206  1.00  0.00     0.284 C 
ATOM     14  C   UNL A   1      30.952  24.334  24.836  1.00  0.00     0.284 C 
ATOM     15  H   UNL A   1      32.009  25.643  25.746  1.00  0.00     0.349 HD
BRANCH  10  16
ATOM     16  C   UNL A   1      32.433  21.160  24.782  1.00  0.00     0.147 A 
ATOM     17  C   UNL A   1      32.421  21.011  23.396  1.00  0.00     0.095 A 
ATOM     18  C   UNL A   1      32.327  19.733  22.840  1.00  0.00     0.029 A 
ATOM     19  C   UNL A   1      32.481  18.625  23.661  1.00  0.00    -0.025 A 
ATOM     20  N   UNL A   1      32.587  20.086  25.581  1.00  0.00    -0.234 NA
ATOM     21  C   UNL A   1      32.672  18.857  25.022  1.00  0.00     0.046 A 
ATOM     22  C   UNL A   1      32.475  17.242  23.079  1.00  0.00     0.037 C 
ATOM     23  C   UNL A   1      33.163  17.765  25.932  1.00  0.00     0.056 C 
ATOM     24  C   UNL A   1      33.279  16.262  23.928  1.00  0.00     0.005 C 
ATOM     25  C   UNL A   1      32.872  16.369  25.395  1.00  0.00     0.007 C 
BRANCH  17  26
ATOM     26  C   UNL A   1      32.766  22.072  22.518  1.00  0.00     0.103 C 
ATOM     27  N   UNL A   1      33.193  22.996  21.938  1.00  0.00    -0.192 NA
ENDBRANCH  17  26
ENDBRANCH  10  16
ENDBRANCH   8   9
BRANCH   8  28
ATOM     28  C   UNL A   1      30.944  26.586  23.121  1.00  0.00     0.044 A 
ATOM     29  C   UNL A   1      31.039  26.957  21.788  1.00  0.00     0.094 A 
ATOM     30  C   UNL A   1      29.944  27.624  23.376  1.00  0.00     0.009 A 
ATOM     31  N   UNL A   1      31.515  28.276  22.081  1.00  0.00    -0.361 N 
ATOM     32  C   UNL A   1      30.605  28.787  22.980  1.00  0.00     0.047 A 
ATOM     33  C   UNL A   1      28.531  27.747  23.292  1.00  0.00     0.012 A 
ATOM     34  H   UNL A   1      32.317  28.719  21.721  1.00  0.00     0.166 HD
ATOM     35  C   UNL A   1      30.135  30.088  23.081  1.00  0.00     0.047 A 
ATOM     36  C   UNL A   1      27.949  29.025  23.180  1.00  0.00     0.021 A 
ATOM     37  C   UNL A   1      28.747  30.171  23.146  1.00  0.00     0.043 A 
ATOM     38  Cl  UNL A   1      28.012  31.717  22.938  1.00  0.00    -0.084 Cl
ENDBRANCH   8  28
ENDBRANCH   5   8
ENDBRANCH   3   4
ENDBRANCH   2   3
ENDBRANCH   1   2
BRANCH   1  39
ATOM     39  C   UNL A   1      31.495  30.990  26.300  1.00  0.00     0.002 C 
BRANCH  39  40
ATOM     40  C   UNL A   1      31.407  32.485  26.622  1.00  0.00     0.021 C 
BRANCH  40  41
ATOM     41  C   UNL A   1      32.564  33.014  27.466  1.00  0.00     0.116 C 
BRANCH  41  42
ATOM     42  N   UNL A   1      32.440  34.444  27.677  1.00  0.00    -0.352 N 
ATOM     43  C   UNL A   1      33.009  35.190  28.679  1.00  0.00     0.251 C 
ATOM     44  H   UNL A   1      31.887  34.935  27.027  1.00  0.00     0.163 HD
ATOM     45  O   UNL A   1      32.594  36.311  28.948  1.00  0.00    -0.269 OA
BRANCH  43  46
ATOM     46  C   UNL A   1      34.126  34.601  29.443  1.00  0.00     0.039 A 
ATOM     47  C   UNL A   1      33.867  34.008  30.678  1.00  0.00     0.014 A 
ATOM     48  C   UNL A   1      35.420  34.604  28.908  1.00  0.00     0.014 A 
ATOM     49  C   UNL A   1      34.906  33.382  31.365  1.00  0.00     0.010 A 
ATOM     50  C   UNL A   1      36.434  33.907  29.555  1.00  0.00     0.010 A 
ATOM     51  C   UNL A   1      36.191  33.304  30.798  1.00  0.00    -0.014 A 
BRANCH  51  52
ATOM     52  C   UNL A   1      37.298  32.623  31.515  1.00  0.00     0.031 A 
ATOM     53  C   UNL A   1      38.015  31.475  30.860  1.00  0.00     0.074 A 
ATOM     54  C   UNL A   1      37.649  33.031  32.751  1.00  0.00     0.049 A 
ATOM     55  N   UNL A   1      38.992  30.738  31.326  1.00  0.00    -0.248 NA
ATOM     56  C   UNL A   1      37.572  31.094  29.508  1.00  0.00     0.031 C 
ATOM     57  C   UNL A   1      37.013  34.121  33.493  1.00  0.00     0.029 A 
ATOM     58  N   UNL A   1      38.630  32.582  33.599  1.00  0.00    -0.354 N 
ATOM     59  C   UNL A   1      39.282  29.822  30.324  1.00  0.00     0.074 A 
ATOM     60  C   UNL A   1      38.338  30.042  29.253  1.00  0.00     0.031 C 
ATOM     61  C   UNL A   1      37.647  34.282  34.666  1.00  0.00     0.029 A 
ATOM     62  C   UNL A   1      38.702  33.279  34.781  1.00  0.00     0.049 A 
ATOM     63  H   UNL A   1      39.229  31.831  33.379  1.00  0.00     0.167 HD
ATOM     64  C   UNL A   1      40.277  28.906  30.286  1.00  0.00     0.037 A 
ATOM     65  C   UNL A   1      39.524  33.123  35.837  1.00  0.00     0.037 A 
ATOM     66  C   UNL A   1      41.228  28.702  31.345  1.00  0.00     0.049 A 
ATOM     67  C   UNL A   1      40.572  32.041  35.791  1.00  0.00     0.074 A 
ATOM     68  C   UNL A   1      42.282  27.806  31.391  1.00  0.00     0.029 A 
ATOM     69  N   UNL A   1      41.247  29.406  32.540  1.00  0.00    -0.354 N 
ATOM     70  N   UNL A   1      40.871  31.216  34.817  1.00  0.00    -0.248 NA
ATOM     71  C   UNL A   1      41.403  31.871  36.992  1.00  0.00     0.031 C 
ATOM     72  C   UNL A   1      42.905  27.930  32.634  1.00  0.00     0.029 A 
ATOM     73  C   UNL A   1      42.280  28.947  33.338  1.00  0.00     0.049 A 
ATOM     74  H   UNL A   1      40.618  30.123  32.783  1.00  0.00     0.167 HD
ATOM     75  C   UNL A   1      41.942  30.460  35.272  1.00  0.00     0.074 A 
ATOM     76  C   UNL A   1      42.258  30.937  36.600  1.00  0.00     0.031 C 
ATOM     77  C   UNL A   1      42.602  29.453  34.648  1.00  0.00     0.037 A 
BRANCH  64  78
ATOM     78  C   UNL A   1      40.427  28.072  29.050  1.00  0.00     0.064 A 
ATOM     79  C   UNL A   1      39.722  26.869  28.896  1.00  0.00     0.173 A 
ATOM     80  C   UNL A   1      41.180  28.536  27.960  1.00  0.00     0.173 A 
ATOM     81  F   UNL A   1      38.998  26.376  29.914  1.00  0.00    -0.203 F 
ATOM     82  C   UNL A   1      39.758  26.165  27.697  1.00  0.00     0.198 A 
ATOM     83  C   UNL A   1      41.190  27.844  26.752  1.00  0.00     0.198 A 
ATOM     84  F   UNL A   1      41.869  29.683  28.054  1.00  0.00    -0.203 F 
ATOM     85  F   UNL A   1      39.087  25.010  27.578  1.00  0.00    -0.200 F 
ATOM     86  C   UNL A   1      40.478  26.662  26.621  1.00  0.00     0.200 A 
ATOM     87  F   UNL A   1      41.870  28.335  25.707  1.00  0.00    -0.200 F 
ATOM     88  F   UNL A   1      40.482  26.002  25.454  1.00  0.00    -0.200 F 
ENDBRANCH  64  78
BRANCH  65  89
ATOM     89  C   UNL A   1      39.413  34.017  37.023  1.00  0.00     0.064 A 
ATOM     90  C   UNL A   1      40.073  35.254  37.056  1.00  0.00     0.173 A 
ATOM     91  C   UNL A   1      38.683  33.642  38.162  1.00  0.00     0.173 A 
ATOM     92  F   UNL A   1      40.800  35.652  36.002  1.00  0.00    -0.203 F 
ATOM     93  C   UNL A   1      40.038  36.063  38.191  1.00  0.00     0.198 A 
ATOM     94  C   UNL A   1      38.616  34.469  39.281  1.00  0.00     0.198 A 
ATOM     95  F   UNL A   1      38.029  32.472  38.186  1.00  0.00    -0.203 F 
ATOM     96  F   UNL A   1      40.734  37.207  38.217  1.00  0.00    -0.200 F 
ATOM     97  C   UNL A   1      39.306  35.672  39.301  1.00  0.00     0.200 A 
ATOM     98  F   UNL A   1      37.892  34.096  40.345  1.00  0.00    -0.200 F 
ATOM     99  F   UNL A   1      39.273  36.448  40.392  1.00  0.00    -0.200 F 
ENDBRANCH  65  89
BRANCH  77 100
ATOM    100  C   UNL A   1      43.757  28.818  35.366  1.00  0.00     0.064 A 
ATOM    101  C   UNL A   1      45.069  29.288  35.209  1.00  0.00     0.173 A 
ATOM    102  C   UNL A   1      43.536  27.784  36.291  1.00  0.00     0.173 A 
ATOM    103  F   UNL A   1      45.335  30.267  34.331  1.00  0.00    -0.203 F 
ATOM    104  C   UNL A   1      46.119  28.733  35.935  1.00  0.00     0.198 A 
ATOM    105  C   UNL A   1      44.582  27.259  37.043  1.00  0.00     0.198 A 
ATOM    106  F   UNL A   1      42.298  27.307  36.490  1.00  0.00    -0.203 F 
ATOM    107  F   UNL A   1      47.370  29.169  35.737  1.00  0.00    -0.200 F 
ATOM    108  C   UNL A   1      45.874  27.729  36.860  1.00  0.00     0.200 A 
ATOM    109  F   UNL A   1      44.339  26.307  37.954  1.00  0.00    -0.200 F 
ATOM    110  F   UNL A   1      46.882  27.214  37.576  1.00  0.00    -0.200 F 
ENDBRANCH  77 100
ENDBRANCH  51  52
ENDBRANCH  43  46
ENDBRANCH  41  42
ENDBRANCH  40  41
ENDBRANCH  39  40
ENDBRANCH   1  39
TORSDOF 17
ENDMDL
