MODEL 1
REMARK VINA RESULT:     -12.8      0.000      0.000
REMARK SMILES CC1=C(C)C[C@@H](C(=O)NCC(=O)c2ccccc2)[C@H](C(=O)NCCCCCCNC(=O)c2ccc(-c3c4nc(c(-c5c(F)c(F)c(F)c(F)c5F)c5ccc([nH]5)c(-c5c(F)c(F)c(F)c(F)c5F)c5nc(c(-c6c(F)c(F)c(F)c(F)c6F)c6ccc3[nH]6)C=C5)C=C4)cc2)C1
REMARK SMILES IDX 24 1 23 2 22 3 20 4 21 5 19 7 1 8 2 9 3 10 95 11 4 12 5 13
REMARK SMILES IDX 6 14 7 15 8 16 9 17 10 19 11 20 12 21 13 22 14 23 18 24
REMARK SMILES IDX 15 25 17 26 16 27 25 28 26 29 27 30 28 31 29 32 30 33 31 35
REMARK SMILES IDX 32 36 33 37 94 38 34 39 93 40 35 41 36 42 37 43 87 44 38 45
REMARK SMILES IDX 92 46 86 47 88 48 39 49 91 50 85 51 84 52 40 54 72 55 52 56
REMARK SMILES IDX 71 57 53 58 56 59 70 60 89 61 54 62 55 63 69 65 90 66 57 67
REMARK SMILES IDX 41 68 42 69 50 70 43 71 44 72 48 73 51 74 45 75 46 76 49 77
REMARK SMILES IDX 47 78 73 79 74 80 82 81 75 82 76 83 80 84 83 85 77 86 78 87
REMARK SMILES IDX 81 88 79 89 58 90 59 91 67 92 60 93 61 94 65 95 68 96 62 97
REMARK SMILES IDX 63 98 66 99 64 100
REMARK H PARENT 22 6 9 18 29 34 88 53 56 64
REMARK Flexibility Score: inf
ROOT
ATOM      1  C   UNL A   1      31.813  28.851  27.310  1.00  0.00     0.021 C 
ENDROOT
BRANCH   1   2
ATOM      2  C   UNL A   1      32.723  27.749  26.788  1.00  0.00     0.116 C 
BRANCH   2   3
ATOM      3  N   UNL A   1      33.303  28.075  25.510  1.00  0.00    -0.356 N 
ATOM      4  C   UNL A   1      33.618  27.258  24.472  1.00  0.00     0.224 C 
ATOM      5  O   UNL A   1      34.075  27.783  23.453  1.00  0.00    -0.275 OA
ATOM      6  H   UNL A   1      33.498  29.031  25.368  1.00  0.00     0.163 HD
BRANCH   4   7
ATOM      7  C   UNL A   1      33.429  25.738  24.544  1.00  0.00     0.095 C 
ATOM      8  C   UNL A   1      36.353  23.570  26.048  1.00  0.00     0.039 C 
ATOM      9  C   UNL A   1      35.379  24.070  25.011  1.00  0.00    -0.074 C 
ATOM     10  C   UNL A   1      35.397  23.657  23.727  1.00  0.00    -0.074 C 
ATOM     11  C   UNL A   1      34.399  25.090  25.537  1.00  0.00     0.045 C 
ATOM     12  C   UNL A   1      36.422  22.704  23.163  1.00  0.00     0.039 C 
ATOM     13  C   UNL A   1      34.408  24.146  22.694  1.00  0.00     0.045 C 
ATOM     14  C   UNL A   1      33.306  25.108  23.153  1.00  0.00     0.095 C 
BRANCH  14  15
ATOM     15  C   UNL A   1      31.918  24.517  22.918  1.00  0.00     0.224 C 
ATOM     16  O   UNL A   1      30.938  25.266  22.838  1.00  0.00    -0.275 OA
ATOM     17  N   UNL A   1      31.671  23.192  22.784  1.00  0.00    -0.348 N 
ATOM     18  H   UNL A   1      30.716  22.981  22.669  1.00  0.00     0.163 HD
BRANCH  17  19
ATOM     19  C   UNL A   1      32.525  22.020  22.773  1.00  0.00     0.197 C 
BRANCH  19  20
ATOM     20  C   UNL A   1      32.537  21.037  23.952  1.00  0.00     0.181 C 
ATOM     21  O   UNL A   1      32.631  19.826  23.733  1.00  0.00    -0.292 OA
BRANCH  20  22
ATOM     22  C   UNL A   1      32.664  21.493  25.365  1.00  0.00     0.019 A 
ATOM     23  C   UNL A   1      33.726  20.963  26.115  1.00  0.00     0.012 A 
ATOM     24  C   UNL A   1      31.819  22.436  25.955  1.00  0.00     0.012 A 
ATOM     25  C   UNL A   1      33.982  21.422  27.407  1.00  0.00     0.001 A 
ATOM     26  C   UNL A   1      32.088  22.905  27.244  1.00  0.00     0.001 A 
ATOM     27  C   UNL A   1      33.172  22.407  27.964  1.00  0.00     0.000 A 
ENDBRANCH  20  22
ENDBRANCH  19  20
ENDBRANCH  17  19
ENDBRANCH  14  15
ENDBRANCH   4   7
ENDBRANCH   2   3
ENDBRANCH   1   2
BRANCH   1  28
ATOM     28  C   UNL A   1      32.320  30.260  27.012  1.00  0.00     0.002 C 
BRANCH  28  29
ATOM     29  C   UNL A   1      31.378  31.117  26.157  1.00  0.00     0.002 C 
BRANCH  29  30
ATOM     30  C   UNL A   1      31.357  32.610  26.498  1.00  0.00     0.021 C 
BRANCH  30  31
ATOM     31  C   UNL A   1      32.542  33.090  27.328  1.00  0.00     0.116 C 
BRANCH  31  32
ATOM     32  N   UNL A   1      32.388  34.473  27.749  1.00  0.00    -0.352 N 
ATOM     33  C   UNL A   1      33.009  35.148  28.762  1.00  0.00     0.251 C 
ATOM     34  H   UNL A   1      31.739  35.000  27.228  1.00  0.00     0.163 HD
ATOM     35  O   UNL A   1      32.602  36.259  29.107  1.00  0.00    -0.269 OA
BRANCH  33  36
ATOM     36  C   UNL A   1      34.162  34.543  29.455  1.00  0.00     0.039 A 
ATOM     37  C   UNL A   1      33.957  33.922  30.689  1.00  0.00     0.014 A 
ATOM     38  C   UNL A   1      35.444  34.608  28.902  1.00  0.00     0.014 A 
ATOM     39  C   UNL A   1      35.031  33.325  31.348  1.00  0.00     0.010 A 
ATOM     40  C   UNL A   1      36.501  33.952  29.526  1.00  0.00     0.010 A 
ATOM     41  C   UNL A   1      36.306  33.314  30.760  1.00  0.00    -0.014 A 
BRANCH  41  42
ATOM     42  C   UNL A   1      37.450  32.647  31.428  1.00  0.00     0.031 A 
ATOM     43  C   UNL A   1      38.149  31.497  30.758  1.00  0.00     0.074 A 
ATOM     44  C   UNL A   1      37.824  33.046  32.659  1.00  0.00     0.049 A 
ATOM     45  N   UNL A   1      39.131  30.753  31.201  1.00  0.00    -0.248 NA
ATOM     46  C   UNL A   1      37.662  31.116  29.423  1.00  0.00     0.031 C 
ATOM     47  C   UNL A   1      37.193  34.120  33.427  1.00  0.00     0.029 A 
ATOM     48  N   UNL A   1      38.820  32.588  33.483  1.00  0.00    -0.354 N 
ATOM     49  C   UNL A   1      39.371  29.814  30.206  1.00  0.00     0.074 A 
ATOM     50  C   UNL A   1      38.396  30.043  29.163  1.00  0.00     0.031 C 
ATOM     51  C   UNL A   1      37.833  34.255  34.600  1.00  0.00     0.029 A 
ATOM     52  C   UNL A   1      38.892  33.255  34.681  1.00  0.00     0.049 A 
ATOM     53  H   UNL A   1      39.427  31.852  33.239  1.00  0.00     0.167 HD
ATOM     54  C   UNL A   1      40.336  28.865  30.156  1.00  0.00     0.037 A 
ATOM     55  C   UNL A   1      39.719  33.074  35.730  1.00  0.00     0.037 A 
ATOM     56  C   UNL A   1      41.317  28.656  31.189  1.00  0.00     0.049 A 
ATOM     57  C   UNL A   1      40.774  32.004  35.652  1.00  0.00     0.074 A 
ATOM     58  C   UNL A   1      42.365  27.753  31.213  1.00  0.00     0.029 A 
ATOM     59  N   UNL A   1      41.367  29.360  32.383  1.00  0.00    -0.354 N 
ATOM     60  N   UNL A   1      41.034  31.165  34.679  1.00  0.00    -0.248 NA
ATOM     61  C   UNL A   1      41.656  31.861  36.819  1.00  0.00     0.031 C 
ATOM     62  C   UNL A   1      43.023  27.881  32.441  1.00  0.00     0.029 A 
ATOM     63  C   UNL A   1      42.417  28.898  33.161  1.00  0.00     0.049 A 
ATOM     64  H   UNL A   1      40.748  30.081  32.640  1.00  0.00     0.167 HD
ATOM     65  C   UNL A   1      42.125  30.418  35.101  1.00  0.00     0.074 A 
ATOM     66  C   UNL A   1      42.488  30.914  36.412  1.00  0.00     0.031 C 
ATOM     67  C   UNL A   1      42.769  29.412  34.460  1.00  0.00     0.037 A 
BRANCH  54  68
ATOM     68  C   UNL A   1      40.380  27.983  28.942  1.00  0.00     0.064 A 
ATOM     69  C   UNL A   1      41.137  28.328  27.810  1.00  0.00     0.173 A 
ATOM     70  C   UNL A   1      39.686  26.764  28.919  1.00  0.00     0.173 A 
ATOM     71  F   UNL A   1      41.809  29.488  27.776  1.00  0.00    -0.203 F 
ATOM     72  C   UNL A   1      41.172  27.501  26.691  1.00  0.00     0.198 A 
ATOM     73  C   UNL A   1      39.750  25.924  27.809  1.00  0.00     0.198 A 
ATOM     74  F   UNL A   1      38.952  26.383  29.973  1.00  0.00    -0.203 F 
ATOM     75  F   UNL A   1      41.860  27.876  25.604  1.00  0.00    -0.200 F 
ATOM     76  C   UNL A   1      40.486  26.297  26.694  1.00  0.00     0.200 A 
ATOM     77  F   UNL A   1      39.096  24.754  27.819  1.00  0.00    -0.200 F 
ATOM     78  F   UNL A   1      40.526  25.498  25.618  1.00  0.00    -0.200 F 
ENDBRANCH  54  68
BRANCH  55  79
ATOM     79  C   UNL A   1      39.599  33.943  36.930  1.00  0.00     0.064 A 
ATOM     80  C   UNL A   1      38.838  33.539  38.036  1.00  0.00     0.173 A 
ATOM     81  C   UNL A   1      40.232  35.192  36.994  1.00  0.00     0.173 A 
ATOM     82  F   UNL A   1      38.198  32.360  38.014  1.00  0.00    -0.203 F 
ATOM     83  C   UNL A   1      38.694  34.363  39.149  1.00  0.00     0.198 A 
ATOM     84  C   UNL A   1      40.112  36.002  38.121  1.00  0.00     0.198 A 
ATOM     85  F   UNL A   1      40.977  35.622  35.965  1.00  0.00    -0.203 F 
ATOM     86  F   UNL A   1      37.920  33.974  40.172  1.00  0.00    -0.200 F 
ATOM     87  C   UNL A   1      39.335  35.592  39.193  1.00  0.00     0.200 A 
ATOM     88  F   UNL A   1      40.745  37.182  38.166  1.00  0.00    -0.200 F 
ATOM     89  F   UNL A   1      39.197  36.383  40.266  1.00  0.00    -0.200 F 
ENDBRANCH  55  79
BRANCH  67  90
ATOM     90  C   UNL A   1      43.956  28.806  35.152  1.00  0.00     0.064 A 
ATOM     91  C   UNL A   1      45.244  29.345  35.016  1.00  0.00     0.173 A 
ATOM     92  C   UNL A   1      43.795  27.691  35.989  1.00  0.00     0.173 A 
ATOM     93  F   UNL A   1      45.452  30.401  34.214  1.00  0.00    -0.203 F 
ATOM     94  C   UNL A   1      46.331  28.773  35.670  1.00  0.00     0.198 A 
ATOM     95  C   UNL A   1      44.879  27.141  36.665  1.00  0.00     0.198 A 
ATOM     96  F   UNL A   1      42.583  27.142  36.158  1.00  0.00    -0.203 F 
ATOM     97  F   UNL A   1      47.561  29.273  35.485  1.00  0.00    -0.200 F 
ATOM     98  C   UNL A   1      46.147  27.676  36.500  1.00  0.00     0.200 A 
ATOM     99  F   UNL A   1      44.697  26.090  37.478  1.00  0.00    -0.200 F 
ATOM    100  F   UNL A   1      47.194  27.131  37.134  1.00  0.00    -0.200 F 
ENDBRANCH  67  90
ENDBRANCH  41  42
ENDBRANCH  33  36
ENDBRANCH  31  32
ENDBRANCH  30  31
ENDBRANCH  29  30
ENDBRANCH  28  29
ENDBRANCH   1  28
TORSDOF 17
ENDMDL
MODEL 2
REMARK VINA RESULT:     -12.6      1.462      7.522
REMARK SMILES CC1=C(C)C[C@@H](C(=O)NCC(=O)c2ccccc2)[C@H](C(=O)NCCCCCCNC(=O)c2ccc(-c3c4nc(c(-c5c(F)c(F)c(F)c(F)c5F)c5ccc([nH]5)c(-c5c(F)c(F)c(F)c(F)c5F)c5nc(c(-c6c(F)c(F)c(F)c(F)c6F)c6ccc3[nH]6)C=C5)C=C4)cc2)C1
REMARK SMILES IDX 24 1 23 2 22 3 20 4 21 5 19 7 1 8 2 9 3 10 95 11 4 12 5 13
REMARK SMILES IDX 6 14 7 15 8 16 9 17 10 19 11 20 12 21 13 22 14 23 18 24
REMARK SMILES IDX 15 25 17 26 16 27 25 28 26 29 27 30 28 31 29 32 30 33 31 35
REMARK SMILES IDX 32 36 33 37 94 38 34 39 93 40 35 41 36 42 37 43 87 44 38 45
REMARK SMILES IDX 92 46 86 47 88 48 39 49 91 50 85 51 84 52 40 54 72 55 52 56
REMARK SMILES IDX 71 57 53 58 56 59 70 60 89 61 54 62 55 63 69 65 90 66 57 67
REMARK SMILES IDX 41 68 42 69 50 70 43 71 44 72 48 73 51 74 45 75 46 76 49 77
REMARK SMILES IDX 47 78 73 79 74 80 82 81 75 82 76 83 80 84 83 85 77 86 78 87
REMARK SMILES IDX 81 88 79 89 58 90 59 91 67 92 60 93 61 94 65 95 68 96 62 97
REMARK SMILES IDX 63 98 66 99 64 100
REMARK H PARENT 22 6 9 18 29 34 88 53 56 64
REMARK Flexibility Score: inf
ROOT
ATOM      1  C   UNL A   1      32.055  28.596  26.953  1.00  0.00     0.021 C 
ENDROOT
BRANCH   1   2
ATOM      2  C   UNL A   1      33.083  27.562  26.519  1.00  0.00     0.116 C 
BRANCH   2   3
ATOM      3  N   UNL A   1      33.293  27.561  25.093  1.00  0.00    -0.356 N 
ATOM      4  C   UNL A   1      33.502  26.515  24.253  1.00  0.00     0.224 C 
ATOM      5  O   UNL A   1      33.618  26.766  23.050  1.00  0.00    -0.275 OA
ATOM      6  H   UNL A   1      33.281  28.449  24.666  1.00  0.00     0.163 HD
BRANCH   4   7
ATOM      7  C   UNL A   1      33.601  25.071  24.757  1.00  0.00     0.095 C 
ATOM      8  C   UNL A   1      37.093  23.789  26.053  1.00  0.00     0.039 C 
ATOM      9  C   UNL A   1      35.867  23.849  25.176  1.00  0.00    -0.074 C 
ATOM     10  C   UNL A   1      35.714  23.086  24.074  1.00  0.00    -0.074 C 
ATOM     11  C   UNL A   1      34.841  24.856  25.632  1.00  0.00     0.045 C 
ATOM     12  C   UNL A   1      36.766  22.136  23.554  1.00  0.00     0.039 C 
ATOM     13  C   UNL A   1      34.476  23.134  23.207  1.00  0.00     0.045 C 
ATOM     14  C   UNL A   1      33.330  24.053  23.644  1.00  0.00     0.095 C 
BRANCH  14  15
ATOM     15  C   UNL A   1      32.048  23.263  23.898  1.00  0.00     0.224 C 
ATOM     16  O   UNL A   1      32.113  22.123  24.371  1.00  0.00    -0.275 OA
ATOM     17  N   UNL A   1      30.804  23.733  23.638  1.00  0.00    -0.348 N 
ATOM     18  H   UNL A   1      30.092  23.083  23.832  1.00  0.00     0.163 HD
BRANCH  17  19
ATOM     19  C   UNL A   1      30.308  24.999  23.135  1.00  0.00     0.197 C 
BRANCH  19  20
ATOM     20  C   UNL A   1      29.856  26.110  24.093  1.00  0.00     0.181 C 
ATOM     21  O   UNL A   1      30.065  25.990  25.305  1.00  0.00    -0.292 OA
BRANCH  20  22
ATOM     22  C   UNL A   1      29.371  27.432  23.606  1.00  0.00     0.019 A 
ATOM     23  C   UNL A   1      30.344  28.358  23.198  1.00  0.00     0.012 A 
ATOM     24  C   UNL A   1      28.021  27.772  23.498  1.00  0.00     0.012 A 
ATOM     25  C   UNL A   1      29.972  29.573  22.624  1.00  0.00     0.001 A 
ATOM     26  C   UNL A   1      27.651  28.984  22.908  1.00  0.00     0.001 A 
ATOM     27  C   UNL A   1      28.624  29.878  22.463  1.00  0.00     0.000 A 
ENDBRANCH  20  22
ENDBRANCH  19  20
ENDBRANCH  17  19
ENDBRANCH  14  15
ENDBRANCH   4   7
ENDBRANCH   2   3
ENDBRANCH   1   2
BRANCH   1  28
ATOM     28  C   UNL A   1      32.456  30.034  26.633  1.00  0.00     0.002 C 
BRANCH  28  29
ATOM     29  C   UNL A   1      31.335  30.901  26.047  1.00  0.00     0.002 C 
BRANCH  29  30
ATOM     30  C   UNL A   1      31.319  32.360  26.514  1.00  0.00     0.021 C 
BRANCH  30  31
ATOM     31  C   UNL A   1      32.606  32.826  27.186  1.00  0.00     0.116 C 
BRANCH  31  32
ATOM     32  N   UNL A   1      32.507  34.198  27.658  1.00  0.00    -0.352 N 
ATOM     33  C   UNL A   1      33.173  34.816  28.680  1.00  0.00     0.251 C 
ATOM     34  H   UNL A   1      31.867  34.764  27.170  1.00  0.00     0.163 HD
ATOM     35  O   UNL A   1      32.811  35.927  29.071  1.00  0.00    -0.269 OA
BRANCH  33  36
ATOM     36  C   UNL A   1      34.318  34.149  29.326  1.00  0.00     0.039 A 
ATOM     37  C   UNL A   1      34.076  33.264  30.380  1.00  0.00     0.014 A 
ATOM     38  C   UNL A   1      35.627  34.411  28.911  1.00  0.00     0.014 A 
ATOM     39  C   UNL A   1      35.145  32.607  30.988  1.00  0.00     0.010 A 
ATOM     40  C   UNL A   1      36.686  33.703  29.471  1.00  0.00     0.010 A 
ATOM     41  C   UNL A   1      36.455  32.803  30.522  1.00  0.00    -0.014 A 
BRANCH  41  42
ATOM     42  C   UNL A   1      37.599  32.080  31.131  1.00  0.00     0.031 A 
ATOM     43  C   UNL A   1      38.061  32.432  32.518  1.00  0.00     0.074 A 
ATOM     44  C   UNL A   1      38.249  31.143  30.415  1.00  0.00     0.049 A 
ATOM     45  N   UNL A   1      39.070  31.954  33.200  1.00  0.00    -0.248 NA
ATOM     46  C   UNL A   1      37.304  33.481  33.220  1.00  0.00     0.031 C 
ATOM     47  C   UNL A   1      37.920  30.747  29.046  1.00  0.00     0.029 A 
ATOM     48  N   UNL A   1      39.328  30.360  30.738  1.00  0.00    -0.354 N 
ATOM     49  C   UNL A   1      39.074  32.648  34.404  1.00  0.00     0.074 A 
ATOM     50  C   UNL A   1      38.005  33.620  34.336  1.00  0.00     0.031 C 
ATOM     51  C   UNL A   1      38.763  29.778  28.654  1.00  0.00     0.029 A 
ATOM     52  C   UNL A   1      39.713  29.512  29.729  1.00  0.00     0.049 A 
ATOM     53  H   UNL A   1      39.782  30.401  31.610  1.00  0.00     0.167 HD
ATOM     54  C   UNL A   1      39.879  32.470  35.478  1.00  0.00     0.037 A 
ATOM     55  C   UNL A   1      40.724  28.623  29.678  1.00  0.00     0.037 A 
ATOM     56  C   UNL A   1      40.928  31.487  35.547  1.00  0.00     0.049 A 
ATOM     57  C   UNL A   1      41.611  28.455  30.882  1.00  0.00     0.074 A 
ATOM     58  C   UNL A   1      41.769  31.194  36.607  1.00  0.00     0.029 A 
ATOM     59  N   UNL A   1      41.280  30.636  34.510  1.00  0.00    -0.354 N 
ATOM     60  N   UNL A   1      41.564  29.070  32.038  1.00  0.00    -0.248 NA
ATOM     61  C   UNL A   1      42.688  27.461  30.774  1.00  0.00     0.031 C 
ATOM     62  C   UNL A   1      42.658  30.196  36.196  1.00  0.00     0.029 A 
ATOM     63  C   UNL A   1      42.340  29.830  34.898  1.00  0.00     0.049 A 
ATOM     64  H   UNL A   1      40.843  30.607  33.629  1.00  0.00     0.167 HD
ATOM     65  C   UNL A   1      42.581  28.519  32.805  1.00  0.00     0.074 A 
ATOM     66  C   UNL A   1      43.218  27.507  31.987  1.00  0.00     0.031 C 
ATOM     67  C   UNL A   1      42.954  28.822  34.073  1.00  0.00     0.037 A 
BRANCH  54  68
ATOM     68  C   UNL A   1      39.653  33.357  36.669  1.00  0.00     0.064 A 
ATOM     69  C   UNL A   1      40.311  34.590  36.801  1.00  0.00     0.173 A 
ATOM     70  C   UNL A   1      38.746  32.988  37.672  1.00  0.00     0.173 A 
ATOM     71  F   UNL A   1      41.198  34.985  35.876  1.00  0.00    -0.203 F 
ATOM     72  C   UNL A   1      40.092  35.405  37.909  1.00  0.00     0.198 A 
ATOM     73  C   UNL A   1      38.506  33.820  38.764  1.00  0.00     0.198 A 
ATOM     74  F   UNL A   1      38.087  31.823  37.594  1.00  0.00    -0.203 F 
ATOM     75  F   UNL A   1      40.771  36.553  38.038  1.00  0.00    -0.200 F 
ATOM     76  C   UNL A   1      39.184  35.024  38.885  1.00  0.00     0.200 A 
ATOM     77  F   UNL A   1      37.618  33.456  39.699  1.00  0.00    -0.200 F 
ATOM     78  F   UNL A   1      38.969  35.812  39.946  1.00  0.00    -0.200 F 
ENDBRANCH  54  68
BRANCH  55  79
ATOM     79  C   UNL A   1      40.935  27.806  28.455  1.00  0.00     0.064 A 
ATOM     80  C   UNL A   1      41.717  28.286  27.395  1.00  0.00     0.173 A 
ATOM     81  C   UNL A   1      40.355  26.537  28.314  1.00  0.00     0.173 A 
ATOM     82  F   UNL A   1      42.278  29.502  27.476  1.00  0.00    -0.203 F 
ATOM     83  C   UNL A   1      41.890  27.540  26.232  1.00  0.00     0.198 A 
ATOM     84  C   UNL A   1      40.553  25.779  27.162  1.00  0.00     0.198 A 
ATOM     85  F   UNL A   1      39.602  26.029  29.301  1.00  0.00    -0.203 F 
ATOM     86  F   UNL A   1      42.602  28.044  25.215  1.00  0.00    -0.200 F 
ATOM     87  C   UNL A   1      41.312  26.284  26.119  1.00  0.00     0.200 A 
ATOM     88  F   UNL A   1      40.005  24.560  27.062  1.00  0.00    -0.200 F 
ATOM     89  F   UNL A   1      41.481  25.566  24.999  1.00  0.00    -0.200 F 
ENDBRANCH  55  79
BRANCH  67  90
ATOM     90  C   UNL A   1      44.080  28.025  34.666  1.00  0.00     0.064 A 
ATOM     91  C   UNL A   1      45.408  28.472  34.614  1.00  0.00     0.173 A 
ATOM     92  C   UNL A   1      43.819  26.814  35.326  1.00  0.00     0.173 A 
ATOM     93  F   UNL A   1      45.711  29.616  33.981  1.00  0.00    -0.203 F 
ATOM     94  C   UNL A   1      46.438  27.722  35.176  1.00  0.00     0.198 A 
ATOM     95  C   UNL A   1      44.847  26.083  35.914  1.00  0.00     0.198 A 
ATOM     96  F   UNL A   1      42.565  26.346  35.410  1.00  0.00    -0.203 F 
ATOM     97  F   UNL A   1      47.706  28.143  35.069  1.00  0.00    -0.200 F 
ATOM     98  C   UNL A   1      46.155  26.532  35.831  1.00  0.00     0.200 A 
ATOM     99  F   UNL A   1      44.571  24.941  36.559  1.00  0.00    -0.200 F 
ATOM    100  F   UNL A   1      47.147  25.815  36.377  1.00  0.00    -0.200 F 
ENDBRANCH  67  90
ENDBRANCH  41  42
ENDBRANCH  33  36
ENDBRANCH  31  32
ENDBRANCH  30  31
ENDBRANCH  29  30
ENDBRANCH  28  29
ENDBRANCH   1  28
TORSDOF 17
ENDMDL
MODEL 3
REMARK VINA RESULT:     -12.5      0.508      7.115
REMARK SMILES CC1=C(C)C[C@@H](C(=O)NCC(=O)c2ccccc2)[C@H](C(=O)NCCCCCCNC(=O)c2ccc(-c3c4nc(c(-c5c(F)c(F)c(F)c(F)c5F)c5ccc([nH]5)c(-c5c(F)c(F)c(F)c(F)c5F)c5nc(c(-c6c(F)c(F)c(F)c(F)c6F)c6ccc3[nH]6)C=C5)C=C4)cc2)C1
REMARK SMILES IDX 24 1 23 2 22 3 20 4 21 5 19 7 1 8 2 9 3 10 95 11 4 12 5 13
REMARK SMILES IDX 6 14 7 15 8 16 9 17 10 19 11 20 12 21 13 22 14 23 18 24
REMARK SMILES IDX 15 25 17 26 16 27 25 28 26 29 27 30 28 31 29 32 30 33 31 35
REMARK SMILES IDX 32 36 33 37 94 38 34 39 93 40 35 41 36 42 37 43 87 44 38 45
REMARK SMILES IDX 92 46 86 47 88 48 39 49 91 50 85 51 84 52 40 54 72 55 52 56
REMARK SMILES IDX 71 57 53 58 56 59 70 60 89 61 54 62 55 63 69 65 90 66 57 67
REMARK SMILES IDX 41 68 42 69 50 70 43 71 44 72 48 73 51 74 45 75 46 76 49 77
REMARK SMILES IDX 47 78 73 79 74 80 82 81 75 82 76 83 80 84 83 85 77 86 78 87
REMARK SMILES IDX 81 88 79 89 58 90 59 91 67 92 60 93 61 94 65 95 68 96 62 97
REMARK SMILES IDX 63 98 66 99 64 100
REMARK H PARENT 22 6 9 18 29 34 88 53 56 64
REMARK Flexibility Score: inf
ROOT
ATOM      1  C   UNL A   1      31.819  28.891  27.179  1.00  0.00     0.021 C 
ENDROOT
BRANCH   1   2
ATOM      2  C   UNL A   1      32.826  27.855  26.706  1.00  0.00     0.116 C 
BRANCH   2   3
ATOM      3  N   UNL A   1      33.352  28.158  25.399  1.00  0.00    -0.356 N 
ATOM      4  C   UNL A   1      33.616  27.322  24.361  1.00  0.00     0.224 C 
ATOM      5  O   UNL A   1      34.032  27.829  23.315  1.00  0.00    -0.275 OA
ATOM      6  H   UNL A   1      33.547  29.109  25.234  1.00  0.00     0.163 HD
BRANCH   4   7
ATOM      7  C   UNL A   1      33.420  25.806  24.464  1.00  0.00     0.095 C 
ATOM      8  C   UNL A   1      36.342  23.652  25.993  1.00  0.00     0.039 C 
ATOM      9  C   UNL A   1      35.363  24.137  24.952  1.00  0.00    -0.074 C 
ATOM     10  C   UNL A   1      35.371  23.699  23.676  1.00  0.00    -0.074 C 
ATOM     11  C   UNL A   1      34.393  25.172  25.464  1.00  0.00     0.045 C 
ATOM     12  C   UNL A   1      36.388  22.729  23.125  1.00  0.00     0.039 C 
ATOM     13  C   UNL A   1      34.378  24.172  22.640  1.00  0.00     0.045 C 
ATOM     14  C   UNL A   1      33.285  25.148  23.087  1.00  0.00     0.095 C 
BRANCH  14  15
ATOM     15  C   UNL A   1      31.892  24.561  22.872  1.00  0.00     0.224 C 
ATOM     16  O   UNL A   1      30.915  25.313  22.785  1.00  0.00    -0.275 OA
ATOM     17  N   UNL A   1      31.637  23.234  22.764  1.00  0.00    -0.348 N 
ATOM     18  H   UNL A   1      30.681  23.027  22.659  1.00  0.00     0.163 HD
BRANCH  17  19
ATOM     19  C   UNL A   1      32.486  22.058  22.769  1.00  0.00     0.197 C 
BRANCH  19  20
ATOM     20  C   UNL A   1      32.493  21.092  23.962  1.00  0.00     0.181 C 
ATOM     21  O   UNL A   1      32.422  19.875  23.759  1.00  0.00    -0.292 OA
BRANCH  20  22
ATOM     22  C   UNL A   1      32.804  21.542  25.347  1.00  0.00     0.019 A 
ATOM     23  C   UNL A   1      31.946  22.496  25.917  1.00  0.00     0.012 A 
ATOM     24  C   UNL A   1      33.863  21.040  26.107  1.00  0.00     0.012 A 
ATOM     25  C   UNL A   1      32.100  22.886  27.247  1.00  0.00     0.001 A 
ATOM     26  C   UNL A   1      34.006  21.421  27.444  1.00  0.00     0.001 A 
ATOM     27  C   UNL A   1      33.121  22.334  28.016  1.00  0.00     0.000 A 
ENDBRANCH  20  22
ENDBRANCH  19  20
ENDBRANCH  17  19
ENDBRANCH  14  15
ENDBRANCH   4   7
ENDBRANCH   2   3
ENDBRANCH   1   2
BRANCH   1  28
ATOM     28  C   UNL A   1      32.270  30.334  26.960  1.00  0.00     0.002 C 
BRANCH  28  29
ATOM     29  C   UNL A   1      31.285  31.205  26.170  1.00  0.00     0.002 C 
BRANCH  29  30
ATOM     30  C   UNL A   1      31.339  32.704  26.480  1.00  0.00     0.021 C 
BRANCH  30  31
ATOM     31  C   UNL A   1      32.584  33.154  27.237  1.00  0.00     0.116 C 
BRANCH  31  32
ATOM     32  N   UNL A   1      32.435  34.492  27.784  1.00  0.00    -0.352 N 
ATOM     33  C   UNL A   1      33.070  35.073  28.846  1.00  0.00     0.251 C 
ATOM     34  H   UNL A   1      31.780  35.064  27.322  1.00  0.00     0.163 HD
ATOM     35  O   UNL A   1      32.667  36.148  29.296  1.00  0.00    -0.269 OA
BRANCH  33  36
ATOM     36  C   UNL A   1      34.231  34.408  29.466  1.00  0.00     0.039 A 
ATOM     37  C   UNL A   1      34.020  33.558  30.555  1.00  0.00     0.014 A 
ATOM     38  C   UNL A   1      35.526  34.639  28.992  1.00  0.00     0.014 A 
ATOM     39  C   UNL A   1      35.104  32.904  31.139  1.00  0.00     0.010 A 
ATOM     40  C   UNL A   1      36.596  33.933  29.531  1.00  0.00     0.010 A 
ATOM     41  C   UNL A   1      36.396  33.067  30.616  1.00  0.00    -0.014 A 
BRANCH  41  42
ATOM     42  C   UNL A   1      37.553  32.346  31.201  1.00  0.00     0.031 A 
ATOM     43  C   UNL A   1      38.071  32.727  32.560  1.00  0.00     0.074 A 
ATOM     44  C   UNL A   1      38.166  31.384  30.486  1.00  0.00     0.049 A 
ATOM     45  N   UNL A   1      39.099  32.254  33.217  1.00  0.00    -0.248 NA
ATOM     46  C   UNL A   1      37.352  33.802  33.263  1.00  0.00     0.031 C 
ATOM     47  C   UNL A   1      37.782  30.958  29.139  1.00  0.00     0.029 A 
ATOM     48  N   UNL A   1      39.247  30.596  30.788  1.00  0.00    -0.354 N 
ATOM     49  C   UNL A   1      39.155  32.977  34.402  1.00  0.00     0.074 A 
ATOM     50  C   UNL A   1      38.095  33.960  34.349  1.00  0.00     0.031 C 
ATOM     51  C   UNL A   1      38.600  29.970  28.742  1.00  0.00     0.029 A 
ATOM     52  C   UNL A   1      39.586  29.719  29.787  1.00  0.00     0.049 A 
ATOM     53  H   UNL A   1      39.735  30.653  31.642  1.00  0.00     0.167 HD
ATOM     54  C   UNL A   1      39.997  32.817  35.450  1.00  0.00     0.037 A 
ATOM     55  C   UNL A   1      40.584  28.817  29.721  1.00  0.00     0.037 A 
ATOM     56  C   UNL A   1      41.037  31.822  35.505  1.00  0.00     0.049 A 
ATOM     57  C   UNL A   1      41.513  28.668  30.896  1.00  0.00     0.074 A 
ATOM     58  C   UNL A   1      41.913  31.546  36.540  1.00  0.00     0.029 A 
ATOM     59  N   UNL A   1      41.341  30.942  34.478  1.00  0.00    -0.354 N 
ATOM     60  N   UNL A   1      41.516  29.312  32.037  1.00  0.00    -0.248 NA
ATOM     61  C   UNL A   1      42.575  27.659  30.773  1.00  0.00     0.031 C 
ATOM     62  C   UNL A   1      42.776  30.528  36.122  1.00  0.00     0.029 A 
ATOM     63  C   UNL A   1      42.406  30.134  34.846  1.00  0.00     0.049 A 
ATOM     64  H   UNL A   1      40.871  30.897  33.614  1.00  0.00     0.167 HD
ATOM     65  C   UNL A   1      42.555  28.768  32.780  1.00  0.00     0.074 A 
ATOM     66  C   UNL A   1      43.150  27.729  31.965  1.00  0.00     0.031 C 
ATOM     67  C   UNL A   1      42.978  29.098  34.025  1.00  0.00     0.037 A 
BRANCH  54  68
ATOM     68  C   UNL A   1      39.826  33.735  36.625  1.00  0.00     0.064 A 
ATOM     69  C   UNL A   1      40.496  34.967  36.699  1.00  0.00     0.173 A 
ATOM     70  C   UNL A   1      38.959  33.398  37.675  1.00  0.00     0.173 A 
ATOM     71  F   UNL A   1      41.346  35.332  35.728  1.00  0.00    -0.203 F 
ATOM     72  C   UNL A   1      40.327  35.811  37.793  1.00  0.00     0.198 A 
ATOM     73  C   UNL A   1      38.768  34.260  38.753  1.00  0.00     0.198 A 
ATOM     74  F   UNL A   1      38.290  32.236  37.654  1.00  0.00    -0.203 F 
ATOM     75  F   UNL A   1      41.016  36.958  37.864  1.00  0.00    -0.200 F 
ATOM     76  C   UNL A   1      39.458  35.461  38.814  1.00  0.00     0.200 A 
ATOM     77  F   UNL A   1      37.918  33.926  39.733  1.00  0.00    -0.200 F 
ATOM     78  F   UNL A   1      39.291  36.279  39.863  1.00  0.00    -0.200 F 
ENDBRANCH  54  68
BRANCH  55  79
ATOM     79  C   UNL A   1      40.740  27.967  28.512  1.00  0.00     0.064 A 
ATOM     80  C   UNL A   1      41.518  28.396  27.428  1.00  0.00     0.173 A 
ATOM     81  C   UNL A   1      40.112  26.717  28.411  1.00  0.00     0.173 A 
ATOM     82  F   UNL A   1      42.124  29.592  27.471  1.00  0.00    -0.203 F 
ATOM     83  C   UNL A   1      41.640  27.619  26.278  1.00  0.00     0.198 A 
ATOM     84  C   UNL A   1      40.260  25.928  27.272  1.00  0.00     0.198 A 
ATOM     85  F   UNL A   1      39.362  26.258  29.423  1.00  0.00    -0.203 F 
ATOM     86  F   UNL A   1      42.349  28.076  25.237  1.00  0.00    -0.200 F 
ATOM     87  C   UNL A   1      41.015  26.384  26.203  1.00  0.00     0.200 A 
ATOM     88  F   UNL A   1      39.666  24.729  27.209  1.00  0.00    -0.200 F 
ATOM     89  F   UNL A   1      41.135  25.637  25.096  1.00  0.00    -0.200 F 
ENDBRANCH  55  79
BRANCH  67  90
ATOM     90  C   UNL A   1      44.116  28.302  34.597  1.00  0.00     0.064 A 
ATOM     91  C   UNL A   1      45.451  28.695  34.424  1.00  0.00     0.173 A 
ATOM     92  C   UNL A   1      43.862  27.150  35.356  1.00  0.00     0.173 A 
ATOM     93  F   UNL A   1      45.745  29.781  33.692  1.00  0.00    -0.203 F 
ATOM     94  C   UNL A   1      46.492  27.948  34.967  1.00  0.00     0.198 A 
ATOM     95  C   UNL A   1      44.905  26.423  35.924  1.00  0.00     0.198 A 
ATOM     96  F   UNL A   1      42.603  26.736  35.557  1.00  0.00    -0.203 F 
ATOM     97  F   UNL A   1      47.763  28.314  34.746  1.00  0.00    -0.200 F 
ATOM     98  C   UNL A   1      46.218  26.817  35.722  1.00  0.00     0.200 A 
ATOM     99  F   UNL A   1      44.638  25.339  36.666  1.00  0.00    -0.200 F 
ATOM    100  F   UNL A   1      47.222  26.103  36.250  1.00  0.00    -0.200 F 
ENDBRANCH  67  90
ENDBRANCH  41  42
ENDBRANCH  33  36
ENDBRANCH  31  32
ENDBRANCH  30  31
ENDBRANCH  29  30
ENDBRANCH  28  29
ENDBRANCH   1  28
TORSDOF 17
ENDMDL
