MODEL 1
REMARK VINA RESULT:     -12.8      0.000      0.000
REMARK SMILES CCOc1ccccc1NC(=O)[C@H]1[C@@H]2C=C[C@@H]([C@@H]3C[C@H]23)[C@@H]1C(=O)NCCCCCCNC(=O)c1ccc(-c2c3nc(c(-c4c(F)c(F)c(F)c(F)c4F)c4ccc([nH]4)c(-c4c(F)c(F)c(F)c(F)c4F)c4nc(c(-c5c(F)c(F)c(F)c(F)c5F)c5ccc2[nH]5)C=C4)C=C3)cc1
REMARK SMILES IDX 26 1 25 2 24 3 22 4 23 5 21 7 13 8 14 9 15 10 20 11 17 12
REMARK SMILES IDX 16 13 18 14 19 15 11 16 10 17 12 19 9 20 4 21 5 22 6 23 8 24
REMARK SMILES IDX 7 25 3 26 2 27 1 28 27 29 28 30 29 31 30 32 31 33 32 34
REMARK SMILES IDX 33 36 34 37 35 38 96 39 36 40 95 41 37 42 38 43 39 44 89 45
REMARK SMILES IDX 40 46 94 47 88 48 90 49 41 50 93 51 87 52 86 53 42 55 74 56
REMARK SMILES IDX 54 57 73 58 55 59 58 60 72 61 91 62 56 63 57 64 71 66 92 67
REMARK SMILES IDX 59 68 43 69 44 70 52 71 45 72 46 73 50 74 53 75 47 76 48 77
REMARK SMILES IDX 51 78 49 79 75 80 76 81 84 82 77 83 78 84 82 85 85 86 79 87
REMARK SMILES IDX 80 88 83 89 81 90 60 91 61 92 69 93 62 94 63 95 67 96 70 97
REMARK SMILES IDX 64 98 65 99 68 100 66 101
REMARK H PARENT 24 6 10 18 31 35 90 54 58 65
REMARK Flexibility Score: inf
ROOT
ATOM      1  C   UNL A   1      31.422  28.140  26.990  1.00  0.00     0.021 C 
ENDROOT
BRANCH   1   2
ATOM      2  C   UNL A   1      32.310  27.044  26.388  1.00  0.00     0.116 C 
BRANCH   2   3
ATOM      3  N   UNL A   1      31.899  25.751  26.896  1.00  0.00    -0.356 N 
ATOM      4  C   UNL A   1      31.790  24.587  26.196  1.00  0.00     0.224 C 
ATOM      5  O   UNL A   1      30.855  23.840  26.487  1.00  0.00    -0.275 OA
ATOM      6  H   UNL A   1      31.674  25.709  27.853  1.00  0.00     0.163 HD
BRANCH   4   7
ATOM      7  C   UNL A   1      32.924  24.195  25.251  1.00  0.00     0.098 C 
ATOM      8  C   UNL A   1      32.592  22.841  24.471  1.00  0.00     0.099 C 
ATOM      9  C   UNL A   1      33.654  21.819  24.928  1.00  0.00     0.028 C 
ATOM     10  C   UNL A   1      33.574  21.721  26.456  1.00  0.00    -0.026 C 
ATOM     11  C   UNL A   1      35.068  22.282  24.556  1.00  0.00     0.001 C 
ATOM     12  C   UNL A   1      34.212  24.006  26.149  1.00  0.00     0.028 C 
ATOM     13  C   UNL A   1      33.906  22.852  27.099  1.00  0.00    -0.026 C 
ATOM     14  C   UNL A   1      35.409  23.563  25.300  1.00  0.00     0.001 C 
ATOM     15  C   UNL A   1      35.466  23.534  23.800  1.00  0.00     0.009 C 
BRANCH   8  16
ATOM     16  C   UNL A   1      32.346  23.165  22.977  1.00  0.00     0.229 C 
ATOM     17  N   UNL A   1      31.795  24.287  22.430  1.00  0.00    -0.323 N 
ATOM     18  H   UNL A   1      31.911  24.351  21.454  1.00  0.00     0.170 HD
ATOM     19  O   UNL A   1      32.673  22.300  22.142  1.00  0.00    -0.274 OA
BRANCH  17  20
ATOM     20  C   UNL A   1      31.097  25.366  22.989  1.00  0.00     0.083 A 
ATOM     21  C   UNL A   1      31.652  26.647  22.844  1.00  0.00     0.142 A 
ATOM     22  C   UNL A   1      30.879  27.782  23.083  1.00  0.00     0.048 A 
ATOM     23  C   UNL A   1      29.577  27.631  23.562  1.00  0.00     0.004 A 
ATOM     24  C   UNL A   1      29.893  25.235  23.660  1.00  0.00     0.030 A 
ATOM     25  C   UNL A   1      29.110  26.364  23.911  1.00  0.00     0.002 A 
BRANCH  21  26
ATOM     26  O   UNL A   1      32.998  26.732  22.621  1.00  0.00    -0.492 OA
BRANCH  26  27
ATOM     27  C   UNL A   1      33.499  28.038  22.359  1.00  0.00     0.226 C 
ATOM     28  C   UNL A   1      34.190  28.505  23.629  1.00  0.00     0.049 C 
ENDBRANCH  26  27
ENDBRANCH  21  26
ENDBRANCH  17  20
ENDBRANCH   8  16
ENDBRANCH   4   7
ENDBRANCH   2   3
ENDBRANCH   1   2
BRANCH   1  29
ATOM     29  C   UNL A   1      32.128  29.490  27.203  1.00  0.00     0.002 C 
BRANCH  29  30
ATOM     30  C   UNL A   1      31.832  30.550  26.139  1.00  0.00     0.002 C 
BRANCH  30  31
ATOM     31  C   UNL A   1      31.501  31.934  26.695  1.00  0.00     0.021 C 
BRANCH  31  32
ATOM     32  C   UNL A   1      32.690  32.669  27.300  1.00  0.00     0.116 C 
BRANCH  32  33
ATOM     33  N   UNL A   1      32.394  34.064  27.584  1.00  0.00    -0.352 N 
ATOM     34  C   UNL A   1      32.959  34.893  28.526  1.00  0.00     0.251 C 
ATOM     35  H   UNL A   1      31.693  34.471  27.027  1.00  0.00     0.163 HD
ATOM     36  O   UNL A   1      32.481  35.993  28.757  1.00  0.00    -0.269 OA
BRANCH  34  37
ATOM     37  C   UNL A   1      34.142  34.424  29.278  1.00  0.00     0.039 A 
ATOM     38  C   UNL A   1      33.954  33.796  30.512  1.00  0.00     0.014 A 
ATOM     39  C   UNL A   1      35.428  34.587  28.756  1.00  0.00     0.014 A 
ATOM     40  C   UNL A   1      35.055  33.269  31.192  1.00  0.00     0.010 A 
ATOM     41  C   UNL A   1      36.511  33.997  29.397  1.00  0.00     0.010 A 
ATOM     42  C   UNL A   1      36.336  33.332  30.621  1.00  0.00    -0.014 A 
BRANCH  42  43
ATOM     43  C   UNL A   1      37.513  32.714  31.283  1.00  0.00     0.031 A 
ATOM     44  C   UNL A   1      38.233  31.574  30.619  1.00  0.00     0.074 A 
ATOM     45  C   UNL A   1      37.880  33.121  32.513  1.00  0.00     0.049 A 
ATOM     46  N   UNL A   1      39.201  30.824  31.080  1.00  0.00    -0.248 NA
ATOM     47  C   UNL A   1      37.784  31.209  29.266  1.00  0.00     0.031 C 
ATOM     48  C   UNL A   1      37.238  34.194  33.276  1.00  0.00     0.029 A 
ATOM     49  N   UNL A   1      38.871  32.669  33.348  1.00  0.00    -0.354 N 
ATOM     50  C   UNL A   1      39.463  29.892  30.085  1.00  0.00     0.074 A 
ATOM     51  C   UNL A   1      38.519  30.136  29.015  1.00  0.00     0.031 C 
ATOM     52  C   UNL A   1      37.858  34.325  34.459  1.00  0.00     0.029 A 
ATOM     53  C   UNL A   1      38.909  33.317  34.559  1.00  0.00     0.049 A 
ATOM     54  H   UNL A   1      39.496  31.949  33.103  1.00  0.00     0.167 HD
ATOM     55  C   UNL A   1      40.418  28.932  30.057  1.00  0.00     0.037 A 
ATOM     56  C   UNL A   1      39.692  33.108  35.636  1.00  0.00     0.037 A 
ATOM     57  C   UNL A   1      41.370  28.709  31.114  1.00  0.00     0.049 A 
ATOM     58  C   UNL A   1      40.734  32.021  35.588  1.00  0.00     0.074 A 
ATOM     59  C   UNL A   1      42.412  27.800  31.158  1.00  0.00     0.029 A 
ATOM     60  N   UNL A   1      41.392  29.402  32.316  1.00  0.00    -0.354 N 
ATOM     61  N   UNL A   1      41.013  31.186  34.616  1.00  0.00    -0.248 NA
ATOM     62  C   UNL A   1      41.572  31.851  36.782  1.00  0.00     0.031 C 
ATOM     63  C   UNL A   1      43.029  27.903  32.409  1.00  0.00     0.029 A 
ATOM     64  C   UNL A   1      42.414  28.922  33.117  1.00  0.00     0.049 A 
ATOM     65  H   UNL A   1      40.772  30.127  32.563  1.00  0.00     0.167 HD
ATOM     66  C   UNL A   1      42.081  30.421  35.066  1.00  0.00     0.074 A 
ATOM     67  C   UNL A   1      42.404  30.895  36.395  1.00  0.00     0.031 C 
ATOM     68  C   UNL A   1      42.737  29.420  34.430  1.00  0.00     0.037 A 
BRANCH  55  69
ATOM     69  C   UNL A   1      40.483  28.045  28.846  1.00  0.00     0.064 A 
ATOM     70  C   UNL A   1      39.770  26.839  28.776  1.00  0.00     0.173 A 
ATOM     71  C   UNL A   1      41.233  28.429  27.724  1.00  0.00     0.173 A 
ATOM     72  F   UNL A   1      39.045  26.421  29.824  1.00  0.00    -0.203 F 
ATOM     73  C   UNL A   1      39.827  26.038  27.639  1.00  0.00     0.198 A 
ATOM     74  C   UNL A   1      41.261  27.642  26.575  1.00  0.00     0.198 A 
ATOM     75  F   UNL A   1      41.929  29.576  27.735  1.00  0.00    -0.203 F 
ATOM     76  F   UNL A   1      39.177  24.866  27.613  1.00  0.00    -0.200 F 
ATOM     77  C   UNL A   1      40.565  26.444  26.536  1.00  0.00     0.200 A 
ATOM     78  F   UNL A   1      41.961  28.045  25.507  1.00  0.00    -0.200 F 
ATOM     79  F   UNL A   1      40.609  25.677  25.439  1.00  0.00    -0.200 F 
ENDBRANCH  55  69
BRANCH  56  80
ATOM     80  C   UNL A   1      39.530  33.954  36.849  1.00  0.00     0.064 A 
ATOM     81  C   UNL A   1      40.162  35.202  36.948  1.00  0.00     0.173 A 
ATOM     82  C   UNL A   1      38.755  33.530  37.938  1.00  0.00     0.173 A 
ATOM     83  F   UNL A   1      40.930  35.644  35.941  1.00  0.00    -0.203 F 
ATOM     84  C   UNL A   1      40.045  35.981  38.097  1.00  0.00     0.198 A 
ATOM     85  C   UNL A   1      38.612  34.324  39.074  1.00  0.00     0.198 A 
ATOM     86  F   UNL A   1      38.125  32.347  37.894  1.00  0.00    -0.203 F 
ATOM     87  F   UNL A   1      40.703  37.145  38.184  1.00  0.00    -0.200 F 
ATOM     88  C   UNL A   1      39.266  35.544  39.157  1.00  0.00     0.200 A 
ATOM     89  F   UNL A   1      37.846  33.904  40.090  1.00  0.00    -0.200 F 
ATOM     90  F   UNL A   1      39.152  36.294  40.262  1.00  0.00    -0.200 F 
ENDBRANCH  56  80
BRANCH  68  91
ATOM     91  C   UNL A   1      43.913  28.803  35.134  1.00  0.00     0.064 A 
ATOM     92  C   UNL A   1      43.780  27.663  35.940  1.00  0.00     0.173 A 
ATOM     93  C   UNL A   1      45.201  29.328  34.944  1.00  0.00     0.173 A 
ATOM     94  F   UNL A   1      42.570  27.132  36.165  1.00  0.00    -0.203 F 
ATOM     95  C   UNL A   1      44.892  27.083  36.546  1.00  0.00     0.198 A 
ATOM     96  C   UNL A   1      46.313  28.726  35.525  1.00  0.00     0.198 A 
ATOM     97  F   UNL A   1      45.383  30.413  34.177  1.00  0.00    -0.203 F 
ATOM     98  F   UNL A   1      44.738  26.020  37.347  1.00  0.00    -0.200 F 
ATOM     99  C   UNL A   1      46.158  27.608  36.329  1.00  0.00     0.200 A 
ATOM    100  F   UNL A   1      47.536  29.225  35.300  1.00  0.00    -0.200 F 
ATOM    101  F   UNL A   1      47.228  27.039  36.900  1.00  0.00    -0.200 F 
ENDBRANCH  68  91
ENDBRANCH  42  43
ENDBRANCH  34  37
ENDBRANCH  32  33
ENDBRANCH  31  32
ENDBRANCH  30  31
ENDBRANCH  29  30
ENDBRANCH   1  29
TORSDOF 17
ENDMDL
MODEL 2
REMARK VINA RESULT:     -12.6      1.316      3.108
REMARK SMILES CCOc1ccccc1NC(=O)[C@H]1[C@@H]2C=C[C@@H]([C@@H]3C[C@H]23)[C@@H]1C(=O)NCCCCCCNC(=O)c1ccc(-c2c3nc(c(-c4c(F)c(F)c(F)c(F)c4F)c4ccc([nH]4)c(-c4c(F)c(F)c(F)c(F)c4F)c4nc(c(-c5c(F)c(F)c(F)c(F)c5F)c5ccc2[nH]5)C=C4)C=C3)cc1
REMARK SMILES IDX 26 1 25 2 24 3 22 4 23 5 21 7 13 8 14 9 15 10 20 11 17 12
REMARK SMILES IDX 16 13 18 14 19 15 11 16 10 17 12 19 9 20 4 21 5 22 6 23 8 24
REMARK SMILES IDX 7 25 3 26 2 27 1 28 27 29 28 30 29 31 30 32 31 33 32 34
REMARK SMILES IDX 33 36 34 37 35 38 96 39 36 40 95 41 37 42 38 43 39 44 89 45
REMARK SMILES IDX 40 46 94 47 88 48 90 49 41 50 93 51 87 52 86 53 42 55 74 56
REMARK SMILES IDX 54 57 73 58 55 59 58 60 72 61 91 62 56 63 57 64 71 66 92 67
REMARK SMILES IDX 59 68 43 69 44 70 52 71 45 72 46 73 50 74 53 75 47 76 48 77
REMARK SMILES IDX 51 78 49 79 75 80 76 81 84 82 77 83 78 84 82 85 85 86 79 87
REMARK SMILES IDX 80 88 83 89 81 90 60 91 61 92 69 93 62 94 63 95 67 96 70 97
REMARK SMILES IDX 64 98 65 99 68 100 66 101
REMARK H PARENT 24 6 10 18 31 35 90 54 58 65
REMARK Flexibility Score: inf
ROOT
ATOM      1  C   UNL A   1      31.428  28.330  25.525  1.00  0.00     0.021 C 
ENDROOT
BRANCH   1   2
ATOM      2  C   UNL A   1      32.224  27.499  26.538  1.00  0.00     0.116 C 
BRANCH   2   3
ATOM      3  N   UNL A   1      33.446  27.022  25.924  1.00  0.00    -0.356 N 
ATOM      4  C   UNL A   1      33.792  25.728  25.673  1.00  0.00     0.224 C 
ATOM      5  O   UNL A   1      34.975  25.421  25.826  1.00  0.00    -0.275 OA
ATOM      6  H   UNL A   1      34.098  27.708  25.658  1.00  0.00     0.163 HD
BRANCH   4   7
ATOM      7  C   UNL A   1      32.753  24.805  25.040  1.00  0.00     0.098 C 
ATOM      8  C   UNL A   1      33.312  23.315  24.887  1.00  0.00     0.099 C 
ATOM      9  C   UNL A   1      33.359  23.034  23.371  1.00  0.00     0.028 C 
ATOM     10  C   UNL A   1      34.229  24.120  22.726  1.00  0.00    -0.026 C 
ATOM     11  C   UNL A   1      31.959  23.115  22.746  1.00  0.00     0.001 C 
ATOM     12  C   UNL A   1      32.423  25.412  23.616  1.00  0.00     0.028 C 
ATOM     13  C   UNL A   1      33.721  25.359  22.816  1.00  0.00    -0.026 C 
ATOM     14  C   UNL A   1      31.416  24.529  22.867  1.00  0.00     0.001 C 
ATOM     15  C   UNL A   1      30.643  23.382  23.450  1.00  0.00     0.009 C 
BRANCH   8  16
ATOM     16  C   UNL A   1      32.562  22.391  25.876  1.00  0.00     0.229 C 
ATOM     17  N   UNL A   1      32.569  21.027  25.939  1.00  0.00    -0.323 N 
ATOM     18  H   UNL A   1      32.170  20.665  26.763  1.00  0.00     0.170 HD
ATOM     19  O   UNL A   1      31.840  22.934  26.733  1.00  0.00    -0.274 OA
BRANCH  17  20
ATOM     20  C   UNL A   1      33.035  20.044  25.056  1.00  0.00     0.083 A 
ATOM     21  C   UNL A   1      34.392  19.694  25.128  1.00  0.00     0.142 A 
ATOM     22  C   UNL A   1      34.852  18.525  24.522  1.00  0.00     0.048 A 
ATOM     23  C   UNL A   1      33.969  17.758  23.761  1.00  0.00     0.004 A 
ATOM     24  C   UNL A   1      32.230  19.398  24.133  1.00  0.00     0.030 A 
ATOM     25  C   UNL A   1      32.679  18.230  23.514  1.00  0.00     0.002 A 
BRANCH  21  26
ATOM     26  O   UNL A   1      35.254  20.607  25.665  1.00  0.00    -0.492 OA
BRANCH  26  27
ATOM     27  C   UNL A   1      36.372  20.954  24.854  1.00  0.00     0.226 C 
ATOM     28  C   UNL A   1      36.833  22.328  25.312  1.00  0.00     0.049 C 
ENDBRANCH  26  27
ENDBRANCH  21  26
ENDBRANCH  17  20
ENDBRANCH   8  16
ENDBRANCH   4   7
ENDBRANCH   2   3
ENDBRANCH   1   2
BRANCH   1  29
ATOM     29  C   UNL A   1      31.786  29.825  25.502  1.00  0.00     0.002 C 
BRANCH  29  30
ATOM     30  C   UNL A   1      31.794  30.511  26.871  1.00  0.00     0.002 C 
BRANCH  30  31
ATOM     31  C   UNL A   1      31.600  32.025  26.825  1.00  0.00     0.021 C 
BRANCH  31  32
ATOM     32  C   UNL A   1      32.823  32.828  27.252  1.00  0.00     0.116 C 
BRANCH  32  33
ATOM     33  N   UNL A   1      32.490  34.199  27.607  1.00  0.00    -0.352 N 
ATOM     34  C   UNL A   1      33.020  34.986  28.603  1.00  0.00     0.251 C 
ATOM     35  H   UNL A   1      31.790  34.621  27.060  1.00  0.00     0.163 HD
ATOM     36  O   UNL A   1      32.513  36.061  28.886  1.00  0.00    -0.269 OA
BRANCH  34  37
ATOM     37  C   UNL A   1      34.200  34.502  29.351  1.00  0.00     0.039 A 
ATOM     38  C   UNL A   1      34.010  33.882  30.588  1.00  0.00     0.014 A 
ATOM     39  C   UNL A   1      35.485  34.643  28.820  1.00  0.00     0.014 A 
ATOM     40  C   UNL A   1      35.106  33.342  31.264  1.00  0.00     0.010 A 
ATOM     41  C   UNL A   1      36.563  34.038  29.457  1.00  0.00     0.010 A 
ATOM     42  C   UNL A   1      36.385  33.381  30.685  1.00  0.00    -0.014 A 
BRANCH  42  43
ATOM     43  C   UNL A   1      37.556  32.748  31.342  1.00  0.00     0.031 A 
ATOM     44  C   UNL A   1      38.254  31.594  30.680  1.00  0.00     0.074 A 
ATOM     45  C   UNL A   1      37.936  33.155  32.568  1.00  0.00     0.049 A 
ATOM     46  N   UNL A   1      39.213  30.831  31.138  1.00  0.00    -0.248 NA
ATOM     47  C   UNL A   1      37.791  31.230  29.330  1.00  0.00     0.031 C 
ATOM     48  C   UNL A   1      37.316  34.240  33.330  1.00  0.00     0.029 A 
ATOM     49  N   UNL A   1      38.926  32.691  33.400  1.00  0.00    -0.354 N 
ATOM     50  C   UNL A   1      39.454  29.891  30.145  1.00  0.00     0.074 A 
ATOM     51  C   UNL A   1      38.507  30.144  29.080  1.00  0.00     0.031 C 
ATOM     52  C   UNL A   1      37.946  34.367  34.509  1.00  0.00     0.029 A 
ATOM     53  C   UNL A   1      38.981  33.343  34.608  1.00  0.00     0.049 A 
ATOM     54  H   UNL A   1      39.538  31.960  33.154  1.00  0.00     0.167 HD
ATOM     55  C   UNL A   1      40.394  28.916  30.116  1.00  0.00     0.037 A 
ATOM     56  C   UNL A   1      39.768  33.127  35.680  1.00  0.00     0.037 A 
ATOM     57  C   UNL A   1      41.348  28.682  31.168  1.00  0.00     0.049 A 
ATOM     58  C   UNL A   1      40.792  32.024  35.630  1.00  0.00     0.074 A 
ATOM     59  C   UNL A   1      42.376  27.757  31.210  1.00  0.00     0.029 A 
ATOM     60  N   UNL A   1      41.388  29.380  32.367  1.00  0.00    -0.354 N 
ATOM     61  N   UNL A   1      41.052  31.180  34.661  1.00  0.00    -0.248 NA
ATOM     62  C   UNL A   1      41.635  31.845  36.821  1.00  0.00     0.031 C 
ATOM     63  C   UNL A   1      43.002  27.856  32.456  1.00  0.00     0.029 A 
ATOM     64  C   UNL A   1      42.408  28.888  33.164  1.00  0.00     0.049 A 
ATOM     65  H   UNL A   1      40.782  30.115  32.614  1.00  0.00     0.167 HD
ATOM     66  C   UNL A   1      42.110  30.400  35.108  1.00  0.00     0.074 A 
ATOM     67  C   UNL A   1      42.449  30.874  36.433  1.00  0.00     0.031 C 
ATOM     68  C   UNL A   1      42.747  29.386  34.473  1.00  0.00     0.037 A 
BRANCH  55  69
ATOM     69  C   UNL A   1      40.437  28.023  28.908  1.00  0.00     0.064 A 
ATOM     70  C   UNL A   1      39.704  26.828  28.848  1.00  0.00     0.173 A 
ATOM     71  C   UNL A   1      41.187  28.389  27.781  1.00  0.00     0.173 A 
ATOM     72  F   UNL A   1      38.978  26.426  29.902  1.00  0.00    -0.203 F 
ATOM     73  C   UNL A   1      39.742  26.021  27.714  1.00  0.00     0.198 A 
ATOM     74  C   UNL A   1      41.196  27.597  26.635  1.00  0.00     0.198 A 
ATOM     75  F   UNL A   1      41.902  29.525  27.782  1.00  0.00    -0.203 F 
ATOM     76  F   UNL A   1      39.073  24.860  27.697  1.00  0.00    -0.200 F 
ATOM     77  C   UNL A   1      40.480  26.410  26.606  1.00  0.00     0.200 A 
ATOM     78  F   UNL A   1      41.896  27.983  25.561  1.00  0.00    -0.200 F 
ATOM     79  F   UNL A   1      40.505  25.638  25.512  1.00  0.00    -0.200 F 
ENDBRANCH  55  69
BRANCH  56  80
ATOM     80  C   UNL A   1      39.626  33.980  36.891  1.00  0.00     0.064 A 
ATOM     81  C   UNL A   1      38.828  33.575  37.970  1.00  0.00     0.173 A 
ATOM     82  C   UNL A   1      40.272  35.221  36.989  1.00  0.00     0.173 A 
ATOM     83  F   UNL A   1      38.174  32.405  37.915  1.00  0.00    -0.203 F 
ATOM     84  C   UNL A   1      38.661  34.387  39.090  1.00  0.00     0.198 A 
ATOM     85  C   UNL A   1      40.131  36.019  38.123  1.00  0.00     0.198 A 
ATOM     86  F   UNL A   1      41.051  35.655  35.989  1.00  0.00    -0.203 F 
ATOM     87  F   UNL A   1      37.850  33.997  40.082  1.00  0.00    -0.200 F 
ATOM     88  C   UNL A   1      39.317  35.606  39.167  1.00  0.00     0.200 A 
ATOM     89  F   UNL A   1      40.778  37.189  38.201  1.00  0.00    -0.200 F 
ATOM     90  F   UNL A   1      39.158  36.387  40.245  1.00  0.00    -0.200 F 
ENDBRANCH  56  80
BRANCH  68  91
ATOM     91  C   UNL A   1      43.917  28.753  35.172  1.00  0.00     0.064 A 
ATOM     92  C   UNL A   1      43.767  27.638  36.008  1.00  0.00     0.173 A 
ATOM     93  C   UNL A   1      45.216  29.237  34.948  1.00  0.00     0.173 A 
ATOM     94  F   UNL A   1      42.546  27.147  36.267  1.00  0.00    -0.203 F 
ATOM     95  C   UNL A   1      44.873  27.042  36.610  1.00  0.00     0.198 A 
ATOM     96  C   UNL A   1      46.321  28.619  35.525  1.00  0.00     0.198 A 
ATOM     97  F   UNL A   1      45.414  30.298  34.150  1.00  0.00    -0.203 F 
ATOM     98  F   UNL A   1      44.703  26.003  37.440  1.00  0.00    -0.200 F 
ATOM     99  C   UNL A   1      46.148  27.526  36.359  1.00  0.00     0.200 A 
ATOM    100  F   UNL A   1      47.553  29.078  35.267  1.00  0.00    -0.200 F 
ATOM    101  F   UNL A   1      47.212  26.941  36.926  1.00  0.00    -0.200 F 
ENDBRANCH  68  91
ENDBRANCH  42  43
ENDBRANCH  34  37
ENDBRANCH  32  33
ENDBRANCH  31  32
ENDBRANCH  30  31
ENDBRANCH  29  30
ENDBRANCH   1  29
TORSDOF 17
ENDMDL
MODEL 3
REMARK VINA RESULT:     -12.5      0.672      7.071
REMARK SMILES CCOc1ccccc1NC(=O)[C@H]1[C@@H]2C=C[C@@H]([C@@H]3C[C@H]23)[C@@H]1C(=O)NCCCCCCNC(=O)c1ccc(-c2c3nc(c(-c4c(F)c(F)c(F)c(F)c4F)c4ccc([nH]4)c(-c4c(F)c(F)c(F)c(F)c4F)c4nc(c(-c5c(F)c(F)c(F)c(F)c5F)c5ccc2[nH]5)C=C4)C=C3)cc1
REMARK SMILES IDX 26 1 25 2 24 3 22 4 23 5 21 7 13 8 14 9 15 10 20 11 17 12
REMARK SMILES IDX 16 13 18 14 19 15 11 16 10 17 12 19 9 20 4 21 5 22 6 23 8 24
REMARK SMILES IDX 7 25 3 26 2 27 1 28 27 29 28 30 29 31 30 32 31 33 32 34
REMARK SMILES IDX 33 36 34 37 35 38 96 39 36 40 95 41 37 42 38 43 39 44 89 45
REMARK SMILES IDX 40 46 94 47 88 48 90 49 41 50 93 51 87 52 86 53 42 55 74 56
REMARK SMILES IDX 54 57 73 58 55 59 58 60 72 61 91 62 56 63 57 64 71 66 92 67
REMARK SMILES IDX 59 68 43 69 44 70 52 71 45 72 46 73 50 74 53 75 47 76 48 77
REMARK SMILES IDX 51 78 49 79 75 80 76 81 84 82 77 83 78 84 82 85 85 86 79 87
REMARK SMILES IDX 80 88 83 89 81 90 60 91 61 92 69 93 62 94 63 95 67 96 70 97
REMARK SMILES IDX 64 98 65 99 68 100 66 101
REMARK H PARENT 24 6 10 18 31 35 90 54 58 65
REMARK Flexibility Score: inf
ROOT
ATOM      1  C   UNL A   1      33.095  28.623  26.948  1.00  0.00     0.021 C 
ENDROOT
BRANCH   1   2
ATOM      2  C   UNL A   1      33.440  27.385  26.113  1.00  0.00     0.116 C 
BRANCH   2   3
ATOM      3  N   UNL A   1      32.841  26.210  26.712  1.00  0.00    -0.356 N 
ATOM      4  C   UNL A   1      32.467  25.062  26.081  1.00  0.00     0.224 C 
ATOM      5  O   UNL A   1      31.436  24.513  26.474  1.00  0.00    -0.275 OA
ATOM      6  H   UNL A   1      32.686  26.246  27.683  1.00  0.00     0.163 HD
BRANCH   4   7
ATOM      7  C   UNL A   1      33.433  24.432  25.081  1.00  0.00     0.098 C 
ATOM      8  C   UNL A   1      32.825  23.100  24.442  1.00  0.00     0.099 C 
ATOM      9  C   UNL A   1      33.754  21.953  24.890  1.00  0.00     0.028 C 
ATOM     10  C   UNL A   1      33.803  21.970  26.423  1.00  0.00    -0.026 C 
ATOM     11  C   UNL A   1      35.182  22.157  24.368  1.00  0.00     0.001 C 
ATOM     12  C   UNL A   1      34.755  24.098  25.883  1.00  0.00     0.028 C 
ATOM     13  C   UNL A   1      34.365  23.073  26.944  1.00  0.00    -0.026 C 
ATOM     14  C   UNL A   1      35.785  23.412  24.977  1.00  0.00     0.001 C 
ATOM     15  C   UNL A   1      35.696  23.276  23.484  1.00  0.00     0.009 C 
BRANCH   8  16
ATOM     16  C   UNL A   1      32.493  23.359  22.952  1.00  0.00     0.229 C 
ATOM     17  N   UNL A   1      31.891  24.449  22.392  1.00  0.00    -0.323 N 
ATOM     18  H   UNL A   1      31.954  24.476  21.410  1.00  0.00     0.170 HD
ATOM     19  O   UNL A   1      32.793  22.469  22.134  1.00  0.00    -0.274 OA
BRANCH  17  20
ATOM     20  C   UNL A   1      31.202  25.536  22.946  1.00  0.00     0.083 A 
ATOM     21  C   UNL A   1      31.773  26.810  22.806  1.00  0.00     0.142 A 
ATOM     22  C   UNL A   1      31.012  27.955  23.039  1.00  0.00     0.048 A 
ATOM     23  C   UNL A   1      29.705  27.820  23.508  1.00  0.00     0.004 A 
ATOM     24  C   UNL A   1      29.991  25.419  23.608  1.00  0.00     0.030 A 
ATOM     25  C   UNL A   1      29.220  26.558  23.853  1.00  0.00     0.002 A 
BRANCH  21  26
ATOM     26  O   UNL A   1      33.122  26.880  22.594  1.00  0.00    -0.492 OA
BRANCH  26  27
ATOM     27  C   UNL A   1      33.592  28.082  21.995  1.00  0.00     0.226 C 
ATOM     28  C   UNL A   1      34.316  28.858  23.083  1.00  0.00     0.049 C 
ENDBRANCH  26  27
ENDBRANCH  21  26
ENDBRANCH  17  20
ENDBRANCH   8  16
ENDBRANCH   4   7
ENDBRANCH   2   3
ENDBRANCH   1   2
BRANCH   1  29
ATOM     29  C   UNL A   1      31.702  29.215  26.669  1.00  0.00     0.002 C 
BRANCH  29  30
ATOM     30  C   UNL A   1      31.696  30.472  25.794  1.00  0.00     0.002 C 
BRANCH  30  31
ATOM     31  C   UNL A   1      31.425  31.771  26.550  1.00  0.00     0.021 C 
BRANCH  31  32
ATOM     32  C   UNL A   1      32.663  32.408  27.169  1.00  0.00     0.116 C 
BRANCH  32  33
ATOM     33  N   UNL A   1      32.455  33.806  27.511  1.00  0.00    -0.352 N 
ATOM     34  C   UNL A   1      33.077  34.560  28.479  1.00  0.00     0.251 C 
ATOM     35  H   UNL A   1      31.776  34.277  26.977  1.00  0.00     0.163 HD
ATOM     36  O   UNL A   1      32.670  35.677  28.759  1.00  0.00    -0.269 OA
BRANCH  34  37
ATOM     37  C   UNL A   1      34.235  33.990  29.200  1.00  0.00     0.039 A 
ATOM     38  C   UNL A   1      34.013  33.282  30.384  1.00  0.00     0.014 A 
ATOM     39  C   UNL A   1      35.531  34.139  28.697  1.00  0.00     0.014 A 
ATOM     40  C   UNL A   1      35.086  32.663  31.028  1.00  0.00     0.010 A 
ATOM     41  C   UNL A   1      36.584  33.459  29.298  1.00  0.00     0.010 A 
ATOM     42  C   UNL A   1      36.374  32.714  30.469  1.00  0.00    -0.014 A 
BRANCH  42  43
ATOM     43  C   UNL A   1      37.520  32.002  31.089  1.00  0.00     0.031 A 
ATOM     44  C   UNL A   1      38.008  32.413  32.450  1.00  0.00     0.074 A 
ATOM     45  C   UNL A   1      38.170  31.049  30.396  1.00  0.00     0.049 A 
ATOM     46  N   UNL A   1      39.060  32.002  33.112  1.00  0.00    -0.248 NA
ATOM     47  C   UNL A   1      37.225  33.445  33.148  1.00  0.00     0.031 C 
ATOM     48  C   UNL A   1      37.814  30.587  29.053  1.00  0.00     0.029 A 
ATOM     49  N   UNL A   1      39.280  30.307  30.717  1.00  0.00    -0.354 N 
ATOM     50  C   UNL A   1      39.073  32.735  34.291  1.00  0.00     0.074 A 
ATOM     51  C   UNL A   1      37.956  33.654  34.233  1.00  0.00     0.031 C 
ATOM     52  C   UNL A   1      38.679  29.635  28.671  1.00  0.00     0.029 A 
ATOM     53  C   UNL A   1      39.678  29.451  29.719  1.00  0.00     0.049 A 
ATOM     54  H   UNL A   1      39.747  30.381  31.581  1.00  0.00     0.167 HD
ATOM     55  C   UNL A   1      39.929  32.639  35.336  1.00  0.00     0.037 A 
ATOM     56  C   UNL A   1      40.740  28.624  29.651  1.00  0.00     0.037 A 
ATOM     57  C   UNL A   1      41.026  31.707  35.398  1.00  0.00     0.049 A 
ATOM     58  C   UNL A   1      41.689  28.549  30.818  1.00  0.00     0.074 A 
ATOM     59  C   UNL A   1      41.917  31.492  36.434  1.00  0.00     0.029 A 
ATOM     60  N   UNL A   1      41.383  30.839  34.376  1.00  0.00    -0.354 N 
ATOM     61  N   UNL A   1      41.656  29.204  31.953  1.00  0.00    -0.248 NA
ATOM     62  C   UNL A   1      42.818  27.617  30.697  1.00  0.00     0.031 C 
ATOM     63  C   UNL A   1      42.847  30.534  36.019  1.00  0.00     0.029 A 
ATOM     64  C   UNL A   1      42.495  30.104  34.750  1.00  0.00     0.049 A 
ATOM     65  H   UNL A   1      40.915  30.758  33.513  1.00  0.00     0.167 HD
ATOM     66  C   UNL A   1      42.733  28.735  32.695  1.00  0.00     0.074 A 
ATOM     67  C   UNL A   1      43.396  27.737  31.883  1.00  0.00     0.031 C 
ATOM     68  C   UNL A   1      43.132  29.097  33.939  1.00  0.00     0.037 A 
BRANCH  55  69
ATOM     69  C   UNL A   1      39.720  33.564  36.500  1.00  0.00     0.064 A 
ATOM     70  C   UNL A   1      40.308  34.837  36.546  1.00  0.00     0.173 A 
ATOM     71  C   UNL A   1      38.882  33.191  37.562  1.00  0.00     0.173 A 
ATOM     72  F   UNL A   1      41.126  35.239  35.562  1.00  0.00    -0.203 F 
ATOM     73  C   UNL A   1      40.088  35.689  37.626  1.00  0.00     0.198 A 
ATOM     74  C   UNL A   1      38.637  34.059  38.623  1.00  0.00     0.198 A 
ATOM     75  F   UNL A   1      38.288  31.988  37.565  1.00  0.00    -0.203 F 
ATOM     76  F   UNL A   1      40.702  36.880  37.672  1.00  0.00    -0.200 F 
ATOM     77  C   UNL A   1      39.247  35.304  38.658  1.00  0.00     0.200 A 
ATOM     78  F   UNL A   1      37.810  33.690  39.611  1.00  0.00    -0.200 F 
ATOM     79  F   UNL A   1      39.027  36.130  39.689  1.00  0.00    -0.200 F 
ENDBRANCH  55  69
BRANCH  56  80
ATOM     80  C   UNL A   1      40.958  27.792  28.437  1.00  0.00     0.064 A 
ATOM     81  C   UNL A   1      41.772  28.245  27.388  1.00  0.00     0.173 A 
ATOM     82  C   UNL A   1      40.351  26.536  28.293  1.00  0.00     0.173 A 
ATOM     83  F   UNL A   1      42.360  29.448  27.469  1.00  0.00    -0.203 F 
ATOM     84  C   UNL A   1      41.949  27.486  26.233  1.00  0.00     0.198 A 
ATOM     85  C   UNL A   1      40.554  25.764  27.151  1.00  0.00     0.198 A 
ATOM     86  F   UNL A   1      39.567  26.053  29.268  1.00  0.00    -0.203 F 
ATOM     87  F   UNL A   1      42.688  27.968  25.225  1.00  0.00    -0.200 F 
ATOM     88  C   UNL A   1      41.344  26.244  26.118  1.00  0.00     0.200 A 
ATOM     89  F   UNL A   1      39.980  24.558  27.050  1.00  0.00    -0.200 F 
ATOM     90  F   UNL A   1      41.515  25.514  25.007  1.00  0.00    -0.200 F 
ENDBRANCH  56  80
BRANCH  68  91
ATOM     91  C   UNL A   1      44.306  28.371  34.531  1.00  0.00     0.064 A 
ATOM     92  C   UNL A   1      44.156  27.167  35.233  1.00  0.00     0.173 A 
ATOM     93  C   UNL A   1      45.607  28.860  34.336  1.00  0.00     0.173 A 
ATOM     94  F   UNL A   1      42.933  26.664  35.459  1.00  0.00    -0.203 F 
ATOM     95  C   UNL A   1      45.264  26.488  35.734  1.00  0.00     0.198 A 
ATOM     96  C   UNL A   1      46.714  28.163  34.810  1.00  0.00     0.198 A 
ATOM     97  F   UNL A   1      45.805  30.005  33.665  1.00  0.00    -0.203 F 
ATOM     98  F   UNL A   1      45.096  25.361  36.439  1.00  0.00    -0.200 F 
ATOM     99  C   UNL A   1      46.542  26.982  35.513  1.00  0.00     0.200 A 
ATOM    100  F   UNL A   1      47.948  28.633  34.580  1.00  0.00    -0.200 F 
ATOM    101  F   UNL A   1      47.608  26.319  35.983  1.00  0.00    -0.200 F 
ENDBRANCH  68  91
ENDBRANCH  42  43
ENDBRANCH  34  37
ENDBRANCH  32  33
ENDBRANCH  31  32
ENDBRANCH  30  31
ENDBRANCH  29  30
ENDBRANCH   1  29
TORSDOF 17
ENDMDL
