MODEL 1
REMARK VINA RESULT:     -12.8      0.000      0.000
REMARK SMILES O=C(NCCCCCCNC(=O)[C@@H]1c2[nH]cnc2CCN1C(=O)CCCc1c[nH]c2ccccc12)c1ccc(-c2c3nc(c(-c4c(F)c(F)c(F)c(F)c4F)c4ccc([nH]4)c(-c4c(F)c(F)c(F)c(F)c4F)c4nc(c(-c5c(F)c(F)c(F)c(F)c5F)c5ccc2[nH]5)C=C4)C=C3)cc1
REMARK SMILES IDX 8 1 7 2 6 3 5 4 4 5 3 6 1 7 2 8 36 10 37 11 98 12 38 13
REMARK SMILES IDX 97 14 39 15 40 16 41 17 91 18 42 19 96 20 90 21 92 22 43 23
REMARK SMILES IDX 95 24 89 25 88 26 44 28 76 29 56 30 75 31 57 32 60 33 74 34
REMARK SMILES IDX 93 35 58 36 59 37 73 39 94 40 61 41 45 42 46 43 54 44 47 45
REMARK SMILES IDX 48 46 52 47 55 48 49 49 50 50 53 51 51 52 77 53 78 54 86 55
REMARK SMILES IDX 79 56 80 57 84 58 87 59 81 60 82 61 85 62 83 63 62 64 63 65
REMARK SMILES IDX 71 66 64 67 65 68 69 69 72 70 66 71 67 72 70 73 68 74 9 75
REMARK SMILES IDX 10 76 11 77 12 79 13 80 14 81 21 82 15 83 18 84 20 85 16 86
REMARK SMILES IDX 17 88 19 89 22 90 23 91 24 92 25 93 26 94 27 95 28 96 35 97
REMARK SMILES IDX 29 98 30 99 34 100 31 102 33 103 32 104
REMARK H PARENT 3 9 92 27 60 38 10 78 15 87 29 101
REMARK Flexibility Score: inf
ROOT
ATOM      1  C   UNL A   1      39.008  23.200  26.500  1.00  0.00     0.021 C 
ENDROOT
BRANCH   1   2
ATOM      2  C   UNL A   1      39.272  21.786  25.978  1.00  0.00     0.002 C 
BRANCH   2   3
ATOM      3  C   UNL A   1      40.389  21.051  26.732  1.00  0.00     0.002 C 
BRANCH   3   4
ATOM      4  C   UNL A   1      40.858  19.751  26.070  1.00  0.00     0.021 C 
BRANCH   4   5
ATOM      5  C   UNL A   1      42.309  19.402  26.391  1.00  0.00     0.116 C 
BRANCH   5   6
ATOM      6  N   UNL A   1      43.223  19.767  25.327  1.00  0.00    -0.352 N 
ATOM      7  O   UNL A   1      44.525  20.882  23.929  1.00  0.00    -0.269 OA
ATOM      8  C   UNL A   1      43.810  20.934  24.938  1.00  0.00     0.251 C 
ATOM      9  H   UNL A   1      43.474  19.003  24.760  1.00  0.00     0.163 HD
BRANCH   8  10
ATOM     10  C   UNL A   1      43.603  22.251  25.595  1.00  0.00     0.039 A 
ATOM     11  C   UNL A   1      42.755  23.264  25.141  1.00  0.00     0.014 A 
ATOM     12  C   UNL A   1      44.345  22.471  26.769  1.00  0.00     0.014 A 
ATOM     13  C   UNL A   1      42.728  24.501  25.773  1.00  0.00     0.010 A 
ATOM     14  C   UNL A   1      44.292  23.689  27.429  1.00  0.00     0.010 A 
ATOM     15  C   UNL A   1      43.513  24.717  26.904  1.00  0.00    -0.014 A 
BRANCH  15  16
ATOM     16  C   UNL A   1      43.364  25.980  27.619  1.00  0.00     0.031 A 
ATOM     17  C   UNL A   1      44.375  27.022  27.252  1.00  0.00     0.074 A 
ATOM     18  C   UNL A   1      42.292  26.229  28.398  1.00  0.00     0.049 A 
ATOM     19  N   UNL A   1      45.122  27.741  28.029  1.00  0.00    -0.248 NA
ATOM     20  C   UNL A   1      44.654  27.222  25.817  1.00  0.00     0.031 C 
ATOM     21  C   UNL A   1      41.112  25.382  28.595  1.00  0.00     0.029 A 
ATOM     22  N   UNL A   1      41.971  27.356  29.091  1.00  0.00    -0.354 N 
ATOM     23  C   UNL A   1      45.843  28.596  27.192  1.00  0.00     0.074 A 
ATOM     24  C   UNL A   1      45.615  28.144  25.848  1.00  0.00     0.031 C 
ATOM     25  C   UNL A   1      40.119  26.118  29.143  1.00  0.00     0.029 A 
ATOM     26  C   UNL A   1      40.630  27.443  29.446  1.00  0.00     0.049 A 
ATOM     27  H   UNL A   1      42.631  28.049  29.322  1.00  0.00     0.167 HD
ATOM     28  C   UNL A   1      46.399  29.750  27.657  1.00  0.00     0.037 A 
ATOM     29  C   UNL A   1      39.974  28.551  29.873  1.00  0.00     0.037 A 
ATOM     30  C   UNL A   1      46.625  29.682  29.075  1.00  0.00     0.049 A 
ATOM     31  C   UNL A   1      40.994  29.534  30.316  1.00  0.00     0.074 A 
ATOM     32  C   UNL A   1      47.396  28.888  29.900  1.00  0.00     0.029 A 
ATOM     33  N   UNL A   1      45.743  30.324  29.908  1.00  0.00    -0.354 N 
ATOM     34  N   UNL A   1      41.753  29.372  31.363  1.00  0.00    -0.248 NA
ATOM     35  C   UNL A   1      41.483  30.482  29.326  1.00  0.00     0.031 C 
ATOM     36  C   UNL A   1      46.613  28.711  31.079  1.00  0.00     0.029 A 
ATOM     37  C   UNL A   1      45.443  29.453  30.921  1.00  0.00     0.049 A 
ATOM     38  H   UNL A   1      45.393  31.237  29.798  1.00  0.00     0.167 HD
ATOM     39  C   UNL A   1      42.994  29.854  30.974  1.00  0.00     0.074 A 
ATOM     40  C   UNL A   1      42.748  30.593  29.738  1.00  0.00     0.031 C 
ATOM     41  C   UNL A   1      44.141  29.372  31.533  1.00  0.00     0.037 A 
BRANCH  28  42
ATOM     42  C   UNL A   1      46.362  31.068  26.907  1.00  0.00     0.064 A 
ATOM     43  C   UNL A   1      47.539  31.844  26.841  1.00  0.00     0.173 A 
ATOM     44  C   UNL A   1      45.174  31.746  26.560  1.00  0.00     0.173 A 
ATOM     45  F   UNL A   1      48.732  31.307  27.135  1.00  0.00    -0.203 F 
ATOM     46  C   UNL A   1      47.507  33.218  26.580  1.00  0.00     0.198 A 
ATOM     47  C   UNL A   1      45.152  33.107  26.253  1.00  0.00     0.198 A 
ATOM     48  F   UNL A   1      43.973  31.161  26.603  1.00  0.00    -0.203 F 
ATOM     49  F   UNL A   1      48.632  33.939  26.678  1.00  0.00    -0.200 F 
ATOM     50  C   UNL A   1      46.310  33.851  26.306  1.00  0.00     0.200 A 
ATOM     51  F   UNL A   1      43.980  33.704  25.994  1.00  0.00    -0.200 F 
ATOM     52  F   UNL A   1      46.264  35.178  26.138  1.00  0.00    -0.200 F 
ENDBRANCH  28  42
BRANCH  29  53
ATOM     53  C   UNL A   1      38.573  28.945  29.582  1.00  0.00     0.064 A 
ATOM     54  C   UNL A   1      37.694  29.328  30.608  1.00  0.00     0.173 A 
ATOM     55  C   UNL A   1      38.149  29.214  28.265  1.00  0.00     0.173 A 
ATOM     56  F   UNL A   1      38.043  29.160  31.892  1.00  0.00    -0.203 F 
ATOM     57  C   UNL A   1      36.473  29.956  30.333  1.00  0.00     0.198 A 
ATOM     58  C   UNL A   1      36.928  29.832  27.992  1.00  0.00     0.198 A 
ATOM     59  F   UNL A   1      38.955  28.973  27.221  1.00  0.00    -0.203 F 
ATOM     60  F   UNL A   1      35.685  30.360  31.341  1.00  0.00    -0.200 F 
ATOM     61  C   UNL A   1      36.095  30.213  29.025  1.00  0.00     0.200 A 
ATOM     62  F   UNL A   1      36.595  30.111  26.724  1.00  0.00    -0.200 F 
ATOM     63  F   UNL A   1      34.953  30.863  28.764  1.00  0.00    -0.200 F 
ENDBRANCH  29  53
BRANCH  41  64
ATOM     64  C   UNL A   1      44.015  28.484  32.737  1.00  0.00     0.064 A 
ATOM     65  C   UNL A   1      43.864  27.087  32.667  1.00  0.00     0.173 A 
ATOM     66  C   UNL A   1      44.208  29.049  34.003  1.00  0.00     0.173 A 
ATOM     67  F   UNL A   1      43.782  26.460  31.488  1.00  0.00    -0.203 F 
ATOM     68  C   UNL A   1      43.863  26.302  33.818  1.00  0.00     0.198 A 
ATOM     69  C   UNL A   1      44.244  28.258  35.148  1.00  0.00     0.198 A 
ATOM     70  F   UNL A   1      44.419  30.369  34.124  1.00  0.00    -0.203 F 
ATOM     71  F   UNL A   1      43.712  24.972  33.725  1.00  0.00    -0.200 F 
ATOM     72  C   UNL A   1      44.060  26.887  35.057  1.00  0.00     0.200 A 
ATOM     73  F   UNL A   1      44.490  28.822  36.338  1.00  0.00    -0.200 F 
ATOM     74  F   UNL A   1      44.108  26.128  36.160  1.00  0.00    -0.200 F 
ENDBRANCH  41  64
ENDBRANCH  15  16
ENDBRANCH   8  10
ENDBRANCH   5   6
ENDBRANCH   4   5
ENDBRANCH   3   4
ENDBRANCH   2   3
ENDBRANCH   1   2
BRANCH   1  75
ATOM     75  C   UNL A   1      37.665  23.737  26.016  1.00  0.00     0.116 C 
BRANCH  75  76
ATOM     76  N   UNL A   1      37.327  23.259  24.711  1.00  0.00    -0.354 N 
ATOM     77  C   UNL A   1      36.177  22.729  24.234  1.00  0.00     0.249 C 
ATOM     78  H   UNL A   1      38.053  23.327  24.048  1.00  0.00     0.163 HD
ATOM     79  O   UNL A   1      36.063  22.816  22.999  1.00  0.00    -0.272 OA
BRANCH  77  80
ATOM     80  C   UNL A   1      34.995  22.192  25.086  1.00  0.00     0.223 C 
ATOM     81  C   UNL A   1      34.207  20.929  24.794  1.00  0.00     0.071 A 
ATOM     82  N   UNL A   1      33.994  23.285  25.298  1.00  0.00    -0.325 N 
ATOM     83  N   UNL A   1      34.595  19.611  24.824  1.00  0.00    -0.346 N 
ATOM     84  C   UNL A   1      32.830  20.804  24.941  1.00  0.00     0.066 A 
ATOM     85  C   UNL A   1      32.897  22.900  26.180  1.00  0.00     0.127 C 
ATOM     86  C   UNL A   1      33.486  18.828  24.646  1.00  0.00     0.197 A 
ATOM     87  H   UNL A   1      35.514  19.285  24.954  1.00  0.00     0.167 HD
ATOM     88  N   UNL A   1      32.387  19.530  24.750  1.00  0.00    -0.242 NA
ATOM     89  C   UNL A   1      31.974  21.892  25.459  1.00  0.00     0.080 C 
BRANCH  82  90
ATOM     90  C   UNL A   1      33.678  24.174  24.256  1.00  0.00     0.223 C 
ATOM     91  O   UNL A   1      33.218  23.807  23.177  1.00  0.00    -0.275 OA
BRANCH  90  92
ATOM     92  C   UNL A   1      34.074  25.634  24.488  1.00  0.00     0.100 C 
BRANCH  92  93
ATOM     93  C   UNL A   1      33.913  26.240  25.879  1.00  0.00     0.015 C 
BRANCH  93  94
ATOM     94  C   UNL A   1      33.754  27.743  26.048  1.00  0.00     0.038 C 
BRANCH  94  95
ATOM     95  C   UNL A   1      32.532  28.543  25.630  1.00  0.00    -0.023 A 
ATOM     96  C   UNL A   1      32.511  29.911  25.869  1.00  0.00     0.087 A 
ATOM     97  C   UNL A   1      31.342  28.279  24.832  1.00  0.00     0.003 A 
ATOM     98  N   UNL A   1      31.526  30.484  25.125  1.00  0.00    -0.361 N 
ATOM     99  C   UNL A   1      30.844  29.526  24.426  1.00  0.00     0.046 A 
ATOM    100  C   UNL A   1      30.651  27.155  24.316  1.00  0.00     0.010 A 
ATOM    101  H   UNL A   1      31.333  31.449  25.093  1.00  0.00     0.166 HD
ATOM    102  C   UNL A   1      29.820  29.690  23.480  1.00  0.00     0.026 A 
ATOM    103  C   UNL A   1      29.564  27.298  23.439  1.00  0.00     0.001 A 
ATOM    104  C   UNL A   1      29.173  28.553  23.006  1.00  0.00     0.002 A 
ENDBRANCH  94  95
ENDBRANCH  93  94
ENDBRANCH  92  93
ENDBRANCH  90  92
ENDBRANCH  82  90
ENDBRANCH  77  80
ENDBRANCH  75  76
ENDBRANCH   1  75
TORSDOF 18
ENDMDL
MODEL 2
REMARK VINA RESULT:     -12.5      1.412      2.195
REMARK SMILES O=C(NCCCCCCNC(=O)[C@@H]1c2[nH]cnc2CCN1C(=O)CCCc1c[nH]c2ccccc12)c1ccc(-c2c3nc(c(-c4c(F)c(F)c(F)c(F)c4F)c4ccc([nH]4)c(-c4c(F)c(F)c(F)c(F)c4F)c4nc(c(-c5c(F)c(F)c(F)c(F)c5F)c5ccc2[nH]5)C=C4)C=C3)cc1
REMARK SMILES IDX 8 1 7 2 6 3 5 4 4 5 3 6 1 7 2 8 36 10 37 11 98 12 38 13
REMARK SMILES IDX 97 14 39 15 40 16 41 17 91 18 42 19 96 20 90 21 92 22 43 23
REMARK SMILES IDX 95 24 89 25 88 26 44 28 76 29 56 30 75 31 57 32 60 33 74 34
REMARK SMILES IDX 93 35 58 36 59 37 73 39 94 40 61 41 45 42 46 43 54 44 47 45
REMARK SMILES IDX 48 46 52 47 55 48 49 49 50 50 53 51 51 52 77 53 78 54 86 55
REMARK SMILES IDX 79 56 80 57 84 58 87 59 81 60 82 61 85 62 83 63 62 64 63 65
REMARK SMILES IDX 71 66 64 67 65 68 69 69 72 70 66 71 67 72 70 73 68 74 9 75
REMARK SMILES IDX 10 76 11 77 12 79 13 80 14 81 21 82 15 83 18 84 20 85 16 86
REMARK SMILES IDX 17 88 19 89 22 90 23 91 24 92 25 93 26 94 27 95 28 96 35 97
REMARK SMILES IDX 29 98 30 99 34 100 31 102 33 103 32 104
REMARK H PARENT 3 9 92 27 60 38 10 78 15 87 29 101
REMARK Flexibility Score: inf
ROOT
ATOM      1  C   UNL A   1      38.778  23.799  26.637  1.00  0.00     0.021 C 
ENDROOT
BRANCH   1   2
ATOM      2  C   UNL A   1      39.328  22.415  26.290  1.00  0.00     0.002 C 
BRANCH   2   3
ATOM      3  C   UNL A   1      40.300  21.858  27.340  1.00  0.00     0.002 C 
BRANCH   3   4
ATOM      4  C   UNL A   1      40.930  20.509  26.975  1.00  0.00     0.021 C 
BRANCH   4   5
ATOM      5  C   UNL A   1      42.446  20.579  26.809  1.00  0.00     0.116 C 
BRANCH   5   6
ATOM      6  N   UNL A   1      42.846  21.166  25.546  1.00  0.00    -0.352 N 
ATOM      7  O   UNL A   1      43.408  22.577  23.938  1.00  0.00    -0.269 OA
ATOM      8  C   UNL A   1      43.133  22.434  25.137  1.00  0.00     0.251 C 
ATOM      9  H   UNL A   1      42.928  20.502  24.825  1.00  0.00     0.163 HD
BRANCH   8  10
ATOM     10  C   UNL A   1      43.076  23.641  26.002  1.00  0.00     0.039 A 
ATOM     11  C   UNL A   1      43.781  23.825  27.194  1.00  0.00     0.014 A 
ATOM     12  C   UNL A   1      42.222  24.668  25.560  1.00  0.00     0.014 A 
ATOM     13  C   UNL A   1      43.561  24.949  27.980  1.00  0.00     0.010 A 
ATOM     14  C   UNL A   1      42.028  25.811  26.321  1.00  0.00     0.010 A 
ATOM     15  C   UNL A   1      42.668  25.929  27.551  1.00  0.00    -0.014 A 
BRANCH  15  16
ATOM     16  C   UNL A   1      42.558  27.155  28.335  1.00  0.00     0.031 A 
ATOM     17  C   UNL A   1      43.634  28.161  28.065  1.00  0.00     0.074 A 
ATOM     18  C   UNL A   1      41.473  27.415  29.092  1.00  0.00     0.049 A 
ATOM     19  N   UNL A   1      44.389  28.793  28.907  1.00  0.00    -0.248 NA
ATOM     20  C   UNL A   1      43.975  28.428  26.654  1.00  0.00     0.031 C 
ATOM     21  C   UNL A   1      40.245  26.623  29.200  1.00  0.00     0.029 A 
ATOM     22  N   UNL A   1      41.186  28.516  29.840  1.00  0.00    -0.354 N 
ATOM     23  C   UNL A   1      45.183  29.655  28.147  1.00  0.00     0.074 A 
ATOM     24  C   UNL A   1      44.980  29.294  26.772  1.00  0.00     0.031 C 
ATOM     25  C   UNL A   1      39.272  27.378  29.757  1.00  0.00     0.029 A 
ATOM     26  C   UNL A   1      39.839  28.654  30.156  1.00  0.00     0.049 A 
ATOM     27  H   UNL A   1      41.872  29.158  30.133  1.00  0.00     0.167 HD
ATOM     28  C   UNL A   1      45.780  30.748  28.698  1.00  0.00     0.037 A 
ATOM     29  C   UNL A   1      39.226  29.769  30.626  1.00  0.00     0.037 A 
ATOM     30  C   UNL A   1      45.951  30.587  30.116  1.00  0.00     0.049 A 
ATOM     31  C   UNL A   1      40.279  30.668  31.161  1.00  0.00     0.074 A 
ATOM     32  C   UNL A   1      46.650  29.706  30.917  1.00  0.00     0.029 A 
ATOM     33  N   UNL A   1      45.074  31.225  30.957  1.00  0.00    -0.354 N 
ATOM     34  N   UNL A   1      40.991  30.406  32.221  1.00  0.00    -0.248 NA
ATOM     35  C   UNL A   1      40.851  31.645  30.245  1.00  0.00     0.031 C 
ATOM     36  C   UNL A   1      45.817  29.503  32.057  1.00  0.00     0.029 A 
ATOM     37  C   UNL A   1      44.693  30.315  31.905  1.00  0.00     0.049 A 
ATOM     38  H   UNL A   1      44.775  32.161  30.889  1.00  0.00     0.167 HD
ATOM     39  C   UNL A   1      42.268  30.843  31.902  1.00  0.00     0.074 A 
ATOM     40  C   UNL A   1      42.105  31.664  30.705  1.00  0.00     0.031 C 
ATOM     41  C   UNL A   1      43.368  30.268  32.468  1.00  0.00     0.037 A 
BRANCH  28  42
ATOM     42  C   UNL A   1      45.838  32.108  28.027  1.00  0.00     0.064 A 
ATOM     43  C   UNL A   1      44.635  32.697  27.583  1.00  0.00     0.173 A 
ATOM     44  C   UNL A   1      47.017  32.682  27.507  1.00  0.00     0.173 A 
ATOM     45  F   UNL A   1      43.449  32.247  28.020  1.00  0.00    -0.203 F 
ATOM     46  C   UNL A   1      44.615  33.689  26.597  1.00  0.00     0.198 A 
ATOM     47  C   UNL A   1      46.995  33.705  26.558  1.00  0.00     0.198 A 
ATOM     48  F   UNL A   1      48.235  32.219  27.803  1.00  0.00    -0.203 F 
ATOM     49  F   UNL A   1      43.444  34.108  26.101  1.00  0.00    -0.200 F 
ATOM     50  C   UNL A   1      45.795  34.177  26.072  1.00  0.00     0.200 A 
ATOM     51  F   UNL A   1      48.151  34.162  26.056  1.00  0.00    -0.200 F 
ATOM     52  F   UNL A   1      45.780  35.065  25.070  1.00  0.00    -0.200 F 
ENDBRANCH  28  42
BRANCH  29  53
ATOM     53  C   UNL A   1      37.858  30.253  30.313  1.00  0.00     0.064 A 
ATOM     54  C   UNL A   1      37.004  30.728  31.322  1.00  0.00     0.173 A 
ATOM     55  C   UNL A   1      37.463  30.514  28.986  1.00  0.00     0.173 A 
ATOM     56  F   UNL A   1      37.333  30.572  32.612  1.00  0.00    -0.203 F 
ATOM     57  C   UNL A   1      35.832  31.433  31.019  1.00  0.00     0.198 A 
ATOM     58  C   UNL A   1      36.291  31.209  28.686  1.00  0.00     0.198 A 
ATOM     59  F   UNL A   1      38.255  30.186  27.956  1.00  0.00    -0.203 F 
ATOM     60  F   UNL A   1      35.070  31.921  32.009  1.00  0.00    -0.200 F 
ATOM     61  C   UNL A   1      35.481  31.678  29.702  1.00  0.00     0.200 A 
ATOM     62  F   UNL A   1      35.985  31.474  27.408  1.00  0.00    -0.200 F 
ATOM     63  F   UNL A   1      34.390  32.401  29.413  1.00  0.00    -0.200 F 
ENDBRANCH  29  53
BRANCH  41  64
ATOM     64  C   UNL A   1      43.153  29.320  33.612  1.00  0.00     0.064 A 
ATOM     65  C   UNL A   1      42.899  27.946  33.453  1.00  0.00     0.173 A 
ATOM     66  C   UNL A   1      43.363  29.790  34.914  1.00  0.00     0.173 A 
ATOM     67  F   UNL A   1      42.793  27.400  32.236  1.00  0.00    -0.203 F 
ATOM     68  C   UNL A   1      42.818  27.093  34.552  1.00  0.00     0.198 A 
ATOM     69  C   UNL A   1      43.318  28.930  36.008  1.00  0.00     0.198 A 
ATOM     70  F   UNL A   1      43.671  31.080  35.120  1.00  0.00    -0.203 F 
ATOM     71  F   UNL A   1      42.570  25.787  34.374  1.00  0.00    -0.200 F 
ATOM     72  C   UNL A   1      43.035  27.585  35.828  1.00  0.00     0.200 A 
ATOM     73  F   UNL A   1      43.584  29.399  37.234  1.00  0.00    -0.200 F 
ATOM     74  F   UNL A   1      43.005  26.758  36.882  1.00  0.00    -0.200 F 
ENDBRANCH  41  64
ENDBRANCH  15  16
ENDBRANCH   8  10
ENDBRANCH   5   6
ENDBRANCH   4   5
ENDBRANCH   3   4
ENDBRANCH   2   3
ENDBRANCH   1   2
BRANCH   1  75
ATOM     75  C   UNL A   1      37.444  24.064  25.946  1.00  0.00     0.116 C 
BRANCH  75  76
ATOM     76  N   UNL A   1      37.385  23.487  24.639  1.00  0.00    -0.354 N 
ATOM     77  C   UNL A   1      36.365  22.888  23.982  1.00  0.00     0.249 C 
ATOM     78  H   UNL A   1      38.229  23.533  24.132  1.00  0.00     0.163 HD
ATOM     79  O   UNL A   1      36.501  22.886  22.746  1.00  0.00    -0.272 OA
BRANCH  77  80
ATOM     80  C   UNL A   1      35.045  22.372  24.618  1.00  0.00     0.223 C 
ATOM     81  C   UNL A   1      34.486  20.971  24.462  1.00  0.00     0.071 A 
ATOM     82  N   UNL A   1      33.931  23.319  24.295  1.00  0.00    -0.325 N 
ATOM     83  N   UNL A   1      34.966  19.765  24.914  1.00  0.00    -0.346 N 
ATOM     84  C   UNL A   1      33.140  20.672  24.286  1.00  0.00     0.066 A 
ATOM     85  C   UNL A   1      32.671  22.970  24.943  1.00  0.00     0.127 C 
ATOM     86  C   UNL A   1      34.026  18.802  24.664  1.00  0.00     0.197 A 
ATOM     87  H   UNL A   1      35.839  19.619  25.345  1.00  0.00     0.167 HD
ATOM     88  N   UNL A   1      32.883  19.334  24.313  1.00  0.00    -0.242 NA
ATOM     89  C   UNL A   1      32.080  21.702  24.287  1.00  0.00     0.080 C 
BRANCH  82  90
ATOM     90  C   UNL A   1      33.841  23.904  23.021  1.00  0.00     0.223 C 
ATOM     91  O   UNL A   1      33.870  23.252  21.979  1.00  0.00    -0.275 OA
BRANCH  90  92
ATOM     92  C   UNL A   1      33.842  25.435  22.993  1.00  0.00     0.100 C 
BRANCH  92  93
ATOM     93  C   UNL A   1      32.706  26.171  22.291  1.00  0.00     0.015 C 
BRANCH  93  94
ATOM     94  C   UNL A   1      31.328  26.246  22.929  1.00  0.00     0.038 C 
BRANCH  94  95
ATOM     95  C   UNL A   1      31.047  26.728  24.341  1.00  0.00    -0.023 A 
ATOM     96  C   UNL A   1      30.481  25.846  25.253  1.00  0.00     0.087 A 
ATOM     97  C   UNL A   1      31.384  27.913  25.121  1.00  0.00     0.003 A 
ATOM     98  N   UNL A   1      30.636  26.336  26.513  1.00  0.00    -0.361 N 
ATOM     99  C   UNL A   1      31.248  27.559  26.471  1.00  0.00     0.046 A 
ATOM    100  C   UNL A   1      31.872  29.222  24.884  1.00  0.00     0.010 A 
ATOM    101  H   UNL A   1      30.350  25.877  27.336  1.00  0.00     0.166 HD
ATOM    102  C   UNL A   1      31.672  28.367  27.539  1.00  0.00     0.026 A 
ATOM    103  C   UNL A   1      32.215  30.081  25.941  1.00  0.00     0.001 A 
ATOM    104  C   UNL A   1      32.141  29.645  27.252  1.00  0.00     0.002 A 
ENDBRANCH  94  95
ENDBRANCH  93  94
ENDBRANCH  92  93
ENDBRANCH  90  92
ENDBRANCH  82  90
ENDBRANCH  77  80
ENDBRANCH  75  76
ENDBRANCH   1  75
TORSDOF 18
ENDMDL
MODEL 3
REMARK VINA RESULT:     -12.4      2.791      8.780
REMARK SMILES O=C(NCCCCCCNC(=O)[C@@H]1c2[nH]cnc2CCN1C(=O)CCCc1c[nH]c2ccccc12)c1ccc(-c2c3nc(c(-c4c(F)c(F)c(F)c(F)c4F)c4ccc([nH]4)c(-c4c(F)c(F)c(F)c(F)c4F)c4nc(c(-c5c(F)c(F)c(F)c(F)c5F)c5ccc2[nH]5)C=C4)C=C3)cc1
REMARK SMILES IDX 8 1 7 2 6 3 5 4 4 5 3 6 1 7 2 8 36 10 37 11 98 12 38 13
REMARK SMILES IDX 97 14 39 15 40 16 41 17 91 18 42 19 96 20 90 21 92 22 43 23
REMARK SMILES IDX 95 24 89 25 88 26 44 28 76 29 56 30 75 31 57 32 60 33 74 34
REMARK SMILES IDX 93 35 58 36 59 37 73 39 94 40 61 41 45 42 46 43 54 44 47 45
REMARK SMILES IDX 48 46 52 47 55 48 49 49 50 50 53 51 51 52 77 53 78 54 86 55
REMARK SMILES IDX 79 56 80 57 84 58 87 59 81 60 82 61 85 62 83 63 62 64 63 65
REMARK SMILES IDX 71 66 64 67 65 68 69 69 72 70 66 71 67 72 70 73 68 74 9 75
REMARK SMILES IDX 10 76 11 77 12 79 13 80 14 81 21 82 15 83 18 84 20 85 16 86
REMARK SMILES IDX 17 88 19 89 22 90 23 91 24 92 25 93 26 94 27 95 28 96 35 97
REMARK SMILES IDX 29 98 30 99 34 100 31 102 33 103 32 104
REMARK H PARENT 3 9 92 27 60 38 10 78 15 87 29 101
REMARK Flexibility Score: inf
ROOT
ATOM      1  C   UNL A   1      32.961  29.473  27.028  1.00  0.00     0.021 C 
ENDROOT
BRANCH   1   2
ATOM      2  C   UNL A   1      34.456  29.443  27.347  1.00  0.00     0.002 C 
BRANCH   2   3
ATOM      3  C   UNL A   1      35.036  30.818  27.707  1.00  0.00     0.002 C 
BRANCH   3   4
ATOM      4  C   UNL A   1      33.998  31.941  27.813  1.00  0.00     0.021 C 
BRANCH   4   5
ATOM      5  C   UNL A   1      34.471  33.118  28.663  1.00  0.00     0.116 C 
BRANCH   5   6
ATOM      6  N   UNL A   1      34.223  32.926  30.077  1.00  0.00    -0.352 N 
ATOM      7  O   UNL A   1      34.384  32.353  32.207  1.00  0.00    -0.269 OA
ATOM      8  C   UNL A   1      34.942  32.390  31.103  1.00  0.00     0.251 C 
ATOM      9  H   UNL A   1      33.339  33.254  30.359  1.00  0.00     0.163 HD
BRANCH   8  10
ATOM     10  C   UNL A   1      36.301  31.801  30.973  1.00  0.00     0.039 A 
ATOM     11  C   UNL A   1      37.488  32.518  30.804  1.00  0.00     0.014 A 
ATOM     12  C   UNL A   1      36.364  30.397  31.021  1.00  0.00     0.014 A 
ATOM     13  C   UNL A   1      38.689  31.856  30.578  1.00  0.00     0.010 A 
ATOM     14  C   UNL A   1      37.565  29.730  30.836  1.00  0.00     0.010 A 
ATOM     15  C   UNL A   1      38.720  30.463  30.573  1.00  0.00    -0.014 A 
BRANCH  15  16
ATOM     16  C   UNL A   1      40.015  29.800  30.463  1.00  0.00     0.031 A 
ATOM     17  C   UNL A   1      40.743  29.645  31.763  1.00  0.00     0.074 A 
ATOM     18  C   UNL A   1      40.418  29.221  29.314  1.00  0.00     0.049 A 
ATOM     19  N   UNL A   1      41.968  29.953  32.052  1.00  0.00    -0.248 NA
ATOM     20  C   UNL A   1      39.967  29.166  32.923  1.00  0.00     0.031 C 
ATOM     21  C   UNL A   1      39.657  29.075  28.071  1.00  0.00     0.029 A 
ATOM     22  N   UNL A   1      41.559  28.527  29.051  1.00  0.00    -0.354 N 
ATOM     23  C   UNL A   1      42.167  29.556  33.376  1.00  0.00     0.074 A 
ATOM     24  C   UNL A   1      40.875  29.204  33.897  1.00  0.00     0.031 C 
ATOM     25  C   UNL A   1      40.248  28.141  27.291  1.00  0.00     0.029 A 
ATOM     26  C   UNL A   1      41.486  27.720  27.921  1.00  0.00     0.049 A 
ATOM     27  H   UNL A   1      42.367  28.592  29.610  1.00  0.00     0.167 HD
ATOM     28  C   UNL A   1      43.414  29.336  33.878  1.00  0.00     0.037 A 
ATOM     29  C   UNL A   1      42.338  26.719  27.583  1.00  0.00     0.037 A 
ATOM     30  C   UNL A   1      44.408  30.054  33.128  1.00  0.00     0.049 A 
ATOM     31  C   UNL A   1      43.586  26.910  28.363  1.00  0.00     0.074 A 
ATOM     32  C   UNL A   1      44.660  31.388  32.876  1.00  0.00     0.029 A 
ATOM     33  N   UNL A   1      45.164  29.362  32.215  1.00  0.00    -0.354 N 
ATOM     34  N   UNL A   1      44.412  27.903  28.184  1.00  0.00    -0.248 NA
ATOM     35  C   UNL A   1      43.676  26.242  29.653  1.00  0.00     0.031 C 
ATOM     36  C   UNL A   1      45.134  31.426  31.531  1.00  0.00     0.029 A 
ATOM     37  C   UNL A   1      45.195  30.111  31.070  1.00  0.00     0.049 A 
ATOM     38  H   UNL A   1      45.601  28.492  32.357  1.00  0.00     0.167 HD
ATOM     39  C   UNL A   1      44.814  28.258  29.463  1.00  0.00     0.074 A 
ATOM     40  C   UNL A   1      44.389  27.154  30.320  1.00  0.00     0.031 C 
ATOM     41  C   UNL A   1      45.197  29.536  29.749  1.00  0.00     0.037 A 
BRANCH  28  42
ATOM     42  C   UNL A   1      43.770  28.169  34.779  1.00  0.00     0.064 A 
ATOM     43  C   UNL A   1      43.393  26.867  34.384  1.00  0.00     0.173 A 
ATOM     44  C   UNL A   1      44.144  28.302  36.133  1.00  0.00     0.173 A 
ATOM     45  F   UNL A   1      43.031  26.613  33.118  1.00  0.00    -0.203 F 
ATOM     46  C   UNL A   1      43.273  25.820  35.303  1.00  0.00     0.198 A 
ATOM     47  C   UNL A   1      44.068  27.243  37.038  1.00  0.00     0.198 A 
ATOM     48  F   UNL A   1      44.494  29.475  36.671  1.00  0.00    -0.203 F 
ATOM     49  F   UNL A   1      42.767  24.644  34.907  1.00  0.00    -0.200 F 
ATOM     50  C   UNL A   1      43.592  26.014  36.633  1.00  0.00     0.200 A 
ATOM     51  F   UNL A   1      44.377  27.453  38.325  1.00  0.00    -0.200 F 
ATOM     52  F   UNL A   1      43.399  25.041  37.530  1.00  0.00    -0.200 F 
ENDBRANCH  28  42
BRANCH  29  53
ATOM     53  C   UNL A   1      42.008  25.432  26.921  1.00  0.00     0.064 A 
ATOM     54  C   UNL A   1      42.761  24.957  25.835  1.00  0.00     0.173 A 
ATOM     55  C   UNL A   1      41.120  24.514  27.514  1.00  0.00     0.173 A 
ATOM     56  F   UNL A   1      43.671  25.746  25.248  1.00  0.00    -0.203 F 
ATOM     57  C   UNL A   1      42.641  23.637  25.381  1.00  0.00     0.198 A 
ATOM     58  C   UNL A   1      40.994  23.203  27.055  1.00  0.00     0.198 A 
ATOM     59  F   UNL A   1      40.426  24.841  28.614  1.00  0.00    -0.203 F 
ATOM     60  F   UNL A   1      43.417  23.201  24.378  1.00  0.00    -0.200 F 
ATOM     61  C   UNL A   1      41.762  22.761  25.996  1.00  0.00     0.200 A 
ATOM     62  F   UNL A   1      40.170  22.354  27.686  1.00  0.00    -0.200 F 
ATOM     63  F   UNL A   1      41.687  21.483  25.597  1.00  0.00    -0.200 F 
ENDBRANCH  29  53
BRANCH  41  64
ATOM     64  C   UNL A   1      45.396  30.481  28.600  1.00  0.00     0.064 A 
ATOM     65  C   UNL A   1      44.372  31.276  28.053  1.00  0.00     0.173 A 
ATOM     66  C   UNL A   1      46.699  30.703  28.140  1.00  0.00     0.173 A 
ATOM     67  F   UNL A   1      43.119  31.201  28.516  1.00  0.00    -0.203 F 
ATOM     68  C   UNL A   1      44.638  32.217  27.061  1.00  0.00     0.198 A 
ATOM     69  C   UNL A   1      46.969  31.669  27.174  1.00  0.00     0.198 A 
ATOM     70  F   UNL A   1      47.724  30.017  28.670  1.00  0.00    -0.203 F 
ATOM     71  F   UNL A   1      43.644  32.959  26.553  1.00  0.00    -0.200 F 
ATOM     72  C   UNL A   1      45.938  32.418  26.628  1.00  0.00     0.200 A 
ATOM     73  F   UNL A   1      48.234  31.899  26.799  1.00  0.00    -0.200 F 
ATOM     74  F   UNL A   1      46.203  33.356  25.708  1.00  0.00    -0.200 F 
ENDBRANCH  41  64
ENDBRANCH  15  16
ENDBRANCH   8  10
ENDBRANCH   5   6
ENDBRANCH   4   5
ENDBRANCH   3   4
ENDBRANCH   2   3
ENDBRANCH   1   2
BRANCH   1  75
ATOM     75  C   UNL A   1      32.356  28.072  27.032  1.00  0.00     0.116 C 
BRANCH  75  76
ATOM     76  N   UNL A   1      33.251  27.092  26.499  1.00  0.00    -0.354 N 
ATOM     77  C   UNL A   1      33.272  26.477  25.294  1.00  0.00     0.249 C 
ATOM     78  H   UNL A   1      33.972  26.819  27.112  1.00  0.00     0.163 HD
ATOM     79  O   UNL A   1      34.387  26.020  24.988  1.00  0.00    -0.272 OA
BRANCH  77  80
ATOM     80  C   UNL A   1      32.109  26.440  24.265  1.00  0.00     0.223 C 
ATOM     81  C   UNL A   1      31.162  27.588  23.970  1.00  0.00     0.071 A 
ATOM     82  N   UNL A   1      31.259  25.233  24.514  1.00  0.00    -0.325 N 
ATOM     83  N   UNL A   1      31.399  28.811  23.391  1.00  0.00    -0.346 N 
ATOM     84  C   UNL A   1      29.797  27.450  23.750  1.00  0.00     0.066 A 
ATOM     85  C   UNL A   1      30.201  25.059  23.525  1.00  0.00     0.127 C 
ATOM     86  C   UNL A   1      30.198  29.437  23.191  1.00  0.00     0.197 A 
ATOM     87  H   UNL A   1      32.284  29.176  23.158  1.00  0.00     0.167 HD
ATOM     88  N   UNL A   1      29.198  28.613  23.368  1.00  0.00    -0.242 NA
ATOM     89  C   UNL A   1      29.114  26.139  23.725  1.00  0.00     0.080 C 
BRANCH  82  90
ATOM     90  C   UNL A   1      30.963  24.830  25.828  1.00  0.00     0.223 C 
ATOM     91  O   UNL A   1      30.304  25.513  26.608  1.00  0.00    -0.275 OA
BRANCH  90  92
ATOM     92  C   UNL A   1      31.633  23.533  26.289  1.00  0.00     0.100 C 
BRANCH  92  93
ATOM     93  C   UNL A   1      31.147  22.200  25.730  1.00  0.00     0.015 C 
BRANCH  93  94
ATOM     94  C   UNL A   1      32.013  21.409  24.763  1.00  0.00     0.038 C 
BRANCH  94  95
ATOM     95  C   UNL A   1      33.306  21.909  24.142  1.00  0.00    -0.023 A 
ATOM     96  C   UNL A   1      33.247  22.905  23.175  1.00  0.00     0.087 A 
ATOM     97  C   UNL A   1      34.726  21.736  24.420  1.00  0.00     0.003 A 
ATOM     98  N   UNL A   1      34.482  23.450  23.011  1.00  0.00    -0.361 N 
ATOM     99  C   UNL A   1      35.391  22.809  23.808  1.00  0.00     0.046 A 
ATOM    100  C   UNL A   1      35.550  20.866  25.177  1.00  0.00     0.010 A 
ATOM    101  H   UNL A   1      34.692  24.199  22.407  1.00  0.00     0.166 HD
ATOM    102  C   UNL A   1      36.748  23.108  24.011  1.00  0.00     0.026 A 
ATOM    103  C   UNL A   1      36.928  21.095  25.316  1.00  0.00     0.001 A 
ATOM    104  C   UNL A   1      37.513  22.220  24.761  1.00  0.00     0.002 A 
ENDBRANCH  94  95
ENDBRANCH  93  94
ENDBRANCH  92  93
ENDBRANCH  90  92
ENDBRANCH  82  90
ENDBRANCH  77  80
ENDBRANCH  75  76
ENDBRANCH   1  75
TORSDOF 18
ENDMDL
