MODEL 1
REMARK VINA RESULT:     -13.4      0.000      0.000
REMARK SMILES CC(C)CCn1nc(C(=O)NCCCCCCNC(=O)c2ccc(-c3c4nc(c(-c5c(F)c(F)c(F)c(F)c5F)c5ccc([nH]5)c(-c5c(F)c(F)c(F)c(F)c5F)c5nc(c(-c6c(F)c(F)c(F)c(F)c6F)c6ccc3[nH]6)C=C5)C=C4)cc2)c2c1CCN(C(=O)[C@@H]1CCc3nn(C)c(=O)n3C1)C2
REMARK SMILES IDX 14 1 13 2 12 3 11 4 9 5 10 6 8 8 6 9 7 10 85 11 84 12 86 13
REMARK SMILES IDX 102 14 87 15 88 16 5 17 4 18 2 19 1 20 3 21 89 22 90 23
REMARK SMILES IDX 91 24 92 25 101 26 93 27 100 28 94 29 98 30 95 31 96 32
REMARK SMILES IDX 99 33 97 34 15 35 16 36 17 37 18 38 19 39 20 41 21 42 22 43
REMARK SMILES IDX 83 44 23 45 82 46 24 47 25 48 26 49 76 50 27 51 81 52 75 53
REMARK SMILES IDX 77 54 28 55 80 56 74 57 73 58 29 60 61 61 41 62 60 63 42 64
REMARK SMILES IDX 45 65 59 66 78 67 43 68 44 69 58 71 79 72 46 73 30 74 31 75
REMARK SMILES IDX 39 76 32 77 33 78 37 79 40 80 34 81 35 82 38 83 36 84 62 85
REMARK SMILES IDX 63 86 71 87 64 88 65 89 69 90 72 91 66 92 67 93 70 94 68 95
REMARK SMILES IDX 47 96 48 97 56 98 49 99 50 100 54 101 57 102 51 103 52 104
REMARK SMILES IDX 55 105 53 106
REMARK H PARENT 11 7 18 40 77 59 45 70
REMARK Flexibility Score: inf
ROOT
ATOM      1  C   UNL A   1      34.194  32.215  27.972  1.00  0.00     0.002 C 
ENDROOT
BRANCH   1   2
ATOM      2  C   UNL A   1      34.842  30.834  27.916  1.00  0.00     0.021 C 
BRANCH   2   3
ATOM      3  C   UNL A   1      34.155  29.817  26.980  1.00  0.00     0.116 C 
BRANCH   3   4
ATOM      4  N   UNL A   1      32.921  29.297  27.553  1.00  0.00    -0.351 N 
ATOM      5  C   UNL A   1      31.882  28.508  27.102  1.00  0.00     0.272 C 
ATOM      6  O   UNL A   1      31.135  28.095  27.997  1.00  0.00    -0.267 OA
ATOM      7  H   UNL A   1      32.798  29.577  28.488  1.00  0.00     0.163 HD
BRANCH   5   8
ATOM      8  C   UNL A   1      31.654  28.148  25.680  1.00  0.00     0.155 A 
ATOM      9  N   UNL A   1      31.037  28.496  23.629  1.00  0.00    -0.268 N 
ATOM     10  N   UNL A   1      31.087  29.062  24.853  1.00  0.00    -0.167 NA
ATOM     11  C   UNL A   1      31.408  27.193  23.682  1.00  0.00     0.046 A 
ATOM     12  C   UNL A   1      31.985  26.990  24.923  1.00  0.00     0.026 A 
ATOM     13  C   UNL A   1      31.264  26.111  22.685  1.00  0.00     0.078 C 
ATOM     14  C   UNL A   1      32.682  25.724  25.278  1.00  0.00     0.159 C 
ATOM     15  C   UNL A   1      31.328  24.807  23.486  1.00  0.00     0.126 C 
ATOM     16  N   UNL A   1      32.576  24.702  24.228  1.00  0.00    -0.338 N 
BRANCH   9  17
ATOM     17  C   UNL A   1      30.823  29.368  22.485  1.00  0.00     0.145 C 
BRANCH  17  18
ATOM     18  C   UNL A   1      29.390  29.750  22.088  1.00  0.00     0.027 C 
BRANCH  18  19
ATOM     19  C   UNL A   1      28.383  29.831  23.251  1.00  0.00    -0.016 C 
ATOM     20  C   UNL A   1      27.790  31.229  23.411  1.00  0.00     0.007 C 
ATOM     21  C   UNL A   1      27.262  28.809  23.034  1.00  0.00     0.007 C 
ENDBRANCH  18  19
ENDBRANCH  17  18
ENDBRANCH   9  17
BRANCH  16  22
ATOM     22  C   UNL A   1      33.441  23.626  24.301  1.00  0.00     0.227 C 
ATOM     23  O   UNL A   1      33.892  23.145  23.251  1.00  0.00    -0.274 OA
BRANCH  22  24
ATOM     24  C   UNL A   1      33.871  22.930  25.615  1.00  0.00     0.099 C 
ATOM     25  C   UNL A   1      35.381  22.805  25.833  1.00  0.00     0.023 C 
ATOM     26  C   UNL A   1      33.127  21.665  26.029  1.00  0.00     0.142 C 
ATOM     27  C   UNL A   1      36.011  21.551  25.245  1.00  0.00     0.078 C 
ATOM     28  N   UNL A   1      33.827  20.450  25.672  1.00  0.00    -0.278 N 
ATOM     29  C   UNL A   1      35.093  20.364  25.214  1.00  0.00     0.133 A 
ATOM     30  C   UNL A   1      33.188  19.302  25.258  1.00  0.00     0.345 A 
ATOM     31  N   UNL A   1      35.364  19.270  24.561  1.00  0.00    -0.155 NA
ATOM     32  N   UNL A   1      34.166  18.578  24.562  1.00  0.00    -0.216 N 
ATOM     33  O   UNL A   1      31.990  19.075  25.306  1.00  0.00    -0.246 OA
ATOM     34  C   UNL A   1      33.854  17.597  23.554  1.00  0.00     0.179 C 
ENDBRANCH  22  24
ENDBRANCH  16  22
ENDBRANCH   5   8
ENDBRANCH   3   4
ENDBRANCH   2   3
ENDBRANCH   1   2
BRANCH   1  35
ATOM     35  C   UNL A   1      35.182  33.383  28.126  1.00  0.00     0.002 C 
BRANCH  35  36
ATOM     36  C   UNL A   1      34.675  34.644  28.849  1.00  0.00     0.021 C 
BRANCH  36  37
ATOM     37  C   UNL A   1      33.269  34.517  29.414  1.00  0.00     0.116 C 
BRANCH  37  38
ATOM     38  N   UNL A   1      33.096  35.240  30.677  1.00  0.00    -0.352 N 
ATOM     39  C   UNL A   1      33.677  34.998  31.910  1.00  0.00     0.251 C 
ATOM     40  H   UNL A   1      32.477  36.004  30.644  1.00  0.00     0.163 HD
ATOM     41  O   UNL A   1      33.225  35.486  32.929  1.00  0.00    -0.269 OA
BRANCH  39  42
ATOM     42  C   UNL A   1      34.864  34.127  31.967  1.00  0.00     0.039 A 
ATOM     43  C   UNL A   1      34.764  32.741  31.800  1.00  0.00     0.014 A 
ATOM     44  C   UNL A   1      36.099  34.729  32.165  1.00  0.00     0.014 A 
ATOM     45  C   UNL A   1      35.933  31.985  31.761  1.00  0.00     0.010 A 
ATOM     46  C   UNL A   1      37.242  34.022  31.924  1.00  0.00     0.010 A 
ATOM     47  C   UNL A   1      37.173  32.640  31.809  1.00  0.00    -0.014 A 
BRANCH  47  48
ATOM     48  C   UNL A   1      38.427  31.911  31.666  1.00  0.00     0.031 A 
ATOM     49  C   UNL A   1      39.127  31.607  32.944  1.00  0.00     0.074 A 
ATOM     50  C   UNL A   1      38.790  31.347  30.493  1.00  0.00     0.049 A 
ATOM     51  N   UNL A   1      40.308  31.978  33.313  1.00  0.00    -0.248 NA
ATOM     52  C   UNL A   1      38.377  30.888  33.990  1.00  0.00     0.031 C 
ATOM     53  C   UNL A   1      38.036  31.306  29.230  1.00  0.00     0.029 A 
ATOM     54  N   UNL A   1      39.872  30.574  30.211  1.00  0.00    -0.354 N 
ATOM     55  C   UNL A   1      40.529  31.389  34.558  1.00  0.00     0.074 A 
ATOM     56  C   UNL A   1      39.256  30.879  34.994  1.00  0.00     0.031 C 
ATOM     57  C   UNL A   1      38.551  30.356  28.421  1.00  0.00     0.029 A 
ATOM     58  C   UNL A   1      39.776  29.866  29.020  1.00  0.00     0.049 A 
ATOM     59  H   UNL A   1      40.658  30.520  30.801  1.00  0.00     0.167 HD
ATOM     60  C   UNL A   1      41.795  31.151  35.000  1.00  0.00     0.037 A 
ATOM     61  C   UNL A   1      40.633  28.922  28.565  1.00  0.00     0.037 A 
ATOM     62  C   UNL A   1      42.751  31.951  34.273  1.00  0.00     0.049 A 
ATOM     63  C   UNL A   1      41.910  29.112  29.290  1.00  0.00     0.074 A 
ATOM     64  C   UNL A   1      42.968  33.304  34.106  1.00  0.00     0.029 A 
ATOM     65  N   UNL A   1      43.464  31.337  33.273  1.00  0.00    -0.354 N 
ATOM     66  N   UNL A   1      42.670  30.164  29.157  1.00  0.00    -0.248 NA
ATOM     67  C   UNL A   1      42.120  28.339  30.504  1.00  0.00     0.031 C 
ATOM     68  C   UNL A   1      43.393  33.446  32.749  1.00  0.00     0.029 A 
ATOM     69  C   UNL A   1      43.467  32.171  32.187  1.00  0.00     0.049 A 
ATOM     70  H   UNL A   1      43.895  30.454  33.327  1.00  0.00     0.167 HD
ATOM     71  C   UNL A   1      43.135  30.427  30.437  1.00  0.00     0.074 A 
ATOM     72  C   UNL A   1      42.850  29.214  31.199  1.00  0.00     0.031 C 
ATOM     73  C   UNL A   1      43.440  31.703  30.821  1.00  0.00     0.037 A 
BRANCH  60  74
ATOM     74  C   UNL A   1      42.217  29.911  35.766  1.00  0.00     0.064 A 
ATOM     75  C   UNL A   1      43.166  30.050  36.802  1.00  0.00     0.173 A 
ATOM     76  C   UNL A   1      42.001  28.588  35.322  1.00  0.00     0.173 A 
ATOM     77  F   UNL A   1      43.448  31.256  37.317  1.00  0.00    -0.203 F 
ATOM     78  C   UNL A   1      43.930  28.971  37.257  1.00  0.00     0.198 A 
ATOM     79  C   UNL A   1      42.731  27.507  35.814  1.00  0.00     0.198 A 
ATOM     80  F   UNL A   1      41.164  28.290  34.323  1.00  0.00    -0.203 F 
ATOM     81  F   UNL A   1      44.924  29.181  38.130  1.00  0.00    -0.200 F 
ATOM     82  C   UNL A   1      43.723  27.702  36.749  1.00  0.00     0.200 A 
ATOM     83  F   UNL A   1      42.519  26.286  35.301  1.00  0.00    -0.200 F 
ATOM     84  F   UNL A   1      44.507  26.682  37.120  1.00  0.00    -0.200 F 
ENDBRANCH  60  74
BRANCH  61  85
ATOM     85  C   UNL A   1      40.310  27.695  27.801  1.00  0.00     0.064 A 
ATOM     86  C   UNL A   1      41.002  27.371  26.624  1.00  0.00     0.173 A 
ATOM     87  C   UNL A   1      39.509  26.678  28.358  1.00  0.00     0.173 A 
ATOM     88  F   UNL A   1      41.823  28.266  26.058  1.00  0.00    -0.203 F 
ATOM     89  C   UNL A   1      40.918  26.096  26.053  1.00  0.00     0.198 A 
ATOM     90  C   UNL A   1      39.421  25.410  27.785  1.00  0.00     0.198 A 
ATOM     91  F   UNL A   1      38.876  26.866  29.525  1.00  0.00    -0.203 F 
ATOM     92  F   UNL A   1      41.644  25.802  24.965  1.00  0.00    -0.200 F 
ATOM     93  C   UNL A   1      40.136  25.114  26.640  1.00  0.00     0.200 A 
ATOM     94  F   UNL A   1      38.696  24.456  28.387  1.00  0.00    -0.200 F 
ATOM     95  F   UNL A   1      40.108  23.875  26.129  1.00  0.00    -0.200 F 
ENDBRANCH  61  85
BRANCH  73  96
ATOM     96  C   UNL A   1      43.525  32.753  29.747  1.00  0.00     0.064 A 
ATOM     97  C   UNL A   1      42.482  33.640  29.429  1.00  0.00     0.173 A 
ATOM     98  C   UNL A   1      44.760  32.965  29.123  1.00  0.00     0.173 A 
ATOM     99  F   UNL A   1      41.301  33.567  30.051  1.00  0.00    -0.203 F 
ATOM    100  C   UNL A   1      42.658  34.665  28.501  1.00  0.00     0.198 A 
ATOM    101  C   UNL A   1      44.945  34.010  28.222  1.00  0.00     0.198 A 
ATOM    102  F   UNL A   1      45.808  32.183  29.428  1.00  0.00    -0.203 F 
ATOM    103  F   UNL A   1      41.644  35.492  28.211  1.00  0.00    -0.200 F 
ATOM    104  C   UNL A   1      43.893  34.854  27.905  1.00  0.00     0.200 A 
ATOM    105  F   UNL A   1      46.155  34.218  27.684  1.00  0.00    -0.200 F 
ATOM    106  F   UNL A   1      44.078  35.866  27.045  1.00  0.00    -0.200 F 
ENDBRANCH  73  96
ENDBRANCH  47  48
ENDBRANCH  39  42
ENDBRANCH  37  38
ENDBRANCH  36  37
ENDBRANCH  35  36
ENDBRANCH   1  35
TORSDOF 18
ENDMDL
MODEL 2
REMARK VINA RESULT:     -13.2      2.115      6.302
REMARK SMILES CC(C)CCn1nc(C(=O)NCCCCCCNC(=O)c2ccc(-c3c4nc(c(-c5c(F)c(F)c(F)c(F)c5F)c5ccc([nH]5)c(-c5c(F)c(F)c(F)c(F)c5F)c5nc(c(-c6c(F)c(F)c(F)c(F)c6F)c6ccc3[nH]6)C=C5)C=C4)cc2)c2c1CCN(C(=O)[C@@H]1CCc3nn(C)c(=O)n3C1)C2
REMARK SMILES IDX 14 1 13 2 12 3 11 4 9 5 10 6 8 8 6 9 7 10 85 11 84 12 86 13
REMARK SMILES IDX 102 14 87 15 88 16 5 17 4 18 2 19 1 20 3 21 89 22 90 23
REMARK SMILES IDX 91 24 92 25 101 26 93 27 100 28 94 29 98 30 95 31 96 32
REMARK SMILES IDX 99 33 97 34 15 35 16 36 17 37 18 38 19 39 20 41 21 42 22 43
REMARK SMILES IDX 83 44 23 45 82 46 24 47 25 48 26 49 76 50 27 51 81 52 75 53
REMARK SMILES IDX 77 54 28 55 80 56 74 57 73 58 29 60 61 61 41 62 60 63 42 64
REMARK SMILES IDX 45 65 59 66 78 67 43 68 44 69 58 71 79 72 46 73 30 74 31 75
REMARK SMILES IDX 39 76 32 77 33 78 37 79 40 80 34 81 35 82 38 83 36 84 62 85
REMARK SMILES IDX 63 86 71 87 64 88 65 89 69 90 72 91 66 92 67 93 70 94 68 95
REMARK SMILES IDX 47 96 48 97 56 98 49 99 50 100 54 101 57 102 51 103 52 104
REMARK SMILES IDX 55 105 53 106
REMARK H PARENT 11 7 18 40 77 59 45 70
REMARK Flexibility Score: inf
ROOT
ATOM      1  C   UNL A   1      31.794  29.283  26.623  1.00  0.00     0.002 C 
ENDROOT
BRANCH   1   2
ATOM      2  C   UNL A   1      33.024  28.517  26.145  1.00  0.00     0.021 C 
BRANCH   2   3
ATOM      3  C   UNL A   1      34.109  29.369  25.451  1.00  0.00     0.116 C 
BRANCH   3   4
ATOM      4  N   UNL A   1      34.365  28.920  24.089  1.00  0.00    -0.351 N 
ATOM      5  C   UNL A   1      33.589  28.504  23.027  1.00  0.00     0.272 C 
ATOM      6  O   UNL A   1      34.195  28.441  21.951  1.00  0.00    -0.267 OA
ATOM      7  H   UNL A   1      35.326  28.913  23.875  1.00  0.00     0.163 HD
BRANCH   5   8
ATOM      8  C   UNL A   1      32.146  28.167  23.120  1.00  0.00     0.155 A 
ATOM      9  N   UNL A   1      30.015  28.539  22.946  1.00  0.00    -0.268 N 
ATOM     10  N   UNL A   1      31.227  29.120  22.822  1.00  0.00    -0.167 NA
ATOM     11  C   UNL A   1      30.127  27.292  23.467  1.00  0.00     0.046 A 
ATOM     12  C   UNL A   1      31.467  26.952  23.412  1.00  0.00     0.026 A 
ATOM     13  C   UNL A   1      29.098  26.389  24.025  1.00  0.00     0.078 C 
ATOM     14  C   UNL A   1      31.952  25.581  23.726  1.00  0.00     0.159 C 
ATOM     15  C   UNL A   1      29.857  25.423  24.941  1.00  0.00     0.126 C 
ATOM     16  N   UNL A   1      30.883  24.695  24.207  1.00  0.00    -0.338 N 
BRANCH   9  17
ATOM     17  C   UNL A   1      28.876  29.208  22.337  1.00  0.00     0.145 C 
BRANCH  17  18
ATOM     18  C   UNL A   1      28.088  30.243  23.151  1.00  0.00     0.027 C 
BRANCH  18  19
ATOM     19  C   UNL A   1      27.902  31.613  22.473  1.00  0.00    -0.016 C 
ATOM     20  C   UNL A   1      28.755  32.702  23.119  1.00  0.00     0.007 C 
ATOM     21  C   UNL A   1      28.240  31.500  20.983  1.00  0.00     0.007 C 
ENDBRANCH  18  19
ENDBRANCH  17  18
ENDBRANCH   9  17
BRANCH  16  22
ATOM     22  C   UNL A   1      31.142  23.337  24.217  1.00  0.00     0.227 C 
ATOM     23  O   UNL A   1      31.287  22.745  23.137  1.00  0.00    -0.274 OA
BRANCH  22  24
ATOM     24  C   UNL A   1      31.227  22.467  25.494  1.00  0.00     0.099 C 
ATOM     25  C   UNL A   1      31.611  23.210  26.776  1.00  0.00     0.023 C 
ATOM     26  C   UNL A   1      31.919  21.112  25.389  1.00  0.00     0.142 C 
ATOM     27  C   UNL A   1      33.108  23.309  27.035  1.00  0.00     0.078 C 
ATOM     28  N   UNL A   1      33.292  21.137  25.845  1.00  0.00    -0.278 N 
ATOM     29  C   UNL A   1      33.897  22.151  26.498  1.00  0.00     0.133 A 
ATOM     30  C   UNL A   1      34.297  20.400  25.260  1.00  0.00     0.345 A 
ATOM     31  N   UNL A   1      35.198  22.147  26.424  1.00  0.00    -0.155 NA
ATOM     32  N   UNL A   1      35.482  21.050  25.632  1.00  0.00    -0.216 N 
ATOM     33  O   UNL A   1      34.166  19.513  24.433  1.00  0.00    -0.246 OA
ATOM     34  C   UNL A   1      36.706  20.954  24.877  1.00  0.00     0.179 C 
ENDBRANCH  22  24
ENDBRANCH  16  22
ENDBRANCH   5   8
ENDBRANCH   3   4
ENDBRANCH   2   3
ENDBRANCH   1   2
BRANCH   1  35
ATOM     35  C   UNL A   1      31.419  30.499  25.761  1.00  0.00     0.002 C 
BRANCH  35  36
ATOM     36  C   UNL A   1      31.159  31.829  26.492  1.00  0.00     0.021 C 
BRANCH  36  37
ATOM     37  C   UNL A   1      32.391  32.427  27.155  1.00  0.00     0.116 C 
BRANCH  37  38
ATOM     38  N   UNL A   1      32.202  33.826  27.548  1.00  0.00    -0.352 N 
ATOM     39  C   UNL A   1      32.925  34.585  28.452  1.00  0.00     0.251 C 
ATOM     40  H   UNL A   1      31.455  34.291  27.109  1.00  0.00     0.163 HD
ATOM     41  O   UNL A   1      32.484  35.629  28.897  1.00  0.00    -0.269 OA
BRANCH  39  42
ATOM     42  C   UNL A   1      34.251  34.100  28.874  1.00  0.00     0.039 A 
ATOM     43  C   UNL A   1      34.431  33.420  30.084  1.00  0.00     0.014 A 
ATOM     44  C   UNL A   1      35.321  34.314  28.016  1.00  0.00     0.014 A 
ATOM     45  C   UNL A   1      35.688  32.895  30.377  1.00  0.00     0.010 A 
ATOM     46  C   UNL A   1      36.487  33.630  28.207  1.00  0.00     0.010 A 
ATOM     47  C   UNL A   1      36.710  32.993  29.421  1.00  0.00    -0.014 A 
BRANCH  47  48
ATOM     48  C   UNL A   1      38.012  32.372  29.629  1.00  0.00     0.031 A 
ATOM     49  C   UNL A   1      38.102  30.946  29.214  1.00  0.00     0.074 A 
ATOM     50  C   UNL A   1      39.105  33.104  29.938  1.00  0.00     0.049 A 
ATOM     51  N   UNL A   1      38.385  29.920  29.947  1.00  0.00    -0.248 NA
ATOM     52  C   UNL A   1      37.724  30.601  27.832  1.00  0.00     0.031 C 
ATOM     53  C   UNL A   1      39.216  34.565  30.069  1.00  0.00     0.029 A 
ATOM     54  N   UNL A   1      40.394  32.700  30.085  1.00  0.00    -0.354 N 
ATOM     55  C   UNL A   1      38.406  28.822  29.087  1.00  0.00     0.074 A 
ATOM     56  C   UNL A   1      37.829  29.271  27.847  1.00  0.00     0.031 C 
ATOM     57  C   UNL A   1      40.514  34.931  30.021  1.00  0.00     0.029 A 
ATOM     58  C   UNL A   1      41.325  33.731  30.054  1.00  0.00     0.049 A 
ATOM     59  H   UNL A   1      40.648  31.756  30.203  1.00  0.00     0.167 HD
ATOM     60  C   UNL A   1      39.131  27.711  29.394  1.00  0.00     0.037 A 
ATOM     61  C   UNL A   1      42.673  33.607  30.035  1.00  0.00     0.037 A 
ATOM     62  C   UNL A   1      39.441  27.674  30.804  1.00  0.00     0.049 A 
ATOM     63  C   UNL A   1      42.990  32.248  30.530  1.00  0.00     0.074 A 
ATOM     64  C   UNL A   1      38.699  27.621  31.967  1.00  0.00     0.029 A 
ATOM     65  N   UNL A   1      40.701  28.058  31.188  1.00  0.00    -0.354 N 
ATOM     66  N   UNL A   1      42.762  31.850  31.752  1.00  0.00    -0.248 NA
ATOM     67  C   UNL A   1      43.145  31.189  29.547  1.00  0.00     0.031 C 
ATOM     68  C   UNL A   1      39.415  28.433  32.899  1.00  0.00     0.029 A 
ATOM     69  C   UNL A   1      40.577  28.884  32.272  1.00  0.00     0.049 A 
ATOM     70  H   UNL A   1      41.545  27.787  30.758  1.00  0.00     0.167 HD
ATOM     71  C   UNL A   1      42.320  30.542  31.620  1.00  0.00     0.074 A 
ATOM     72  C   UNL A   1      42.677  30.159  30.256  1.00  0.00     0.031 C 
ATOM     73  C   UNL A   1      41.455  30.002  32.529  1.00  0.00     0.037 A 
BRANCH  60  74
ATOM     74  C   UNL A   1      39.920  26.896  28.387  1.00  0.00     0.064 A 
ATOM     75  C   UNL A   1      39.770  25.492  28.390  1.00  0.00     0.173 A 
ATOM     76  C   UNL A   1      41.037  27.379  27.671  1.00  0.00     0.173 A 
ATOM     77  F   UNL A   1      38.739  24.914  29.026  1.00  0.00    -0.203 F 
ATOM     78  C   UNL A   1      40.734  24.642  27.839  1.00  0.00     0.198 A 
ATOM     79  C   UNL A   1      41.970  26.528  27.079  1.00  0.00     0.198 A 
ATOM     80  F   UNL A   1      41.343  28.679  27.602  1.00  0.00    -0.203 F 
ATOM     81  F   UNL A   1      40.624  23.317  28.003  1.00  0.00    -0.200 F 
ATOM     82  C   UNL A   1      41.842  25.162  27.199  1.00  0.00     0.200 A 
ATOM     83  F   UNL A   1      43.042  27.055  26.469  1.00  0.00    -0.200 F 
ATOM     84  F   UNL A   1      42.808  24.355  26.742  1.00  0.00    -0.200 F 
ENDBRANCH  60  74
BRANCH  61  85
ATOM     85  C   UNL A   1      43.653  34.458  29.321  1.00  0.00     0.064 A 
ATOM     86  C   UNL A   1      43.903  34.283  27.952  1.00  0.00     0.173 A 
ATOM     87  C   UNL A   1      44.156  35.638  29.906  1.00  0.00     0.173 A 
ATOM     88  F   UNL A   1      43.417  33.212  27.310  1.00  0.00    -0.203 F 
ATOM     89  C   UNL A   1      44.595  35.245  27.206  1.00  0.00     0.198 A 
ATOM     90  C   UNL A   1      44.850  36.592  29.163  1.00  0.00     0.198 A 
ATOM     91  F   UNL A   1      43.896  35.932  31.189  1.00  0.00    -0.203 F 
ATOM     92  F   UNL A   1      44.759  35.075  25.886  1.00  0.00    -0.200 F 
ATOM     93  C   UNL A   1      45.058  36.403  27.810  1.00  0.00     0.200 A 
ATOM     94  F   UNL A   1      45.254  37.728  29.750  1.00  0.00    -0.200 F 
ATOM     95  F   UNL A   1      45.662  37.352  27.082  1.00  0.00    -0.200 F 
ENDBRANCH  61  85
BRANCH  73  96
ATOM     96  C   UNL A   1      41.224  30.760  33.808  1.00  0.00     0.064 A 
ATOM     97  C   UNL A   1      40.183  31.686  33.996  1.00  0.00     0.173 A 
ATOM     98  C   UNL A   1      41.993  30.422  34.927  1.00  0.00     0.173 A 
ATOM     99  F   UNL A   1      39.342  31.991  33.004  1.00  0.00    -0.203 F 
ATOM    100  C   UNL A   1      39.951  32.275  35.239  1.00  0.00     0.198 A 
ATOM    101  C   UNL A   1      41.739  30.984  36.176  1.00  0.00     0.198 A 
ATOM    102  F   UNL A   1      42.965  29.503  34.820  1.00  0.00    -0.203 F 
ATOM    103  F   UNL A   1      38.957  33.161  35.389  1.00  0.00    -0.200 F 
ATOM    104  C   UNL A   1      40.724  31.915  36.330  1.00  0.00     0.200 A 
ATOM    105  F   UNL A   1      42.459  30.598  37.238  1.00  0.00    -0.200 F 
ATOM    106  F   UNL A   1      40.475  32.447  37.535  1.00  0.00    -0.200 F 
ENDBRANCH  73  96
ENDBRANCH  47  48
ENDBRANCH  39  42
ENDBRANCH  37  38
ENDBRANCH  36  37
ENDBRANCH  35  36
ENDBRANCH   1  35
TORSDOF 18
ENDMDL
MODEL 3
REMARK VINA RESULT:     -12.8      3.198      9.758
REMARK SMILES CC(C)CCn1nc(C(=O)NCCCCCCNC(=O)c2ccc(-c3c4nc(c(-c5c(F)c(F)c(F)c(F)c5F)c5ccc([nH]5)c(-c5c(F)c(F)c(F)c(F)c5F)c5nc(c(-c6c(F)c(F)c(F)c(F)c6F)c6ccc3[nH]6)C=C5)C=C4)cc2)c2c1CCN(C(=O)[C@@H]1CCc3nn(C)c(=O)n3C1)C2
REMARK SMILES IDX 14 1 13 2 12 3 11 4 9 5 10 6 8 8 6 9 7 10 85 11 84 12 86 13
REMARK SMILES IDX 102 14 87 15 88 16 5 17 4 18 2 19 1 20 3 21 89 22 90 23
REMARK SMILES IDX 91 24 92 25 101 26 93 27 100 28 94 29 98 30 95 31 96 32
REMARK SMILES IDX 99 33 97 34 15 35 16 36 17 37 18 38 19 39 20 41 21 42 22 43
REMARK SMILES IDX 83 44 23 45 82 46 24 47 25 48 26 49 76 50 27 51 81 52 75 53
REMARK SMILES IDX 77 54 28 55 80 56 74 57 73 58 29 60 61 61 41 62 60 63 42 64
REMARK SMILES IDX 45 65 59 66 78 67 43 68 44 69 58 71 79 72 46 73 30 74 31 75
REMARK SMILES IDX 39 76 32 77 33 78 37 79 40 80 34 81 35 82 38 83 36 84 62 85
REMARK SMILES IDX 63 86 71 87 64 88 65 89 69 90 72 91 66 92 67 93 70 94 68 95
REMARK SMILES IDX 47 96 48 97 56 98 49 99 50 100 54 101 57 102 51 103 52 104
REMARK SMILES IDX 55 105 53 106
REMARK H PARENT 11 7 18 40 77 59 45 70
REMARK Flexibility Score: inf
ROOT
ATOM      1  C   UNL A   1      40.317  22.202  27.071  1.00  0.00     0.002 C 
ENDROOT
BRANCH   1   2
ATOM      2  C   UNL A   1      39.270  23.139  26.476  1.00  0.00     0.021 C 
BRANCH   2   3
ATOM      3  C   UNL A   1      37.944  22.471  26.054  1.00  0.00     0.116 C 
BRANCH   3   4
ATOM      4  N   UNL A   1      37.725  22.554  24.616  1.00  0.00    -0.351 N 
ATOM      5  C   UNL A   1      36.624  22.521  23.785  1.00  0.00     0.272 C 
ATOM      6  O   UNL A   1      36.857  22.874  22.622  1.00  0.00    -0.267 OA
ATOM      7  H   UNL A   1      38.566  22.660  24.118  1.00  0.00     0.163 HD
BRANCH   5   8
ATOM      8  C   UNL A   1      35.260  22.120  24.209  1.00  0.00     0.155 A 
ATOM      9  N   UNL A   1      33.745  20.760  24.962  1.00  0.00    -0.268 N 
ATOM     10  N   UNL A   1      35.041  20.837  24.592  1.00  0.00    -0.167 NA
ATOM     11  C   UNL A   1      33.092  21.914  24.678  1.00  0.00     0.046 A 
ATOM     12  C   UNL A   1      34.056  22.859  24.378  1.00  0.00     0.026 A 
ATOM     13  C   UNL A   1      31.645  22.216  24.648  1.00  0.00     0.078 C 
ATOM     14  C   UNL A   1      33.728  24.299  24.194  1.00  0.00     0.159 C 
ATOM     15  C   UNL A   1      31.503  23.444  23.742  1.00  0.00     0.126 C 
ATOM     16  N   UNL A   1      32.284  24.565  24.245  1.00  0.00    -0.338 N 
BRANCH   9  17
ATOM     17  C   UNL A   1      33.332  19.615  25.757  1.00  0.00     0.145 C 
BRANCH  17  18
ATOM     18  C   UNL A   1      32.708  18.400  25.057  1.00  0.00     0.027 C 
BRANCH  18  19
ATOM     19  C   UNL A   1      33.668  17.225  24.793  1.00  0.00    -0.016 C 
ATOM     20  C   UNL A   1      33.143  15.906  25.354  1.00  0.00     0.007 C 
ATOM     21  C   UNL A   1      33.916  17.091  23.287  1.00  0.00     0.007 C 
ENDBRANCH  18  19
ENDBRANCH  17  18
ENDBRANCH   9  17
BRANCH  16  22
ATOM     22  C   UNL A   1      31.887  25.878  24.412  1.00  0.00     0.227 C 
ATOM     23  O   UNL A   1      30.801  26.112  24.964  1.00  0.00    -0.274 OA
BRANCH  22  24
ATOM     24  C   UNL A   1      32.686  27.109  23.920  1.00  0.00     0.099 C 
ATOM     25  C   UNL A   1      33.264  28.005  25.019  1.00  0.00     0.023 C 
ATOM     26  C   UNL A   1      32.107  27.920  22.766  1.00  0.00     0.142 C 
ATOM     27  C   UNL A   1      32.331  29.106  25.503  1.00  0.00     0.078 C 
ATOM     28  N   UNL A   1      31.399  29.105  23.202  1.00  0.00    -0.278 N 
ATOM     29  C   UNL A   1      31.389  29.614  24.452  1.00  0.00     0.133 A 
ATOM     30  C   UNL A   1      30.264  29.579  22.583  1.00  0.00     0.345 A 
ATOM     31  N   UNL A   1      30.378  30.392  24.715  1.00  0.00    -0.155 NA
ATOM     32  N   UNL A   1      29.637  30.380  23.547  1.00  0.00    -0.216 N 
ATOM     33  O   UNL A   1      29.806  29.209  21.514  1.00  0.00    -0.246 OA
ATOM     34  C   UNL A   1      28.224  30.663  23.540  1.00  0.00     0.179 C 
ENDBRANCH  22  24
ENDBRANCH  16  22
ENDBRANCH   5   8
ENDBRANCH   3   4
ENDBRANCH   2   3
ENDBRANCH   1   2
BRANCH   1  35
ATOM     35  C   UNL A   1      40.095  20.712  26.764  1.00  0.00     0.002 C 
BRANCH  35  36
ATOM     36  C   UNL A   1      41.018  20.063  25.717  1.00  0.00     0.021 C 
BRANCH  36  37
ATOM     37  C   UNL A   1      42.415  19.745  26.228  1.00  0.00     0.116 C 
BRANCH  37  38
ATOM     38  N   UNL A   1      43.460  20.026  25.240  1.00  0.00    -0.352 N 
ATOM     39  C   UNL A   1      43.977  21.245  24.836  1.00  0.00     0.251 C 
ATOM     40  H   UNL A   1      43.848  19.236  24.800  1.00  0.00     0.163 HD
ATOM     41  O   UNL A   1      44.622  21.349  23.809  1.00  0.00    -0.269 OA
BRANCH  39  42
ATOM     42  C   UNL A   1      43.726  22.428  25.678  1.00  0.00     0.039 A 
ATOM     43  C   UNL A   1      44.296  22.556  26.949  1.00  0.00     0.014 A 
ATOM     44  C   UNL A   1      42.922  23.433  25.158  1.00  0.00     0.014 A 
ATOM     45  C   UNL A   1      44.105  23.743  27.653  1.00  0.00     0.010 A 
ATOM     46  C   UNL A   1      42.906  24.661  25.754  1.00  0.00     0.010 A 
ATOM     47  C   UNL A   1      43.418  24.800  27.037  1.00  0.00    -0.014 A 
BRANCH  47  48
ATOM     48  C   UNL A   1      43.279  26.099  27.682  1.00  0.00     0.031 A 
ATOM     49  C   UNL A   1      44.251  27.133  27.234  1.00  0.00     0.074 A 
ATOM     50  C   UNL A   1      42.200  26.403  28.438  1.00  0.00     0.049 A 
ATOM     51  N   UNL A   1      45.125  27.765  27.944  1.00  0.00    -0.248 NA
ATOM     52  C   UNL A   1      44.336  27.423  25.791  1.00  0.00     0.031 C 
ATOM     53  C   UNL A   1      41.012  25.577  28.705  1.00  0.00     0.029 A 
ATOM     54  N   UNL A   1      41.877  27.579  29.038  1.00  0.00    -0.354 N 
ATOM     55  C   UNL A   1      45.747  28.668  27.081  1.00  0.00     0.074 A 
ATOM     56  C   UNL A   1      45.345  28.295  25.751  1.00  0.00     0.031 C 
ATOM     57  C   UNL A   1      40.015  26.351  29.184  1.00  0.00     0.029 A 
ATOM     58  C   UNL A   1      40.550  27.673  29.439  1.00  0.00     0.049 A 
ATOM     59  H   UNL A   1      42.528  28.304  29.177  1.00  0.00     0.167 HD
ATOM     60  C   UNL A   1      46.334  29.799  27.563  1.00  0.00     0.037 A 
ATOM     61  C   UNL A   1      39.925  28.769  29.928  1.00  0.00     0.037 A 
ATOM     62  C   UNL A   1      46.597  29.678  28.977  1.00  0.00     0.049 A 
ATOM     63  C   UNL A   1      40.981  29.690  30.409  1.00  0.00     0.074 A 
ATOM     64  C   UNL A   1      47.364  28.839  29.761  1.00  0.00     0.029 A 
ATOM     65  N   UNL A   1      45.728  30.297  29.840  1.00  0.00    -0.354 N 
ATOM     66  N   UNL A   1      41.765  29.430  31.419  1.00  0.00    -0.248 NA
ATOM     67  C   UNL A   1      41.464  30.704  29.487  1.00  0.00     0.031 C 
ATOM     68  C   UNL A   1      46.598  28.644  30.951  1.00  0.00     0.029 A 
ATOM     69  C   UNL A   1      45.442  29.418  30.850  1.00  0.00     0.049 A 
ATOM     70  H   UNL A   1      45.373  31.211  29.748  1.00  0.00     0.167 HD
ATOM     71  C   UNL A   1      43.006  29.915  31.035  1.00  0.00     0.074 A 
ATOM     72  C   UNL A   1      42.736  30.778  29.888  1.00  0.00     0.031 C 
ATOM     73  C   UNL A   1      44.155  29.342  31.503  1.00  0.00     0.037 A 
BRANCH  60  74
ATOM     74  C   UNL A   1      46.278  31.151  26.879  1.00  0.00     0.064 A 
ATOM     75  C   UNL A   1      47.465  31.912  26.792  1.00  0.00     0.173 A 
ATOM     76  C   UNL A   1      45.088  31.864  26.617  1.00  0.00     0.173 A 
ATOM     77  F   UNL A   1      48.661  31.344  27.008  1.00  0.00    -0.203 F 
ATOM     78  C   UNL A   1      47.445  33.296  26.596  1.00  0.00     0.198 A 
ATOM     79  C   UNL A   1      45.077  33.236  26.372  1.00  0.00     0.198 A 
ATOM     80  F   UNL A   1      43.877  31.300  26.694  1.00  0.00    -0.203 F 
ATOM     81  F   UNL A   1      48.585  33.996  26.677  1.00  0.00    -0.200 F 
ATOM     82  C   UNL A   1      46.249  33.960  26.403  1.00  0.00     0.200 A 
ATOM     83  F   UNL A   1      43.903  33.861  26.194  1.00  0.00    -0.200 F 
ATOM     84  F   UNL A   1      46.217  35.294  26.296  1.00  0.00    -0.200 F 
ENDBRANCH  60  74
BRANCH  61  85
ATOM     85  C   UNL A   1      38.523  29.190  29.706  1.00  0.00     0.064 A 
ATOM     86  C   UNL A   1      37.697  29.559  30.780  1.00  0.00     0.173 A 
ATOM     87  C   UNL A   1      38.051  29.503  28.415  1.00  0.00     0.173 A 
ATOM     88  F   UNL A   1      38.095  29.340  32.041  1.00  0.00    -0.203 F 
ATOM     89  C   UNL A   1      36.484  30.225  30.574  1.00  0.00     0.198 A 
ATOM     90  C   UNL A   1      36.840  30.162  28.212  1.00  0.00     0.198 A 
ATOM     91  F   UNL A   1      38.807  29.264  27.333  1.00  0.00    -0.203 F 
ATOM     92  F   UNL A   1      35.753  30.621  31.626  1.00  0.00    -0.200 F 
ATOM     93  C   UNL A   1      36.062  30.536  29.292  1.00  0.00     0.200 A 
ATOM     94  F   UNL A   1      36.463  30.495  26.969  1.00  0.00    -0.200 F 
ATOM     95  F   UNL A   1      34.933  31.231  29.099  1.00  0.00    -0.200 F 
ENDBRANCH  61  85
BRANCH  73  96
ATOM     96  C   UNL A   1      44.036  28.373  32.646  1.00  0.00     0.064 A 
ATOM     97  C   UNL A   1      43.884  26.983  32.487  1.00  0.00     0.173 A 
ATOM     98  C   UNL A   1      44.234  28.851  33.946  1.00  0.00     0.173 A 
ATOM     99  F   UNL A   1      43.786  26.435  31.273  1.00  0.00    -0.203 F 
ATOM    100  C   UNL A   1      43.890  26.123  33.584  1.00  0.00     0.198 A 
ATOM    101  C   UNL A   1      44.276  27.987  35.037  1.00  0.00     0.198 A 
ATOM    102  F   UNL A   1      44.439  30.162  34.154  1.00  0.00    -0.203 F 
ATOM    103  F   UNL A   1      43.736  24.803  33.404  1.00  0.00    -0.200 F 
ATOM    104  C   UNL A   1      44.096  26.625  34.857  1.00  0.00     0.200 A 
ATOM    105  F   UNL A   1      44.522  28.473  36.262  1.00  0.00    -0.200 F 
ATOM    106  F   UNL A   1      44.147  25.795  35.909  1.00  0.00    -0.200 F 
ENDBRANCH  73  96
ENDBRANCH  47  48
ENDBRANCH  39  42
ENDBRANCH  37  38
ENDBRANCH  36  37
ENDBRANCH  35  36
ENDBRANCH   1  35
TORSDOF 18
ENDMDL
