MODEL 1
REMARK VINA RESULT:     -12.2      0.000      0.000
REMARK SMILES Cc1cc(C)cc(Nc2nc(C)cc(C(=O)NCCCCCCNC(=O)c3ccc(-c4c5nc(c(-c6c(F)c(F)c(F)c(F)c6F)c6ccc([nH]6)c(-c6c(F)c(F)c(F)c(F)c6F)c6nc(c(-c7c(F)c(F)c(F)c(F)c7F)c7ccc4[nH]7)C=C6)C=C5)cc3)n2)c1
REMARK SMILES IDX 20 1 19 2 18 3 17 4 15 5 16 6 14 8 9 9 10 10 90 11 11 12
REMARK SMILES IDX 12 13 13 14 8 15 7 17 1 18 2 19 3 20 91 21 4 22 5 23 6 24
REMARK SMILES IDX 21 25 22 26 23 27 24 28 25 29 26 31 27 32 28 33 89 34 29 35
REMARK SMILES IDX 88 36 30 37 31 38 32 39 82 40 33 41 87 42 81 43 83 44 34 45
REMARK SMILES IDX 86 46 80 47 79 48 35 50 67 51 47 52 66 53 48 54 51 55 65 56
REMARK SMILES IDX 84 57 49 58 50 59 64 61 85 62 52 63 36 64 37 65 45 66 38 67
REMARK SMILES IDX 39 68 43 69 46 70 40 71 41 72 44 73 42 74 68 75 69 76 77 77
REMARK SMILES IDX 70 78 71 79 75 80 78 81 72 82 73 83 76 84 74 85 53 86 54 87
REMARK SMILES IDX 62 88 55 89 56 90 60 91 63 92 57 93 58 94 61 95 59 96
REMARK H PARENT 17 7 8 16 24 30 83 49 51 60
REMARK Flexibility Score: inf
ROOT
ATOM      1  C   UNL A   1      37.749  22.044  25.021  1.00  0.00     0.002 C 
ENDROOT
BRANCH   1   2
ATOM      2  C   UNL A   1      36.768  23.167  24.654  1.00  0.00     0.021 C 
BRANCH   2   3
ATOM      3  C   UNL A   1      36.159  23.846  25.882  1.00  0.00     0.116 C 
BRANCH   3   4
ATOM      4  N   UNL A   1      35.558  22.849  26.737  1.00  0.00    -0.351 N 
ATOM      5  C   UNL A   1      34.321  22.257  26.779  1.00  0.00     0.270 C 
ATOM      6  O   UNL A   1      34.119  21.514  27.743  1.00  0.00    -0.268 OA
ATOM      7  H   UNL A   1      36.167  22.525  27.440  1.00  0.00     0.163 HD
BRANCH   5   8
ATOM      8  C   UNL A   1      33.256  22.427  25.730  1.00  0.00     0.134 A 
ATOM      9  C   UNL A   1      31.248  23.459  25.280  1.00  0.00     0.228 A 
ATOM     10  N   UNL A   1      31.116  22.826  24.109  1.00  0.00    -0.218 NA
ATOM     11  N   UNL A   1      32.248  23.225  26.130  1.00  0.00    -0.208 NA
ATOM     12  C   UNL A   1      32.150  22.067  23.702  1.00  0.00     0.044 A 
ATOM     13  C   UNL A   1      32.047  21.478  22.327  1.00  0.00     0.067 C 
ATOM     14  C   UNL A   1      33.288  21.894  24.464  1.00  0.00     0.058 A 
BRANCH   9  15
ATOM     15  N   UNL A   1      30.366  24.509  25.525  1.00  0.00    -0.324 N 
ATOM     16  H   UNL A   1      29.465  24.267  25.841  1.00  0.00     0.170 HD
BRANCH  15  17
ATOM     17  C   UNL A   1      30.634  25.883  25.365  1.00  0.00     0.041 A 
ATOM     18  C   UNL A   1      30.052  28.593  22.742  1.00  0.00     0.044 C 
ATOM     19  C   UNL A   1      30.493  27.898  23.995  1.00  0.00    -0.049 A 
ATOM     20  C   UNL A   1      31.210  28.610  24.964  1.00  0.00     0.007 A 
ATOM     21  C   UNL A   1      30.208  26.539  24.205  1.00  0.00     0.029 A 
ATOM     22  C   UNL A   1      31.623  27.986  26.143  1.00  0.00    -0.049 A 
ATOM     23  C   UNL A   1      32.392  28.744  27.183  1.00  0.00     0.044 C 
ATOM     24  C   UNL A   1      31.310  26.637  26.338  1.00  0.00     0.029 A 
ENDBRANCH  15  17
ENDBRANCH   9  15
ENDBRANCH   5   8
ENDBRANCH   3   4
ENDBRANCH   2   3
ENDBRANCH   1   2
BRANCH   1  25
ATOM     25  C   UNL A   1      37.288  20.636  24.621  1.00  0.00     0.002 C 
BRANCH  25  26
ATOM     26  C   UNL A   1      38.292  19.521  24.921  1.00  0.00     0.021 C 
BRANCH  26  27
ATOM     27  C   UNL A   1      39.248  19.833  26.068  1.00  0.00     0.116 C 
BRANCH  27  28
ATOM     28  N   UNL A   1      40.433  18.995  26.016  1.00  0.00    -0.352 N 
ATOM     29  C   UNL A   1      41.756  19.355  26.009  1.00  0.00     0.251 C 
ATOM     30  H   UNL A   1      40.262  18.026  25.984  1.00  0.00     0.163 HD
ATOM     31  O   UNL A   1      42.617  18.530  25.723  1.00  0.00    -0.269 OA
BRANCH  29  32
ATOM     32  C   UNL A   1      42.149  20.742  26.339  1.00  0.00     0.039 A 
ATOM     33  C   UNL A   1      42.360  21.080  27.678  1.00  0.00     0.014 A 
ATOM     34  C   UNL A   1      42.264  21.716  25.341  1.00  0.00     0.014 A 
ATOM     35  C   UNL A   1      42.716  22.386  28.013  1.00  0.00     0.010 A 
ATOM     36  C   UNL A   1      42.686  23.001  25.669  1.00  0.00     0.010 A 
ATOM     37  C   UNL A   1      42.898  23.353  27.011  1.00  0.00    -0.014 A 
BRANCH  37  38
ATOM     38  C   UNL A   1      43.280  24.743  27.360  1.00  0.00     0.031 A 
ATOM     39  C   UNL A   1      44.675  25.234  27.094  1.00  0.00     0.074 A 
ATOM     40  C   UNL A   1      42.376  25.555  27.938  1.00  0.00     0.049 A 
ATOM     41  N   UNL A   1      45.195  26.414  27.319  1.00  0.00    -0.248 NA
ATOM     42  C   UNL A   1      45.619  24.261  26.523  1.00  0.00     0.031 C 
ATOM     43  C   UNL A   1      41.004  25.180  28.286  1.00  0.00     0.029 A 
ATOM     44  N   UNL A   1      42.472  26.866  28.328  1.00  0.00    -0.354 N 
ATOM     45  C   UNL A   1      46.523  26.323  26.922  1.00  0.00     0.074 A 
ATOM     46  C   UNL A   1      46.746  24.956  26.504  1.00  0.00     0.031 C 
ATOM     47  C   UNL A   1      40.375  26.248  28.801  1.00  0.00     0.029 A 
ATOM     48  C   UNL A   1      41.305  27.373  28.843  1.00  0.00     0.049 A 
ATOM     49  H   UNL A   1      43.300  27.392  28.248  1.00  0.00     0.167 HD
ATOM     50  C   UNL A   1      47.464  27.298  26.882  1.00  0.00     0.037 A 
ATOM     51  C   UNL A   1      41.016  28.611  29.284  1.00  0.00     0.037 A 
ATOM     52  C   UNL A   1      47.235  28.660  27.286  1.00  0.00     0.049 A 
ATOM     53  C   UNL A   1      42.077  29.675  29.230  1.00  0.00     0.074 A 
ATOM     54  C   UNL A   1      48.110  29.732  27.253  1.00  0.00     0.029 A 
ATOM     55  N   UNL A   1      46.037  29.139  27.797  1.00  0.00    -0.354 N 
ATOM     56  N   UNL A   1      43.312  29.594  28.798  1.00  0.00    -0.248 NA
ATOM     57  C   UNL A   1      41.696  31.008  29.715  1.00  0.00     0.031 C 
ATOM     58  C   UNL A   1      47.452  30.851  27.779  1.00  0.00     0.029 A 
ATOM     59  C   UNL A   1      46.153  30.487  28.096  1.00  0.00     0.049 A 
ATOM     60  H   UNL A   1      45.224  28.600  27.929  1.00  0.00     0.167 HD
ATOM     61  C   UNL A   1      43.845  30.869  28.927  1.00  0.00     0.074 A 
ATOM     62  C   UNL A   1      42.794  31.708  29.466  1.00  0.00     0.031 C 
ATOM     63  C   UNL A   1      45.094  31.308  28.627  1.00  0.00     0.037 A 
BRANCH  50  64
ATOM     64  C   UNL A   1      48.826  26.914  26.378  1.00  0.00     0.064 A 
ATOM     65  C   UNL A   1      49.186  27.086  25.032  1.00  0.00     0.173 A 
ATOM     66  C   UNL A   1      49.784  26.371  27.247  1.00  0.00     0.173 A 
ATOM     67  F   UNL A   1      48.302  27.589  24.156  1.00  0.00    -0.203 F 
ATOM     68  C   UNL A   1      50.438  26.693  24.567  1.00  0.00     0.198 A 
ATOM     69  C   UNL A   1      51.047  26.007  26.785  1.00  0.00     0.198 A 
ATOM     70  F   UNL A   1      49.495  26.188  28.544  1.00  0.00    -0.203 F 
ATOM     71  F   UNL A   1      50.735  26.810  23.265  1.00  0.00    -0.200 F 
ATOM     72  C   UNL A   1      51.369  26.157  25.444  1.00  0.00     0.200 A 
ATOM     73  F   UNL A   1      51.950  25.499  27.636  1.00  0.00    -0.200 F 
ATOM     74  F   UNL A   1      52.572  25.776  24.995  1.00  0.00    -0.200 F 
ENDBRANCH  50  64
BRANCH  51  75
ATOM     75  C   UNL A   1      39.645  28.927  29.756  1.00  0.00     0.064 A 
ATOM     76  C   UNL A   1      39.282  28.713  31.093  1.00  0.00     0.173 A 
ATOM     77  C   UNL A   1      38.673  29.450  28.891  1.00  0.00     0.173 A 
ATOM     78  F   UNL A   1      40.174  28.198  31.953  1.00  0.00    -0.203 F 
ATOM     79  C   UNL A   1      37.995  28.992  31.544  1.00  0.00     0.198 A 
ATOM     80  C   UNL A   1      37.393  29.753  29.349  1.00  0.00     0.198 A 
ATOM     81  F   UNL A   1      38.972  29.680  27.604  1.00  0.00    -0.203 F 
ATOM     82  F   UNL A   1      37.665  28.740  32.818  1.00  0.00    -0.200 F 
ATOM     83  C   UNL A   1      37.053  29.517  30.673  1.00  0.00     0.200 A 
ATOM     84  F   UNL A   1      36.488  30.272  28.508  1.00  0.00    -0.200 F 
ATOM     85  F   UNL A   1      35.815  29.789  31.108  1.00  0.00    -0.200 F 
ENDBRANCH  51  75
BRANCH  63  86
ATOM     86  C   UNL A   1      45.371  32.766  28.841  1.00  0.00     0.064 A 
ATOM     87  C   UNL A   1      45.104  33.721  27.850  1.00  0.00     0.173 A 
ATOM     88  C   UNL A   1      45.905  33.215  30.059  1.00  0.00     0.173 A 
ATOM     89  F   UNL A   1      44.609  33.341  26.662  1.00  0.00    -0.203 F 
ATOM     90  C   UNL A   1      45.398  35.068  28.054  1.00  0.00     0.198 A 
ATOM     91  C   UNL A   1      46.168  34.565  30.272  1.00  0.00     0.198 A 
ATOM     92  F   UNL A   1      46.171  32.343  31.043  1.00  0.00    -0.203 F 
ATOM     93  F   UNL A   1      45.191  35.954  27.071  1.00  0.00    -0.200 F 
ATOM     94  C   UNL A   1      45.925  35.489  29.266  1.00  0.00     0.200 A 
ATOM     95  F   UNL A   1      46.666  34.972  31.448  1.00  0.00    -0.200 F 
ATOM     96  F   UNL A   1      46.209  36.783  29.461  1.00  0.00    -0.200 F 
ENDBRANCH  63  86
ENDBRANCH  37  38
ENDBRANCH  29  32
ENDBRANCH  27  28
ENDBRANCH  26  27
ENDBRANCH  25  26
ENDBRANCH   1  25
TORSDOF 15
ENDMDL
MODEL 2
REMARK VINA RESULT:     -12.2      6.168     11.478
REMARK SMILES Cc1cc(C)cc(Nc2nc(C)cc(C(=O)NCCCCCCNC(=O)c3ccc(-c4c5nc(c(-c6c(F)c(F)c(F)c(F)c6F)c6ccc([nH]6)c(-c6c(F)c(F)c(F)c(F)c6F)c6nc(c(-c7c(F)c(F)c(F)c(F)c7F)c7ccc4[nH]7)C=C6)C=C5)cc3)n2)c1
REMARK SMILES IDX 20 1 19 2 18 3 17 4 15 5 16 6 14 8 9 9 10 10 90 11 11 12
REMARK SMILES IDX 12 13 13 14 8 15 7 17 1 18 2 19 3 20 91 21 4 22 5 23 6 24
REMARK SMILES IDX 21 25 22 26 23 27 24 28 25 29 26 31 27 32 28 33 89 34 29 35
REMARK SMILES IDX 88 36 30 37 31 38 32 39 82 40 33 41 87 42 81 43 83 44 34 45
REMARK SMILES IDX 86 46 80 47 79 48 35 50 67 51 47 52 66 53 48 54 51 55 65 56
REMARK SMILES IDX 84 57 49 58 50 59 64 61 85 62 52 63 36 64 37 65 45 66 38 67
REMARK SMILES IDX 39 68 43 69 46 70 40 71 41 72 44 73 42 74 68 75 69 76 77 77
REMARK SMILES IDX 70 78 71 79 75 80 78 81 72 82 73 83 76 84 74 85 53 86 54 87
REMARK SMILES IDX 62 88 55 89 56 90 60 91 63 92 57 93 58 94 61 95 59 96
REMARK H PARENT 17 7 8 16 24 30 83 49 51 60
REMARK Flexibility Score: inf
ROOT
ATOM      1  C   UNL A   1      34.439  32.668  27.825  1.00  0.00     0.002 C 
ENDROOT
BRANCH   1   2
ATOM      2  C   UNL A   1      34.564  31.190  28.223  1.00  0.00     0.021 C 
BRANCH   2   3
ATOM      3  C   UNL A   1      34.025  30.240  27.152  1.00  0.00     0.116 C 
BRANCH   3   4
ATOM      4  N   UNL A   1      33.017  29.382  27.731  1.00  0.00    -0.351 N 
ATOM      5  C   UNL A   1      32.297  28.314  27.259  1.00  0.00     0.270 C 
ATOM      6  O   UNL A   1      31.419  27.889  28.015  1.00  0.00    -0.268 OA
ATOM      7  H   UNL A   1      32.801  29.613  28.664  1.00  0.00     0.163 HD
BRANCH   5   8
ATOM      8  C   UNL A   1      32.541  27.633  25.940  1.00  0.00     0.134 A 
ATOM      9  C   UNL A   1      31.904  27.602  23.728  1.00  0.00     0.228 A 
ATOM     10  N   UNL A   1      32.654  26.525  23.466  1.00  0.00    -0.218 NA
ATOM     11  N   UNL A   1      31.770  28.120  24.949  1.00  0.00    -0.208 NA
ATOM     12  C   UNL A   1      33.452  26.077  24.452  1.00  0.00     0.044 A 
ATOM     13  C   UNL A   1      34.388  24.960  24.101  1.00  0.00     0.067 C 
ATOM     14  C   UNL A   1      33.478  26.656  25.705  1.00  0.00     0.058 A 
BRANCH   9  15
ATOM     15  N   UNL A   1      31.373  28.274  22.631  1.00  0.00    -0.324 N 
ATOM     16  H   UNL A   1      31.964  28.389  21.851  1.00  0.00     0.170 HD
BRANCH  15  17
ATOM     17  C   UNL A   1      30.073  28.809  22.524  1.00  0.00     0.041 A 
ATOM     18  C   UNL A   1      28.394  31.884  21.011  1.00  0.00     0.044 C 
ATOM     19  C   UNL A   1      28.600  30.590  21.739  1.00  0.00    -0.049 A 
ATOM     20  C   UNL A   1      27.508  29.957  22.347  1.00  0.00     0.007 A 
ATOM     21  C   UNL A   1      29.875  30.008  21.830  1.00  0.00     0.029 A 
ATOM     22  C   UNL A   1      27.675  28.746  23.022  1.00  0.00    -0.049 A 
ATOM     23  C   UNL A   1      26.509  28.066  23.675  1.00  0.00     0.044 C 
ATOM     24  C   UNL A   1      28.951  28.176  23.082  1.00  0.00     0.029 A 
ENDBRANCH  15  17
ENDBRANCH   9  15
ENDBRANCH   5   8
ENDBRANCH   3   4
ENDBRANCH   2   3
ENDBRANCH   1   2
BRANCH   1  25
ATOM     25  C   UNL A   1      34.275  33.635  29.004  1.00  0.00     0.002 C 
BRANCH  25  26
ATOM     26  C   UNL A   1      33.076  34.580  28.899  1.00  0.00     0.021 C 
BRANCH  26  27
ATOM     27  C   UNL A   1      33.323  35.971  29.474  1.00  0.00     0.116 C 
BRANCH  27  28
ATOM     28  N   UNL A   1      32.537  36.199  30.674  1.00  0.00    -0.352 N 
ATOM     29  C   UNL A   1      32.687  35.667  31.928  1.00  0.00     0.251 C 
ATOM     30  H   UNL A   1      31.788  36.831  30.572  1.00  0.00     0.163 HD
ATOM     31  O   UNL A   1      31.792  35.787  32.758  1.00  0.00    -0.269 OA
BRANCH  29  32
ATOM     32  C   UNL A   1      33.924  34.940  32.283  1.00  0.00     0.039 A 
ATOM     33  C   UNL A   1      35.146  35.610  32.196  1.00  0.00     0.014 A 
ATOM     34  C   UNL A   1      33.887  33.592  32.654  1.00  0.00     0.014 A 
ATOM     35  C   UNL A   1      36.327  34.939  32.511  1.00  0.00     0.010 A 
ATOM     36  C   UNL A   1      35.058  32.942  33.035  1.00  0.00     0.010 A 
ATOM     37  C   UNL A   1      36.292  33.605  32.948  1.00  0.00    -0.014 A 
BRANCH  37  38
ATOM     38  C   UNL A   1      37.544  32.885  33.288  1.00  0.00     0.031 A 
ATOM     39  C   UNL A   1      38.258  33.178  34.577  1.00  0.00     0.074 A 
ATOM     40  C   UNL A   1      38.049  31.987  32.423  1.00  0.00     0.049 A 
ATOM     41  N   UNL A   1      39.356  32.648  35.054  1.00  0.00    -0.248 NA
ATOM     42  C   UNL A   1      37.675  34.222  35.433  1.00  0.00     0.031 C 
ATOM     43  C   UNL A   1      37.470  31.650  31.121  1.00  0.00     0.029 A 
ATOM     44  N   UNL A   1      39.159  31.187  32.512  1.00  0.00    -0.354 N 
ATOM     45  C   UNL A   1      39.596  33.296  36.259  1.00  0.00     0.074 A 
ATOM     46  C   UNL A   1      38.567  34.303  36.408  1.00  0.00     0.031 C 
ATOM     47  C   UNL A   1      38.207  30.684  30.551  1.00  0.00     0.029 A 
ATOM     48  C   UNL A   1      39.323  30.353  31.434  1.00  0.00     0.049 A 
ATOM     49  H   UNL A   1      39.780  31.210  33.276  1.00  0.00     0.167 HD
ATOM     50  C   UNL A   1      40.567  33.056  37.172  1.00  0.00     0.037 A 
ATOM     51  C   UNL A   1      40.260  29.417  31.195  1.00  0.00     0.037 A 
ATOM     52  C   UNL A   1      41.582  32.045  37.027  1.00  0.00     0.049 A 
ATOM     53  C   UNL A   1      41.328  29.169  32.223  1.00  0.00     0.074 A 
ATOM     54  C   UNL A   1      42.591  31.697  37.908  1.00  0.00     0.029 A 
ATOM     55  N   UNL A   1      41.713  31.214  35.923  1.00  0.00    -0.354 N 
ATOM     56  N   UNL A   1      41.511  29.746  33.385  1.00  0.00    -0.248 NA
ATOM     57  C   UNL A   1      42.314  28.126  31.908  1.00  0.00     0.031 C 
ATOM     58  C   UNL A   1      43.355  30.681  37.320  1.00  0.00     0.029 A 
ATOM     59  C   UNL A   1      42.794  30.364  36.094  1.00  0.00     0.049 A 
ATOM     60  H   UNL A   1      41.125  31.228  35.134  1.00  0.00     0.167 HD
ATOM     61  C   UNL A   1      42.610  29.118  33.954  1.00  0.00     0.074 A 
ATOM     62  C   UNL A   1      43.043  28.105  33.014  1.00  0.00     0.031 C 
ATOM     63  C   UNL A   1      43.207  29.357  35.149  1.00  0.00     0.037 A 
BRANCH  50  64
ATOM     64  C   UNL A   1      40.569  33.907  38.410  1.00  0.00     0.064 A 
ATOM     65  C   UNL A   1      39.819  33.554  39.544  1.00  0.00     0.173 A 
ATOM     66  C   UNL A   1      41.329  35.085  38.469  1.00  0.00     0.173 A 
ATOM     67  F   UNL A   1      39.064  32.445  39.535  1.00  0.00    -0.203 F 
ATOM     68  C   UNL A   1      39.797  34.369  40.672  1.00  0.00     0.198 A 
ATOM     69  C   UNL A   1      41.330  35.881  39.612  1.00  0.00     0.198 A 
ATOM     70  F   UNL A   1      42.067  35.466  37.417  1.00  0.00    -0.203 F 
ATOM     71  F   UNL A   1      39.024  34.043  41.718  1.00  0.00    -0.200 F 
ATOM     72  C   UNL A   1      40.556  35.529  40.708  1.00  0.00     0.200 A 
ATOM     73  F   UNL A   1      42.072  36.997  39.648  1.00  0.00    -0.200 F 
ATOM     74  F   UNL A   1      40.532  36.314  41.793  1.00  0.00    -0.200 F 
ENDBRANCH  50  64
BRANCH  51  75
ATOM     75  C   UNL A   1      40.191  28.600  29.957  1.00  0.00     0.064 A 
ATOM     76  C   UNL A   1      40.800  29.044  28.774  1.00  0.00     0.173 A 
ATOM     77  C   UNL A   1      39.524  27.368  29.926  1.00  0.00     0.173 A 
ATOM     78  F   UNL A   1      41.434  30.227  28.752  1.00  0.00    -0.203 F 
ATOM     79  C   UNL A   1      40.730  28.295  27.603  1.00  0.00     0.198 A 
ATOM     80  C   UNL A   1      39.477  26.606  28.760  1.00  0.00     0.198 A 
ATOM     81  F   UNL A   1      38.932  26.896  31.033  1.00  0.00    -0.203 F 
ATOM     82  F   UNL A   1      41.287  28.761  26.478  1.00  0.00    -0.200 F 
ATOM     83  C   UNL A   1      40.073  27.074  27.598  1.00  0.00     0.200 A 
ATOM     84  F   UNL A   1      38.852  25.421  28.762  1.00  0.00    -0.200 F 
ATOM     85  F   UNL A   1      40.009  26.350  26.472  1.00  0.00    -0.200 F 
ENDBRANCH  51  75
BRANCH  63  86
ATOM     86  C   UNL A   1      44.368  28.480  35.516  1.00  0.00     0.064 A 
ATOM     87  C   UNL A   1      44.193  27.284  36.227  1.00  0.00     0.173 A 
ATOM     88  C   UNL A   1      45.673  28.839  35.144  1.00  0.00     0.173 A 
ATOM     89  F   UNL A   1      42.968  26.905  36.620  1.00  0.00    -0.203 F 
ATOM     90  C   UNL A   1      45.286  26.499  36.586  1.00  0.00     0.198 A 
ATOM     91  C   UNL A   1      46.760  28.036  35.477  1.00  0.00     0.198 A 
ATOM     92  F   UNL A   1      45.893  29.970  34.456  1.00  0.00    -0.203 F 
ATOM     93  F   UNL A   1      45.102  25.391  37.318  1.00  0.00    -0.200 F 
ATOM     94  C   UNL A   1      46.567  26.873  36.207  1.00  0.00     0.200 A 
ATOM     95  F   UNL A   1      47.995  28.393  35.101  1.00  0.00    -0.200 F 
ATOM     96  F   UNL A   1      47.618  26.118  36.556  1.00  0.00    -0.200 F 
ENDBRANCH  63  86
ENDBRANCH  37  38
ENDBRANCH  29  32
ENDBRANCH  27  28
ENDBRANCH  26  27
ENDBRANCH  25  26
ENDBRANCH   1  25
TORSDOF 15
ENDMDL
MODEL 3
REMARK VINA RESULT:     -12.0      0.577      7.221
REMARK SMILES Cc1cc(C)cc(Nc2nc(C)cc(C(=O)NCCCCCCNC(=O)c3ccc(-c4c5nc(c(-c6c(F)c(F)c(F)c(F)c6F)c6ccc([nH]6)c(-c6c(F)c(F)c(F)c(F)c6F)c6nc(c(-c7c(F)c(F)c(F)c(F)c7F)c7ccc4[nH]7)C=C6)C=C5)cc3)n2)c1
REMARK SMILES IDX 20 1 19 2 18 3 17 4 15 5 16 6 14 8 9 9 10 10 90 11 11 12
REMARK SMILES IDX 12 13 13 14 8 15 7 17 1 18 2 19 3 20 91 21 4 22 5 23 6 24
REMARK SMILES IDX 21 25 22 26 23 27 24 28 25 29 26 31 27 32 28 33 89 34 29 35
REMARK SMILES IDX 88 36 30 37 31 38 32 39 82 40 33 41 87 42 81 43 83 44 34 45
REMARK SMILES IDX 86 46 80 47 79 48 35 50 67 51 47 52 66 53 48 54 51 55 65 56
REMARK SMILES IDX 84 57 49 58 50 59 64 61 85 62 52 63 36 64 37 65 45 66 38 67
REMARK SMILES IDX 39 68 43 69 46 70 40 71 41 72 44 73 42 74 68 75 69 76 77 77
REMARK SMILES IDX 70 78 71 79 75 80 78 81 72 82 73 83 76 84 74 85 53 86 54 87
REMARK SMILES IDX 62 88 55 89 56 90 60 91 63 92 57 93 58 94 61 95 59 96
REMARK H PARENT 17 7 8 16 24 30 83 49 51 60
REMARK Flexibility Score: inf
ROOT
ATOM      1  C   UNL A   1      37.790  21.908  25.192  1.00  0.00     0.002 C 
ENDROOT
BRANCH   1   2
ATOM      2  C   UNL A   1      36.873  23.050  24.729  1.00  0.00     0.021 C 
BRANCH   2   3
ATOM      3  C   UNL A   1      36.200  23.779  25.893  1.00  0.00     0.116 C 
BRANCH   3   4
ATOM      4  N   UNL A   1      35.568  22.816  26.764  1.00  0.00    -0.351 N 
ATOM      5  C   UNL A   1      34.315  22.259  26.811  1.00  0.00     0.270 C 
ATOM      6  O   UNL A   1      34.087  21.542  27.788  1.00  0.00    -0.268 OA
ATOM      7  H   UNL A   1      36.163  22.491  27.478  1.00  0.00     0.163 HD
BRANCH   5   8
ATOM      8  C   UNL A   1      33.261  22.435  25.750  1.00  0.00     0.134 A 
ATOM      9  C   UNL A   1      31.274  23.495  25.274  1.00  0.00     0.228 A 
ATOM     10  N   UNL A   1      31.142  22.852  24.108  1.00  0.00    -0.218 NA
ATOM     11  N   UNL A   1      32.263  23.253  26.135  1.00  0.00    -0.208 NA
ATOM     12  C   UNL A   1      32.166  22.073  23.717  1.00  0.00     0.044 A 
ATOM     13  C   UNL A   1      32.065  21.472  22.347  1.00  0.00     0.067 C 
ATOM     14  C   UNL A   1      33.295  21.889  24.490  1.00  0.00     0.058 A 
BRANCH   9  15
ATOM     15  N   UNL A   1      30.407  24.561  25.501  1.00  0.00    -0.324 N 
ATOM     16  H   UNL A   1      29.513  24.339  25.850  1.00  0.00     0.170 HD
BRANCH  15  17
ATOM     17  C   UNL A   1      30.681  25.925  25.281  1.00  0.00     0.041 A 
ATOM     18  C   UNL A   1      32.161  28.862  27.219  1.00  0.00     0.044 C 
ATOM     19  C   UNL A   1      31.533  28.051  26.124  1.00  0.00    -0.049 A 
ATOM     20  C   UNL A   1      31.181  28.673  24.920  1.00  0.00     0.007 A 
ATOM     21  C   UNL A   1      31.284  26.681  26.295  1.00  0.00     0.029 A 
ATOM     22  C   UNL A   1      30.605  27.936  23.883  1.00  0.00    -0.049 A 
ATOM     23  C   UNL A   1      30.225  28.597  22.592  1.00  0.00     0.044 C 
ATOM     24  C   UNL A   1      30.384  26.568  24.069  1.00  0.00     0.029 A 
ENDBRANCH  15  17
ENDBRANCH   9  15
ENDBRANCH   5   8
ENDBRANCH   3   4
ENDBRANCH   2   3
ENDBRANCH   1   2
BRANCH   1  25
ATOM     25  C   UNL A   1      37.409  20.524  24.652  1.00  0.00     0.002 C 
BRANCH  25  26
ATOM     26  C   UNL A   1      38.394  19.405  24.997  1.00  0.00     0.021 C 
BRANCH  26  27
ATOM     27  C   UNL A   1      39.397  19.770  26.087  1.00  0.00     0.116 C 
BRANCH  27  28
ATOM     28  N   UNL A   1      40.553  18.890  26.064  1.00  0.00    -0.352 N 
ATOM     29  C   UNL A   1      41.886  19.204  26.022  1.00  0.00     0.251 C 
ATOM     30  H   UNL A   1      40.348  17.927  26.085  1.00  0.00     0.163 HD
ATOM     31  O   UNL A   1      42.715  18.337  25.769  1.00  0.00    -0.269 OA
BRANCH  29  32
ATOM     32  C   UNL A   1      42.331  20.592  26.275  1.00  0.00     0.039 A 
ATOM     33  C   UNL A   1      42.503  21.013  27.596  1.00  0.00     0.014 A 
ATOM     34  C   UNL A   1      42.532  21.488  25.220  1.00  0.00     0.014 A 
ATOM     35  C   UNL A   1      42.906  22.322  27.857  1.00  0.00     0.010 A 
ATOM     36  C   UNL A   1      43.001  22.773  25.478  1.00  0.00     0.010 A 
ATOM     37  C   UNL A   1      43.174  23.208  26.801  1.00  0.00    -0.014 A 
BRANCH  37  38
ATOM     38  C   UNL A   1      43.606  24.601  27.072  1.00  0.00     0.031 A 
ATOM     39  C   UNL A   1      42.632  25.600  27.631  1.00  0.00     0.074 A 
ATOM     40  C   UNL A   1      44.869  24.971  26.791  1.00  0.00     0.049 A 
ATOM     41  N   UNL A   1      42.822  26.857  27.943  1.00  0.00    -0.248 NA
ATOM     42  C   UNL A   1      41.255  25.130  27.845  1.00  0.00     0.031 C 
ATOM     43  C   UNL A   1      45.892  24.104  26.205  1.00  0.00     0.029 A 
ATOM     44  N   UNL A   1      45.508  26.170  26.968  1.00  0.00    -0.354 N 
ATOM     45  C   UNL A   1      41.592  27.326  28.384  1.00  0.00     0.074 A 
ATOM     46  C   UNL A   1      40.648  26.240  28.238  1.00  0.00     0.031 C 
ATOM     47  C   UNL A   1      47.043  24.788  26.108  1.00  0.00     0.029 A 
ATOM     48  C   UNL A   1      46.831  26.147  26.601  1.00  0.00     0.049 A 
ATOM     49  H   UNL A   1      45.062  26.972  27.324  1.00  0.00     0.167 HD
ATOM     50  C   UNL A   1      41.282  28.544  28.893  1.00  0.00     0.037 A 
ATOM     51  C   UNL A   1      47.768  27.110  26.669  1.00  0.00     0.037 A 
ATOM     52  C   UNL A   1      42.227  29.619  29.050  1.00  0.00     0.049 A 
ATOM     53  C   UNL A   1      47.401  28.453  27.236  1.00  0.00     0.074 A 
ATOM     54  C   UNL A   1      42.024  30.879  29.584  1.00  0.00     0.029 A 
ATOM     55  N   UNL A   1      43.560  29.556  28.671  1.00  0.00    -0.354 N 
ATOM     56  N   UNL A   1      46.249  28.868  27.705  1.00  0.00    -0.248 NA
ATOM     57  C   UNL A   1      48.471  29.458  27.294  1.00  0.00     0.031 C 
ATOM     58  C   UNL A   1      43.226  31.592  29.495  1.00  0.00     0.029 A 
ATOM     59  C   UNL A   1      44.190  30.760  28.948  1.00  0.00     0.049 A 
ATOM     60  H   UNL A   1      43.996  28.772  28.265  1.00  0.00     0.167 HD
ATOM     61  C   UNL A   1      46.462  30.168  28.143  1.00  0.00     0.074 A 
ATOM     62  C   UNL A   1      47.858  30.467  27.896  1.00  0.00     0.031 C 
ATOM     63  C   UNL A   1      45.582  31.037  28.700  1.00  0.00     0.037 A 
BRANCH  50  64
ATOM     64  C   UNL A   1      39.859  28.767  29.316  1.00  0.00     0.064 A 
ATOM     65  C   UNL A   1      38.899  29.273  28.425  1.00  0.00     0.173 A 
ATOM     66  C   UNL A   1      39.446  28.473  30.625  1.00  0.00     0.173 A 
ATOM     67  F   UNL A   1      39.244  29.583  27.166  1.00  0.00    -0.203 F 
ATOM     68  C   UNL A   1      37.591  29.512  28.838  1.00  0.00     0.198 A 
ATOM     69  C   UNL A   1      38.129  28.685  31.025  1.00  0.00     0.198 A 
ATOM     70  F   UNL A   1      40.320  27.985  31.516  1.00  0.00    -0.203 F 
ATOM     71  F   UNL A   1      36.709  30.053  27.986  1.00  0.00    -0.200 F 
ATOM     72  C   UNL A   1      37.206  29.214  30.136  1.00  0.00     0.200 A 
ATOM     73  F   UNL A   1      37.755  28.386  32.277  1.00  0.00    -0.200 F 
ATOM     74  F   UNL A   1      35.948  29.448  30.533  1.00  0.00    -0.200 F 
ENDBRANCH  50  64
BRANCH  51  75
ATOM     75  C   UNL A   1      49.161  26.818  26.246  1.00  0.00     0.064 A 
ATOM     76  C   UNL A   1      50.090  26.297  27.159  1.00  0.00     0.173 A 
ATOM     77  C   UNL A   1      49.593  27.046  24.933  1.00  0.00     0.173 A 
ATOM     78  F   UNL A   1      49.725  26.079  28.432  1.00  0.00    -0.203 F 
ATOM     79  C   UNL A   1      51.402  26.032  26.779  1.00  0.00     0.198 A 
ATOM     80  C   UNL A   1      50.900  26.756  24.547  1.00  0.00     0.198 A 
ATOM     81  F   UNL A   1      48.741  27.537  24.020  1.00  0.00    -0.203 F 
ATOM     82  F   UNL A   1      52.279  25.571  27.681  1.00  0.00    -0.200 F 
ATOM     83  C   UNL A   1      51.805  26.257  25.471  1.00  0.00     0.200 A 
ATOM     84  F   UNL A   1      51.283  26.963  23.279  1.00  0.00    -0.200 F 
ATOM     85  F   UNL A   1      53.067  25.997  25.104  1.00  0.00    -0.200 F 
ENDBRANCH  51  75
BRANCH  63  86
ATOM     86  C   UNL A   1      46.119  32.376  29.113  1.00  0.00     0.064 A 
ATOM     87  C   UNL A   1      46.108  33.476  28.242  1.00  0.00     0.173 A 
ATOM     88  C   UNL A   1      46.644  32.563  30.401  1.00  0.00     0.173 A 
ATOM     89  F   UNL A   1      45.632  33.344  26.995  1.00  0.00    -0.203 F 
ATOM     90  C   UNL A   1      46.640  34.703  28.632  1.00  0.00     0.198 A 
ATOM     91  C   UNL A   1      47.145  33.799  30.799  1.00  0.00     0.198 A 
ATOM     92  F   UNL A   1      46.670  31.545  31.274  1.00  0.00    -0.203 F 
ATOM     93  F   UNL A   1      46.675  35.722  27.764  1.00  0.00    -0.200 F 
ATOM     94  C   UNL A   1      47.153  34.864  29.911  1.00  0.00     0.200 A 
ATOM     95  F   UNL A   1      47.631  33.956  32.037  1.00  0.00    -0.200 F 
ATOM     96  F   UNL A   1      47.666  36.044  30.284  1.00  0.00    -0.200 F 
ENDBRANCH  63  86
ENDBRANCH  37  38
ENDBRANCH  29  32
ENDBRANCH  27  28
ENDBRANCH  26  27
ENDBRANCH  25  26
ENDBRANCH   1  25
TORSDOF 15
ENDMDL
