MODEL 1
REMARK VINA RESULT:     -11.8      0.000      0.000
REMARK SMILES C[C@H](NC(=O)N1CC[C@@H](C(=O)NCCCCCCNC(=O)c2ccc(-c3c4nc(c(-c5c(F)c(F)c(F)c(F)c5F)c5ccc([nH]5)c(-c5c(F)c(F)c(F)c(F)c5F)c5nc(c(-c6c(F)c(F)c(F)c(F)c6F)c6ccc3[nH]6)C=C5)C=C4)cc2)[C@H]1C)c1ccc(Cl)cc1
REMARK SMILES IDX 15 1 14 2 13 3 12 4 10 5 11 6 9 8 6 9 7 10 85 11 8 12 86 13
REMARK SMILES IDX 4 14 3 15 5 17 2 18 1 19 87 20 88 21 93 22 89 23 92 24 90 25
REMARK SMILES IDX 91 26 16 27 17 28 18 29 19 30 20 31 21 33 22 34 23 35 84 36
REMARK SMILES IDX 24 37 83 38 25 39 26 40 27 41 77 42 28 43 82 44 76 45 78 46
REMARK SMILES IDX 29 47 81 48 75 49 74 50 30 52 62 53 42 54 61 55 43 56 46 57
REMARK SMILES IDX 60 58 79 59 44 60 45 61 59 63 80 64 47 65 31 66 32 67 40 68
REMARK SMILES IDX 33 69 34 70 38 71 41 72 35 73 36 74 39 75 37 76 63 77 64 78
REMARK SMILES IDX 72 79 65 80 66 81 70 82 73 83 67 84 68 85 71 86 69 87 48 88
REMARK SMILES IDX 49 89 57 90 50 91 51 92 55 93 58 94 52 95 53 96 56 97 54 98
REMARK H PARENT 12 7 3 16 19 32 78 51 46 62
REMARK Flexibility Score: inf
ROOT
ATOM      1  C   UNL A   1      40.388  21.965  26.013  1.00  0.00     0.002 C 
ENDROOT
BRANCH   1   2
ATOM      2  C   UNL A   1      38.887  22.219  26.161  1.00  0.00     0.021 C 
BRANCH   2   3
ATOM      3  C   UNL A   1      37.974  21.407  25.242  1.00  0.00     0.116 C 
BRANCH   3   4
ATOM      4  N   UNL A   1      37.401  22.228  24.196  1.00  0.00    -0.356 N 
ATOM      5  C   UNL A   1      36.115  22.519  23.876  1.00  0.00     0.225 C 
ATOM      6  O   UNL A   1      35.941  23.216  22.871  1.00  0.00    -0.275 OA
ATOM      7  H   UNL A   1      38.067  22.652  23.609  1.00  0.00     0.163 HD
BRANCH   5   8
ATOM      8  C   UNL A   1      34.908  22.038  24.670  1.00  0.00     0.102 C 
ATOM      9  N   UNL A   1      33.018  23.110  25.693  1.00  0.00    -0.321 N 
ATOM     10  C   UNL A   1      32.514  22.069  24.813  1.00  0.00     0.122 C 
ATOM     11  C   UNL A   1      34.454  22.860  25.896  1.00  0.00     0.096 C 
ATOM     12  C   UNL A   1      33.645  21.778  23.846  1.00  0.00     0.037 C 
ATOM     13  C   UNL A   1      35.287  24.075  26.247  1.00  0.00     0.032 C 
BRANCH   9  14
ATOM     14  C   UNL A   1      32.227  23.424  26.775  1.00  0.00     0.318 C 
ATOM     15  N   UNL A   1      31.762  24.691  26.887  1.00  0.00    -0.331 N 
ATOM     16  H   UNL A   1      31.442  24.940  27.784  1.00  0.00     0.165 HD
ATOM     17  O   UNL A   1      31.890  22.595  27.619  1.00  0.00    -0.249 OA
BRANCH  15  18
ATOM     18  C   UNL A   1      31.662  25.739  25.882  1.00  0.00     0.111 C 
ATOM     19  C   UNL A   1      30.193  25.957  25.513  1.00  0.00     0.036 C 
BRANCH  18  20
ATOM     20  C   UNL A   1      32.294  27.050  26.332  1.00  0.00    -0.026 A 
ATOM     21  C   UNL A   1      33.650  27.348  26.124  1.00  0.00     0.007 A 
ATOM     22  C   UNL A   1      31.485  28.024  26.943  1.00  0.00     0.007 A 
ATOM     23  C   UNL A   1      34.161  28.610  26.444  1.00  0.00     0.021 A 
ATOM     24  C   UNL A   1      31.991  29.289  27.252  1.00  0.00     0.021 A 
ATOM     25  C   UNL A   1      33.325  29.580  26.988  1.00  0.00     0.041 A 
ATOM     26  Cl  UNL A   1      33.937  31.152  27.325  1.00  0.00    -0.084 Cl
ENDBRANCH  18  20
ENDBRANCH  15  18
ENDBRANCH   9  14
ENDBRANCH   5   8
ENDBRANCH   3   4
ENDBRANCH   2   3
ENDBRANCH   1   2
BRANCH   1  27
ATOM     27  C   UNL A   1      40.950  20.814  26.850  1.00  0.00     0.002 C 
BRANCH  27  28
ATOM     28  C   UNL A   1      41.252  19.521  26.087  1.00  0.00     0.021 C 
BRANCH  28  29
ATOM     29  C   UNL A   1      42.528  18.793  26.508  1.00  0.00     0.116 C 
BRANCH  29  30
ATOM     30  N   UNL A   1      43.420  18.544  25.390  1.00  0.00    -0.352 N 
ATOM     31  C   UNL A   1      44.147  19.429  24.632  1.00  0.00     0.251 C 
ATOM     32  H   UNL A   1      43.519  17.598  25.136  1.00  0.00     0.163 HD
ATOM     33  O   UNL A   1      44.700  19.052  23.605  1.00  0.00    -0.269 OA
BRANCH  31  34
ATOM     34  C   UNL A   1      44.254  20.848  25.041  1.00  0.00     0.039 A 
ATOM     35  C   UNL A   1      44.803  21.149  26.290  1.00  0.00     0.014 A 
ATOM     36  C   UNL A   1      43.787  21.875  24.216  1.00  0.00     0.014 A 
ATOM     37  C   UNL A   1      44.937  22.482  26.688  1.00  0.00     0.010 A 
ATOM     38  C   UNL A   1      43.983  23.204  24.583  1.00  0.00     0.010 A 
ATOM     39  C   UNL A   1      44.556  23.522  25.825  1.00  0.00    -0.014 A 
BRANCH  39  40
ATOM     40  C   UNL A   1      44.739  24.945  26.208  1.00  0.00     0.031 A 
ATOM     41  C   UNL A   1      46.090  25.594  26.088  1.00  0.00     0.074 A 
ATOM     42  C   UNL A   1      43.701  25.640  26.714  1.00  0.00     0.049 A 
ATOM     43  N   UNL A   1      46.469  26.796  26.443  1.00  0.00    -0.248 NA
ATOM     44  C   UNL A   1      47.167  24.773  25.510  1.00  0.00     0.031 C 
ATOM     45  C   UNL A   1      42.348  25.117  26.912  1.00  0.00     0.029 A 
ATOM     46  N   UNL A   1      43.624  26.935  27.165  1.00  0.00    -0.354 N 
ATOM     47  C   UNL A   1      47.822  26.872  26.141  1.00  0.00     0.074 A 
ATOM     48  C   UNL A   1      48.214  25.579  25.625  1.00  0.00     0.031 C 
ATOM     49  C   UNL A   1      41.572  26.086  27.424  1.00  0.00     0.029 A 
ATOM     50  C   UNL A   1      42.378  27.285  27.628  1.00  0.00     0.049 A 
ATOM     51  H   UNL A   1      44.389  27.555  27.158  1.00  0.00     0.167 HD
ATOM     52  C   UNL A   1      48.657  27.933  26.259  1.00  0.00     0.037 A 
ATOM     53  C   UNL A   1      41.940  28.440  28.165  1.00  0.00     0.037 A 
ATOM     54  C   UNL A   1      48.262  29.226  26.752  1.00  0.00     0.049 A 
ATOM     55  C   UNL A   1      42.897  29.594  28.307  1.00  0.00     0.074 A 
ATOM     56  C   UNL A   1      49.026  30.373  26.877  1.00  0.00     0.029 A 
ATOM     57  N   UNL A   1      46.988  29.545  27.198  1.00  0.00    -0.354 N 
ATOM     58  N   UNL A   1      44.161  29.668  27.970  1.00  0.00    -0.248 NA
ATOM     59  C   UNL A   1      42.363  30.828  28.900  1.00  0.00     0.031 C 
ATOM     60  C   UNL A   1      48.226  31.374  27.436  1.00  0.00     0.029 A 
ATOM     61  C   UNL A   1      46.950  30.866  27.613  1.00  0.00     0.049 A 
ATOM     62  H   UNL A   1      46.224  28.923  27.218  1.00  0.00     0.167 HD
ATOM     63  C   UNL A   1      44.562  30.962  28.275  1.00  0.00     0.074 A 
ATOM     64  C   UNL A   1      43.403  31.643  28.813  1.00  0.00     0.031 C 
ATOM     65  C   UNL A   1      45.782  31.535  28.125  1.00  0.00     0.037 A 
BRANCH  52  66
ATOM     66  C   UNL A   1      50.085  27.745  25.834  1.00  0.00     0.064 A 
ATOM     67  C   UNL A   1      50.456  27.775  24.481  1.00  0.00     0.173 A 
ATOM     68  C   UNL A   1      51.100  27.586  26.789  1.00  0.00     0.173 A 
ATOM     69  F   UNL A   1      49.521  27.913  23.528  1.00  0.00    -0.203 F 
ATOM     70  C   UNL A   1      51.787  27.629  24.099  1.00  0.00     0.198 A 
ATOM     71  C   UNL A   1      52.434  27.471  26.404  1.00  0.00     0.198 A 
ATOM     72  F   UNL A   1      50.801  27.556  28.096  1.00  0.00    -0.203 F 
ATOM     73  F   UNL A   1      52.111  27.619  22.798  1.00  0.00    -0.200 F 
ATOM     74  C   UNL A   1      52.776  27.487  25.061  1.00  0.00     0.200 A 
ATOM     75  F   UNL A   1      53.390  27.346  27.336  1.00  0.00    -0.200 F 
ATOM     76  F   UNL A   1      54.057  27.359  24.692  1.00  0.00    -0.200 F 
ENDBRANCH  52  66
BRANCH  53  77
ATOM     77  C   UNL A   1      40.523  28.578  28.594  1.00  0.00     0.064 A 
ATOM     78  C   UNL A   1      39.541  29.026  27.699  1.00  0.00     0.173 A 
ATOM     79  C   UNL A   1      40.127  28.298  29.910  1.00  0.00     0.173 A 
ATOM     80  F   UNL A   1      39.875  29.327  26.436  1.00  0.00    -0.203 F 
ATOM     81  C   UNL A   1      38.224  29.219  28.111  1.00  0.00     0.198 A 
ATOM     82  C   UNL A   1      38.802  28.461  30.312  1.00  0.00     0.198 A 
ATOM     83  F   UNL A   1      41.024  27.861  30.805  1.00  0.00    -0.203 F 
ATOM     84  F   UNL A   1      37.319  29.705  27.250  1.00  0.00    -0.200 F 
ATOM     85  C   UNL A   1      37.855  28.932  29.416  1.00  0.00     0.200 A 
ATOM     86  F   UNL A   1      38.447  28.170  31.572  1.00  0.00    -0.200 F 
ATOM     87  F   UNL A   1      36.589  29.121  29.813  1.00  0.00    -0.200 F 
ENDBRANCH  53  77
BRANCH  65  88
ATOM     88  C   UNL A   1      45.913  32.982  28.500  1.00  0.00     0.064 A 
ATOM     89  C   UNL A   1      46.298  33.379  29.788  1.00  0.00     0.173 A 
ATOM     90  C   UNL A   1      45.686  33.984  27.543  1.00  0.00     0.173 A 
ATOM     91  F   UNL A   1      46.512  32.460  30.742  1.00  0.00    -0.203 F 
ATOM     92  C   UNL A   1      46.427  34.727  30.113  1.00  0.00     0.198 A 
ATOM     93  C   UNL A   1      45.846  35.329  27.863  1.00  0.00     0.198 A 
ATOM     94  F   UNL A   1      45.323  33.656  26.294  1.00  0.00    -0.203 F 
ATOM     95  F   UNL A   1      46.748  35.085  31.364  1.00  0.00    -0.200 F 
ATOM     96  C   UNL A   1      46.207  35.700  29.149  1.00  0.00     0.200 A 
ATOM     97  F   UNL A   1      45.647  36.267  26.926  1.00  0.00    -0.200 F 
ATOM     98  F   UNL A   1      46.338  36.996  29.461  1.00  0.00    -0.200 F 
ENDBRANCH  65  88
ENDBRANCH  39  40
ENDBRANCH  31  34
ENDBRANCH  29  30
ENDBRANCH  28  29
ENDBRANCH  27  28
ENDBRANCH   1  27
TORSDOF 16
ENDMDL
MODEL 2
REMARK VINA RESULT:     -11.6      0.294      2.055
REMARK SMILES C[C@H](NC(=O)N1CC[C@@H](C(=O)NCCCCCCNC(=O)c2ccc(-c3c4nc(c(-c5c(F)c(F)c(F)c(F)c5F)c5ccc([nH]5)c(-c5c(F)c(F)c(F)c(F)c5F)c5nc(c(-c6c(F)c(F)c(F)c(F)c6F)c6ccc3[nH]6)C=C5)C=C4)cc2)[C@H]1C)c1ccc(Cl)cc1
REMARK SMILES IDX 15 1 14 2 13 3 12 4 10 5 11 6 9 8 6 9 7 10 85 11 8 12 86 13
REMARK SMILES IDX 4 14 3 15 5 17 2 18 1 19 87 20 88 21 93 22 89 23 92 24 90 25
REMARK SMILES IDX 91 26 16 27 17 28 18 29 19 30 20 31 21 33 22 34 23 35 84 36
REMARK SMILES IDX 24 37 83 38 25 39 26 40 27 41 77 42 28 43 82 44 76 45 78 46
REMARK SMILES IDX 29 47 81 48 75 49 74 50 30 52 62 53 42 54 61 55 43 56 46 57
REMARK SMILES IDX 60 58 79 59 44 60 45 61 59 63 80 64 47 65 31 66 32 67 40 68
REMARK SMILES IDX 33 69 34 70 38 71 41 72 35 73 36 74 39 75 37 76 63 77 64 78
REMARK SMILES IDX 72 79 65 80 66 81 70 82 73 83 67 84 68 85 71 86 69 87 48 88
REMARK SMILES IDX 49 89 57 90 50 91 51 92 55 93 58 94 52 95 53 96 56 97 54 98
REMARK H PARENT 12 7 3 16 19 32 78 51 46 62
REMARK Flexibility Score: inf
ROOT
ATOM      1  C   UNL A   1      40.608  22.112  26.339  1.00  0.00     0.002 C 
ENDROOT
BRANCH   1   2
ATOM      2  C   UNL A   1      39.202  22.704  26.229  1.00  0.00     0.021 C 
BRANCH   2   3
ATOM      3  C   UNL A   1      38.139  21.797  25.607  1.00  0.00     0.116 C 
BRANCH   3   4
ATOM      4  N   UNL A   1      37.548  22.396  24.429  1.00  0.00    -0.356 N 
ATOM      5  C   UNL A   1      36.258  22.514  24.023  1.00  0.00     0.225 C 
ATOM      6  O   UNL A   1      36.073  23.035  22.919  1.00  0.00    -0.275 OA
ATOM      7  H   UNL A   1      38.202  22.789  23.807  1.00  0.00     0.163 HD
BRANCH   5   8
ATOM      8  C   UNL A   1      35.061  22.045  24.839  1.00  0.00     0.102 C 
ATOM      9  N   UNL A   1      33.132  23.117  25.784  1.00  0.00    -0.321 N 
ATOM     10  C   UNL A   1      32.667  22.010  24.966  1.00  0.00     0.122 C 
ATOM     11  C   UNL A   1      34.573  22.925  26.010  1.00  0.00     0.096 C 
ATOM     12  C   UNL A   1      33.813  21.696  24.025  1.00  0.00     0.037 C 
ATOM     13  C   UNL A   1      35.366  24.185  26.290  1.00  0.00     0.032 C 
BRANCH   9  14
ATOM     14  C   UNL A   1      32.324  23.471  26.841  1.00  0.00     0.318 C 
ATOM     15  N   UNL A   1      31.824  24.730  26.876  1.00  0.00    -0.331 N 
ATOM     16  H   UNL A   1      31.491  25.022  27.755  1.00  0.00     0.165 HD
ATOM     17  O   UNL A   1      32.001  22.684  27.728  1.00  0.00    -0.249 OA
BRANCH  15  18
ATOM     18  C   UNL A   1      31.706  25.716  25.812  1.00  0.00     0.111 C 
ATOM     19  C   UNL A   1      30.239  25.852  25.400  1.00  0.00     0.036 C 
BRANCH  18  20
ATOM     20  C   UNL A   1      32.273  27.075  26.201  1.00  0.00    -0.026 A 
ATOM     21  C   UNL A   1      31.494  28.079  26.799  1.00  0.00     0.007 A 
ATOM     22  C   UNL A   1      33.641  27.330  25.995  1.00  0.00     0.007 A 
ATOM     23  C   UNL A   1      32.081  29.266  27.250  1.00  0.00     0.021 A 
ATOM     24  C   UNL A   1      34.230  28.509  26.455  1.00  0.00     0.021 A 
ATOM     25  C   UNL A   1      33.449  29.467  27.093  1.00  0.00     0.041 A 
ATOM     26  Cl  UNL A   1      34.182  30.899  27.701  1.00  0.00    -0.084 Cl
ENDBRANCH  18  20
ENDBRANCH  15  18
ENDBRANCH   9  14
ENDBRANCH   5   8
ENDBRANCH   3   4
ENDBRANCH   2   3
ENDBRANCH   1   2
BRANCH   1  27
ATOM     27  C   UNL A   1      40.705  20.761  27.049  1.00  0.00     0.002 C 
BRANCH  27  28
ATOM     28  C   UNL A   1      41.217  19.596  26.199  1.00  0.00     0.021 C 
BRANCH  28  29
ATOM     29  C   UNL A   1      42.587  19.046  26.595  1.00  0.00     0.116 C 
BRANCH  29  30
ATOM     30  N   UNL A   1      43.398  18.693  25.444  1.00  0.00    -0.352 N 
ATOM     31  C   UNL A   1      44.169  19.490  24.635  1.00  0.00     0.251 C 
ATOM     32  H   UNL A   1      43.396  17.737  25.208  1.00  0.00     0.163 HD
ATOM     33  O   UNL A   1      44.634  19.043  23.592  1.00  0.00    -0.269 OA
BRANCH  31  34
ATOM     34  C   UNL A   1      44.428  20.900  25.005  1.00  0.00     0.039 A 
ATOM     35  C   UNL A   1      43.887  21.914  24.211  1.00  0.00     0.014 A 
ATOM     36  C   UNL A   1      45.225  21.223  26.107  1.00  0.00     0.014 A 
ATOM     37  C   UNL A   1      44.097  23.253  24.554  1.00  0.00     0.010 A 
ATOM     38  C   UNL A   1      45.377  22.555  26.487  1.00  0.00     0.010 A 
ATOM     39  C   UNL A   1      44.818  23.584  25.712  1.00  0.00    -0.014 A 
BRANCH  39  40
ATOM     40  C   UNL A   1      45.008  24.999  26.122  1.00  0.00     0.031 A 
ATOM     41  C   UNL A   1      46.363  25.643  26.009  1.00  0.00     0.074 A 
ATOM     42  C   UNL A   1      43.975  25.689  26.644  1.00  0.00     0.049 A 
ATOM     43  N   UNL A   1      46.748  26.837  26.386  1.00  0.00    -0.248 NA
ATOM     44  C   UNL A   1      47.433  24.829  25.413  1.00  0.00     0.031 C 
ATOM     45  C   UNL A   1      42.621  25.168  26.837  1.00  0.00     0.029 A 
ATOM     46  N   UNL A   1      43.906  26.976  27.120  1.00  0.00    -0.354 N 
ATOM     47  C   UNL A   1      48.100  26.912  26.081  1.00  0.00     0.074 A 
ATOM     48  C   UNL A   1      48.484  25.627  25.539  1.00  0.00     0.031 C 
ATOM     49  C   UNL A   1      41.851  26.132  27.369  1.00  0.00     0.029 A 
ATOM     50  C   UNL A   1      42.663  27.323  27.593  1.00  0.00     0.049 A 
ATOM     51  H   UNL A   1      44.674  27.592  27.121  1.00  0.00     0.167 HD
ATOM     52  C   UNL A   1      48.941  27.966  26.216  1.00  0.00     0.037 A 
ATOM     53  C   UNL A   1      42.233  28.469  28.153  1.00  0.00     0.037 A 
ATOM     54  C   UNL A   1      48.554  29.252  26.735  1.00  0.00     0.049 A 
ATOM     55  C   UNL A   1      43.196  29.616  28.313  1.00  0.00     0.074 A 
ATOM     56  C   UNL A   1      49.324  30.393  26.878  1.00  0.00     0.029 A 
ATOM     57  N   UNL A   1      47.282  29.568  27.191  1.00  0.00    -0.354 N 
ATOM     58  N   UNL A   1      44.459  29.691  27.974  1.00  0.00    -0.248 NA
ATOM     59  C   UNL A   1      42.669  30.842  28.930  1.00  0.00     0.031 C 
ATOM     60  C   UNL A   1      48.530  31.387  27.459  1.00  0.00     0.029 A 
ATOM     61  C   UNL A   1      47.252  30.882  27.630  1.00  0.00     0.049 A 
ATOM     62  H   UNL A   1      46.516  28.950  27.201  1.00  0.00     0.167 HD
ATOM     63  C   UNL A   1      44.867  30.977  28.301  1.00  0.00     0.074 A 
ATOM     64  C   UNL A   1      43.714  31.653  28.855  1.00  0.00     0.031 C 
ATOM     65  C   UNL A   1      46.090  31.546  28.158  1.00  0.00     0.037 A 
BRANCH  52  66
ATOM     66  C   UNL A   1      50.367  27.780  25.782  1.00  0.00     0.064 A 
ATOM     67  C   UNL A   1      51.383  27.494  26.707  1.00  0.00     0.173 A 
ATOM     68  C   UNL A   1      50.713  27.835  24.424  1.00  0.00     0.173 A 
ATOM     69  F   UNL A   1      51.105  27.442  28.019  1.00  0.00    -0.203 F 
ATOM     70  C   UNL A   1      52.696  27.294  26.291  1.00  0.00     0.198 A 
ATOM     71  C   UNL A   1      52.022  27.604  24.009  1.00  0.00     0.198 A 
ATOM     72  F   UNL A   1      49.780  28.099  23.497  1.00  0.00    -0.203 F 
ATOM     73  F   UNL A   1      53.656  27.065  27.197  1.00  0.00    -0.200 F 
ATOM     74  C   UNL A   1      53.013  27.340  24.941  1.00  0.00     0.200 A 
ATOM     75  F   UNL A   1      52.325  27.637  22.703  1.00  0.00    -0.200 F 
ATOM     76  F   UNL A   1      54.275  27.135  24.542  1.00  0.00    -0.200 F 
ENDBRANCH  52  66
BRANCH  53  77
ATOM     77  C   UNL A   1      40.818  28.607  28.589  1.00  0.00     0.064 A 
ATOM     78  C   UNL A   1      40.439  28.298  29.904  1.00  0.00     0.173 A 
ATOM     79  C   UNL A   1      39.814  29.016  27.700  1.00  0.00     0.173 A 
ATOM     80  F   UNL A   1      41.359  27.881  30.785  1.00  0.00    -0.203 F 
ATOM     81  C   UNL A   1      39.105  28.363  30.303  1.00  0.00     0.198 A 
ATOM     82  C   UNL A   1      38.485  29.111  28.110  1.00  0.00     0.198 A 
ATOM     83  F   UNL A   1      40.123  29.329  26.434  1.00  0.00    -0.203 F 
ATOM     84  F   UNL A   1      38.763  28.005  31.549  1.00  0.00    -0.200 F 
ATOM     85  C   UNL A   1      38.130  28.774  29.408  1.00  0.00     0.200 A 
ATOM     86  F   UNL A   1      37.548  29.522  27.245  1.00  0.00    -0.200 F 
ATOM     87  F   UNL A   1      36.848  28.833  29.791  1.00  0.00    -0.200 F 
ENDBRANCH  53  77
BRANCH  65  88
ATOM     88  C   UNL A   1      46.229  32.985  28.559  1.00  0.00     0.064 A 
ATOM     89  C   UNL A   1      45.994  34.030  27.655  1.00  0.00     0.173 A 
ATOM     90  C   UNL A   1      46.566  33.322  29.880  1.00  0.00     0.173 A 
ATOM     91  F   UNL A   1      45.684  33.761  26.377  1.00  0.00    -0.203 F 
ATOM     92  C   UNL A   1      46.116  35.360  28.049  1.00  0.00     0.198 A 
ATOM     93  C   UNL A   1      46.657  34.652  30.279  1.00  0.00     0.198 A 
ATOM     94  F   UNL A   1      46.794  32.360  30.786  1.00  0.00    -0.203 F 
ATOM     95  F   UNL A   1      45.935  36.342  27.155  1.00  0.00    -0.200 F 
ATOM     96  C   UNL A   1      46.441  35.670  29.362  1.00  0.00     0.200 A 
ATOM     97  F   UNL A   1      46.957  34.950  31.551  1.00  0.00    -0.200 F 
ATOM     98  F   UNL A   1      46.552  36.950  29.742  1.00  0.00    -0.200 F 
ENDBRANCH  65  88
ENDBRANCH  39  40
ENDBRANCH  31  34
ENDBRANCH  29  30
ENDBRANCH  28  29
ENDBRANCH  27  28
ENDBRANCH   1  27
TORSDOF 16
ENDMDL
MODEL 3
REMARK VINA RESULT:     -11.5      4.946      9.602
REMARK SMILES C[C@H](NC(=O)N1CC[C@@H](C(=O)NCCCCCCNC(=O)c2ccc(-c3c4nc(c(-c5c(F)c(F)c(F)c(F)c5F)c5ccc([nH]5)c(-c5c(F)c(F)c(F)c(F)c5F)c5nc(c(-c6c(F)c(F)c(F)c(F)c6F)c6ccc3[nH]6)C=C5)C=C4)cc2)[C@H]1C)c1ccc(Cl)cc1
REMARK SMILES IDX 15 1 14 2 13 3 12 4 10 5 11 6 9 8 6 9 7 10 85 11 8 12 86 13
REMARK SMILES IDX 4 14 3 15 5 17 2 18 1 19 87 20 88 21 93 22 89 23 92 24 90 25
REMARK SMILES IDX 91 26 16 27 17 28 18 29 19 30 20 31 21 33 22 34 23 35 84 36
REMARK SMILES IDX 24 37 83 38 25 39 26 40 27 41 77 42 28 43 82 44 76 45 78 46
REMARK SMILES IDX 29 47 81 48 75 49 74 50 30 52 62 53 42 54 61 55 43 56 46 57
REMARK SMILES IDX 60 58 79 59 44 60 45 61 59 63 80 64 47 65 31 66 32 67 40 68
REMARK SMILES IDX 33 69 34 70 38 71 41 72 35 73 36 74 39 75 37 76 63 77 64 78
REMARK SMILES IDX 72 79 65 80 66 81 70 82 73 83 67 84 68 85 71 86 69 87 48 88
REMARK SMILES IDX 49 89 57 90 50 91 51 92 55 93 58 94 52 95 53 96 56 97 54 98
REMARK H PARENT 12 7 3 16 19 32 78 51 46 62
REMARK Flexibility Score: inf
ROOT
ATOM      1  C   UNL A   1      31.023  26.634  26.791  1.00  0.00     0.002 C 
ENDROOT
BRANCH   1   2
ATOM      2  C   UNL A   1      31.301  25.378  25.962  1.00  0.00     0.021 C 
BRANCH   2   3
ATOM      3  C   UNL A   1      32.258  24.361  26.585  1.00  0.00     0.116 C 
BRANCH   3   4
ATOM      4  N   UNL A   1      31.809  23.002  26.367  1.00  0.00    -0.356 N 
ATOM      5  C   UNL A   1      31.964  22.155  25.317  1.00  0.00     0.225 C 
ATOM      6  O   UNL A   1      31.404  21.058  25.407  1.00  0.00    -0.275 OA
ATOM      7  H   UNL A   1      31.298  22.622  27.117  1.00  0.00     0.163 HD
BRANCH   5   8
ATOM      8  C   UNL A   1      32.770  22.483  24.068  1.00  0.00     0.102 C 
ATOM      9  N   UNL A   1      33.024  24.424  22.678  1.00  0.00    -0.321 N 
ATOM     10  C   UNL A   1      34.350  24.002  23.095  1.00  0.00     0.122 C 
ATOM     11  C   UNL A   1      32.100  23.312  22.951  1.00  0.00     0.096 C 
ATOM     12  C   UNL A   1      34.130  23.138  24.321  1.00  0.00     0.037 C 
ATOM     13  C   UNL A   1      30.652  23.702  23.169  1.00  0.00     0.032 C 
BRANCH   9  14
ATOM     14  C   UNL A   1      32.950  25.083  21.471  1.00  0.00     0.318 C 
ATOM     15  N   UNL A   1      32.543  26.375  21.468  1.00  0.00    -0.331 N 
ATOM     16  H   UNL A   1      32.246  26.717  20.593  1.00  0.00     0.165 HD
ATOM     17  O   UNL A   1      33.277  24.565  20.405  1.00  0.00    -0.249 OA
BRANCH  15  18
ATOM     18  C   UNL A   1      32.478  27.335  22.559  1.00  0.00     0.111 C 
ATOM     19  C   UNL A   1      33.595  28.369  22.400  1.00  0.00     0.036 C 
BRANCH  18  20
ATOM     20  C   UNL A   1      31.126  28.029  22.657  1.00  0.00    -0.026 A 
ATOM     21  C   UNL A   1      29.975  27.382  23.136  1.00  0.00     0.007 A 
ATOM     22  C   UNL A   1      31.024  29.383  22.293  1.00  0.00     0.007 A 
ATOM     23  C   UNL A   1      28.783  28.090  23.322  1.00  0.00     0.021 A 
ATOM     24  C   UNL A   1      29.838  30.094  22.488  1.00  0.00     0.021 A 
ATOM     25  C   UNL A   1      28.726  29.447  23.016  1.00  0.00     0.041 A 
ATOM     26  Cl  UNL A   1      27.279  30.332  23.301  1.00  0.00    -0.084 Cl
ENDBRANCH  18  20
ENDBRANCH  15  18
ENDBRANCH   9  14
ENDBRANCH   5   8
ENDBRANCH   3   4
ENDBRANCH   2   3
ENDBRANCH   1   2
BRANCH   1  27
ATOM     27  C   UNL A   1      31.793  27.887  26.371  1.00  0.00     0.002 C 
BRANCH  27  28
ATOM     28  C   UNL A   1      33.286  27.896  26.708  1.00  0.00     0.021 C 
BRANCH  28  29
ATOM     29  C   UNL A   1      34.108  28.987  26.022  1.00  0.00     0.116 C 
BRANCH  29  30
ATOM     30  N   UNL A   1      33.890  30.298  26.608  1.00  0.00    -0.352 N 
ATOM     31  C   UNL A   1      34.559  30.925  27.630  1.00  0.00     0.251 C 
ATOM     32  H   UNL A   1      33.152  30.815  26.212  1.00  0.00     0.163 HD
ATOM     33  O   UNL A   1      34.111  31.957  28.117  1.00  0.00    -0.269 OA
BRANCH  31  34
ATOM     34  C   UNL A   1      35.814  30.350  28.164  1.00  0.00     0.039 A 
ATOM     35  C   UNL A   1      37.004  30.565  27.462  1.00  0.00     0.014 A 
ATOM     36  C   UNL A   1      35.818  29.577  29.327  1.00  0.00     0.014 A 
ATOM     37  C   UNL A   1      38.206  30.054  27.959  1.00  0.00     0.010 A 
ATOM     38  C   UNL A   1      37.025  29.125  29.857  1.00  0.00     0.010 A 
ATOM     39  C   UNL A   1      38.231  29.356  29.177  1.00  0.00    -0.014 A 
BRANCH  39  40
ATOM     40  C   UNL A   1      39.506  28.849  29.747  1.00  0.00     0.031 A 
ATOM     41  C   UNL A   1      40.157  29.566  30.898  1.00  0.00     0.074 A 
ATOM     42  C   UNL A   1      40.105  27.775  29.196  1.00  0.00     0.049 A 
ATOM     43  N   UNL A   1      41.305  29.327  31.481  1.00  0.00    -0.248 NA
ATOM     44  C   UNL A   1      39.431  30.719  31.453  1.00  0.00     0.031 C 
ATOM     45  C   UNL A   1      39.592  27.011  28.057  1.00  0.00     0.029 A 
ATOM     46  N   UNL A   1      41.283  27.145  29.514  1.00  0.00    -0.354 N 
ATOM     47  C   UNL A   1      41.441  30.301  32.462  1.00  0.00     0.074 A 
ATOM     48  C   UNL A   1      40.287  31.168  32.361  1.00  0.00     0.031 C 
ATOM     49  C   UNL A   1      40.439  26.005  27.786  1.00  0.00     0.029 A 
ATOM     50  C   UNL A   1      41.572  26.074  28.702  1.00  0.00     0.049 A 
ATOM     51  H   UNL A   1      41.865  27.432  30.254  1.00  0.00     0.167 HD
ATOM     52  C   UNL A   1      42.426  30.444  33.381  1.00  0.00     0.037 A 
ATOM     53  C   UNL A   1      42.636  25.249  28.694  1.00  0.00     0.037 A 
ATOM     54  C   UNL A   1      43.563  29.569  33.496  1.00  0.00     0.049 A 
ATOM     55  C   UNL A   1      43.728  25.448  29.712  1.00  0.00     0.074 A 
ATOM     56  C   UNL A   1      44.596  29.611  34.416  1.00  0.00     0.029 A 
ATOM     57  N   UNL A   1      43.813  28.487  32.664  1.00  0.00    -0.354 N 
ATOM     58  N   UNL A   1      43.819  26.341  30.666  1.00  0.00    -0.248 NA
ATOM     59  C   UNL A   1      44.864  24.517  29.654  1.00  0.00     0.031 C 
ATOM     60  C   UNL A   1      45.492  28.581  34.116  1.00  0.00     0.029 A 
ATOM     61  C   UNL A   1      44.992  27.865  33.040  1.00  0.00     0.049 A 
ATOM     62  H   UNL A   1      43.238  28.205  31.916  1.00  0.00     0.167 HD
ATOM     63  C   UNL A   1      44.999  26.059  31.342  1.00  0.00     0.074 A 
ATOM     64  C   UNL A   1      45.584  24.903  30.697  1.00  0.00     0.031 C 
ATOM     65  C   UNL A   1      45.549  26.702  32.402  1.00  0.00     0.037 A 
BRANCH  52  66
ATOM     66  C   UNL A   1      42.313  31.586  34.350  1.00  0.00     0.064 A 
ATOM     67  C   UNL A   1      42.861  32.845  34.067  1.00  0.00     0.173 A 
ATOM     68  C   UNL A   1      41.604  31.434  35.551  1.00  0.00     0.173 A 
ATOM     69  F   UNL A   1      43.559  33.038  32.936  1.00  0.00    -0.203 F 
ATOM     70  C   UNL A   1      42.725  33.905  34.959  1.00  0.00     0.198 A 
ATOM     71  C   UNL A   1      41.444  32.505  36.428  1.00  0.00     0.198 A 
ATOM     72  F   UNL A   1      41.054  30.253  35.870  1.00  0.00    -0.203 F 
ATOM     73  F   UNL A   1      43.295  35.087  34.685  1.00  0.00    -0.200 F 
ATOM     74  C   UNL A   1      42.009  33.737  36.135  1.00  0.00     0.200 A 
ATOM     75  F   UNL A   1      40.740  32.345  37.558  1.00  0.00    -0.200 F 
ATOM     76  F   UNL A   1      41.868  34.761  36.987  1.00  0.00    -0.200 F 
ENDBRANCH  52  66
BRANCH  53  77
ATOM     77  C   UNL A   1      42.721  24.144  27.703  1.00  0.00     0.064 A 
ATOM     78  C   UNL A   1      42.348  22.837  28.050  1.00  0.00     0.173 A 
ATOM     79  C   UNL A   1      43.205  24.360  26.405  1.00  0.00     0.173 A 
ATOM     80  F   UNL A   1      41.900  22.575  29.286  1.00  0.00    -0.203 F 
ATOM     81  C   UNL A   1      42.485  21.784  27.147  1.00  0.00     0.198 A 
ATOM     82  C   UNL A   1      43.311  23.312  25.492  1.00  0.00     0.198 A 
ATOM     83  F   UNL A   1      43.570  25.591  26.019  1.00  0.00    -0.203 F 
ATOM     84  F   UNL A   1      42.176  20.536  27.525  1.00  0.00    -0.200 F 
ATOM     85  C   UNL A   1      42.962  22.023  25.868  1.00  0.00     0.200 A 
ATOM     86  F   UNL A   1      43.760  23.550  24.252  1.00  0.00    -0.200 F 
ATOM     87  F   UNL A   1      43.097  21.011  25.001  1.00  0.00    -0.200 F 
ENDBRANCH  53  77
BRANCH  65  88
ATOM     88  C   UNL A   1      46.822  26.139  32.961  1.00  0.00     0.064 A 
ATOM     89  C   UNL A   1      48.079  26.627  32.575  1.00  0.00     0.173 A 
ATOM     90  C   UNL A   1      46.782  25.122  33.927  1.00  0.00     0.173 A 
ATOM     91  F   UNL A   1      48.172  27.589  31.643  1.00  0.00    -0.203 F 
ATOM     92  C   UNL A   1      49.248  26.101  33.115  1.00  0.00     0.198 A 
ATOM     93  C   UNL A   1      47.952  24.619  34.489  1.00  0.00     0.198 A 
ATOM     94  F   UNL A   1      45.605  24.624  34.337  1.00  0.00    -0.203 F 
ATOM     95  F   UNL A   1      50.440  26.549  32.694  1.00  0.00    -0.200 F 
ATOM     96  C   UNL A   1      49.184  25.102  34.076  1.00  0.00     0.200 A 
ATOM     97  F   UNL A   1      47.887  23.664  35.427  1.00  0.00    -0.200 F 
ATOM     98  F   UNL A   1      50.311  24.601  34.600  1.00  0.00    -0.200 F 
ENDBRANCH  65  88
ENDBRANCH  39  40
ENDBRANCH  31  34
ENDBRANCH  29  30
ENDBRANCH  28  29
ENDBRANCH  27  28
ENDBRANCH   1  27
TORSDOF 16
ENDMDL
