MODEL 1
REMARK VINA RESULT:     -11.5      0.000      0.000
REMARK SMILES CC[NH2+][C@]1(C(=O)NCCCCCCNC(=O)c2ccc(-c3c4nc(c(-c5c(F)c(F)c(F)c(F)c5F)c5ccc([nH]5)c(-c5c(F)c(F)c(F)c(F)c5F)c5nc(c(-c6c(F)c(F)c(F)c(F)c6F)c6ccc3[nH]6)C=C5)C=C4)cc2)CC[C@@H](Sc2ccc(OC)cc2)C1
REMARK SMILES IDX 10 1 9 2 8 3 7 4 5 5 6 6 4 8 80 9 92 10 81 11 82 12 3 13
REMARK SMILES IDX 2 16 1 17 83 18 84 19 85 20 91 21 86 22 90 23 87 24 88 25
REMARK SMILES IDX 89 26 11 27 12 28 13 29 14 30 15 31 16 33 17 34 18 35 79 36
REMARK SMILES IDX 19 37 78 38 20 39 21 40 22 41 72 42 23 43 77 44 71 45 73 46
REMARK SMILES IDX 24 47 76 48 70 49 69 50 25 52 57 53 37 54 56 55 38 56 41 57
REMARK SMILES IDX 55 58 74 59 39 60 40 61 54 63 75 64 42 65 26 66 27 67 35 68
REMARK SMILES IDX 28 69 29 70 33 71 36 72 30 73 31 74 34 75 32 76 58 77 59 78
REMARK SMILES IDX 67 79 60 80 61 81 65 82 68 83 62 84 63 85 66 86 64 87 43 88
REMARK SMILES IDX 44 89 52 90 45 91 46 92 50 93 53 94 47 95 48 96 51 97 49 98
REMARK H PARENT 7 7 3 14 3 15 14 32 73 51 41 62
REMARK Flexibility Score: inf
ROOT
ATOM      1  C   UNL A   1      32.759  30.043  26.749  1.00  0.00     0.002 C 
ENDROOT
BRANCH   1   2
ATOM      2  C   UNL A   1      33.510  29.187  25.724  1.00  0.00     0.021 C 
BRANCH   2   3
ATOM      3  C   UNL A   1      32.982  29.327  24.303  1.00  0.00     0.116 C 
BRANCH   3   4
ATOM      4  N   UNL A   1      33.649  28.428  23.391  1.00  0.00    -0.351 N 
ATOM      5  C   UNL A   1      33.217  27.314  22.738  1.00  0.00     0.281 C 
ATOM      6  O   UNL A   1      34.023  26.825  21.936  1.00  0.00    -0.268 OA
ATOM      7  H   UNL A   1      34.586  28.664  23.206  1.00  0.00     0.163 HD
BRANCH   5   8
ATOM      8  C   UNL A   1      31.792  26.701  22.949  1.00  0.00     0.176 C 
ATOM      9  C   UNL A   1      31.877  25.237  22.429  1.00  0.00     0.080 C 
ATOM     10  C   UNL A   1      31.384  26.456  24.413  1.00  0.00     0.094 C 
ATOM     11  C   UNL A   1      30.775  24.453  23.128  1.00  0.00     0.022 C 
ATOM     12  C   UNL A   1      30.561  25.170  24.454  1.00  0.00     0.058 C 
BRANCH   8  13
ATOM     13  N   UNL A   1      30.777  27.432  22.143  1.00  0.00    -0.334 N 
ATOM     14  H   UNL A   1      31.273  28.056  21.507  1.00  0.00     0.347 HD
ATOM     15  H   UNL A   1      30.228  26.711  21.675  1.00  0.00     0.347 HD
BRANCH  13  16
ATOM     16  C   UNL A   1      29.818  28.232  22.898  1.00  0.00     0.257 C 
ATOM     17  C   UNL A   1      29.822  29.683  22.442  1.00  0.00     0.071 C 
ENDBRANCH  13  16
ENDBRANCH   8  13
BRANCH  12  18
ATOM     18  S   UNL A   1      30.805  24.196  25.994  1.00  0.00    -0.122 SA
BRANCH  18  19
ATOM     19  C   UNL A   1      32.276  23.236  25.683  1.00  0.00     0.008 A 
ATOM     20  C   UNL A   1      33.523  23.836  25.877  1.00  0.00     0.019 A 
ATOM     21  C   UNL A   1      32.232  21.957  25.124  1.00  0.00     0.019 A 
ATOM     22  C   UNL A   1      34.699  23.147  25.562  1.00  0.00     0.047 A 
ATOM     23  C   UNL A   1      33.410  21.255  24.833  1.00  0.00     0.047 A 
ATOM     24  C   UNL A   1      34.650  21.847  25.055  1.00  0.00     0.118 A 
BRANCH  24  25
ATOM     25  O   UNL A   1      35.866  21.283  24.791  1.00  0.00    -0.497 OA
ATOM     26  C   UNL A   1      36.869  22.144  24.264  1.00  0.00     0.278 C 
ENDBRANCH  24  25
ENDBRANCH  18  19
ENDBRANCH  12  18
ENDBRANCH   5   8
ENDBRANCH   3   4
ENDBRANCH   2   3
ENDBRANCH   1   2
BRANCH   1  27
ATOM     27  C   UNL A   1      31.495  30.731  26.219  1.00  0.00     0.002 C 
BRANCH  27  28
ATOM     28  C   UNL A   1      31.400  32.233  26.502  1.00  0.00     0.021 C 
BRANCH  28  29
ATOM     29  C   UNL A   1      32.591  32.810  27.258  1.00  0.00     0.116 C 
BRANCH  29  30
ATOM     30  N   UNL A   1      32.381  34.200  27.626  1.00  0.00    -0.352 N 
ATOM     31  C   UNL A   1      32.973  34.932  28.621  1.00  0.00     0.251 C 
ATOM     32  H   UNL A   1      31.719  34.685  27.081  1.00  0.00     0.163 HD
ATOM     33  O   UNL A   1      32.532  36.041  28.918  1.00  0.00    -0.269 OA
BRANCH  31  34
ATOM     34  C   UNL A   1      34.131  34.381  29.350  1.00  0.00     0.039 A 
ATOM     35  C   UNL A   1      33.915  33.724  30.562  1.00  0.00     0.014 A 
ATOM     36  C   UNL A   1      35.428  34.518  28.845  1.00  0.00     0.014 A 
ATOM     37  C   UNL A   1      34.993  33.160  31.244  1.00  0.00     0.010 A 
ATOM     38  C   UNL A   1      36.490  33.890  29.485  1.00  0.00     0.010 A 
ATOM     39  C   UNL A   1      36.285  33.211  30.696  1.00  0.00    -0.014 A 
BRANCH  39  40
ATOM     40  C   UNL A   1      37.434  32.567  31.380  1.00  0.00     0.031 A 
ATOM     41  C   UNL A   1      38.164  31.431  30.721  1.00  0.00     0.074 A 
ATOM     42  C   UNL A   1      37.783  32.971  32.617  1.00  0.00     0.049 A 
ATOM     43  N   UNL A   1      39.150  30.702  31.181  1.00  0.00    -0.248 NA
ATOM     44  C   UNL A   1      37.709  31.043  29.376  1.00  0.00     0.031 C 
ATOM     45  C   UNL A   1      37.123  34.034  33.376  1.00  0.00     0.029 A 
ATOM     46  N   UNL A   1      38.773  32.528  33.458  1.00  0.00    -0.354 N 
ATOM     47  C   UNL A   1      39.423  29.768  30.191  1.00  0.00     0.074 A 
ATOM     48  C   UNL A   1      38.462  29.982  29.130  1.00  0.00     0.031 C 
ATOM     49  C   UNL A   1      37.741  34.177  34.559  1.00  0.00     0.029 A 
ATOM     50  C   UNL A   1      38.812  33.191  34.659  1.00  0.00     0.049 A 
ATOM     51  H   UNL A   1      39.397  31.804  33.221  1.00  0.00     0.167 HD
ATOM     52  C   UNL A   1      40.403  28.834  30.157  1.00  0.00     0.037 A 
ATOM     53  C   UNL A   1      39.614  33.015  35.726  1.00  0.00     0.037 A 
ATOM     54  C   UNL A   1      41.368  28.638  31.207  1.00  0.00     0.049 A 
ATOM     55  C   UNL A   1      40.682  31.955  35.672  1.00  0.00     0.074 A 
ATOM     56  C   UNL A   1      42.433  27.755  31.248  1.00  0.00     0.029 A 
ATOM     57  N   UNL A   1      41.381  29.334  32.408  1.00  0.00    -0.354 N 
ATOM     58  N   UNL A   1      40.976  31.123  34.701  1.00  0.00    -0.248 NA
ATOM     59  C   UNL A   1      41.536  31.815  36.859  1.00  0.00     0.031 C 
ATOM     60  C   UNL A   1      43.056  27.878  32.493  1.00  0.00     0.029 A 
ATOM     61  C   UNL A   1      42.419  28.882  33.206  1.00  0.00     0.049 A 
ATOM     62  H   UNL A   1      40.746  30.045  32.656  1.00  0.00     0.167 HD
ATOM     63  C   UNL A   1      42.064  30.386  35.146  1.00  0.00     0.074 A 
ATOM     64  C   UNL A   1      42.388  30.878  36.469  1.00  0.00     0.031 C 
ATOM     65  C   UNL A   1      42.735  29.389  34.518  1.00  0.00     0.037 A 
BRANCH  52  66
ATOM     66  C   UNL A   1      40.480  27.949  28.945  1.00  0.00     0.064 A 
ATOM     67  C   UNL A   1      39.753  26.751  28.859  1.00  0.00     0.173 A 
ATOM     68  C   UNL A   1      41.262  28.319  27.841  1.00  0.00     0.173 A 
ATOM     69  F   UNL A   1      38.998  26.343  29.891  1.00  0.00    -0.203 F 
ATOM     70  C   UNL A   1      39.833  25.942  27.728  1.00  0.00     0.198 A 
ATOM     71  C   UNL A   1      41.313  27.525  26.698  1.00  0.00     0.198 A 
ATOM     72  F   UNL A   1      41.973  29.456  27.866  1.00  0.00    -0.203 F 
ATOM     73  F   UNL A   1      39.173  24.776  27.693  1.00  0.00    -0.200 F 
ATOM     74  C   UNL A   1      40.606  26.333  26.646  1.00  0.00     0.200 A 
ATOM     75  F   UNL A   1      42.049  27.912  25.647  1.00  0.00    -0.200 F 
ATOM     76  F   UNL A   1      40.676  25.558  25.555  1.00  0.00    -0.200 F 
ENDBRANCH  52  66
BRANCH  53  77
ATOM     77  C   UNL A   1      39.454  33.875  36.928  1.00  0.00     0.064 A 
ATOM     78  C   UNL A   1      38.714  33.436  38.035  1.00  0.00     0.173 A 
ATOM     79  C   UNL A   1      40.026  35.155  36.993  1.00  0.00     0.173 A 
ATOM     80  F   UNL A   1      38.132  32.228  38.015  1.00  0.00    -0.203 F 
ATOM     81  C   UNL A   1      38.533  34.252  39.150  1.00  0.00     0.198 A 
ATOM     82  C   UNL A   1      39.869  35.957  38.121  1.00  0.00     0.198 A 
ATOM     83  F   UNL A   1      40.748  35.621  35.963  1.00  0.00    -0.203 F 
ATOM     84  F   UNL A   1      37.779  33.826  40.173  1.00  0.00    -0.200 F 
ATOM     85  C   UNL A   1      39.115  35.509  39.195  1.00  0.00     0.200 A 
ATOM     86  F   UNL A   1      40.448  37.165  38.166  1.00  0.00    -0.200 F 
ATOM     87  F   UNL A   1      38.943  36.292  40.268  1.00  0.00    -0.200 F 
ENDBRANCH  53  77
BRANCH  65  88
ATOM     88  C   UNL A   1      43.914  28.793  35.233  1.00  0.00     0.064 A 
ATOM     89  C   UNL A   1      43.775  27.705  36.108  1.00  0.00     0.173 A 
ATOM     90  C   UNL A   1      45.205  29.292  35.006  1.00  0.00     0.173 A 
ATOM     91  F   UNL A   1      42.560  27.201  36.371  1.00  0.00    -0.203 F 
ATOM     92  C   UNL A   1      44.882  27.160  36.753  1.00  0.00     0.198 A 
ATOM     93  C   UNL A   1      46.314  28.722  35.625  1.00  0.00     0.198 A 
ATOM     94  F   UNL A   1      45.395  30.325  34.171  1.00  0.00    -0.203 F 
ATOM     95  F   UNL A   1      44.719  26.156  37.625  1.00  0.00    -0.200 F 
ATOM     96  C   UNL A   1      46.150  27.663  36.504  1.00  0.00     0.200 A 
ATOM     97  F   UNL A   1      47.540  29.198  35.370  1.00  0.00    -0.200 F 
ATOM     98  F   UNL A   1      47.216  27.130  37.118  1.00  0.00    -0.200 F 
ENDBRANCH  65  88
ENDBRANCH  39  40
ENDBRANCH  31  34
ENDBRANCH  29  30
ENDBRANCH  28  29
ENDBRANCH  27  28
ENDBRANCH   1  27
TORSDOF 18
ENDMDL
MODEL 2
REMARK VINA RESULT:     -11.4      5.469     11.153
REMARK SMILES CC[NH2+][C@]1(C(=O)NCCCCCCNC(=O)c2ccc(-c3c4nc(c(-c5c(F)c(F)c(F)c(F)c5F)c5ccc([nH]5)c(-c5c(F)c(F)c(F)c(F)c5F)c5nc(c(-c6c(F)c(F)c(F)c(F)c6F)c6ccc3[nH]6)C=C5)C=C4)cc2)CC[C@@H](Sc2ccc(OC)cc2)C1
REMARK SMILES IDX 10 1 9 2 8 3 7 4 5 5 6 6 4 8 80 9 92 10 81 11 82 12 3 13
REMARK SMILES IDX 2 16 1 17 83 18 84 19 85 20 91 21 86 22 90 23 87 24 88 25
REMARK SMILES IDX 89 26 11 27 12 28 13 29 14 30 15 31 16 33 17 34 18 35 79 36
REMARK SMILES IDX 19 37 78 38 20 39 21 40 22 41 72 42 23 43 77 44 71 45 73 46
REMARK SMILES IDX 24 47 76 48 70 49 69 50 25 52 57 53 37 54 56 55 38 56 41 57
REMARK SMILES IDX 55 58 74 59 39 60 40 61 54 63 75 64 42 65 26 66 27 67 35 68
REMARK SMILES IDX 28 69 29 70 33 71 36 72 30 73 31 74 34 75 32 76 58 77 59 78
REMARK SMILES IDX 67 79 60 80 61 81 65 82 68 83 62 84 63 85 66 86 64 87 43 88
REMARK SMILES IDX 44 89 52 90 45 91 46 92 50 93 53 94 47 95 48 96 51 97 49 98
REMARK H PARENT 7 7 3 14 3 15 14 32 73 51 41 62
REMARK Flexibility Score: inf
ROOT
ATOM      1  C   UNL A   1      35.529  18.892  24.723  1.00  0.00     0.002 C 
ENDROOT
BRANCH   1   2
ATOM      2  C   UNL A   1      34.059  19.301  24.587  1.00  0.00     0.021 C 
BRANCH   2   3
ATOM      3  C   UNL A   1      33.785  20.743  24.991  1.00  0.00     0.116 C 
BRANCH   3   4
ATOM      4  N   UNL A   1      33.702  21.616  23.842  1.00  0.00    -0.351 N 
ATOM      5  C   UNL A   1      33.857  22.963  23.714  1.00  0.00     0.281 C 
ATOM      6  O   UNL A   1      33.823  23.391  22.553  1.00  0.00    -0.268 OA
ATOM      7  H   UNL A   1      33.497  21.153  22.999  1.00  0.00     0.163 HD
BRANCH   5   8
ATOM      8  C   UNL A   1      34.098  23.913  24.934  1.00  0.00     0.176 C 
ATOM      9  C   UNL A   1      34.299  25.334  24.334  1.00  0.00     0.080 C 
ATOM     10  C   UNL A   1      32.875  24.159  25.836  1.00  0.00     0.094 C 
ATOM     11  C   UNL A   1      33.945  26.332  25.427  1.00  0.00     0.022 C 
ATOM     12  C   UNL A   1      32.935  25.611  26.308  1.00  0.00     0.058 C 
BRANCH   8  13
ATOM     13  N   UNL A   1      35.334  23.530  25.667  1.00  0.00    -0.334 N 
ATOM     14  H   UNL A   1      35.383  24.096  26.514  1.00  0.00     0.347 HD
ATOM     15  H   UNL A   1      35.253  22.528  25.840  1.00  0.00     0.347 HD
BRANCH  13  16
ATOM     16  C   UNL A   1      36.588  23.704  24.940  1.00  0.00     0.257 C 
ATOM     17  C   UNL A   1      37.784  23.683  25.879  1.00  0.00     0.071 C 
ENDBRANCH  13  16
ENDBRANCH   8  13
BRANCH  12  18
ATOM     18  S   UNL A   1      31.278  26.383  26.505  1.00  0.00    -0.122 SA
BRANCH  18  19
ATOM     19  C   UNL A   1      31.026  27.284  24.987  1.00  0.00     0.008 A 
ATOM     20  C   UNL A   1      31.203  28.670  24.991  1.00  0.00     0.019 A 
ATOM     21  C   UNL A   1      30.526  26.680  23.831  1.00  0.00     0.019 A 
ATOM     22  C   UNL A   1      30.931  29.424  23.844  1.00  0.00     0.047 A 
ATOM     23  C   UNL A   1      30.279  27.430  22.673  1.00  0.00     0.047 A 
ATOM     24  C   UNL A   1      30.484  28.807  22.674  1.00  0.00     0.118 A 
BRANCH  24  25
ATOM     25  O   UNL A   1      30.258  29.652  21.625  1.00  0.00    -0.497 OA
ATOM     26  C   UNL A   1      29.033  30.376  21.639  1.00  0.00     0.278 C 
ENDBRANCH  24  25
ENDBRANCH  18  19
ENDBRANCH  12  18
ENDBRANCH   5   8
ENDBRANCH   3   4
ENDBRANCH   2   3
ENDBRANCH   1   2
BRANCH   1  27
ATOM     27  C   UNL A   1      36.500  20.043  25.015  1.00  0.00     0.002 C 
BRANCH  27  28
ATOM     28  C   UNL A   1      37.962  19.774  24.650  1.00  0.00     0.021 C 
BRANCH  28  29
ATOM     29  C   UNL A   1      38.965  20.156  25.731  1.00  0.00     0.116 C 
BRANCH  29  30
ATOM     30  N   UNL A   1      39.984  19.136  25.915  1.00  0.00    -0.352 N 
ATOM     31  C   UNL A   1      41.329  19.283  26.125  1.00  0.00     0.251 C 
ATOM     32  H   UNL A   1      39.660  18.206  25.883  1.00  0.00     0.163 HD
ATOM     33  O   UNL A   1      42.075  18.307  26.062  1.00  0.00    -0.269 OA
BRANCH  31  34
ATOM     34  C   UNL A   1      41.887  20.618  26.412  1.00  0.00     0.039 A 
ATOM     35  C   UNL A   1      42.264  21.435  25.344  1.00  0.00     0.014 A 
ATOM     36  C   UNL A   1      42.047  21.061  27.729  1.00  0.00     0.014 A 
ATOM     37  C   UNL A   1      42.754  22.717  25.595  1.00  0.00     0.010 A 
ATOM     38  C   UNL A   1      42.462  22.365  27.974  1.00  0.00     0.010 A 
ATOM     39  C   UNL A   1      42.828  23.204  26.910  1.00  0.00    -0.014 A 
BRANCH  39  40
ATOM     40  C   UNL A   1      43.293  24.585  27.192  1.00  0.00     0.031 A 
ATOM     41  C   UNL A   1      42.337  25.606  27.740  1.00  0.00     0.074 A 
ATOM     42  C   UNL A   1      44.563  24.931  26.900  1.00  0.00     0.049 A 
ATOM     43  N   UNL A   1      42.537  26.876  27.994  1.00  0.00    -0.248 NA
ATOM     44  C   UNL A   1      40.966  25.148  28.015  1.00  0.00     0.031 C 
ATOM     45  C   UNL A   1      45.571  24.040  26.326  1.00  0.00     0.029 A 
ATOM     46  N   UNL A   1      45.218  26.129  27.039  1.00  0.00    -0.354 N 
ATOM     47  C   UNL A   1      41.319  27.366  28.445  1.00  0.00     0.074 A 
ATOM     48  C   UNL A   1      40.371  26.275  28.375  1.00  0.00     0.031 C 
ATOM     49  C   UNL A   1      46.722  24.713  26.184  1.00  0.00     0.029 A 
ATOM     50  C   UNL A   1      46.524  26.093  26.618  1.00  0.00     0.049 A 
ATOM     51  H   UNL A   1      44.793  26.936  27.407  1.00  0.00     0.167 HD
ATOM     52  C   UNL A   1      41.024  28.607  28.901  1.00  0.00     0.037 A 
ATOM     53  C   UNL A   1      47.453  27.066  26.576  1.00  0.00     0.037 A 
ATOM     54  C   UNL A   1      41.977  29.683  28.986  1.00  0.00     0.049 A 
ATOM     55  C   UNL A   1      47.094  28.442  27.069  1.00  0.00     0.074 A 
ATOM     56  C   UNL A   1      41.793  30.962  29.483  1.00  0.00     0.029 A 
ATOM     57  N   UNL A   1      43.295  29.607  28.556  1.00  0.00    -0.354 N 
ATOM     58  N   UNL A   1      45.958  28.877  27.559  1.00  0.00    -0.248 NA
ATOM     59  C   UNL A   1      48.150  29.462  27.011  1.00  0.00     0.031 C 
ATOM     60  C   UNL A   1      42.981  31.676  29.303  1.00  0.00     0.029 A 
ATOM     61  C   UNL A   1      43.926  30.824  28.753  1.00  0.00     0.049 A 
ATOM     62  H   UNL A   1      43.717  28.806  28.170  1.00  0.00     0.167 HD
ATOM     63  C   UNL A   1      46.171  30.207  27.896  1.00  0.00     0.074 A 
ATOM     64  C   UNL A   1      47.550  30.504  27.569  1.00  0.00     0.031 C 
ATOM     65  C   UNL A   1      45.303  31.102  28.429  1.00  0.00     0.037 A 
BRANCH  52  66
ATOM     66  C   UNL A   1      39.612  28.869  29.344  1.00  0.00     0.064 A 
ATOM     67  C   UNL A   1      39.196  28.628  30.663  1.00  0.00     0.173 A 
ATOM     68  C   UNL A   1      38.672  29.400  28.449  1.00  0.00     0.173 A 
ATOM     69  F   UNL A   1      40.052  28.109  31.557  1.00  0.00    -0.203 F 
ATOM     70  C   UNL A   1      37.884  28.878  31.059  1.00  0.00     0.198 A 
ATOM     71  C   UNL A   1      37.370  29.681  28.857  1.00  0.00     0.198 A 
ATOM     72  F   UNL A   1      39.016  29.656  27.178  1.00  0.00    -0.203 F 
ATOM     73  F   UNL A   1      37.498  28.587  32.309  1.00  0.00    -0.200 F 
ATOM     74  C   UNL A   1      36.975  29.411  30.159  1.00  0.00     0.200 A 
ATOM     75  F   UNL A   1      36.498  30.211  27.990  1.00  0.00    -0.200 F 
ATOM     76  F   UNL A   1      35.715  29.659  30.544  1.00  0.00    -0.200 F 
ENDBRANCH  52  66
BRANCH  53  77
ATOM     77  C   UNL A   1      48.819  26.770  26.067  1.00  0.00     0.064 A 
ATOM     78  C   UNL A   1      49.160  27.021  24.731  1.00  0.00     0.173 A 
ATOM     79  C   UNL A   1      49.807  26.223  26.900  1.00  0.00     0.173 A 
ATOM     80  F   UNL A   1      48.246  27.526  23.890  1.00  0.00    -0.203 F 
ATOM     81  C   UNL A   1      50.428  26.714  24.241  1.00  0.00     0.198 A 
ATOM     82  C   UNL A   1      51.083  25.946  26.417  1.00  0.00     0.198 A 
ATOM     83  F   UNL A   1      49.534  25.969  28.189  1.00  0.00    -0.203 F 
ATOM     84  F   UNL A   1      50.711  26.917  22.947  1.00  0.00    -0.200 F 
ATOM     85  C   UNL A   1      51.390  26.182  25.086  1.00  0.00     0.200 A 
ATOM     86  F   UNL A   1      52.015  25.447  27.241  1.00  0.00    -0.200 F 
ATOM     87  F   UNL A   1      52.611  25.890  24.615  1.00  0.00    -0.200 F 
ENDBRANCH  53  77
BRANCH  65  88
ATOM     88  C   UNL A   1      45.829  32.477  28.731  1.00  0.00     0.064 A 
ATOM     89  C   UNL A   1      45.727  33.527  27.806  1.00  0.00     0.173 A 
ATOM     90  C   UNL A   1      46.406  32.754  29.979  1.00  0.00     0.173 A 
ATOM     91  F   UNL A   1      45.197  33.309  26.593  1.00  0.00    -0.203 F 
ATOM     92  C   UNL A   1      46.211  34.797  28.110  1.00  0.00     0.198 A 
ATOM     93  C   UNL A   1      46.856  34.034  30.293  1.00  0.00     0.198 A 
ATOM     94  F   UNL A   1      46.520  31.788  30.903  1.00  0.00    -0.203 F 
ATOM     95  F   UNL A   1      46.150  35.771  27.192  1.00  0.00    -0.200 F 
ATOM     96  C   UNL A   1      46.766  35.051  29.355  1.00  0.00     0.200 A 
ATOM     97  F   UNL A   1      47.378  34.281  31.502  1.00  0.00    -0.200 F 
ATOM     98  F   UNL A   1      47.222  36.277  29.649  1.00  0.00    -0.200 F 
ENDBRANCH  65  88
ENDBRANCH  39  40
ENDBRANCH  31  34
ENDBRANCH  29  30
ENDBRANCH  28  29
ENDBRANCH  27  28
ENDBRANCH   1  27
TORSDOF 18
ENDMDL
MODEL 3
REMARK VINA RESULT:     -11.4      0.617      2.112
REMARK SMILES CC[NH2+][C@]1(C(=O)NCCCCCCNC(=O)c2ccc(-c3c4nc(c(-c5c(F)c(F)c(F)c(F)c5F)c5ccc([nH]5)c(-c5c(F)c(F)c(F)c(F)c5F)c5nc(c(-c6c(F)c(F)c(F)c(F)c6F)c6ccc3[nH]6)C=C5)C=C4)cc2)CC[C@@H](Sc2ccc(OC)cc2)C1
REMARK SMILES IDX 10 1 9 2 8 3 7 4 5 5 6 6 4 8 80 9 92 10 81 11 82 12 3 13
REMARK SMILES IDX 2 16 1 17 83 18 84 19 85 20 91 21 86 22 90 23 87 24 88 25
REMARK SMILES IDX 89 26 11 27 12 28 13 29 14 30 15 31 16 33 17 34 18 35 79 36
REMARK SMILES IDX 19 37 78 38 20 39 21 40 22 41 72 42 23 43 77 44 71 45 73 46
REMARK SMILES IDX 24 47 76 48 70 49 69 50 25 52 57 53 37 54 56 55 38 56 41 57
REMARK SMILES IDX 55 58 74 59 39 60 40 61 54 63 75 64 42 65 26 66 27 67 35 68
REMARK SMILES IDX 28 69 29 70 33 71 36 72 30 73 31 74 34 75 32 76 58 77 59 78
REMARK SMILES IDX 67 79 60 80 61 81 65 82 68 83 62 84 63 85 66 86 64 87 43 88
REMARK SMILES IDX 44 89 52 90 45 91 46 92 50 93 53 94 47 95 48 96 51 97 49 98
REMARK H PARENT 7 7 3 14 3 15 14 32 73 51 41 62
REMARK Flexibility Score: inf
ROOT
ATOM      1  C   UNL A   1      32.095  29.675  27.093  1.00  0.00     0.002 C 
ENDROOT
BRANCH   1   2
ATOM      2  C   UNL A   1      33.520  29.166  26.856  1.00  0.00     0.021 C 
BRANCH   2   3
ATOM      3  C   UNL A   1      33.607  28.045  25.829  1.00  0.00     0.116 C 
BRANCH   3   4
ATOM      4  N   UNL A   1      34.014  28.535  24.533  1.00  0.00    -0.351 N 
ATOM      5  C   UNL A   1      33.549  28.278  23.280  1.00  0.00     0.281 C 
ATOM      6  O   UNL A   1      34.060  28.953  22.377  1.00  0.00    -0.268 OA
ATOM      7  H   UNL A   1      34.764  29.171  24.561  1.00  0.00     0.163 HD
BRANCH   5   8
ATOM      8  C   UNL A   1      32.422  27.232  22.987  1.00  0.00     0.176 C 
ATOM      9  C   UNL A   1      33.114  26.059  22.234  1.00  0.00     0.080 C 
ATOM     10  C   UNL A   1      31.870  26.488  24.217  1.00  0.00     0.094 C 
ATOM     11  C   UNL A   1      32.256  24.822  22.454  1.00  0.00     0.022 C 
ATOM     12  C   UNL A   1      31.565  25.054  23.790  1.00  0.00     0.058 C 
BRANCH   8  13
ATOM     13  N   UNL A   1      31.378  27.812  22.100  1.00  0.00    -0.334 N 
ATOM     14  H   UNL A   1      31.757  28.665  21.689  1.00  0.00     0.347 HD
ATOM     15  H   UNL A   1      31.158  27.084  21.421  1.00  0.00     0.347 HD
BRANCH  13  16
ATOM     16  C   UNL A   1      30.111  28.149  22.742  1.00  0.00     0.257 C 
ATOM     17  C   UNL A   1      29.979  29.649  22.961  1.00  0.00     0.071 C 
ENDBRANCH  13  16
ENDBRANCH   8  13
BRANCH  12  18
ATOM     18  S   UNL A   1      31.855  23.819  25.121  1.00  0.00    -0.122 SA
BRANCH  18  19
ATOM     19  C   UNL A   1      33.597  23.451  25.011  1.00  0.00     0.008 A 
ATOM     20  C   UNL A   1      33.989  22.162  24.640  1.00  0.00     0.019 A 
ATOM     21  C   UNL A   1      34.581  24.356  25.413  1.00  0.00     0.019 A 
ATOM     22  C   UNL A   1      35.342  21.808  24.627  1.00  0.00     0.047 A 
ATOM     23  C   UNL A   1      35.939  24.012  25.374  1.00  0.00     0.047 A 
ATOM     24  C   UNL A   1      36.326  22.735  24.976  1.00  0.00     0.118 A 
BRANCH  24  25
ATOM     25  O   UNL A   1      37.608  22.267  24.919  1.00  0.00    -0.497 OA
ATOM     26  C   UNL A   1      37.778  20.857  25.001  1.00  0.00     0.278 C 
ENDBRANCH  24  25
ENDBRANCH  18  19
ENDBRANCH  12  18
ENDBRANCH   5   8
ENDBRANCH   3   4
ENDBRANCH   2   3
ENDBRANCH   1   2
BRANCH   1  27
ATOM     27  C   UNL A   1      31.622  30.760  26.117  1.00  0.00     0.002 C 
BRANCH  27  28
ATOM     28  C   UNL A   1      31.403  32.144  26.734  1.00  0.00     0.021 C 
BRANCH  28  29
ATOM     29  C   UNL A   1      32.675  32.829  27.220  1.00  0.00     0.116 C 
BRANCH  29  30
ATOM     30  N   UNL A   1      32.433  34.203  27.626  1.00  0.00    -0.352 N 
ATOM     31  C   UNL A   1      32.994  34.915  28.652  1.00  0.00     0.251 C 
ATOM     32  H   UNL A   1      31.771  34.692  27.085  1.00  0.00     0.163 HD
ATOM     33  O   UNL A   1      32.528  36.006  28.975  1.00  0.00    -0.269 OA
BRANCH  31  34
ATOM     34  C   UNL A   1      34.150  34.363  29.385  1.00  0.00     0.039 A 
ATOM     35  C   UNL A   1      33.929  33.703  30.596  1.00  0.00     0.014 A 
ATOM     36  C   UNL A   1      35.448  34.501  28.885  1.00  0.00     0.014 A 
ATOM     37  C   UNL A   1      35.004  33.138  31.280  1.00  0.00     0.010 A 
ATOM     38  C   UNL A   1      36.508  33.872  29.528  1.00  0.00     0.010 A 
ATOM     39  C   UNL A   1      36.298  33.190  30.738  1.00  0.00    -0.014 A 
BRANCH  39  40
ATOM     40  C   UNL A   1      37.445  32.546  31.424  1.00  0.00     0.031 A 
ATOM     41  C   UNL A   1      38.159  31.391  30.780  1.00  0.00     0.074 A 
ATOM     42  C   UNL A   1      37.806  32.966  32.653  1.00  0.00     0.049 A 
ATOM     43  N   UNL A   1      39.140  30.659  31.245  1.00  0.00    -0.248 NA
ATOM     44  C   UNL A   1      37.691  30.987  29.444  1.00  0.00     0.031 C 
ATOM     45  C   UNL A   1      37.162  34.048  33.398  1.00  0.00     0.029 A 
ATOM     46  N   UNL A   1      38.797  32.525  33.494  1.00  0.00    -0.354 N 
ATOM     47  C   UNL A   1      39.397  29.706  30.269  1.00  0.00     0.074 A 
ATOM     48  C   UNL A   1      38.431  29.913  29.211  1.00  0.00     0.031 C 
ATOM     49  C   UNL A   1      37.789  34.203  34.575  1.00  0.00     0.029 A 
ATOM     50  C   UNL A   1      38.850  33.207  34.685  1.00  0.00     0.049 A 
ATOM     51  H   UNL A   1      39.411  31.791  33.266  1.00  0.00     0.167 HD
ATOM     52  C   UNL A   1      40.366  28.761  30.244  1.00  0.00     0.037 A 
ATOM     53  C   UNL A   1      39.658  33.040  35.749  1.00  0.00     0.037 A 
ATOM     54  C   UNL A   1      41.336  28.572  31.292  1.00  0.00     0.049 A 
ATOM     55  C   UNL A   1      40.714  31.968  35.705  1.00  0.00     0.074 A 
ATOM     56  C   UNL A   1      42.392  27.678  31.340  1.00  0.00     0.029 A 
ATOM     57  N   UNL A   1      41.364  29.288  32.481  1.00  0.00    -0.354 N 
ATOM     58  N   UNL A   1      40.992  31.118  34.747  1.00  0.00    -0.248 NA
ATOM     59  C   UNL A   1      41.574  31.839  36.889  1.00  0.00     0.031 C 
ATOM     60  C   UNL A   1      43.024  27.815  32.579  1.00  0.00     0.029 A 
ATOM     61  C   UNL A   1      42.402  28.837  33.279  1.00  0.00     0.049 A 
ATOM     62  H   UNL A   1      40.738  30.010  32.721  1.00  0.00     0.167 HD
ATOM     63  C   UNL A   1      42.076  30.376  35.197  1.00  0.00     0.074 A 
ATOM     64  C   UNL A   1      42.414  30.887  36.509  1.00  0.00     0.031 C 
ATOM     65  C   UNL A   1      42.732  29.362  34.581  1.00  0.00     0.037 A 
BRANCH  52  66
ATOM     66  C   UNL A   1      40.426  27.856  29.046  1.00  0.00     0.064 A 
ATOM     67  C   UNL A   1      41.238  28.150  27.940  1.00  0.00     0.173 A 
ATOM     68  C   UNL A   1      39.690  26.662  29.018  1.00  0.00     0.173 A 
ATOM     69  F   UNL A   1      41.955  29.284  27.910  1.00  0.00    -0.203 F 
ATOM     70  C   UNL A   1      41.285  27.300  26.837  1.00  0.00     0.198 A 
ATOM     71  C   UNL A   1      39.766  25.798  27.928  1.00  0.00     0.198 A 
ATOM     72  F   UNL A   1      38.903  26.327  30.050  1.00  0.00    -0.203 F 
ATOM     73  F   UNL A   1      42.026  27.631  25.770  1.00  0.00    -0.200 F 
ATOM     74  C   UNL A   1      40.556  26.121  26.835  1.00  0.00     0.200 A 
ATOM     75  F   UNL A   1      39.072  24.651  27.935  1.00  0.00    -0.200 F 
ATOM     76  F   UNL A   1      40.608  25.300  25.777  1.00  0.00    -0.200 F 
ENDBRANCH  52  66
BRANCH  53  77
ATOM     77  C   UNL A   1      39.514  33.921  36.938  1.00  0.00     0.064 A 
ATOM     78  C   UNL A   1      40.127  35.181  36.980  1.00  0.00     0.173 A 
ATOM     79  C   UNL A   1      38.772  33.520  38.060  1.00  0.00     0.173 A 
ATOM     80  F   UNL A   1      40.862  35.602  35.941  1.00  0.00    -0.203 F 
ATOM     81  C   UNL A   1      40.023  35.996  38.105  1.00  0.00     0.198 A 
ATOM     82  C   UNL A   1      38.644  34.349  39.172  1.00  0.00     0.198 A 
ATOM     83  F   UNL A   1      38.161  32.326  38.069  1.00  0.00    -0.203 F 
ATOM     84  F   UNL A   1      40.661  37.175  38.137  1.00  0.00    -0.200 F 
ATOM     85  C   UNL A   1      39.278  35.582  39.198  1.00  0.00     0.200 A 
ATOM     86  F   UNL A   1      37.908  33.952  40.219  1.00  0.00    -0.200 F 
ATOM     87  F   UNL A   1      39.175  36.368  40.279  1.00  0.00    -0.200 F 
ENDBRANCH  53  77
BRANCH  65  88
ATOM     88  C   UNL A   1      43.909  28.765  35.298  1.00  0.00     0.064 A 
ATOM     89  C   UNL A   1      45.213  29.245  35.105  1.00  0.00     0.173 A 
ATOM     90  C   UNL A   1      43.722  27.724  36.220  1.00  0.00     0.173 A 
ATOM     91  F   UNL A   1      45.448  30.228  34.222  1.00  0.00    -0.203 F 
ATOM     92  C   UNL A   1      46.290  28.685  35.787  1.00  0.00     0.198 A 
ATOM     93  C   UNL A   1      44.796  27.190  36.927  1.00  0.00     0.198 A 
ATOM     94  F   UNL A   1      42.494  27.234  36.448  1.00  0.00    -0.203 F 
ATOM     95  F   UNL A   1      47.533  29.124  35.549  1.00  0.00    -0.200 F 
ATOM     96  C   UNL A   1      46.079  27.665  36.704  1.00  0.00     0.200 A 
ATOM     97  F   UNL A   1      44.588  26.217  37.823  1.00  0.00    -0.200 F 
ATOM     98  F   UNL A   1      47.116  27.134  37.367  1.00  0.00    -0.200 F 
ENDBRANCH  65  88
ENDBRANCH  39  40
ENDBRANCH  31  34
ENDBRANCH  29  30
ENDBRANCH  28  29
ENDBRANCH  27  28
ENDBRANCH   1  27
TORSDOF 18
ENDMDL
