MODEL 1
REMARK VINA RESULT:     -11.0      0.000      0.000
REMARK SMILES C/C=C/C=C/C(=O)N[C@@](C)(C(=O)NCCCCCCNC(=O)c1ccc(-c2c3nc(c(-c4c(F)c(F)c(F)c(F)c4F)c4ccc([nH]4)c(-c4c(F)c(F)c(F)c(F)c4F)c4nc(c(-c5c(F)c(F)c(F)c(F)c5F)c5ccc2[nH]5)C=C4)C=C3)cc1)C(F)(F)F
REMARK SMILES IDX 16 1 15 2 14 3 13 4 11 5 12 6 9 8 10 9 8 10 6 11 7 12 5 14
REMARK SMILES IDX 4 15 3 16 1 17 2 18 86 19 87 20 88 21 89 22 17 23 18 24
REMARK SMILES IDX 19 25 20 26 21 27 22 29 23 30 24 31 85 32 25 33 84 34 26 35
REMARK SMILES IDX 27 36 28 37 78 38 29 39 83 40 77 41 79 42 30 43 82 44 76 45
REMARK SMILES IDX 75 46 31 48 63 49 43 50 62 51 44 52 47 53 61 54 80 55 45 56
REMARK SMILES IDX 46 57 60 59 81 60 48 61 32 62 33 63 41 64 34 65 35 66 39 67
REMARK SMILES IDX 42 68 36 69 37 70 40 71 38 72 64 73 65 74 73 75 66 76 67 77
REMARK SMILES IDX 71 78 74 79 68 80 69 81 72 82 70 83 49 84 50 85 58 86 51 87
REMARK SMILES IDX 52 88 56 89 59 90 53 91 54 92 57 93 55 94
REMARK H PARENT 13 7 8 13 20 28 79 47 47 58
REMARK Flexibility Score: inf
ROOT
ATOM      1  C   UNL A   1      37.407  22.285  25.309  1.00  0.00     0.002 C 
ENDROOT
BRANCH   1   2
ATOM      2  C   UNL A   1      36.710  23.477  24.637  1.00  0.00     0.021 C 
BRANCH   2   3
ATOM      3  C   UNL A   1      35.361  23.851  25.246  1.00  0.00     0.116 C 
BRANCH   3   4
ATOM      4  N   UNL A   1      34.735  24.898  24.470  1.00  0.00    -0.354 N 
ATOM      5  C   UNL A   1      33.613  24.965  23.713  1.00  0.00     0.254 C 
ATOM      6  O   UNL A   1      33.564  25.958  22.980  1.00  0.00    -0.272 OA
ATOM      7  H   UNL A   1      35.232  25.748  24.499  1.00  0.00     0.163 HD
BRANCH   5   8
ATOM      8  C   UNL A   1      32.514  23.882  23.722  1.00  0.00     0.212 C 
ATOM      9  C   UNL A   1      31.173  24.395  23.157  1.00  0.00     0.056 C 
BRANCH   8  10
ATOM     10  N   UNL A   1      32.248  23.501  25.158  1.00  0.00    -0.331 N 
ATOM     11  C   UNL A   1      32.194  22.413  25.954  1.00  0.00     0.245 C 
ATOM     12  O   UNL A   1      32.196  22.609  27.170  1.00  0.00    -0.270 OA
ATOM     13  H   UNL A   1      32.050  24.309  25.685  1.00  0.00     0.165 HD
BRANCH  11  14
ATOM     14  C   UNL A   1      32.159  21.028  25.469  1.00  0.00     0.071 C 
ATOM     15  C   UNL A   1      33.240  20.244  25.441  1.00  0.00     0.005 C 
BRANCH  15  16
ATOM     16  C   UNL A   1      33.206  18.846  25.080  1.00  0.00    -0.004 C 
ATOM     17  C   UNL A   1      34.150  16.957  23.703  1.00  0.00     0.035 C 
ATOM     18  C   UNL A   1      34.061  18.373  24.162  1.00  0.00    -0.030 C 
ENDBRANCH  15  16
ENDBRANCH  11  14
ENDBRANCH   8  10
BRANCH   8  19
ATOM     19  C   UNL A   1      33.037  22.872  22.668  1.00  0.00     0.420 C 
ATOM     20  F   UNL A   1      34.152  22.214  23.031  1.00  0.00    -0.168 F 
ATOM     21  F   UNL A   1      32.086  21.952  22.361  1.00  0.00    -0.168 F 
ATOM     22  F   UNL A   1      33.297  23.491  21.483  1.00  0.00    -0.168 F 
ENDBRANCH   8  19
ENDBRANCH   5   8
ENDBRANCH   3   4
ENDBRANCH   2   3
ENDBRANCH   1   2
BRANCH   1  23
ATOM     23  C   UNL A   1      36.977  20.907  24.800  1.00  0.00     0.002 C 
BRANCH  23  24
ATOM     24  C   UNL A   1      38.033  19.811  24.938  1.00  0.00     0.021 C 
BRANCH  24  25
ATOM     25  C   UNL A   1      39.093  20.078  25.999  1.00  0.00     0.116 C 
BRANCH  25  26
ATOM     26  N   UNL A   1      40.195  19.138  25.929  1.00  0.00    -0.352 N 
ATOM     27  C   UNL A   1      41.543  19.373  26.013  1.00  0.00     0.251 C 
ATOM     28  H   UNL A   1      39.938  18.196  25.801  1.00  0.00     0.163 HD
ATOM     29  O   UNL A   1      42.340  18.478  25.760  1.00  0.00    -0.269 OA
BRANCH  27  30
ATOM     30  C   UNL A   1      42.036  20.717  26.384  1.00  0.00     0.039 A 
ATOM     31  C   UNL A   1      42.259  21.646  25.367  1.00  0.00     0.014 A 
ATOM     32  C   UNL A   1      42.290  21.059  27.716  1.00  0.00     0.014 A 
ATOM     33  C   UNL A   1      42.697  22.930  25.688  1.00  0.00     0.010 A 
ATOM     34  C   UNL A   1      42.648  22.365  28.042  1.00  0.00     0.010 A 
ATOM     35  C   UNL A   1      42.868  23.311  27.030  1.00  0.00    -0.014 A 
BRANCH  35  36
ATOM     36  C   UNL A   1      43.273  24.697  27.371  1.00  0.00     0.031 A 
ATOM     37  C   UNL A   1      44.677  25.169  27.113  1.00  0.00     0.074 A 
ATOM     38  C   UNL A   1      42.374  25.526  27.936  1.00  0.00     0.049 A 
ATOM     39  N   UNL A   1      45.201  26.352  27.315  1.00  0.00    -0.248 NA
ATOM     40  C   UNL A   1      45.626  24.177  26.583  1.00  0.00     0.031 C 
ATOM     41  C   UNL A   1      41.001  25.164  28.292  1.00  0.00     0.029 A 
ATOM     42  N   UNL A   1      42.477  26.844  28.304  1.00  0.00    -0.354 N 
ATOM     43  C   UNL A   1      46.534  26.245  26.938  1.00  0.00     0.074 A 
ATOM     44  C   UNL A   1      46.756  24.867  26.559  1.00  0.00     0.031 C 
ATOM     45  C   UNL A   1      40.377  26.243  28.789  1.00  0.00     0.029 A 
ATOM     46  C   UNL A   1      41.313  27.363  28.818  1.00  0.00     0.049 A 
ATOM     47  H   UNL A   1      43.305  27.367  28.209  1.00  0.00     0.167 HD
ATOM     48  C   UNL A   1      47.479  27.215  26.888  1.00  0.00     0.037 A 
ATOM     49  C   UNL A   1      41.032  28.604  29.256  1.00  0.00     0.037 A 
ATOM     50  C   UNL A   1      47.247  28.589  27.253  1.00  0.00     0.049 A 
ATOM     51  C   UNL A   1      42.099  29.664  29.185  1.00  0.00     0.074 A 
ATOM     52  C   UNL A   1      48.121  29.659  27.184  1.00  0.00     0.029 A 
ATOM     53  N   UNL A   1      46.053  29.080  27.763  1.00  0.00    -0.354 N 
ATOM     54  N   UNL A   1      43.331  29.571  28.747  1.00  0.00    -0.248 NA
ATOM     55  C   UNL A   1      41.729  31.005  29.655  1.00  0.00     0.031 C 
ATOM     56  C   UNL A   1      47.475  30.787  27.701  1.00  0.00     0.029 A 
ATOM     57  C   UNL A   1      46.177  30.433  28.037  1.00  0.00     0.049 A 
ATOM     58  H   UNL A   1      45.239  28.546  27.909  1.00  0.00     0.167 HD
ATOM     59  C   UNL A   1      43.875  30.843  28.863  1.00  0.00     0.074 A 
ATOM     60  C   UNL A   1      42.829  31.695  29.392  1.00  0.00     0.031 C 
ATOM     61  C   UNL A   1      45.126  31.268  28.562  1.00  0.00     0.037 A 
BRANCH  48  62
ATOM     62  C   UNL A   1      48.851  26.825  26.417  1.00  0.00     0.064 A 
ATOM     63  C   UNL A   1      49.244  26.981  25.079  1.00  0.00     0.173 A 
ATOM     64  C   UNL A   1      49.800  26.323  27.322  1.00  0.00     0.173 A 
ATOM     65  F   UNL A   1      48.374  27.446  24.170  1.00  0.00    -0.203 F 
ATOM     66  C   UNL A   1      50.522  26.622  24.659  1.00  0.00     0.198 A 
ATOM     67  C   UNL A   1      51.088  25.997  26.905  1.00  0.00     0.198 A 
ATOM     68  F   UNL A   1      49.480  26.157  28.615  1.00  0.00    -0.203 F 
ATOM     69  F   UNL A   1      50.856  26.733  23.365  1.00  0.00    -0.200 F 
ATOM     70  C   UNL A   1      51.445  26.138  25.572  1.00  0.00     0.200 A 
ATOM     71  F   UNL A   1      51.983  25.542  27.793  1.00  0.00    -0.200 F 
ATOM     72  F   UNL A   1      52.678  25.801  25.168  1.00  0.00    -0.200 F 
ENDBRANCH  48  62
BRANCH  49  73
ATOM     73  C   UNL A   1      39.673  28.922  29.766  1.00  0.00     0.064 A 
ATOM     74  C   UNL A   1      39.334  28.699  31.108  1.00  0.00     0.173 A 
ATOM     75  C   UNL A   1      38.684  29.450  28.923  1.00  0.00     0.173 A 
ATOM     76  F   UNL A   1      40.239  28.178  31.949  1.00  0.00    -0.203 F 
ATOM     77  C   UNL A   1      38.052  28.970  31.582  1.00  0.00     0.198 A 
ATOM     78  C   UNL A   1      37.412  29.750  29.405  1.00  0.00     0.198 A 
ATOM     79  F   UNL A   1      38.958  29.689  27.633  1.00  0.00    -0.203 F 
ATOM     80  F   UNL A   1      37.741  28.701  32.858  1.00  0.00    -0.200 F 
ATOM     81  C   UNL A   1      37.093  29.500  30.732  1.00  0.00     0.200 A 
ATOM     82  F   UNL A   1      36.494  30.279  28.584  1.00  0.00    -0.200 F 
ATOM     83  F   UNL A   1      35.863  29.765  31.189  1.00  0.00    -0.200 F 
ENDBRANCH  49  73
BRANCH  61  84
ATOM     84  C   UNL A   1      45.422  32.726  28.767  1.00  0.00     0.064 A 
ATOM     85  C   UNL A   1      45.183  33.678  27.764  1.00  0.00     0.173 A 
ATOM     86  C   UNL A   1      45.936  33.181  29.992  1.00  0.00     0.173 A 
ATOM     87  F   UNL A   1      44.707  33.294  26.570  1.00  0.00    -0.203 F 
ATOM     88  C   UNL A   1      45.483  35.022  27.966  1.00  0.00     0.198 A 
ATOM     89  C   UNL A   1      46.200  34.531  30.203  1.00  0.00     0.198 A 
ATOM     90  F   UNL A   1      46.174  32.315  30.989  1.00  0.00    -0.203 F 
ATOM     91  F   UNL A   1      45.305  35.903  26.971  1.00  0.00    -0.200 F 
ATOM     92  C   UNL A   1      45.986  35.449  29.187  1.00  0.00     0.200 A 
ATOM     93  F   UNL A   1      46.670  34.942  31.389  1.00  0.00    -0.200 F 
ATOM     94  F   UNL A   1      46.271  36.743  29.379  1.00  0.00    -0.200 F 
ENDBRANCH  61  84
ENDBRANCH  35  36
ENDBRANCH  27  30
ENDBRANCH  25  26
ENDBRANCH  24  25
ENDBRANCH  23  24
ENDBRANCH   1  23
TORSDOF 17
ENDMDL
MODEL 2
REMARK VINA RESULT:     -11.0      5.330     10.717
REMARK SMILES C/C=C/C=C/C(=O)N[C@@](C)(C(=O)NCCCCCCNC(=O)c1ccc(-c2c3nc(c(-c4c(F)c(F)c(F)c(F)c4F)c4ccc([nH]4)c(-c4c(F)c(F)c(F)c(F)c4F)c4nc(c(-c5c(F)c(F)c(F)c(F)c5F)c5ccc2[nH]5)C=C4)C=C3)cc1)C(F)(F)F
REMARK SMILES IDX 16 1 15 2 14 3 13 4 11 5 12 6 9 8 10 9 8 10 6 11 7 12 5 14
REMARK SMILES IDX 4 15 3 16 1 17 2 18 86 19 87 20 88 21 89 22 17 23 18 24
REMARK SMILES IDX 19 25 20 26 21 27 22 29 23 30 24 31 85 32 25 33 84 34 26 35
REMARK SMILES IDX 27 36 28 37 78 38 29 39 83 40 77 41 79 42 30 43 82 44 76 45
REMARK SMILES IDX 75 46 31 48 63 49 43 50 62 51 44 52 47 53 61 54 80 55 45 56
REMARK SMILES IDX 46 57 60 59 81 60 48 61 32 62 33 63 41 64 34 65 35 66 39 67
REMARK SMILES IDX 42 68 36 69 37 70 40 71 38 72 64 73 65 74 73 75 66 76 67 77
REMARK SMILES IDX 71 78 74 79 68 80 69 81 72 82 70 83 49 84 50 85 58 86 51 87
REMARK SMILES IDX 52 88 56 89 59 90 53 91 54 92 57 93 55 94
REMARK H PARENT 13 7 8 13 20 28 79 47 47 58
REMARK Flexibility Score: inf
ROOT
ATOM      1  C   UNL A   1      32.374  29.871  26.863  1.00  0.00     0.002 C 
ENDROOT
BRANCH   1   2
ATOM      2  C   UNL A   1      31.738  28.589  27.420  1.00  0.00     0.021 C 
BRANCH   2   3
ATOM      3  C   UNL A   1      31.342  27.562  26.362  1.00  0.00     0.116 C 
BRANCH   3   4
ATOM      4  N   UNL A   1      31.412  26.226  26.909  1.00  0.00    -0.354 N 
ATOM      5  C   UNL A   1      31.766  25.020  26.404  1.00  0.00     0.254 C 
ATOM      6  O   UNL A   1      31.425  24.064  27.107  1.00  0.00    -0.272 OA
ATOM      7  H   UNL A   1      31.145  26.184  27.856  1.00  0.00     0.163 HD
BRANCH   5   8
ATOM      8  C   UNL A   1      32.484  24.841  25.050  1.00  0.00     0.212 C 
ATOM      9  C   UNL A   1      32.019  25.867  23.994  1.00  0.00     0.056 C 
BRANCH   8  10
ATOM     10  N   UNL A   1      32.119  23.482  24.505  1.00  0.00    -0.331 N 
ATOM     11  C   UNL A   1      32.673  22.276  24.258  1.00  0.00     0.245 C 
ATOM     12  O   UNL A   1      31.900  21.341  24.042  1.00  0.00    -0.270 OA
ATOM     13  H   UNL A   1      31.169  23.471  24.247  1.00  0.00     0.165 HD
BRANCH  11  14
ATOM     14  C   UNL A   1      34.115  22.008  24.256  1.00  0.00     0.071 C 
ATOM     15  C   UNL A   1      34.764  21.530  25.321  1.00  0.00     0.005 C 
BRANCH  15  16
ATOM     16  C   UNL A   1      36.156  21.148  25.305  1.00  0.00    -0.004 C 
ATOM     17  C   UNL A   1      38.560  21.765  25.750  1.00  0.00     0.035 C 
ATOM     18  C   UNL A   1      37.093  22.023  25.699  1.00  0.00    -0.030 C 
ENDBRANCH  15  16
ENDBRANCH  11  14
ENDBRANCH   8  10
BRANCH   8  19
ATOM     19  C   UNL A   1      33.941  25.246  25.392  1.00  0.00     0.420 C 
ATOM     20  F   UNL A   1      34.111  26.557  25.640  1.00  0.00    -0.168 F 
ATOM     21  F   UNL A   1      34.401  24.552  26.465  1.00  0.00    -0.168 F 
ATOM     22  F   UNL A   1      34.793  24.907  24.386  1.00  0.00    -0.168 F 
ENDBRANCH   8  19
ENDBRANCH   5   8
ENDBRANCH   3   4
ENDBRANCH   2   3
ENDBRANCH   1   2
BRANCH   1  23
ATOM     23  C   UNL A   1      31.443  30.746  26.019  1.00  0.00     0.002 C 
BRANCH  23  24
ATOM     24  C   UNL A   1      31.306  32.190  26.500  1.00  0.00     0.021 C 
BRANCH  24  25
ATOM     25  C   UNL A   1      32.557  32.765  27.152  1.00  0.00     0.116 C 
BRANCH  25  26
ATOM     26  N   UNL A   1      32.358  34.120  27.630  1.00  0.00    -0.352 N 
ATOM     27  C   UNL A   1      33.014  34.793  28.627  1.00  0.00     0.251 C 
ATOM     28  H   UNL A   1      31.650  34.628  27.173  1.00  0.00     0.163 HD
ATOM     29  O   UNL A   1      32.598  35.879  29.014  1.00  0.00    -0.269 OA
BRANCH  27  30
ATOM     30  C   UNL A   1      34.212  34.196  29.258  1.00  0.00     0.039 A 
ATOM     31  C   UNL A   1      34.031  33.325  30.334  1.00  0.00     0.014 A 
ATOM     32  C   UNL A   1      35.501  34.496  28.806  1.00  0.00     0.014 A 
ATOM     33  C   UNL A   1      35.139  32.725  30.931  1.00  0.00     0.010 A 
ATOM     34  C   UNL A   1      36.599  33.833  29.349  1.00  0.00     0.010 A 
ATOM     35  C   UNL A   1      36.431  32.951  30.425  1.00  0.00    -0.014 A 
BRANCH  35  36
ATOM     36  C   UNL A   1      37.601  32.261  31.022  1.00  0.00     0.031 A 
ATOM     37  C   UNL A   1      38.077  32.617  32.403  1.00  0.00     0.074 A 
ATOM     38  C   UNL A   1      38.250  31.323  30.305  1.00  0.00     0.049 A 
ATOM     39  N   UNL A   1      39.058  32.098  33.098  1.00  0.00    -0.248 NA
ATOM     40  C   UNL A   1      37.377  33.717  33.085  1.00  0.00     0.031 C 
ATOM     41  C   UNL A   1      37.921  30.935  28.932  1.00  0.00     0.029 A 
ATOM     42  N   UNL A   1      39.315  30.521  30.631  1.00  0.00    -0.354 N 
ATOM     43  C   UNL A   1      39.092  32.807  34.293  1.00  0.00     0.074 A 
ATOM     44  C   UNL A   1      38.077  33.835  34.203  1.00  0.00     0.031 C 
ATOM     45  C   UNL A   1      38.740  29.943  28.547  1.00  0.00     0.029 A 
ATOM     46  C   UNL A   1      39.671  29.648  29.632  1.00  0.00     0.049 A 
ATOM     47  H   UNL A   1      39.779  30.568  31.497  1.00  0.00     0.167 HD
ATOM     48  C   UNL A   1      39.879  32.601  35.376  1.00  0.00     0.037 A 
ATOM     49  C   UNL A   1      40.635  28.709  29.598  1.00  0.00     0.037 A 
ATOM     50  C   UNL A   1      40.877  31.566  35.465  1.00  0.00     0.049 A 
ATOM     51  C   UNL A   1      41.492  28.498  30.818  1.00  0.00     0.074 A 
ATOM     52  C   UNL A   1      41.686  31.238  36.538  1.00  0.00     0.029 A 
ATOM     53  N   UNL A   1      41.205  30.695  34.436  1.00  0.00    -0.354 N 
ATOM     54  N   UNL A   1      41.458  29.119  31.972  1.00  0.00    -0.248 NA
ATOM     55  C   UNL A   1      42.513  27.446  30.732  1.00  0.00     0.031 C 
ATOM     56  C   UNL A   1      42.542  30.204  36.142  1.00  0.00     0.029 A 
ATOM     57  C   UNL A   1      42.224  29.846  34.841  1.00  0.00     0.049 A 
ATOM     58  H   UNL A   1      40.778  30.682  33.549  1.00  0.00     0.167 HD
ATOM     59  C   UNL A   1      42.430  28.515  32.759  1.00  0.00     0.074 A 
ATOM     60  C   UNL A   1      43.021  27.464  31.955  1.00  0.00     0.031 C 
ATOM     61  C   UNL A   1      42.801  28.805  34.030  1.00  0.00     0.037 A 
BRANCH  48  62
ATOM     62  C   UNL A   1      39.689  33.512  36.556  1.00  0.00     0.064 A 
ATOM     63  C   UNL A   1      40.333  34.756  36.638  1.00  0.00     0.173 A 
ATOM     64  C   UNL A   1      38.823  33.154  37.601  1.00  0.00     0.173 A 
ATOM     65  F   UNL A   1      41.181  35.143  35.673  1.00  0.00    -0.203 F 
ATOM     66  C   UNL A   1      40.141  35.593  37.735  1.00  0.00     0.198 A 
ATOM     67  C   UNL A   1      38.607  34.009  38.679  1.00  0.00     0.198 A 
ATOM     68  F   UNL A   1      38.177  31.978  37.572  1.00  0.00    -0.203 F 
ATOM     69  F   UNL A   1      40.808  36.753  37.814  1.00  0.00    -0.200 F 
ATOM     70  C   UNL A   1      39.273  35.223  38.750  1.00  0.00     0.200 A 
ATOM     71  F   UNL A   1      37.756  33.655  39.653  1.00  0.00    -0.200 F 
ATOM     72  F   UNL A   1      39.082  36.034  39.800  1.00  0.00    -0.200 F 
ENDBRANCH  48  62
BRANCH  49  73
ATOM     73  C   UNL A   1      40.817  27.874  28.383  1.00  0.00     0.064 A 
ATOM     74  C   UNL A   1      40.173  26.636  28.254  1.00  0.00     0.173 A 
ATOM     75  C   UNL A   1      41.640  28.294  27.327  1.00  0.00     0.173 A 
ATOM     76  F   UNL A   1      39.391  26.182  29.244  1.00  0.00    -0.203 F 
ATOM     77  C   UNL A   1      40.364  25.838  27.127  1.00  0.00     0.198 A 
ATOM     78  C   UNL A   1      41.805  27.511  26.188  1.00  0.00     0.198 A 
ATOM     79  F   UNL A   1      42.272  29.474  27.396  1.00  0.00    -0.203 F 
ATOM     80  F   UNL A   1      39.776  24.636  27.053  1.00  0.00    -0.200 F 
ATOM     81  C   UNL A   1      41.176  26.278  26.092  1.00  0.00     0.200 A 
ATOM     82  F   UNL A   1      42.575  27.948  25.182  1.00  0.00    -0.200 F 
ATOM     83  F   UNL A   1      41.355  25.514  25.008  1.00  0.00    -0.200 F 
ENDBRANCH  49  73
BRANCH  61  84
ATOM     84  C   UNL A   1      43.877  27.952  34.640  1.00  0.00     0.064 A 
ATOM     85  C   UNL A   1      43.583  26.741  35.286  1.00  0.00     0.173 A 
ATOM     86  C   UNL A   1      45.223  28.344  34.564  1.00  0.00     0.173 A 
ATOM     87  F   UNL A   1      42.312  26.328  35.399  1.00  0.00    -0.203 F 
ATOM     88  C   UNL A   1      44.592  25.974  35.863  1.00  0.00     0.198 A 
ATOM     89  C   UNL A   1      46.231  27.557  35.111  1.00  0.00     0.198 A 
ATOM     90  F   UNL A   1      45.560  29.489  33.950  1.00  0.00    -0.203 F 
ATOM     91  F   UNL A   1      44.280  24.853  36.528  1.00  0.00    -0.200 F 
ATOM     92  C   UNL A   1      45.916  26.380  35.770  1.00  0.00     0.200 A 
ATOM     93  F   UNL A   1      47.511  27.943  35.005  1.00  0.00    -0.200 F 
ATOM     94  F   UNL A   1      46.884  25.639  36.325  1.00  0.00    -0.200 F 
ENDBRANCH  61  84
ENDBRANCH  35  36
ENDBRANCH  27  30
ENDBRANCH  25  26
ENDBRANCH  24  25
ENDBRANCH  23  24
ENDBRANCH   1  23
TORSDOF 17
ENDMDL
MODEL 3
REMARK VINA RESULT:     -11.0      5.351     10.740
REMARK SMILES C/C=C/C=C/C(=O)N[C@@](C)(C(=O)NCCCCCCNC(=O)c1ccc(-c2c3nc(c(-c4c(F)c(F)c(F)c(F)c4F)c4ccc([nH]4)c(-c4c(F)c(F)c(F)c(F)c4F)c4nc(c(-c5c(F)c(F)c(F)c(F)c5F)c5ccc2[nH]5)C=C4)C=C3)cc1)C(F)(F)F
REMARK SMILES IDX 16 1 15 2 14 3 13 4 11 5 12 6 9 8 10 9 8 10 6 11 7 12 5 14
REMARK SMILES IDX 4 15 3 16 1 17 2 18 86 19 87 20 88 21 89 22 17 23 18 24
REMARK SMILES IDX 19 25 20 26 21 27 22 29 23 30 24 31 85 32 25 33 84 34 26 35
REMARK SMILES IDX 27 36 28 37 78 38 29 39 83 40 77 41 79 42 30 43 82 44 76 45
REMARK SMILES IDX 75 46 31 48 63 49 43 50 62 51 44 52 47 53 61 54 80 55 45 56
REMARK SMILES IDX 46 57 60 59 81 60 48 61 32 62 33 63 41 64 34 65 35 66 39 67
REMARK SMILES IDX 42 68 36 69 37 70 40 71 38 72 64 73 65 74 73 75 66 76 67 77
REMARK SMILES IDX 71 78 74 79 68 80 69 81 72 82 70 83 49 84 50 85 58 86 51 87
REMARK SMILES IDX 52 88 56 89 59 90 53 91 54 92 57 93 55 94
REMARK H PARENT 13 7 8 13 20 28 79 47 47 58
REMARK Flexibility Score: inf
ROOT
ATOM      1  C   UNL A   1      32.442  29.816  26.828  1.00  0.00     0.002 C 
ENDROOT
BRANCH   1   2
ATOM      2  C   UNL A   1      31.782  28.556  27.403  1.00  0.00     0.021 C 
BRANCH   2   3
ATOM      3  C   UNL A   1      31.364  27.523  26.360  1.00  0.00     0.116 C 
BRANCH   3   4
ATOM      4  N   UNL A   1      31.411  26.193  26.925  1.00  0.00    -0.354 N 
ATOM      5  C   UNL A   1      31.788  24.981  26.449  1.00  0.00     0.254 C 
ATOM      6  O   UNL A   1      31.417  24.033  27.147  1.00  0.00    -0.272 OA
ATOM      7  H   UNL A   1      31.101  26.160  27.859  1.00  0.00     0.163 HD
BRANCH   5   8
ATOM      8  C   UNL A   1      32.568  24.790  25.131  1.00  0.00     0.212 C 
ATOM      9  C   UNL A   1      32.187  25.836  24.061  1.00  0.00     0.056 C 
BRANCH   8  10
ATOM     10  N   UNL A   1      32.190  23.445  24.559  1.00  0.00    -0.331 N 
ATOM     11  C   UNL A   1      32.746  22.262  24.225  1.00  0.00     0.245 C 
ATOM     12  O   UNL A   1      31.977  21.320  24.026  1.00  0.00    -0.270 OA
ATOM     13  H   UNL A   1      31.224  23.425  24.366  1.00  0.00     0.165 HD
BRANCH  11  14
ATOM     14  C   UNL A   1      34.190  22.024  24.112  1.00  0.00     0.071 C 
ATOM     15  C   UNL A   1      34.927  21.553  25.121  1.00  0.00     0.005 C 
BRANCH  15  16
ATOM     16  C   UNL A   1      36.321  21.200  24.998  1.00  0.00    -0.004 C 
ATOM     17  C   UNL A   1      38.715  21.630  25.662  1.00  0.00     0.035 C 
ATOM     18  C   UNL A   1      37.247  21.890  25.680  1.00  0.00    -0.030 C 
ENDBRANCH  15  16
ENDBRANCH  11  14
ENDBRANCH   8  10
BRANCH   8  19
ATOM     19  C   UNL A   1      34.017  25.148  25.549  1.00  0.00     0.420 C 
ATOM     20  F   UNL A   1      34.185  26.424  25.941  1.00  0.00    -0.168 F 
ATOM     21  F   UNL A   1      34.450  24.340  26.550  1.00  0.00    -0.168 F 
ATOM     22  F   UNL A   1      34.892  24.916  24.531  1.00  0.00    -0.168 F 
ENDBRANCH   8  19
ENDBRANCH   5   8
ENDBRANCH   3   4
ENDBRANCH   2   3
ENDBRANCH   1   2
BRANCH   1  23
ATOM     23  C   UNL A   1      31.519  30.718  26.004  1.00  0.00     0.002 C 
BRANCH  23  24
ATOM     24  C   UNL A   1      31.332  32.129  26.562  1.00  0.00     0.021 C 
BRANCH  24  25
ATOM     25  C   UNL A   1      32.604  32.777  27.094  1.00  0.00     0.116 C 
BRANCH  25  26
ATOM     26  N   UNL A   1      32.375  34.124  27.580  1.00  0.00    -0.352 N 
ATOM     27  C   UNL A   1      33.010  34.802  28.589  1.00  0.00     0.251 C 
ATOM     28  H   UNL A   1      31.661  34.623  27.121  1.00  0.00     0.163 HD
ATOM     29  O   UNL A   1      32.569  35.876  28.980  1.00  0.00    -0.269 OA
BRANCH  27  30
ATOM     30  C   UNL A   1      34.212  34.222  29.225  1.00  0.00     0.039 A 
ATOM     31  C   UNL A   1      34.039  33.347  30.299  1.00  0.00     0.014 A 
ATOM     32  C   UNL A   1      35.499  34.542  28.780  1.00  0.00     0.014 A 
ATOM     33  C   UNL A   1      35.153  32.763  30.901  1.00  0.00     0.010 A 
ATOM     34  C   UNL A   1      36.604  33.896  29.328  1.00  0.00     0.010 A 
ATOM     35  C   UNL A   1      36.444  33.009  30.402  1.00  0.00    -0.014 A 
BRANCH  35  36
ATOM     36  C   UNL A   1      37.622  32.336  31.005  1.00  0.00     0.031 A 
ATOM     37  C   UNL A   1      38.103  32.720  32.376  1.00  0.00     0.074 A 
ATOM     38  C   UNL A   1      38.272  31.390  30.301  1.00  0.00     0.049 A 
ATOM     39  N   UNL A   1      39.091  32.219  33.075  1.00  0.00    -0.248 NA
ATOM     40  C   UNL A   1      37.401  33.828  33.043  1.00  0.00     0.031 C 
ATOM     41  C   UNL A   1      37.937  30.976  28.937  1.00  0.00     0.029 A 
ATOM     42  N   UNL A   1      39.343  30.600  30.635  1.00  0.00    -0.354 N 
ATOM     43  C   UNL A   1      39.127  32.949  34.257  1.00  0.00     0.074 A 
ATOM     44  C   UNL A   1      38.107  33.970  34.154  1.00  0.00     0.031 C 
ATOM     45  C   UNL A   1      38.759  29.982  28.565  1.00  0.00     0.029 A 
ATOM     46  C   UNL A   1      39.698  29.711  29.650  1.00  0.00     0.049 A 
ATOM     47  H   UNL A   1      39.812  30.665  31.498  1.00  0.00     0.167 HD
ATOM     48  C   UNL A   1      39.922  32.767  35.339  1.00  0.00     0.037 A 
ATOM     49  C   UNL A   1      40.668  28.778  29.627  1.00  0.00     0.037 A 
ATOM     50  C   UNL A   1      40.926  31.740  35.441  1.00  0.00     0.049 A 
ATOM     51  C   UNL A   1      41.533  28.593  30.845  1.00  0.00     0.074 A 
ATOM     52  C   UNL A   1      41.744  31.435  36.514  1.00  0.00     0.029 A 
ATOM     53  N   UNL A   1      41.254  30.852  34.425  1.00  0.00    -0.354 N 
ATOM     54  N   UNL A   1      41.502  29.233  31.989  1.00  0.00    -0.248 NA
ATOM     55  C   UNL A   1      42.559  27.545  30.772  1.00  0.00     0.031 C 
ATOM     56  C   UNL A   1      42.603  30.399  36.132  1.00  0.00     0.029 A 
ATOM     57  C   UNL A   1      42.279  30.017  34.840  1.00  0.00     0.049 A 
ATOM     58  H   UNL A   1      40.822  30.821  33.541  1.00  0.00     0.167 HD
ATOM     59  C   UNL A   1      42.481  28.649  32.780  1.00  0.00     0.074 A 
ATOM     60  C   UNL A   1      43.074  27.588  31.992  1.00  0.00     0.031 C 
ATOM     61  C   UNL A   1      42.858  28.964  34.044  1.00  0.00     0.037 A 
BRANCH  48  62
ATOM     62  C   UNL A   1      39.734  33.697  36.503  1.00  0.00     0.064 A 
ATOM     63  C   UNL A   1      38.897  33.370  37.581  1.00  0.00     0.173 A 
ATOM     64  C   UNL A   1      40.429  34.916  36.563  1.00  0.00     0.173 A 
ATOM     65  F   UNL A   1      38.200  32.224  37.572  1.00  0.00    -0.203 F 
ATOM     66  C   UNL A   1      38.738  34.240  38.658  1.00  0.00     0.198 A 
ATOM     67  C   UNL A   1      40.294  35.767  37.657  1.00  0.00     0.198 A 
ATOM     68  F   UNL A   1      41.247  35.277  35.562  1.00  0.00    -0.203 F 
ATOM     69  F   UNL A   1      37.893  33.927  39.650  1.00  0.00    -0.200 F 
ATOM     70  C   UNL A   1      39.442  35.433  38.699  1.00  0.00     0.200 A 
ATOM     71  F   UNL A   1      40.987  36.914  37.701  1.00  0.00    -0.200 F 
ATOM     72  F   UNL A   1      39.296  36.264  39.740  1.00  0.00    -0.200 F 
ENDBRANCH  48  62
BRANCH  49  73
ATOM     73  C   UNL A   1      40.847  27.922  28.426  1.00  0.00     0.064 A 
ATOM     74  C   UNL A   1      41.660  28.333  27.360  1.00  0.00     0.173 A 
ATOM     75  C   UNL A   1      40.208  26.677  28.316  1.00  0.00     0.173 A 
ATOM     76  F   UNL A   1      42.277  29.523  27.410  1.00  0.00    -0.203 F 
ATOM     77  C   UNL A   1      41.807  27.545  26.220  1.00  0.00     0.198 A 
ATOM     78  C   UNL A   1      40.382  25.876  27.190  1.00  0.00     0.198 A 
ATOM     79  F   UNL A   1      39.426  26.234  29.310  1.00  0.00    -0.203 F 
ATOM     80  F   UNL A   1      42.550  27.986  25.196  1.00  0.00    -0.200 F 
ATOM     81  C   UNL A   1      41.173  26.315  26.138  1.00  0.00     0.200 A 
ATOM     82  F   UNL A   1      39.781  24.680  27.122  1.00  0.00    -0.200 F 
ATOM     83  F   UNL A   1      41.319  25.555  25.045  1.00  0.00    -0.200 F 
ENDBRANCH  49  73
BRANCH  61  84
ATOM     84  C   UNL A   1      43.942  28.128  34.663  1.00  0.00     0.064 A 
ATOM     85  C   UNL A   1      45.288  28.526  34.640  1.00  0.00     0.173 A 
ATOM     86  C   UNL A   1      43.627  26.919  35.303  1.00  0.00     0.173 A 
ATOM     87  F   UNL A   1      45.644  29.665  34.028  1.00  0.00    -0.203 F 
ATOM     88  C   UNL A   1      46.281  27.727  35.201  1.00  0.00     0.198 A 
ATOM     89  C   UNL A   1      44.618  26.142  35.895  1.00  0.00     0.198 A 
ATOM     90  F   UNL A   1      42.356  26.496  35.363  1.00  0.00    -0.203 F 
ATOM     91  F   UNL A   1      47.565  28.098  35.111  1.00  0.00    -0.200 F 
ATOM     92  C   UNL A   1      45.945  26.539  35.833  1.00  0.00     0.200 A 
ATOM     93  F   UNL A   1      44.289  25.002  36.519  1.00  0.00    -0.200 F 
ATOM     94  F   UNL A   1      46.902  25.774  36.374  1.00  0.00    -0.200 F 
ENDBRANCH  61  84
ENDBRANCH  35  36
ENDBRANCH  27  30
ENDBRANCH  25  26
ENDBRANCH  24  25
ENDBRANCH  23  24
ENDBRANCH   1  23
TORSDOF 17
ENDMDL
