MODEL 1
REMARK VINA RESULT:     -12.6      0.000      0.000
REMARK SMILES C[C@H]1SC[C@H](C(=O)NCCCCCCNC(=O)c2ccc(-c3c4nc(c(-c5c(F)c(F)c(F)c(F)c5F)c5ccc([nH]5)c(-c5c(F)c(F)c(F)c(F)c5F)c5nc(c(-c6c(F)c(F)c(F)c(F)c6F)c6ccc3[nH]6)C=C5)C=C4)cc2)N1C(=O)[C@@H]1CSc2ccccc21
REMARK SMILES IDX 11 1 10 2 9 3 8 4 6 5 7 6 5 8 1 9 2 10 3 11 81 12 4 13 82 14
REMARK SMILES IDX 83 15 84 16 85 17 92 18 86 19 87 20 91 21 88 22 90 23 89 24
REMARK SMILES IDX 12 25 13 26 14 27 15 28 16 29 17 31 18 32 19 33 80 34 20 35
REMARK SMILES IDX 79 36 21 37 22 38 23 39 73 40 24 41 78 42 72 43 74 44 25 45
REMARK SMILES IDX 77 46 71 47 70 48 26 50 58 51 38 52 57 53 39 54 42 55 56 56
REMARK SMILES IDX 75 57 40 58 41 59 55 61 76 62 43 63 27 64 28 65 36 66 29 67
REMARK SMILES IDX 30 68 34 69 37 70 31 71 32 72 35 73 33 74 59 75 60 76 68 77
REMARK SMILES IDX 61 78 62 79 66 80 69 81 63 82 64 83 67 84 65 85 44 86 45 87
REMARK SMILES IDX 53 88 46 89 47 90 51 91 54 92 48 93 49 94 52 95 50 96
REMARK H PARENT 8 7 15 30 74 49 42 60
REMARK Flexibility Score: inf
ROOT
ATOM      1  C   UNL A   1      32.416  30.035  26.600  1.00  0.00     0.002 C 
ENDROOT
BRANCH   1   2
ATOM      2  C   UNL A   1      31.826  28.896  27.436  1.00  0.00     0.021 C 
BRANCH   2   3
ATOM      3  C   UNL A   1      32.259  27.502  26.989  1.00  0.00     0.116 C 
BRANCH   3   4
ATOM      4  N   UNL A   1      31.125  26.608  26.907  1.00  0.00    -0.354 N 
ATOM      5  C   UNL A   1      30.605  25.946  25.838  1.00  0.00     0.243 C 
ATOM      6  O   UNL A   1      29.469  25.474  25.964  1.00  0.00    -0.273 OA
ATOM      7  H   UNL A   1      30.656  26.455  27.759  1.00  0.00     0.163 HD
BRANCH   5   8
ATOM      8  C   UNL A   1      31.289  25.963  24.462  1.00  0.00     0.185 C 
ATOM      9  C   UNL A   1      32.985  25.290  21.917  1.00  0.00     0.043 C 
ATOM     10  C   UNL A   1      33.343  26.066  23.186  1.00  0.00     0.141 C 
ATOM     11  S   UNL A   1      32.700  27.749  23.001  1.00  0.00    -0.135 SA
ATOM     12  N   UNL A   1      32.697  25.523  24.372  1.00  0.00    -0.318 N 
ATOM     13  C   UNL A   1      31.192  27.408  23.943  1.00  0.00     0.107 C 
BRANCH  12  14
ATOM     14  C   UNL A   1      33.091  24.369  25.036  1.00  0.00     0.232 C 
ATOM     15  O   UNL A   1      33.488  24.436  26.206  1.00  0.00    -0.274 OA
BRANCH  14  16
ATOM     16  C   UNL A   1      33.140  22.992  24.345  1.00  0.00     0.120 C 
ATOM     17  C   UNL A   1      32.237  21.925  24.980  1.00  0.00     0.093 C 
ATOM     18  C   UNL A   1      34.524  22.430  24.198  1.00  0.00    -0.021 A 
ATOM     19  S   UNL A   1      33.276  20.550  25.579  1.00  0.00    -0.125 SA
ATOM     20  C   UNL A   1      34.748  21.236  24.883  1.00  0.00     0.011 A 
ATOM     21  C   UNL A   1      35.557  23.051  23.500  1.00  0.00     0.006 A 
ATOM     22  C   UNL A   1      36.030  20.727  25.013  1.00  0.00     0.015 A 
ATOM     23  C   UNL A   1      36.844  22.525  23.598  1.00  0.00     0.000 A 
ATOM     24  C   UNL A   1      37.086  21.389  24.380  1.00  0.00     0.001 A 
ENDBRANCH  14  16
ENDBRANCH  12  14
ENDBRANCH   5   8
ENDBRANCH   3   4
ENDBRANCH   2   3
ENDBRANCH   1   2
BRANCH   1  25
ATOM     25  C   UNL A   1      31.384  30.929  25.908  1.00  0.00     0.002 C 
BRANCH  25  26
ATOM     26  C   UNL A   1      31.250  32.333  26.500  1.00  0.00     0.021 C 
BRANCH  26  27
ATOM     27  C   UNL A   1      32.507  32.852  27.191  1.00  0.00     0.116 C 
BRANCH  27  28
ATOM     28  N   UNL A   1      32.362  34.227  27.637  1.00  0.00    -0.352 N 
ATOM     29  C   UNL A   1      33.035  34.895  28.629  1.00  0.00     0.251 C 
ATOM     30  H   UNL A   1      31.685  34.756  27.158  1.00  0.00     0.163 HD
ATOM     31  O   UNL A   1      32.656  36.002  28.995  1.00  0.00    -0.269 OA
BRANCH  29  32
ATOM     32  C   UNL A   1      34.208  34.268  29.273  1.00  0.00     0.039 A 
ATOM     33  C   UNL A   1      34.002  33.415  30.360  1.00  0.00     0.014 A 
ATOM     34  C   UNL A   1      35.504  34.526  28.818  1.00  0.00     0.014 A 
ATOM     35  C   UNL A   1      35.093  32.786  30.960  1.00  0.00     0.010 A 
ATOM     36  C   UNL A   1      36.581  33.836  29.365  1.00  0.00     0.010 A 
ATOM     37  C   UNL A   1      36.388  32.967  30.450  1.00  0.00    -0.014 A 
BRANCH  37  38
ATOM     38  C   UNL A   1      37.552  32.269  31.052  1.00  0.00     0.031 A 
ATOM     39  C   UNL A   1      38.048  32.664  32.416  1.00  0.00     0.074 A 
ATOM     40  C   UNL A   1      38.189  31.309  30.353  1.00  0.00     0.049 A 
ATOM     41  N   UNL A   1      39.074  32.206  33.091  1.00  0.00    -0.248 NA
ATOM     42  C   UNL A   1      37.308  33.734  33.105  1.00  0.00     0.031 C 
ATOM     43  C   UNL A   1      37.835  30.870  29.003  1.00  0.00     0.029 A 
ATOM     44  N   UNL A   1      39.275  30.535  30.680  1.00  0.00    -0.354 N 
ATOM     45  C   UNL A   1      39.101  32.932  34.274  1.00  0.00     0.074 A 
ATOM     46  C   UNL A   1      38.034  33.907  34.198  1.00  0.00     0.031 C 
ATOM     47  C   UNL A   1      38.671  29.890  28.625  1.00  0.00     0.029 A 
ATOM     48  C   UNL A   1      39.643  29.658  29.689  1.00  0.00     0.049 A 
ATOM     49  H   UNL A   1      39.745  30.602  31.543  1.00  0.00     0.167 HD
ATOM     50  C   UNL A   1      39.920  32.779  35.342  1.00  0.00     0.037 A 
ATOM     51  C   UNL A   1      40.657  28.773  29.641  1.00  0.00     0.037 A 
ATOM     52  C   UNL A   1      40.974  31.802  35.419  1.00  0.00     0.049 A 
ATOM     53  C   UNL A   1      41.566  28.636  30.834  1.00  0.00     0.074 A 
ATOM     54  C   UNL A   1      41.842  31.546  36.467  1.00  0.00     0.029 A 
ATOM     55  N   UNL A   1      41.306  30.917  34.402  1.00  0.00    -0.354 N 
ATOM     56  N   UNL A   1      41.543  29.285  31.974  1.00  0.00    -0.248 NA
ATOM     57  C   UNL A   1      42.636  27.635  30.739  1.00  0.00     0.031 C 
ATOM     58  C   UNL A   1      42.727  30.541  36.067  1.00  0.00     0.029 A 
ATOM     59  C   UNL A   1      42.375  30.127  34.793  1.00  0.00     0.049 A 
ATOM     60  H   UNL A   1      40.850  30.861  33.531  1.00  0.00     0.167 HD
ATOM     61  C   UNL A   1      42.567  28.747  32.740  1.00  0.00     0.074 A 
ATOM     62  C   UNL A   1      43.182  27.706  31.944  1.00  0.00     0.031 C 
ATOM     63  C   UNL A   1      42.966  29.084  33.993  1.00  0.00     0.037 A 
BRANCH  50  64
ATOM     64  C   UNL A   1      39.701  33.687  36.519  1.00  0.00     0.064 A 
ATOM     65  C   UNL A   1      40.292  34.959  36.586  1.00  0.00     0.173 A 
ATOM     66  C   UNL A   1      38.867  33.299  37.579  1.00  0.00     0.173 A 
ATOM     67  F   UNL A   1      41.109  35.375  35.606  1.00  0.00    -0.203 F 
ATOM     68  C   UNL A   1      40.081  35.793  37.680  1.00  0.00     0.198 A 
ATOM     69  C   UNL A   1      38.631  34.150  38.656  1.00  0.00     0.198 A 
ATOM     70  F   UNL A   1      38.272  32.096  37.566  1.00  0.00    -0.203 F 
ATOM     71  F   UNL A   1      40.701  36.980  37.745  1.00  0.00    -0.200 F 
ATOM     72  C   UNL A   1      39.245  35.392  38.710  1.00  0.00     0.200 A 
ATOM     73  F   UNL A   1      37.810  33.767  39.643  1.00  0.00    -0.200 F 
ATOM     74  F   UNL A   1      39.035  36.200  39.759  1.00  0.00    -0.200 F 
ENDBRANCH  50  64
BRANCH  51  75
ATOM     75  C   UNL A   1      40.860  27.932  28.431  1.00  0.00     0.064 A 
ATOM     76  C   UNL A   1      41.632  28.390  27.354  1.00  0.00     0.173 A 
ATOM     77  C   UNL A   1      40.268  26.666  28.316  1.00  0.00     0.173 A 
ATOM     78  F   UNL A   1      42.205  29.601  27.407  1.00  0.00    -0.203 F 
ATOM     79  C   UNL A   1      41.776  27.628  26.195  1.00  0.00     0.198 A 
ATOM     80  C   UNL A   1      40.441  25.891  27.171  1.00  0.00     0.198 A 
ATOM     81  F   UNL A   1      39.527  26.176  29.321  1.00  0.00    -0.203 F 
ATOM     82  F   UNL A   1      42.468  28.117  25.157  1.00  0.00    -0.200 F 
ATOM     83  C   UNL A   1      41.184  26.378  26.107  1.00  0.00     0.200 A 
ATOM     84  F   UNL A   1      39.882  24.676  27.097  1.00  0.00    -0.200 F 
ATOM     85  F   UNL A   1      41.320  25.647  24.992  1.00  0.00    -0.200 F 
ENDBRANCH  51  75
BRANCH  63  86
ATOM     86  C   UNL A   1      44.085  28.285  34.597  1.00  0.00     0.064 A 
ATOM     87  C   UNL A   1      45.427  28.673  34.468  1.00  0.00     0.173 A 
ATOM     88  C   UNL A   1      43.806  27.126  35.338  1.00  0.00     0.173 A 
ATOM     89  F   UNL A   1      45.749  29.765  33.758  1.00  0.00    -0.203 F 
ATOM     90  C   UNL A   1      46.449  27.910  35.027  1.00  0.00     0.198 A 
ATOM     91  C   UNL A   1      44.828  26.386  35.926  1.00  0.00     0.198 A 
ATOM     92  F   UNL A   1      42.540  26.715  35.500  1.00  0.00    -0.203 F 
ATOM     93  F   UNL A   1      47.727  28.266  34.839  1.00  0.00    -0.200 F 
ATOM     94  C   UNL A   1      46.149  26.772  35.760  1.00  0.00     0.200 A 
ATOM     95  F   UNL A   1      44.534  25.297  36.648  1.00  0.00    -0.200 F 
ATOM     96  F   UNL A   1      47.134  26.042  36.302  1.00  0.00    -0.200 F 
ENDBRANCH  63  86
ENDBRANCH  37  38
ENDBRANCH  29  32
ENDBRANCH  27  28
ENDBRANCH  26  27
ENDBRANCH  25  26
ENDBRANCH   1  25
TORSDOF 15
ENDMDL
MODEL 2
REMARK VINA RESULT:     -12.4      1.166      1.972
REMARK SMILES C[C@H]1SC[C@H](C(=O)NCCCCCCNC(=O)c2ccc(-c3c4nc(c(-c5c(F)c(F)c(F)c(F)c5F)c5ccc([nH]5)c(-c5c(F)c(F)c(F)c(F)c5F)c5nc(c(-c6c(F)c(F)c(F)c(F)c6F)c6ccc3[nH]6)C=C5)C=C4)cc2)N1C(=O)[C@@H]1CSc2ccccc21
REMARK SMILES IDX 11 1 10 2 9 3 8 4 6 5 7 6 5 8 1 9 2 10 3 11 81 12 4 13 82 14
REMARK SMILES IDX 83 15 84 16 85 17 92 18 86 19 87 20 91 21 88 22 90 23 89 24
REMARK SMILES IDX 12 25 13 26 14 27 15 28 16 29 17 31 18 32 19 33 80 34 20 35
REMARK SMILES IDX 79 36 21 37 22 38 23 39 73 40 24 41 78 42 72 43 74 44 25 45
REMARK SMILES IDX 77 46 71 47 70 48 26 50 58 51 38 52 57 53 39 54 42 55 56 56
REMARK SMILES IDX 75 57 40 58 41 59 55 61 76 62 43 63 27 64 28 65 36 66 29 67
REMARK SMILES IDX 30 68 34 69 37 70 31 71 32 72 35 73 33 74 59 75 60 76 68 77
REMARK SMILES IDX 61 78 62 79 66 80 69 81 63 82 64 83 67 84 65 85 44 86 45 87
REMARK SMILES IDX 53 88 46 89 47 90 51 91 54 92 48 93 49 94 52 95 50 96
REMARK H PARENT 8 7 15 30 74 49 42 60
REMARK Flexibility Score: inf
ROOT
ATOM      1  C   UNL A   1      32.071  29.990  27.078  1.00  0.00     0.002 C 
ENDROOT
BRANCH   1   2
ATOM      2  C   UNL A   1      33.594  29.862  27.158  1.00  0.00     0.021 C 
BRANCH   2   3
ATOM      3  C   UNL A   1      34.156  28.628  26.456  1.00  0.00     0.116 C 
BRANCH   3   4
ATOM      4  N   UNL A   1      34.405  28.896  25.056  1.00  0.00    -0.354 N 
ATOM      5  C   UNL A   1      33.695  28.531  23.954  1.00  0.00     0.243 C 
ATOM      6  O   UNL A   1      34.261  28.633  22.860  1.00  0.00    -0.273 OA
ATOM      7  H   UNL A   1      35.214  29.425  24.874  1.00  0.00     0.163 HD
BRANCH   5   8
ATOM      8  C   UNL A   1      32.336  27.820  24.062  1.00  0.00     0.185 C 
ATOM      9  C   UNL A   1      30.037  25.716  24.365  1.00  0.00     0.043 C 
ATOM     10  C   UNL A   1      30.758  26.245  23.123  1.00  0.00     0.141 C 
ATOM     11  S   UNL A   1      30.007  27.835  22.688  1.00  0.00    -0.135 SA
ATOM     12  N   UNL A   1      32.164  26.525  23.372  1.00  0.00    -0.318 N 
ATOM     13  C   UNL A   1      31.284  28.807  23.526  1.00  0.00     0.107 C 
BRANCH  12  14
ATOM     14  C   UNL A   1      33.162  25.565  23.472  1.00  0.00     0.232 C 
ATOM     15  O   UNL A   1      33.783  25.215  22.460  1.00  0.00    -0.274 OA
BRANCH  14  16
ATOM     16  C   UNL A   1      33.483  24.838  24.792  1.00  0.00     0.120 C 
ATOM     17  C   UNL A   1      34.850  25.186  25.399  1.00  0.00     0.093 C 
ATOM     18  C   UNL A   1      33.352  23.344  24.716  1.00  0.00    -0.021 A 
ATOM     19  S   UNL A   1      35.866  23.672  25.477  1.00  0.00    -0.125 SA
ATOM     20  C   UNL A   1      34.536  22.640  24.935  1.00  0.00     0.011 A 
ATOM     21  C   UNL A   1      32.179  22.672  24.385  1.00  0.00     0.006 A 
ATOM     22  C   UNL A   1      34.606  21.281  24.680  1.00  0.00     0.015 A 
ATOM     23  C   UNL A   1      32.234  21.297  24.160  1.00  0.00     0.000 A 
ATOM     24  C   UNL A   1      33.450  20.611  24.271  1.00  0.00     0.001 A 
ENDBRANCH  14  16
ENDBRANCH  12  14
ENDBRANCH   5   8
ENDBRANCH   3   4
ENDBRANCH   2   3
ENDBRANCH   1   2
BRANCH   1  25
ATOM     25  C   UNL A   1      31.565  31.106  26.159  1.00  0.00     0.002 C 
BRANCH  25  26
ATOM     26  C   UNL A   1      31.386  32.465  26.837  1.00  0.00     0.021 C 
BRANCH  26  27
ATOM     27  C   UNL A   1      32.688  33.172  27.193  1.00  0.00     0.116 C 
BRANCH  27  28
ATOM     28  N   UNL A   1      32.462  34.482  27.780  1.00  0.00    -0.352 N 
ATOM     29  C   UNL A   1      33.062  35.064  28.867  1.00  0.00     0.251 C 
ATOM     30  H   UNL A   1      31.780  35.031  27.331  1.00  0.00     0.163 HD
ATOM     31  O   UNL A   1      32.618  36.107  29.334  1.00  0.00    -0.269 OA
BRANCH  29  32
ATOM     32  C   UNL A   1      34.237  34.420  29.491  1.00  0.00     0.039 A 
ATOM     33  C   UNL A   1      34.041  33.593  30.599  1.00  0.00     0.014 A 
ATOM     34  C   UNL A   1      35.526  34.638  28.996  1.00  0.00     0.014 A 
ATOM     35  C   UNL A   1      35.133  32.948  31.181  1.00  0.00     0.010 A 
ATOM     36  C   UNL A   1      36.601  33.932  29.527  1.00  0.00     0.010 A 
ATOM     37  C   UNL A   1      36.418  33.088  30.632  1.00  0.00    -0.014 A 
BRANCH  37  38
ATOM     38  C   UNL A   1      37.581  32.372  31.216  1.00  0.00     0.031 A 
ATOM     39  C   UNL A   1      38.107  32.763  32.570  1.00  0.00     0.074 A 
ATOM     40  C   UNL A   1      38.190  31.401  30.508  1.00  0.00     0.049 A 
ATOM     41  N   UNL A   1      39.137  32.290  33.227  1.00  0.00    -0.248 NA
ATOM     42  C   UNL A   1      37.397  33.847  33.268  1.00  0.00     0.031 C 
ATOM     43  C   UNL A   1      37.805  30.965  29.165  1.00  0.00     0.029 A 
ATOM     44  N   UNL A   1      39.269  30.610  30.817  1.00  0.00    -0.354 N 
ATOM     45  C   UNL A   1      39.197  33.018  34.408  1.00  0.00     0.074 A 
ATOM     46  C   UNL A   1      38.145  34.010  34.348  1.00  0.00     0.031 C 
ATOM     47  C   UNL A   1      38.617  29.970  28.775  1.00  0.00     0.029 A 
ATOM     48  C   UNL A   1      39.605  29.725  29.822  1.00  0.00     0.049 A 
ATOM     49  H   UNL A   1      39.755  30.671  31.671  1.00  0.00     0.167 HD
ATOM     50  C   UNL A   1      40.033  32.855  35.462  1.00  0.00     0.037 A 
ATOM     51  C   UNL A   1      40.604  28.824  29.759  1.00  0.00     0.037 A 
ATOM     52  C   UNL A   1      41.072  31.861  35.522  1.00  0.00     0.049 A 
ATOM     53  C   UNL A   1      41.531  28.675  30.936  1.00  0.00     0.074 A 
ATOM     54  C   UNL A   1      41.954  31.593  36.555  1.00  0.00     0.029 A 
ATOM     55  N   UNL A   1      41.371  30.968  34.502  1.00  0.00    -0.354 N 
ATOM     56  N   UNL A   1      41.539  29.327  32.074  1.00  0.00    -0.248 NA
ATOM     57  C   UNL A   1      42.583  27.656  30.824  1.00  0.00     0.031 C 
ATOM     58  C   UNL A   1      42.815  30.573  36.143  1.00  0.00     0.029 A 
ATOM     59  C   UNL A   1      42.434  30.161  34.876  1.00  0.00     0.049 A 
ATOM     60  H   UNL A   1      40.899  30.918  33.639  1.00  0.00     0.167 HD
ATOM     61  C   UNL A   1      42.568  28.774  32.824  1.00  0.00     0.074 A 
ATOM     62  C   UNL A   1      43.151  27.721  32.019  1.00  0.00     0.031 C 
ATOM     63  C   UNL A   1      42.994  29.108  34.068  1.00  0.00     0.037 A 
BRANCH  50  64
ATOM     64  C   UNL A   1      39.850  33.768  36.640  1.00  0.00     0.064 A 
ATOM     65  C   UNL A   1      40.518  35.000  36.725  1.00  0.00     0.173 A 
ATOM     66  C   UNL A   1      38.973  33.428  37.682  1.00  0.00     0.173 A 
ATOM     67  F   UNL A   1      41.377  35.370  35.762  1.00  0.00    -0.203 F 
ATOM     68  C   UNL A   1      40.339  35.841  37.820  1.00  0.00     0.198 A 
ATOM     69  C   UNL A   1      38.771  34.288  38.760  1.00  0.00     0.198 A 
ATOM     70  F   UNL A   1      38.304  32.266  37.651  1.00  0.00    -0.203 F 
ATOM     71  F   UNL A   1      41.030  36.987  37.903  1.00  0.00    -0.200 F 
ATOM     72  C   UNL A   1      39.461  35.488  38.832  1.00  0.00     0.200 A 
ATOM     73  F   UNL A   1      37.910  33.952  39.729  1.00  0.00    -0.200 F 
ATOM     74  F   UNL A   1      39.283  36.302  39.882  1.00  0.00    -0.200 F 
ENDBRANCH  50  64
BRANCH  51  75
ATOM     75  C   UNL A   1      40.771  27.977  28.548  1.00  0.00     0.064 A 
ATOM     76  C   UNL A   1      41.554  28.407  27.467  1.00  0.00     0.173 A 
ATOM     77  C   UNL A   1      40.135  26.732  28.435  1.00  0.00     0.173 A 
ATOM     78  F   UNL A   1      42.169  29.598  27.518  1.00  0.00    -0.203 F 
ATOM     79  C   UNL A   1      41.666  27.642  26.308  1.00  0.00     0.198 A 
ATOM     80  C   UNL A   1      40.275  25.952  27.289  1.00  0.00     0.198 A 
ATOM     81  F   UNL A   1      39.381  26.269  29.443  1.00  0.00    -0.203 F 
ATOM     82  F   UNL A   1      42.370  28.106  25.267  1.00  0.00    -0.200 F 
ATOM     83  C   UNL A   1      41.030  26.414  26.221  1.00  0.00     0.200 A 
ATOM     84  F   UNL A   1      39.673  24.758  27.217  1.00  0.00    -0.200 F 
ATOM     85  F   UNL A   1      41.135  25.678  25.106  1.00  0.00    -0.200 F 
ENDBRANCH  51  75
BRANCH  63  86
ATOM     86  C   UNL A   1      44.111  28.292  34.654  1.00  0.00     0.064 A 
ATOM     87  C   UNL A   1      43.870  27.112  35.373  1.00  0.00     0.173 A 
ATOM     88  C   UNL A   1      45.446  28.686  34.469  1.00  0.00     0.173 A 
ATOM     89  F   UNL A   1      42.612  26.698  35.590  1.00  0.00    -0.203 F 
ATOM     90  C   UNL A   1      44.921  26.379  35.918  1.00  0.00     0.198 A 
ATOM     91  C   UNL A   1      46.495  27.931  34.984  1.00  0.00     0.198 A 
ATOM     92  F   UNL A   1      45.733  29.801  33.782  1.00  0.00    -0.203 F 
ATOM     93  F   UNL A   1      44.663  25.288  36.653  1.00  0.00    -0.200 F 
ATOM     94  C   UNL A   1      46.232  26.785  35.717  1.00  0.00     0.200 A 
ATOM     95  F   UNL A   1      47.761  28.316  34.775  1.00  0.00    -0.200 F 
ATOM     96  F   UNL A   1      47.242  26.074  36.238  1.00  0.00    -0.200 F 
ENDBRANCH  63  86
ENDBRANCH  37  38
ENDBRANCH  29  32
ENDBRANCH  27  28
ENDBRANCH  26  27
ENDBRANCH  25  26
ENDBRANCH   1  25
TORSDOF 15
ENDMDL
MODEL 3
REMARK VINA RESULT:     -12.3      5.377      9.874
REMARK SMILES C[C@H]1SC[C@H](C(=O)NCCCCCCNC(=O)c2ccc(-c3c4nc(c(-c5c(F)c(F)c(F)c(F)c5F)c5ccc([nH]5)c(-c5c(F)c(F)c(F)c(F)c5F)c5nc(c(-c6c(F)c(F)c(F)c(F)c6F)c6ccc3[nH]6)C=C5)C=C4)cc2)N1C(=O)[C@@H]1CSc2ccccc21
REMARK SMILES IDX 11 1 10 2 9 3 8 4 6 5 7 6 5 8 1 9 2 10 3 11 81 12 4 13 82 14
REMARK SMILES IDX 83 15 84 16 85 17 92 18 86 19 87 20 91 21 88 22 90 23 89 24
REMARK SMILES IDX 12 25 13 26 14 27 15 28 16 29 17 31 18 32 19 33 80 34 20 35
REMARK SMILES IDX 79 36 21 37 22 38 23 39 73 40 24 41 78 42 72 43 74 44 25 45
REMARK SMILES IDX 77 46 71 47 70 48 26 50 58 51 38 52 57 53 39 54 42 55 56 56
REMARK SMILES IDX 75 57 40 58 41 59 55 61 76 62 43 63 27 64 28 65 36 66 29 67
REMARK SMILES IDX 30 68 34 69 37 70 31 71 32 72 35 73 33 74 59 75 60 76 68 77
REMARK SMILES IDX 61 78 62 79 66 80 69 81 63 82 64 83 67 84 65 85 44 86 45 87
REMARK SMILES IDX 53 88 46 89 47 90 51 91 54 92 48 93 49 94 52 95 50 96
REMARK H PARENT 8 7 15 30 74 49 42 60
REMARK Flexibility Score: inf
ROOT
ATOM      1  C   UNL A   1      37.403  21.684  24.577  1.00  0.00     0.002 C 
ENDROOT
BRANCH   1   2
ATOM      2  C   UNL A   1      37.662  22.645  25.741  1.00  0.00     0.021 C 
BRANCH   2   3
ATOM      3  C   UNL A   1      36.519  23.621  26.012  1.00  0.00     0.116 C 
BRANCH   3   4
ATOM      4  N   UNL A   1      35.525  23.026  26.879  1.00  0.00    -0.354 N 
ATOM      5  C   UNL A   1      34.285  22.546  26.590  1.00  0.00     0.243 C 
ATOM      6  O   UNL A   1      33.519  22.354  27.542  1.00  0.00    -0.273 OA
ATOM      7  H   UNL A   1      35.787  22.959  27.825  1.00  0.00     0.163 HD
BRANCH   5   8
ATOM      8  C   UNL A   1      33.768  22.447  25.146  1.00  0.00     0.185 C 
ATOM      9  C   UNL A   1      32.523  23.025  22.331  1.00  0.00     0.043 C 
ATOM     10  C   UNL A   1      31.887  22.512  23.625  1.00  0.00     0.141 C 
ATOM     11  S   UNL A   1      32.222  20.735  23.735  1.00  0.00    -0.135 SA
ATOM     12  N   UNL A   1      32.486  23.102  24.813  1.00  0.00    -0.318 N 
ATOM     13  C   UNL A   1      33.651  20.947  24.826  1.00  0.00     0.107 C 
BRANCH  12  14
ATOM     14  C   UNL A   1      32.242  24.390  25.271  1.00  0.00     0.232 C 
ATOM     15  O   UNL A   1      31.336  24.591  26.089  1.00  0.00    -0.274 OA
BRANCH  14  16
ATOM     16  C   UNL A   1      33.004  25.618  24.736  1.00  0.00     0.120 C 
ATOM     17  C   UNL A   1      33.961  26.267  25.746  1.00  0.00     0.093 C 
ATOM     18  C   UNL A   1      32.120  26.682  24.153  1.00  0.00    -0.021 A 
ATOM     19  S   UNL A   1      33.422  27.983  26.055  1.00  0.00    -0.125 SA
ATOM     20  C   UNL A   1      32.161  27.907  24.818  1.00  0.00     0.011 A 
ATOM     21  C   UNL A   1      31.256  26.487  23.079  1.00  0.00     0.006 A 
ATOM     22  C   UNL A   1      31.241  28.900  24.525  1.00  0.00     0.015 A 
ATOM     23  C   UNL A   1      30.349  27.495  22.756  1.00  0.00     0.000 A 
ATOM     24  C   UNL A   1      30.317  28.682  23.499  1.00  0.00     0.001 A 
ENDBRANCH  14  16
ENDBRANCH  12  14
ENDBRANCH   5   8
ENDBRANCH   3   4
ENDBRANCH   2   3
ENDBRANCH   1   2
BRANCH   1  25
ATOM     25  C   UNL A   1      37.102  20.240  24.989  1.00  0.00     0.002 C 
BRANCH  25  26
ATOM     26  C   UNL A   1      38.316  19.310  25.009  1.00  0.00     0.021 C 
BRANCH  26  27
ATOM     27  C   UNL A   1      39.466  19.789  25.888  1.00  0.00     0.116 C 
BRANCH  27  28
ATOM     28  N   UNL A   1      40.555  18.828  25.942  1.00  0.00    -0.352 N 
ATOM     29  C   UNL A   1      41.905  19.049  26.047  1.00  0.00     0.251 C 
ATOM     30  H   UNL A   1      40.285  17.883  25.898  1.00  0.00     0.163 HD
ATOM     31  O   UNL A   1      42.696  18.125  25.894  1.00  0.00    -0.269 OA
BRANCH  29  32
ATOM     32  C   UNL A   1      42.408  20.410  26.326  1.00  0.00     0.039 A 
ATOM     33  C   UNL A   1      42.898  21.175  25.265  1.00  0.00     0.014 A 
ATOM     34  C   UNL A   1      42.410  20.926  27.625  1.00  0.00     0.014 A 
ATOM     35  C   UNL A   1      43.346  22.476  25.500  1.00  0.00     0.010 A 
ATOM     36  C   UNL A   1      42.781  22.249  27.844  1.00  0.00     0.010 A 
ATOM     37  C   UNL A   1      43.263  23.035  26.786  1.00  0.00    -0.014 A 
BRANCH  37  38
ATOM     38  C   UNL A   1      43.695  24.432  27.042  1.00  0.00     0.031 A 
ATOM     39  C   UNL A   1      42.707  25.449  27.544  1.00  0.00     0.074 A 
ATOM     40  C   UNL A   1      44.966  24.796  26.780  1.00  0.00     0.049 A 
ATOM     41  N   UNL A   1      42.880  26.725  27.783  1.00  0.00    -0.248 NA
ATOM     42  C   UNL A   1      41.335  24.975  27.786  1.00  0.00     0.031 C 
ATOM     43  C   UNL A   1      46.004  23.915  26.245  1.00  0.00     0.029 A 
ATOM     44  N   UNL A   1      45.598  26.007  26.921  1.00  0.00    -0.354 N 
ATOM     45  C   UNL A   1      41.644  27.202  28.199  1.00  0.00     0.074 A 
ATOM     46  C   UNL A   1      40.714  26.097  28.114  1.00  0.00     0.031 C 
ATOM     47  C   UNL A   1      47.149  24.606  26.125  1.00  0.00     0.029 A 
ATOM     48  C   UNL A   1      46.917  25.986  26.537  1.00  0.00     0.049 A 
ATOM     49  H   UNL A   1      45.149  26.812  27.266  1.00  0.00     0.167 HD
ATOM     50  C   UNL A   1      41.320  28.440  28.643  1.00  0.00     0.037 A 
ATOM     51  C   UNL A   1      47.831  26.975  26.511  1.00  0.00     0.037 A 
ATOM     52  C   UNL A   1      42.250  29.535  28.735  1.00  0.00     0.049 A 
ATOM     53  C   UNL A   1      47.440  28.347  26.991  1.00  0.00     0.074 A 
ATOM     54  C   UNL A   1      42.029  30.820  29.198  1.00  0.00     0.029 A 
ATOM     55  N   UNL A   1      43.583  29.472  28.354  1.00  0.00    -0.354 N 
ATOM     56  N   UNL A   1      46.283  28.770  27.442  1.00  0.00    -0.248 NA
ATOM     57  C   UNL A   1      48.486  29.378  26.970  1.00  0.00     0.031 C 
ATOM     58  C   UNL A   1      43.214  31.548  29.054  1.00  0.00     0.029 A 
ATOM     59  C   UNL A   1      44.191  30.701  28.558  1.00  0.00     0.049 A 
ATOM     60  H   UNL A   1      44.030  28.673  27.992  1.00  0.00     0.167 HD
ATOM     61  C   UNL A   1      46.472  30.100  27.790  1.00  0.00     0.074 A 
ATOM     62  C   UNL A   1      47.860  30.410  27.515  1.00  0.00     0.031 C 
ATOM     63  C   UNL A   1      45.578  30.988  28.292  1.00  0.00     0.037 A 
BRANCH  50  64
ATOM     64  C   UNL A   1      39.898  28.673  29.070  1.00  0.00     0.064 A 
ATOM     65  C   UNL A   1      39.487  28.464  30.396  1.00  0.00     0.173 A 
ATOM     66  C   UNL A   1      38.942  29.142  28.157  1.00  0.00     0.173 A 
ATOM     67  F   UNL A   1      40.357  28.004  31.308  1.00  0.00    -0.203 F 
ATOM     68  C   UNL A   1      38.168  28.685  30.783  1.00  0.00     0.198 A 
ATOM     69  C   UNL A   1      37.631  29.396  28.555  1.00  0.00     0.198 A 
ATOM     70  F   UNL A   1      39.281  29.365  26.877  1.00  0.00    -0.203 F 
ATOM     71  F   UNL A   1      37.788  28.426  32.042  1.00  0.00    -0.200 F 
ATOM     72  C   UNL A   1      37.244  29.158  29.865  1.00  0.00     0.200 A 
ATOM     73  F   UNL A   1      36.743  29.867  27.670  1.00  0.00    -0.200 F 
ATOM     74  F   UNL A   1      35.976  29.379  30.240  1.00  0.00    -0.200 F 
ENDBRANCH  50  64
BRANCH  51  75
ATOM     75  C   UNL A   1      49.213  26.703  26.032  1.00  0.00     0.064 A 
ATOM     76  C   UNL A   1      49.592  26.994  24.714  1.00  0.00     0.173 A 
ATOM     77  C   UNL A   1      50.175  26.125  26.873  1.00  0.00     0.173 A 
ATOM     78  F   UNL A   1      48.703  27.531  23.865  1.00  0.00    -0.203 F 
ATOM     79  C   UNL A   1      50.868  26.686  24.246  1.00  0.00     0.198 A 
ATOM     80  C   UNL A   1      51.461  25.849  26.413  1.00  0.00     0.198 A 
ATOM     81  F   UNL A   1      49.869  25.834  28.146  1.00  0.00    -0.203 F 
ATOM     82  F   UNL A   1      51.183  26.919  22.965  1.00  0.00    -0.200 F 
ATOM     83  C   UNL A   1      51.803  26.119  25.097  1.00  0.00     0.200 A 
ATOM     84  F   UNL A   1      52.367  25.317  27.245  1.00  0.00    -0.200 F 
ATOM     85  F   UNL A   1      53.030  25.821  24.647  1.00  0.00    -0.200 F 
ENDBRANCH  51  75
BRANCH  63  86
ATOM     86  C   UNL A   1      46.086  32.363  28.624  1.00  0.00     0.064 A 
ATOM     87  C   UNL A   1      46.603  32.677  29.889  1.00  0.00     0.173 A 
ATOM     88  C   UNL A   1      46.076  33.374  27.650  1.00  0.00     0.173 A 
ATOM     89  F   UNL A   1      46.623  31.751  30.860  1.00  0.00    -0.203 F 
ATOM     90  C   UNL A   1      47.057  33.962  30.178  1.00  0.00     0.198 A 
ATOM     91  C   UNL A   1      46.564  34.647  27.931  1.00  0.00     0.198 A 
ATOM     92  F   UNL A   1      45.600  33.125  26.421  1.00  0.00    -0.203 F 
ATOM     93  F   UNL A   1      47.491  34.254  31.412  1.00  0.00    -0.200 F 
ATOM     94  C   UNL A   1      47.043  34.942  29.198  1.00  0.00     0.200 A 
ATOM     95  F   UNL A   1      46.565  35.588  26.978  1.00  0.00    -0.200 F 
ATOM     96  F   UNL A   1      47.486  36.177  29.477  1.00  0.00    -0.200 F 
ENDBRANCH  63  86
ENDBRANCH  37  38
ENDBRANCH  29  32
ENDBRANCH  27  28
ENDBRANCH  26  27
ENDBRANCH  25  26
ENDBRANCH   1  25
TORSDOF 15
ENDMDL
