MODEL 1
REMARK VINA RESULT:     -11.0      0.000      0.000
REMARK SMILES C[N@H+](CCC(=O)Nc1sccc1C#N)CC(=O)NCCCCCCNC(=O)c1ccc(-c2c3nc(c(-c4c(F)c(F)c(F)c(F)c4F)c4ccc([nH]4)c(-c4c(F)c(F)c(F)c(F)c4F)c4nc(c(-c5c(F)c(F)c(F)c(F)c5F)c5ccc2[nH]5)C=C4)C=C3)cc1
REMARK SMILES IDX 19 1 18 2 16 3 17 4 15 6 2 7 1 8 3 10 4 11 5 12 6 13 7 14
REMARK SMILES IDX 8 16 9 17 12 18 10 19 11 20 13 21 14 22 20 23 21 24 22 25
REMARK SMILES IDX 23 26 24 27 25 28 26 29 27 31 28 32 29 33 90 34 30 35 89 36
REMARK SMILES IDX 31 37 32 38 33 39 83 40 34 41 88 42 82 43 84 44 35 45 87 46
REMARK SMILES IDX 81 47 80 48 36 50 68 51 48 52 67 53 49 54 52 55 66 56 85 57
REMARK SMILES IDX 50 58 51 59 65 61 86 62 53 63 37 64 38 65 46 66 39 67 40 68
REMARK SMILES IDX 44 69 47 70 41 71 42 72 45 73 43 74 69 75 70 76 78 77 71 78
REMARK SMILES IDX 72 79 76 80 79 81 73 82 74 83 77 84 75 85 54 86 55 87 63 88
REMARK SMILES IDX 56 89 57 90 61 91 64 92 58 93 59 94 62 95 60 96
REMARK H PARENT 18 5 2 9 7 15 25 30 84 49 52 60
REMARK Flexibility Score: inf
ROOT
ATOM      1  C   UNL A   1      31.490  28.218  26.948  1.00  0.00     0.116 C 
ENDROOT
BRANCH   1   2
ATOM      2  N   UNL A   1      31.417  26.781  27.093  1.00  0.00    -0.351 N 
ATOM      3  C   UNL A   1      32.019  25.710  26.533  1.00  0.00     0.275 C 
ATOM      4  O   UNL A   1      31.592  24.617  26.936  1.00  0.00    -0.269 OA
ATOM      5  H   UNL A   1      30.760  26.515  27.777  1.00  0.00     0.163 HD
BRANCH   3   6
ATOM      6  C   UNL A   1      33.257  25.705  25.651  1.00  0.00     0.363 C 
BRANCH   6   7
ATOM      7  N   UNL A   1      33.509  24.577  24.742  1.00  0.00    -0.329 N 
ATOM      8  C   UNL A   1      34.503  23.688  25.398  1.00  0.00     0.333 C 
ATOM      9  H   UNL A   1      32.623  24.106  24.557  1.00  0.00     0.348 HD
BRANCH   7  10
ATOM     10  C   UNL A   1      34.073  25.021  23.439  1.00  0.00     0.272 C 
BRANCH  10  11
ATOM     11  C   UNL A   1      33.328  24.704  22.129  1.00  0.00     0.161 C 
BRANCH  11  12
ATOM     12  C   UNL A   1      32.723  25.643  21.054  1.00  0.00     0.230 C 
ATOM     13  O   UNL A   1      33.245  25.610  19.925  1.00  0.00    -0.274 OA
ATOM     14  N   UNL A   1      31.635  26.452  21.150  1.00  0.00    -0.316 N 
ATOM     15  H   UNL A   1      31.230  26.706  20.291  1.00  0.00     0.170 HD
BRANCH  14  16
ATOM     16  C   UNL A   1      31.014  26.969  22.254  1.00  0.00     0.113 A 
ATOM     17  S   UNL A   1      31.128  28.671  22.380  1.00  0.00    -0.125 S 
ATOM     18  C   UNL A   1      30.291  26.424  23.284  1.00  0.00     0.087 A 
ATOM     19  C   UNL A   1      29.829  28.700  23.503  1.00  0.00     0.068 A 
ATOM     20  C   UNL A   1      29.536  27.431  23.963  1.00  0.00     0.033 A 
BRANCH  18  21
ATOM     21  C   UNL A   1      30.290  25.032  23.581  1.00  0.00     0.102 C 
ATOM     22  N   UNL A   1      30.338  23.887  23.799  1.00  0.00    -0.192 NA
ENDBRANCH  18  21
ENDBRANCH  14  16
ENDBRANCH  11  12
ENDBRANCH  10  11
ENDBRANCH   7  10
ENDBRANCH   6   7
ENDBRANCH   3   6
ENDBRANCH   1   2
BRANCH   1  23
ATOM     23  C   UNL A   1      32.851  28.781  27.332  1.00  0.00     0.021 C 
BRANCH  23  24
ATOM     24  C   UNL A   1      33.099  30.102  26.601  1.00  0.00     0.002 C 
BRANCH  24  25
ATOM     25  C   UNL A   1      31.807  30.783  26.121  1.00  0.00     0.002 C 
BRANCH  25  26
ATOM     26  C   UNL A   1      31.500  32.110  26.818  1.00  0.00     0.021 C 
BRANCH  26  27
ATOM     27  C   UNL A   1      32.734  32.748  27.435  1.00  0.00     0.116 C 
BRANCH  27  28
ATOM     28  N   UNL A   1      32.541  34.188  27.579  1.00  0.00    -0.352 N 
ATOM     29  C   UNL A   1      33.000  34.989  28.589  1.00  0.00     0.251 C 
ATOM     30  H   UNL A   1      32.024  34.632  26.868  1.00  0.00     0.163 HD
ATOM     31  O   UNL A   1      32.502  36.079  28.832  1.00  0.00    -0.269 OA
BRANCH  29  32
ATOM     32  C   UNL A   1      34.142  34.484  29.358  1.00  0.00     0.039 A 
ATOM     33  C   UNL A   1      33.933  33.783  30.543  1.00  0.00     0.014 A 
ATOM     34  C   UNL A   1      35.422  34.647  28.816  1.00  0.00     0.014 A 
ATOM     35  C   UNL A   1      35.028  33.209  31.182  1.00  0.00     0.010 A 
ATOM     36  C   UNL A   1      36.489  33.993  29.399  1.00  0.00     0.010 A 
ATOM     37  C   UNL A   1      36.305  33.293  30.602  1.00  0.00    -0.014 A 
BRANCH  37  38
ATOM     38  C   UNL A   1      37.496  32.710  31.254  1.00  0.00     0.031 A 
ATOM     39  C   UNL A   1      38.199  31.566  30.588  1.00  0.00     0.074 A 
ATOM     40  C   UNL A   1      37.872  33.140  32.471  1.00  0.00     0.049 A 
ATOM     41  N   UNL A   1      39.169  30.813  31.037  1.00  0.00    -0.248 NA
ATOM     42  C   UNL A   1      37.715  31.190  29.249  1.00  0.00     0.031 C 
ATOM     43  C   UNL A   1      37.228  34.216  33.223  1.00  0.00     0.029 A 
ATOM     44  N   UNL A   1      38.874  32.703  33.298  1.00  0.00    -0.354 N 
ATOM     45  C   UNL A   1      39.388  29.863  30.050  1.00  0.00     0.074 A 
ATOM     46  C   UNL A   1      38.407  30.088  29.013  1.00  0.00     0.031 C 
ATOM     47  C   UNL A   1      37.857  34.361  34.400  1.00  0.00     0.029 A 
ATOM     48  C   UNL A   1      38.909  33.354  34.504  1.00  0.00     0.049 A 
ATOM     49  H   UNL A   1      39.507  31.990  33.049  1.00  0.00     0.167 HD
ATOM     50  C   UNL A   1      40.341  28.903  30.006  1.00  0.00     0.037 A 
ATOM     51  C   UNL A   1      39.683  33.140  35.584  1.00  0.00     0.037 A 
ATOM     52  C   UNL A   1      41.312  28.702  31.047  1.00  0.00     0.049 A 
ATOM     53  C   UNL A   1      40.723  32.053  35.531  1.00  0.00     0.074 A 
ATOM     54  C   UNL A   1      42.362  27.805  31.084  1.00  0.00     0.029 A 
ATOM     55  N   UNL A   1      41.335  29.401  32.248  1.00  0.00    -0.354 N 
ATOM     56  N   UNL A   1      40.977  31.203  34.565  1.00  0.00    -0.248 NA
ATOM     57  C   UNL A   1      41.583  31.895  36.709  1.00  0.00     0.031 C 
ATOM     58  C   UNL A   1      42.969  27.902  32.340  1.00  0.00     0.029 A 
ATOM     59  C   UNL A   1      42.358  28.924  33.050  1.00  0.00     0.049 A 
ATOM     60  H   UNL A   1      40.717  30.126  32.492  1.00  0.00     0.167 HD
ATOM     61  C   UNL A   1      42.048  30.433  35.003  1.00  0.00     0.074 A 
ATOM     62  C   UNL A   1      42.391  30.916  36.324  1.00  0.00     0.031 C 
ATOM     63  C   UNL A   1      42.691  29.426  34.362  1.00  0.00     0.037 A 
BRANCH  50  64
ATOM     64  C   UNL A   1      40.345  27.988  28.813  1.00  0.00     0.064 A 
ATOM     65  C   UNL A   1      39.657  26.763  28.809  1.00  0.00     0.173 A 
ATOM     66  C   UNL A   1      41.066  28.334  27.660  1.00  0.00     0.173 A 
ATOM     67  F   UNL A   1      38.956  26.377  29.886  1.00  0.00    -0.203 F 
ATOM     68  C   UNL A   1      39.746  25.894  27.725  1.00  0.00     0.198 A 
ATOM     69  C   UNL A   1      41.115  27.482  26.560  1.00  0.00     0.198 A 
ATOM     70  F   UNL A   1      41.736  29.495  27.602  1.00  0.00    -0.203 F 
ATOM     71  F   UNL A   1      39.156  24.691  27.783  1.00  0.00    -0.200 F 
ATOM     72  C   UNL A   1      40.470  26.255  26.600  1.00  0.00     0.200 A 
ATOM     73  F   UNL A   1      41.799  27.843  25.467  1.00  0.00    -0.200 F 
ATOM     74  F   UNL A   1      40.560  25.416  25.560  1.00  0.00    -0.200 F 
ENDBRANCH  50  64
BRANCH  51  75
ATOM     75  C   UNL A   1      39.493  33.981  36.792  1.00  0.00     0.064 A 
ATOM     76  C   UNL A   1      38.737  33.528  37.882  1.00  0.00     0.173 A 
ATOM     77  C   UNL A   1      40.111  35.236  36.905  1.00  0.00     0.173 A 
ATOM     78  F   UNL A   1      38.115  32.341  37.817  1.00  0.00    -0.203 F 
ATOM     79  C   UNL A   1      38.600  34.301  39.033  1.00  0.00     0.198 A 
ATOM     80  C   UNL A   1      39.999  35.994  38.068  1.00  0.00     0.198 A 
ATOM     81  F   UNL A   1      40.856  35.711  35.895  1.00  0.00    -0.203 F 
ATOM     82  F   UNL A   1      37.846  33.858  40.048  1.00  0.00    -0.200 F 
ATOM     83  C   UNL A   1      39.239  35.528  39.130  1.00  0.00     0.200 A 
ATOM     84  F   UNL A   1      40.639  37.167  38.165  1.00  0.00    -0.200 F 
ATOM     85  F   UNL A   1      39.123  36.261  40.244  1.00  0.00    -0.200 F 
ENDBRANCH  51  75
BRANCH  63  86
ATOM     86  C   UNL A   1      43.873  28.801  35.046  1.00  0.00     0.064 A 
ATOM     87  C   UNL A   1      43.737  27.722  35.929  1.00  0.00     0.173 A 
ATOM     88  C   UNL A   1      45.172  29.227  34.723  1.00  0.00     0.173 A 
ATOM     89  F   UNL A   1      42.518  27.285  36.280  1.00  0.00    -0.203 F 
ATOM     90  C   UNL A   1      44.858  27.095  36.468  1.00  0.00     0.198 A 
ATOM     91  C   UNL A   1      46.289  28.576  35.235  1.00  0.00     0.198 A 
ATOM     92  F   UNL A   1      45.356  30.252  33.876  1.00  0.00    -0.203 F 
ATOM     93  F   UNL A   1      44.706  26.084  37.334  1.00  0.00    -0.200 F 
ATOM     94  C   UNL A   1      46.131  27.512  36.109  1.00  0.00     0.200 A 
ATOM     95  F   UNL A   1      47.516  28.968  34.868  1.00  0.00    -0.200 F 
ATOM     96  F   UNL A   1      47.209  26.888  36.606  1.00  0.00    -0.200 F 
ENDBRANCH  63  86
ENDBRANCH  37  38
ENDBRANCH  29  32
ENDBRANCH  27  28
ENDBRANCH  26  27
ENDBRANCH  25  26
ENDBRANCH  24  25
ENDBRANCH  23  24
ENDBRANCH   1  23
TORSDOF 19
ENDMDL
MODEL 2
REMARK VINA RESULT:     -10.7      1.817      7.686
REMARK SMILES C[N@H+](CCC(=O)Nc1sccc1C#N)CC(=O)NCCCCCCNC(=O)c1ccc(-c2c3nc(c(-c4c(F)c(F)c(F)c(F)c4F)c4ccc([nH]4)c(-c4c(F)c(F)c(F)c(F)c4F)c4nc(c(-c5c(F)c(F)c(F)c(F)c5F)c5ccc2[nH]5)C=C4)C=C3)cc1
REMARK SMILES IDX 19 1 18 2 16 3 17 4 15 6 2 7 1 8 3 10 4 11 5 12 6 13 7 14
REMARK SMILES IDX 8 16 9 17 12 18 10 19 11 20 13 21 14 22 20 23 21 24 22 25
REMARK SMILES IDX 23 26 24 27 25 28 26 29 27 31 28 32 29 33 90 34 30 35 89 36
REMARK SMILES IDX 31 37 32 38 33 39 83 40 34 41 88 42 82 43 84 44 35 45 87 46
REMARK SMILES IDX 81 47 80 48 36 50 68 51 48 52 67 53 49 54 52 55 66 56 85 57
REMARK SMILES IDX 50 58 51 59 65 61 86 62 53 63 37 64 38 65 46 66 39 67 40 68
REMARK SMILES IDX 44 69 47 70 41 71 42 72 45 73 43 74 69 75 70 76 78 77 71 78
REMARK SMILES IDX 72 79 76 80 79 81 73 82 74 83 77 84 75 85 54 86 55 87 63 88
REMARK SMILES IDX 56 89 57 90 61 91 64 92 58 93 59 94 62 95 60 96
REMARK H PARENT 18 5 2 9 7 15 25 30 84 49 52 60
REMARK Flexibility Score: inf
ROOT
ATOM      1  C   UNL A   1      33.952  30.986  27.999  1.00  0.00     0.116 C 
ENDROOT
BRANCH   1   2
ATOM      2  N   UNL A   1      34.167  29.676  27.424  1.00  0.00    -0.351 N 
ATOM      3  C   UNL A   1      33.716  28.994  26.349  1.00  0.00     0.275 C 
ATOM      4  O   UNL A   1      34.141  27.831  26.270  1.00  0.00    -0.269 OA
ATOM      5  H   UNL A   1      34.807  29.145  27.952  1.00  0.00     0.163 HD
BRANCH   3   6
ATOM      6  C   UNL A   1      32.942  29.548  25.164  1.00  0.00     0.363 C 
BRANCH   6   7
ATOM      7  N   UNL A   1      32.260  28.633  24.238  1.00  0.00    -0.329 N 
ATOM      8  C   UNL A   1      32.843  28.848  22.888  1.00  0.00     0.333 C 
ATOM      9  H   UNL A   1      32.388  27.677  24.573  1.00  0.00     0.348 HD
BRANCH   7  10
ATOM     10  C   UNL A   1      30.799  28.899  24.159  1.00  0.00     0.272 C 
BRANCH  10  11
ATOM     11  C   UNL A   1      29.880  27.933  23.388  1.00  0.00     0.161 C 
BRANCH  11  12
ATOM     12  C   UNL A   1      29.304  26.550  23.784  1.00  0.00     0.230 C 
ATOM     13  O   UNL A   1      28.087  26.501  24.034  1.00  0.00    -0.274 OA
ATOM     14  N   UNL A   1      29.936  25.347  23.821  1.00  0.00    -0.316 N 
ATOM     15  H   UNL A   1      29.342  24.565  23.777  1.00  0.00     0.170 HD
BRANCH  14  16
ATOM     16  C   UNL A   1      31.269  25.052  23.908  1.00  0.00     0.113 A 
ATOM     17  S   UNL A   1      32.090  25.103  22.408  1.00  0.00    -0.125 S 
ATOM     18  C   UNL A   1      32.111  24.743  24.945  1.00  0.00     0.087 A 
ATOM     19  C   UNL A   1      33.605  25.197  23.212  1.00  0.00     0.068 A 
ATOM     20  C   UNL A   1      33.477  24.906  24.556  1.00  0.00     0.033 A 
BRANCH  18  21
ATOM     21  C   UNL A   1      31.647  24.352  26.233  1.00  0.00     0.102 C 
ATOM     22  N   UNL A   1      31.226  24.004  27.264  1.00  0.00    -0.192 NA
ENDBRANCH  18  21
ENDBRANCH  14  16
ENDBRANCH  11  12
ENDBRANCH  10  11
ENDBRANCH   7  10
ENDBRANCH   6   7
ENDBRANCH   3   6
ENDBRANCH   1   2
BRANCH   1  23
ATOM     23  C   UNL A   1      35.232  31.803  28.098  1.00  0.00     0.021 C 
BRANCH  23  24
ATOM     24  C   UNL A   1      35.042  32.962  29.078  1.00  0.00     0.002 C 
BRANCH  24  25
ATOM     25  C   UNL A   1      35.302  34.340  28.448  1.00  0.00     0.002 C 
BRANCH  25  26
ATOM     26  C   UNL A   1      34.245  35.394  28.783  1.00  0.00     0.021 C 
BRANCH  26  27
ATOM     27  C   UNL A   1      33.119  34.844  29.644  1.00  0.00     0.116 C 
BRANCH  27  28
ATOM     28  N   UNL A   1      32.659  35.860  30.585  1.00  0.00    -0.352 N 
ATOM     29  C   UNL A   1      32.850  35.882  31.940  1.00  0.00     0.251 C 
ATOM     30  H   UNL A   1      32.156  36.614  30.202  1.00  0.00     0.163 HD
ATOM     31  O   UNL A   1      32.141  36.543  32.687  1.00  0.00    -0.269 OA
BRANCH  29  32
ATOM     32  C   UNL A   1      33.969  35.086  32.457  1.00  0.00     0.039 A 
ATOM     33  C   UNL A   1      33.746  33.802  32.949  1.00  0.00     0.014 A 
ATOM     34  C   UNL A   1      35.258  35.619  32.350  1.00  0.00     0.014 A 
ATOM     35  C   UNL A   1      34.842  33.027  33.314  1.00  0.00     0.010 A 
ATOM     36  C   UNL A   1      36.345  34.812  32.620  1.00  0.00     0.010 A 
ATOM     37  C   UNL A   1      36.145  33.520  33.131  1.00  0.00    -0.014 A 
BRANCH  37  38
ATOM     38  C   UNL A   1      37.336  32.736  33.519  1.00  0.00     0.031 A 
ATOM     39  C   UNL A   1      38.030  33.061  34.807  1.00  0.00     0.074 A 
ATOM     40  C   UNL A   1      37.838  31.817  32.675  1.00  0.00     0.049 A 
ATOM     41  N   UNL A   1      39.162  32.607  35.278  1.00  0.00    -0.248 NA
ATOM     42  C   UNL A   1      37.384  34.072  35.662  1.00  0.00     0.031 C 
ATOM     43  C   UNL A   1      37.263  31.457  31.379  1.00  0.00     0.029 A 
ATOM     44  N   UNL A   1      38.961  31.038  32.775  1.00  0.00    -0.354 N 
ATOM     45  C   UNL A   1      39.371  33.293  36.465  1.00  0.00     0.074 A 
ATOM     46  C   UNL A   1      38.292  34.244  36.607  1.00  0.00     0.031 C 
ATOM     47  C   UNL A   1      38.035  30.521  30.805  1.00  0.00     0.029 A 
ATOM     48  C   UNL A   1      39.183  30.257  31.669  1.00  0.00     0.049 A 
ATOM     49  H   UNL A   1      39.551  31.039  33.563  1.00  0.00     0.167 HD
ATOM     50  C   UNL A   1      40.366  33.125  37.367  1.00  0.00     0.037 A 
ATOM     51  C   UNL A   1      40.214  29.444  31.374  1.00  0.00     0.037 A 
ATOM     52  C   UNL A   1      41.427  32.168  37.208  1.00  0.00     0.049 A 
ATOM     53  C   UNL A   1      41.326  29.285  32.375  1.00  0.00     0.074 A 
ATOM     54  C   UNL A   1      42.452  31.865  38.083  1.00  0.00     0.029 A 
ATOM     55  N   UNL A   1      41.606  31.371  36.085  1.00  0.00    -0.354 N 
ATOM     56  N   UNL A   1      41.484  29.882  33.533  1.00  0.00    -0.248 NA
ATOM     57  C   UNL A   1      42.399  28.343  32.036  1.00  0.00     0.031 C 
ATOM     58  C   UNL A   1      43.299  30.947  37.456  1.00  0.00     0.029 A 
ATOM     59  C   UNL A   1      42.751  30.606  36.228  1.00  0.00     0.049 A 
ATOM     60  H   UNL A   1      41.008  31.352  35.303  1.00  0.00     0.167 HD
ATOM     61  C   UNL A   1      42.653  29.363  34.075  1.00  0.00     0.074 A 
ATOM     62  C   UNL A   1      43.165  28.406  33.117  1.00  0.00     0.031 C 
ATOM     63  C   UNL A   1      43.240  29.649  35.265  1.00  0.00     0.037 A 
BRANCH  50  64
ATOM     64  C   UNL A   1      40.362  34.022  38.574  1.00  0.00     0.064 A 
ATOM     65  C   UNL A   1      39.679  33.683  39.754  1.00  0.00     0.173 A 
ATOM     66  C   UNL A   1      41.036  35.252  38.543  1.00  0.00     0.173 A 
ATOM     67  F   UNL A   1      39.010  32.523  39.840  1.00  0.00    -0.203 F 
ATOM     68  C   UNL A   1      39.617  34.568  40.827  1.00  0.00     0.198 A 
ATOM     69  C   UNL A   1      41.012  36.114  39.636  1.00  0.00     0.198 A 
ATOM     70  F   UNL A   1      41.714  35.626  37.447  1.00  0.00    -0.203 F 
ATOM     71  F   UNL A   1      38.882  34.260  41.905  1.00  0.00    -0.200 F 
ATOM     72  C   UNL A   1      40.287  35.779  40.770  1.00  0.00     0.200 A 
ATOM     73  F   UNL A   1      41.676  37.275  39.585  1.00  0.00    -0.200 F 
ATOM     74  F   UNL A   1      40.222  36.633  41.801  1.00  0.00    -0.200 F 
ENDBRANCH  50  64
BRANCH  51  75
ATOM     75  C   UNL A   1      40.223  28.726  30.074  1.00  0.00     0.064 A 
ATOM     76  C   UNL A   1      39.589  27.485  29.926  1.00  0.00     0.173 A 
ATOM     77  C   UNL A   1      40.821  29.292  28.939  1.00  0.00     0.173 A 
ATOM     78  F   UNL A   1      39.014  26.896  30.985  1.00  0.00    -0.203 F 
ATOM     79  C   UNL A   1      39.559  26.836  28.693  1.00  0.00     0.198 A 
ATOM     80  C   UNL A   1      40.764  28.657  27.701  1.00  0.00     0.198 A 
ATOM     81  F   UNL A   1      41.432  30.484  29.026  1.00  0.00    -0.203 F 
ATOM     82  F   UNL A   1      38.972  25.636  28.584  1.00  0.00    -0.200 F 
ATOM     83  C   UNL A   1      40.138  27.427  27.580  1.00  0.00     0.200 A 
ATOM     84  F   UNL A   1      41.304  29.244  26.624  1.00  0.00    -0.200 F 
ATOM     85  F   UNL A   1      40.091  26.812  26.391  1.00  0.00    -0.200 F 
ENDBRANCH  51  75
BRANCH  63  86
ATOM     86  C   UNL A   1      44.478  28.885  35.637  1.00  0.00     0.064 A 
ATOM     87  C   UNL A   1      44.421  27.666  36.326  1.00  0.00     0.173 A 
ATOM     88  C   UNL A   1      45.735  29.335  35.200  1.00  0.00     0.173 A 
ATOM     89  F   UNL A   1      43.247  27.198  36.776  1.00  0.00    -0.203 F 
ATOM     90  C   UNL A   1      45.577  26.927  36.567  1.00  0.00     0.198 A 
ATOM     91  C   UNL A   1      46.882  28.578  35.412  1.00  0.00     0.198 A 
ATOM     92  F   UNL A   1      45.842  30.494  34.531  1.00  0.00    -0.203 F 
ATOM     93  F   UNL A   1      45.504  25.778  37.252  1.00  0.00    -0.200 F 
ATOM     94  C   UNL A   1      46.802  27.376  36.097  1.00  0.00     0.200 A 
ATOM     95  F   UNL A   1      48.059  29.004  34.936  1.00  0.00    -0.200 F 
ATOM     96  F   UNL A   1      47.909  26.649  36.303  1.00  0.00    -0.200 F 
ENDBRANCH  63  86
ENDBRANCH  37  38
ENDBRANCH  29  32
ENDBRANCH  27  28
ENDBRANCH  26  27
ENDBRANCH  25  26
ENDBRANCH  24  25
ENDBRANCH  23  24
ENDBRANCH   1  23
TORSDOF 19
ENDMDL
MODEL 3
REMARK VINA RESULT:     -10.7      2.944      8.586
REMARK SMILES C[N@H+](CCC(=O)Nc1sccc1C#N)CC(=O)NCCCCCCNC(=O)c1ccc(-c2c3nc(c(-c4c(F)c(F)c(F)c(F)c4F)c4ccc([nH]4)c(-c4c(F)c(F)c(F)c(F)c4F)c4nc(c(-c5c(F)c(F)c(F)c(F)c5F)c5ccc2[nH]5)C=C4)C=C3)cc1
REMARK SMILES IDX 19 1 18 2 16 3 17 4 15 6 2 7 1 8 3 10 4 11 5 12 6 13 7 14
REMARK SMILES IDX 8 16 9 17 12 18 10 19 11 20 13 21 14 22 20 23 21 24 22 25
REMARK SMILES IDX 23 26 24 27 25 28 26 29 27 31 28 32 29 33 90 34 30 35 89 36
REMARK SMILES IDX 31 37 32 38 33 39 83 40 34 41 88 42 82 43 84 44 35 45 87 46
REMARK SMILES IDX 81 47 80 48 36 50 68 51 48 52 67 53 49 54 52 55 66 56 85 57
REMARK SMILES IDX 50 58 51 59 65 61 86 62 53 63 37 64 38 65 46 66 39 67 40 68
REMARK SMILES IDX 44 69 47 70 41 71 42 72 45 73 43 74 69 75 70 76 78 77 71 78
REMARK SMILES IDX 72 79 76 80 79 81 73 82 74 83 77 84 75 85 54 86 55 87 63 88
REMARK SMILES IDX 56 89 57 90 61 91 64 92 58 93 59 94 62 95 60 96
REMARK H PARENT 18 5 2 9 7 15 25 30 84 49 52 60
REMARK Flexibility Score: inf
ROOT
ATOM      1  C   UNL A   1      30.899  26.921  22.865  1.00  0.00     0.116 C 
ENDROOT
BRANCH   1   2
ATOM      2  N   UNL A   1      31.676  26.528  21.711  1.00  0.00    -0.351 N 
ATOM      3  C   UNL A   1      32.613  25.596  21.434  1.00  0.00     0.275 C 
ATOM      4  O   UNL A   1      33.066  25.656  20.280  1.00  0.00    -0.269 OA
ATOM      5  H   UNL A   1      31.467  27.082  20.923  1.00  0.00     0.163 HD
BRANCH   3   6
ATOM      6  C   UNL A   1      33.004  24.400  22.287  1.00  0.00     0.363 C 
BRANCH   6   7
ATOM      7  N   UNL A   1      32.164  23.194  22.292  1.00  0.00    -0.329 N 
ATOM      8  C   UNL A   1      31.103  23.393  23.313  1.00  0.00     0.333 C 
ATOM      9  H   UNL A   1      31.784  23.058  21.354  1.00  0.00     0.348 HD
BRANCH   7  10
ATOM     10  C   UNL A   1      32.934  21.974  22.655  1.00  0.00     0.272 C 
BRANCH  10  11
ATOM     11  C   UNL A   1      32.282  20.881  23.522  1.00  0.00     0.161 C 
BRANCH  11  12
ATOM     12  C   UNL A   1      32.623  20.381  24.949  1.00  0.00     0.230 C 
ATOM     13  O   UNL A   1      32.177  19.267  25.273  1.00  0.00    -0.274 OA
ATOM     14  N   UNL A   1      33.421  20.963  25.883  1.00  0.00    -0.316 N 
ATOM     15  H   UNL A   1      33.765  20.352  26.573  1.00  0.00     0.170 HD
BRANCH  14  16
ATOM     16  C   UNL A   1      33.822  22.265  26.015  1.00  0.00     0.113 A 
ATOM     17  S   UNL A   1      35.490  22.509  25.724  1.00  0.00    -0.125 S 
ATOM     18  C   UNL A   1      33.175  23.436  26.311  1.00  0.00     0.087 A 
ATOM     19  C   UNL A   1      35.233  24.193  25.515  1.00  0.00     0.068 A 
ATOM     20  C   UNL A   1      33.973  24.564  25.942  1.00  0.00     0.033 A 
BRANCH  18  21
ATOM     21  C   UNL A   1      31.868  23.482  26.873  1.00  0.00     0.102 C 
ATOM     22  N   UNL A   1      30.786  23.470  27.310  1.00  0.00    -0.192 NA
ENDBRANCH  18  21
ENDBRANCH  14  16
ENDBRANCH  11  12
ENDBRANCH  10  11
ENDBRANCH   7  10
ENDBRANCH   6   7
ENDBRANCH   3   6
ENDBRANCH   1   2
BRANCH   1  23
ATOM     23  C   UNL A   1      30.584  28.410  22.884  1.00  0.00     0.021 C 
BRANCH  23  24
ATOM     24  C   UNL A   1      31.293  29.083  24.061  1.00  0.00     0.002 C 
BRANCH  24  25
ATOM     25  C   UNL A   1      31.967  28.085  25.016  1.00  0.00     0.002 C 
BRANCH  25  26
ATOM     26  C   UNL A   1      33.483  28.260  25.139  1.00  0.00     0.021 C 
BRANCH  26  27
ATOM     27  C   UNL A   1      33.917  28.640  26.546  1.00  0.00     0.116 C 
BRANCH  27  28
ATOM     28  N   UNL A   1      33.879  30.089  26.713  1.00  0.00    -0.352 N 
ATOM     29  C   UNL A   1      34.606  30.841  27.595  1.00  0.00     0.251 C 
ATOM     30  H   UNL A   1      33.261  30.580  26.124  1.00  0.00     0.163 HD
ATOM     31  O   UNL A   1      34.263  31.967  27.928  1.00  0.00    -0.269 OA
BRANCH  29  32
ATOM     32  C   UNL A   1      35.840  30.237  28.110  1.00  0.00     0.039 A 
ATOM     33  C   UNL A   1      37.008  30.281  27.353  1.00  0.00     0.014 A 
ATOM     34  C   UNL A   1      35.822  29.710  29.406  1.00  0.00     0.014 A 
ATOM     35  C   UNL A   1      38.190  29.813  27.920  1.00  0.00     0.010 A 
ATOM     36  C   UNL A   1      37.013  29.339  29.998  1.00  0.00     0.010 A 
ATOM     37  C   UNL A   1      38.201  29.361  29.250  1.00  0.00    -0.014 A 
BRANCH  37  38
ATOM     38  C   UNL A   1      39.430  28.842  29.886  1.00  0.00     0.031 A 
ATOM     39  C   UNL A   1      39.988  29.561  31.078  1.00  0.00     0.074 A 
ATOM     40  C   UNL A   1      40.082  27.804  29.336  1.00  0.00     0.049 A 
ATOM     41  N   UNL A   1      41.119  29.373  31.706  1.00  0.00    -0.248 NA
ATOM     42  C   UNL A   1      39.181  30.673  31.608  1.00  0.00     0.031 C 
ATOM     43  C   UNL A   1      39.648  27.064  28.152  1.00  0.00     0.029 A 
ATOM     44  N   UNL A   1      41.266  27.210  29.689  1.00  0.00    -0.354 N 
ATOM     45  C   UNL A   1      41.168  30.358  32.682  1.00  0.00     0.074 A 
ATOM     46  C   UNL A   1      39.993  31.182  32.520  1.00  0.00     0.031 C 
ATOM     47  C   UNL A   1      40.549  26.108  27.880  1.00  0.00     0.029 A 
ATOM     48  C   UNL A   1      41.648  26.206  28.837  1.00  0.00     0.049 A 
ATOM     49  H   UNL A   1      41.791  27.479  30.478  1.00  0.00     0.167 HD
ATOM     50  C   UNL A   1      42.103  30.539  33.644  1.00  0.00     0.037 A 
ATOM     51  C   UNL A   1      42.774  25.468  28.814  1.00  0.00     0.037 A 
ATOM     52  C   UNL A   1      43.262  29.701  33.791  1.00  0.00     0.049 A 
ATOM     53  C   UNL A   1      43.817  25.697  29.874  1.00  0.00     0.074 A 
ATOM     54  C   UNL A   1      44.242  29.749  34.764  1.00  0.00     0.029 A 
ATOM     55  N   UNL A   1      43.604  28.672  32.923  1.00  0.00    -0.354 N 
ATOM     56  N   UNL A   1      43.826  26.581  30.844  1.00  0.00    -0.248 NA
ATOM     57  C   UNL A   1      45.000  24.830  29.844  1.00  0.00     0.031 C 
ATOM     58  C   UNL A   1      45.221  28.806  34.438  1.00  0.00     0.029 A 
ATOM     59  C   UNL A   1      44.804  28.105  33.316  1.00  0.00     0.049 A 
ATOM     60  H   UNL A   1      43.073  28.387  32.146  1.00  0.00     0.167 HD
ATOM     61  C   UNL A   1      44.995  26.355  31.559  1.00  0.00     0.074 A 
ATOM     62  C   UNL A   1      45.671  25.251  30.908  1.00  0.00     0.031 C 
ATOM     63  C   UNL A   1      45.458  26.998  32.660  1.00  0.00     0.037 A 
BRANCH  50  64
ATOM     64  C   UNL A   1      41.918  31.705  34.575  1.00  0.00     0.064 A 
ATOM     65  C   UNL A   1      41.141  31.613  35.742  1.00  0.00     0.173 A 
ATOM     66  C   UNL A   1      42.511  32.943  34.283  1.00  0.00     0.173 A 
ATOM     67  F   UNL A   1      40.544  30.457  36.068  1.00  0.00    -0.203 F 
ATOM     68  C   UNL A   1      40.914  32.730  36.542  1.00  0.00     0.198 A 
ATOM     69  C   UNL A   1      42.319  34.046  35.111  1.00  0.00     0.198 A 
ATOM     70  F   UNL A   1      43.270  33.089  33.186  1.00  0.00    -0.203 F 
ATOM     71  F   UNL A   1      40.094  32.638  37.599  1.00  0.00    -0.200 F 
ATOM     72  C   UNL A   1      41.506  33.943  36.230  1.00  0.00     0.200 A 
ATOM     73  F   UNL A   1      42.909  35.211  34.817  1.00  0.00    -0.200 F 
ATOM     74  F   UNL A   1      41.282  35.018  36.997  1.00  0.00    -0.200 F 
ENDBRANCH  50  64
BRANCH  51  75
ATOM     75  C   UNL A   1      42.954  24.450  27.748  1.00  0.00     0.064 A 
ATOM     76  C   UNL A   1      43.551  24.778  26.524  1.00  0.00     0.173 A 
ATOM     77  C   UNL A   1      42.580  23.114  27.953  1.00  0.00     0.173 A 
ATOM     78  F   UNL A   1      43.914  26.046  26.274  1.00  0.00    -0.203 F 
ATOM     79  C   UNL A   1      43.762  23.811  25.543  1.00  0.00     0.198 A 
ATOM     80  C   UNL A   1      42.819  22.141  26.986  1.00  0.00     0.198 A 
ATOM     81  F   UNL A   1      42.015  22.745  29.113  1.00  0.00    -0.203 F 
ATOM     82  F   UNL A   1      44.307  24.157  24.370  1.00  0.00    -0.200 F 
ATOM     83  C   UNL A   1      43.405  22.491  25.779  1.00  0.00     0.200 A 
ATOM     84  F   UNL A   1      42.494  20.864  27.228  1.00  0.00    -0.200 F 
ATOM     85  F   UNL A   1      43.625  21.558  24.844  1.00  0.00    -0.200 F 
ENDBRANCH  51  75
BRANCH  63  86
ATOM     86  C   UNL A   1      46.733  26.501  33.278  1.00  0.00     0.064 A 
ATOM     87  C   UNL A   1      46.752  25.442  34.195  1.00  0.00     0.173 A 
ATOM     88  C   UNL A   1      47.965  27.029  32.858  1.00  0.00     0.173 A 
ATOM     89  F   UNL A   1      45.602  24.911  34.638  1.00  0.00    -0.203 F 
ATOM     90  C   UNL A   1      47.956  24.933  34.674  1.00  0.00     0.198 A 
ATOM     91  C   UNL A   1      49.166  26.495  33.311  1.00  0.00     0.198 A 
ATOM     92  F   UNL A   1      48.002  28.040  31.976  1.00  0.00    -0.203 F 
ATOM     93  F   UNL A   1      47.951  23.939  35.572  1.00  0.00    -0.200 F 
ATOM     94  C   UNL A   1      49.161  25.449  34.220  1.00  0.00     0.200 A 
ATOM     95  F   UNL A   1      50.328  26.981  32.852  1.00  0.00    -0.200 F 
ATOM     96  F   UNL A   1      50.320  24.937  34.658  1.00  0.00    -0.200 F 
ENDBRANCH  63  86
ENDBRANCH  37  38
ENDBRANCH  29  32
ENDBRANCH  27  28
ENDBRANCH  26  27
ENDBRANCH  25  26
ENDBRANCH  24  25
ENDBRANCH  23  24
ENDBRANCH   1  23
TORSDOF 19
ENDMDL
