MODEL 1
REMARK VINA RESULT:      -9.9      0.000      0.000
REMARK SMILES Cc1cccc(N2C(=O)/C(=C/c3cccn3-c3cccc(C(=O)NCCCCCCNC(=O)c4ccc(-c5c6nc(c(-c7c(F)c(F)c(F)c(F)c7F)c7ccc([nH]7)c(-c7c(F)c(F)c(F)c(F)c7F)c7nc(c(-c8c(F)c(F)c(F)c(F)c8F)c8ccc5[nH]8)C=C7)C=C6)cc4)c3)C(O)=NC2=S)c1C
REMARK SMILES IDX 27 1 26 2 25 3 24 4 22 5 23 6 21 8 17 9 18 10 97 11 19 12
REMARK SMILES IDX 20 13 16 14 12 15 13 16 14 17 15 18 11 19 7 20 8 21 101 22
REMARK SMILES IDX 9 23 10 24 100 25 102 26 98 27 6 28 1 29 2 30 3 31 103 32
REMARK SMILES IDX 4 33 104 34 5 35 99 36 28 38 29 39 30 40 31 41 32 42 33 44
REMARK SMILES IDX 34 45 35 46 96 47 36 48 95 49 37 50 38 51 39 52 89 53 40 54
REMARK SMILES IDX 94 55 88 56 90 57 41 58 93 59 87 60 86 61 42 63 74 64 54 65
REMARK SMILES IDX 73 66 55 67 58 68 72 69 91 70 56 71 57 72 71 74 92 75 59 76
REMARK SMILES IDX 43 77 44 78 52 79 45 80 46 81 50 82 53 83 47 84 48 85 51 86
REMARK SMILES IDX 49 87 75 88 76 89 84 90 77 91 78 92 82 93 85 94 79 95 80 96
REMARK SMILES IDX 83 97 81 98 60 99 61 100 69 101 62 102 63 103 67 104 70 105
REMARK SMILES IDX 64 106 65 107 68 108 66 109
REMARK H PARENT 24 7 99 37 31 43 90 62 58 73
REMARK Flexibility Score: inf
ROOT
ATOM      1  C   UNL A   1      38.372  33.632  29.129  1.00  0.00     0.002 C 
ENDROOT
BRANCH   1   2
ATOM      2  C   UNL A   1      38.904  32.470  29.966  1.00  0.00     0.021 C 
BRANCH   2   3
ATOM      3  C   UNL A   1      38.477  32.423  31.429  1.00  0.00     0.116 C 
BRANCH   3   4
ATOM      4  N   UNL A   1      37.904  31.161  31.864  1.00  0.00    -0.352 N 
ATOM      5  C   UNL A   1      38.019  30.469  33.052  1.00  0.00     0.251 C 
ATOM      6  O   UNL A   1      37.438  29.391  33.164  1.00  0.00    -0.269 OA
ATOM      7  H   UNL A   1      37.332  30.724  31.193  1.00  0.00     0.163 HD
BRANCH   5   8
ATOM      8  C   UNL A   1      38.878  30.949  34.172  1.00  0.00     0.041 A 
ATOM      9  C   UNL A   1      39.809  32.763  35.489  1.00  0.00     0.046 A 
ATOM     10  C   UNL A   1      40.789  31.890  35.982  1.00  0.00     0.026 A 
ATOM     11  C   UNL A   1      38.797  32.252  34.670  1.00  0.00     0.040 A 
ATOM     12  C   UNL A   1      40.770  30.540  35.627  1.00  0.00     0.003 A 
ATOM     13  C   UNL A   1      39.836  30.077  34.699  1.00  0.00     0.014 A 
BRANCH   9  14
ATOM     14  N   UNL A   1      39.946  34.176  35.678  1.00  0.00    -0.317 N 
ATOM     15  C   UNL A   1      40.568  35.138  34.868  1.00  0.00     0.047 A 
ATOM     16  C   UNL A   1      40.580  36.339  35.562  1.00  0.00     0.028 A 
ATOM     17  C   UNL A   1      40.028  36.116  36.836  1.00  0.00     0.020 A 
ATOM     18  C   UNL A   1      39.626  34.803  36.874  1.00  0.00     0.092 A 
BRANCH  15  19
ATOM     19  C   UNL A   1      40.979  34.843  33.541  1.00  0.00     0.046 C 
ATOM     20  N   UNL A   1      43.721  34.236  31.223  1.00  0.00    -0.251 N 
ATOM     21  C   UNL A   1      42.403  34.274  31.683  1.00  0.00     0.270 C 
ATOM     22  C   UNL A   1      44.829  34.529  32.041  1.00  0.00     0.210 C 
ATOM     23  O   UNL A   1      41.410  34.059  30.986  1.00  0.00    -0.268 OA
ATOM     24  C   UNL A   1      42.242  34.583  33.140  1.00  0.00     0.104 C 
ATOM     25  N   UNL A   1      44.659  34.493  33.404  1.00  0.00    -0.184 NA
ATOM     26  S   UNL A   1      46.377  34.917  31.458  1.00  0.00    -0.038 S 
ATOM     27  C   UNL A   1      43.483  34.510  33.912  1.00  0.00     0.226 C 
BRANCH  20  28
ATOM     28  C   UNL A   1      43.899  33.936  29.829  1.00  0.00     0.055 A 
ATOM     29  C   UNL A   1      43.593  35.522  26.342  1.00  0.00     0.044 C 
ATOM     30  C   UNL A   1      43.826  34.544  27.465  1.00  0.00    -0.046 A 
ATOM     31  C   UNL A   1      44.153  33.220  27.142  1.00  0.00     0.004 A 
ATOM     32  C   UNL A   1      43.727  34.923  28.824  1.00  0.00    -0.024 A 
ATOM     33  C   UNL A   1      44.379  32.272  28.137  1.00  0.00     0.002 A 
ATOM     34  C   UNL A   1      43.438  36.352  29.195  1.00  0.00     0.047 C 
ATOM     35  C   UNL A   1      44.255  32.627  29.477  1.00  0.00     0.027 A 
ENDBRANCH  20  28
BRANCH  27  36
ATOM     36  O   UNL A   1      43.425  34.354  35.242  1.00  0.00    -0.493 OA
ATOM     37  H   UNL A   1      43.427  33.493  35.612  1.00  0.00     0.295 HD
ENDBRANCH  27  36
ENDBRANCH  15  19
ENDBRANCH   9  14
ENDBRANCH   5   8
ENDBRANCH   3   4
ENDBRANCH   2   3
ENDBRANCH   1   2
BRANCH   1  38
ATOM     38  C   UNL A   1      36.885  33.959  29.281  1.00  0.00     0.002 C 
BRANCH  38  39
ATOM     39  C   UNL A   1      35.906  32.977  28.628  1.00  0.00     0.021 C 
BRANCH  39  40
ATOM     40  C   UNL A   1      35.462  31.813  29.500  1.00  0.00     0.116 C 
BRANCH  40  41
ATOM     41  N   UNL A   1      34.883  30.752  28.692  1.00  0.00    -0.352 N 
ATOM     42  C   UNL A   1      35.500  29.746  27.997  1.00  0.00     0.251 C 
ATOM     43  H   UNL A   1      33.900  30.758  28.637  1.00  0.00     0.163 HD
ATOM     44  O   UNL A   1      34.896  29.182  27.093  1.00  0.00    -0.269 OA
BRANCH  42  45
ATOM     45  C   UNL A   1      36.882  29.332  28.314  1.00  0.00     0.039 A 
ATOM     46  C   UNL A   1      37.090  28.603  29.493  1.00  0.00     0.014 A 
ATOM     47  C   UNL A   1      37.969  29.729  27.529  1.00  0.00     0.014 A 
ATOM     48  C   UNL A   1      38.379  28.234  29.857  1.00  0.00     0.010 A 
ATOM     49  C   UNL A   1      39.253  29.324  27.862  1.00  0.00     0.010 A 
ATOM     50  C   UNL A   1      39.453  28.574  29.024  1.00  0.00    -0.014 A 
BRANCH  50  51
ATOM     51  C   UNL A   1      40.780  27.993  29.308  1.00  0.00     0.031 A 
ATOM     52  C   UNL A   1      40.992  26.684  28.515  1.00  0.00     0.074 A 
ATOM     53  C   UNL A   1      41.561  28.678  30.200  1.00  0.00     0.049 A 
ATOM     54  N   UNL A   1      41.743  25.657  28.776  1.00  0.00    -0.248 NA
ATOM     55  C   UNL A   1      40.207  26.455  27.267  1.00  0.00     0.031 C 
ATOM     56  C   UNL A   1      41.193  29.973  30.817  1.00  0.00     0.029 A 
ATOM     57  N   UNL A   1      42.796  28.451  30.775  1.00  0.00    -0.354 N 
ATOM     58  C   UNL A   1      41.670  24.771  27.673  1.00  0.00     0.074 A 
ATOM     59  C   UNL A   1      40.623  25.264  26.831  1.00  0.00     0.031 C 
ATOM     60  C   UNL A   1      42.120  30.365  31.717  1.00  0.00     0.029 A 
ATOM     61  C   UNL A   1      43.181  29.383  31.782  1.00  0.00     0.049 A 
ATOM     62  H   UNL A   1      43.371  27.698  30.509  1.00  0.00     0.167 HD
ATOM     63  C   UNL A   1      42.577  23.769  27.465  1.00  0.00     0.037 A 
ATOM     64  C   UNL A   1      44.249  29.332  32.643  1.00  0.00     0.037 A 
ATOM     65  C   UNL A   1      43.504  23.740  28.542  1.00  0.00     0.049 A 
ATOM     66  C   UNL A   1      45.034  28.176  32.193  1.00  0.00     0.074 A 
ATOM     67  C   UNL A   1      43.384  23.347  29.847  1.00  0.00     0.029 A 
ATOM     68  N   UNL A   1      44.630  24.513  28.402  1.00  0.00    -0.354 N 
ATOM     69  N   UNL A   1      45.768  28.153  31.121  1.00  0.00    -0.248 NA
ATOM     70  C   UNL A   1      44.910  26.916  32.937  1.00  0.00     0.031 C 
ATOM     71  C   UNL A   1      44.153  24.303  30.538  1.00  0.00     0.029 A 
ATOM     72  C   UNL A   1      44.894  25.066  29.626  1.00  0.00     0.049 A 
ATOM     73  H   UNL A   1      45.150  24.644  27.576  1.00  0.00     0.167 HD
ATOM     74  C   UNL A   1      45.901  26.804  30.901  1.00  0.00     0.074 A 
ATOM     75  C   UNL A   1      45.667  26.144  32.166  1.00  0.00     0.031 C 
ATOM     76  C   UNL A   1      45.633  26.302  29.670  1.00  0.00     0.037 A 
BRANCH  63  77
ATOM     77  C   UNL A   1      42.922  22.920  26.268  1.00  0.00     0.064 A 
ATOM     78  C   UNL A   1      42.798  21.509  26.396  1.00  0.00     0.173 A 
ATOM     79  C   UNL A   1      43.708  23.373  25.203  1.00  0.00     0.173 A 
ATOM     80  F   UNL A   1      42.019  20.971  27.348  1.00  0.00    -0.203 F 
ATOM     81  C   UNL A   1      43.546  20.626  25.621  1.00  0.00     0.198 A 
ATOM     82  C   UNL A   1      44.415  22.478  24.390  1.00  0.00     0.198 A 
ATOM     83  F   UNL A   1      43.895  24.680  24.987  1.00  0.00    -0.203 F 
ATOM     84  F   UNL A   1      43.521  19.313  25.891  1.00  0.00    -0.200 F 
ATOM     85  C   UNL A   1      44.373  21.113  24.631  1.00  0.00     0.200 A 
ATOM     86  F   UNL A   1      45.210  22.953  23.421  1.00  0.00    -0.200 F 
ATOM     87  F   UNL A   1      45.157  20.279  23.936  1.00  0.00    -0.200 F 
ENDBRANCH  63  77
BRANCH  64  88
ATOM     88  C   UNL A   1      44.739  30.025  33.901  1.00  0.00     0.064 A 
ATOM     89  C   UNL A   1      45.678  31.060  33.969  1.00  0.00     0.173 A 
ATOM     90  C   UNL A   1      44.166  29.687  35.165  1.00  0.00     0.173 A 
ATOM     91  F   UNL A   1      46.411  31.398  32.903  1.00  0.00    -0.203 F 
ATOM     92  C   UNL A   1      45.915  31.779  35.160  1.00  0.00     0.198 A 
ATOM     93  C   UNL A   1      44.357  30.431  36.330  1.00  0.00     0.198 A 
ATOM     94  F   UNL A   1      43.387  28.609  35.324  1.00  0.00    -0.203 F 
ATOM     95  F   UNL A   1      46.819  32.768  35.169  1.00  0.00    -0.200 F 
ATOM     96  C   UNL A   1      45.221  31.495  36.323  1.00  0.00     0.200 A 
ATOM     97  F   UNL A   1      43.678  30.110  37.442  1.00  0.00    -0.200 F 
ATOM     98  F   UNL A   1      45.396  32.227  37.432  1.00  0.00    -0.200 F 
ENDBRANCH  64  88
BRANCH  76  99
ATOM     99  C   UNL A   1      45.802  27.296  28.539  1.00  0.00     0.064 A 
ATOM    100  C   UNL A   1      47.086  27.755  28.207  1.00  0.00     0.173 A 
ATOM    101  C   UNL A   1      44.737  27.894  27.843  1.00  0.00     0.173 A 
ATOM    102  F   UNL A   1      48.160  27.225  28.809  1.00  0.00    -0.203 F 
ATOM    103  C   UNL A   1      47.286  28.754  27.250  1.00  0.00     0.198 A 
ATOM    104  C   UNL A   1      44.932  28.889  26.882  1.00  0.00     0.198 A 
ATOM    105  F   UNL A   1      43.481  27.523  28.076  1.00  0.00    -0.203 F 
ATOM    106  F   UNL A   1      48.530  29.161  26.960  1.00  0.00    -0.200 F 
ATOM    107  C   UNL A   1      46.209  29.322  26.588  1.00  0.00     0.200 A 
ATOM    108  F   UNL A   1      43.880  29.418  26.238  1.00  0.00    -0.200 F 
ATOM    109  F   UNL A   1      46.404  30.270  25.659  1.00  0.00    -0.200 F 
ENDBRANCH  76  99
ENDBRANCH  50  51
ENDBRANCH  42  45
ENDBRANCH  40  41
ENDBRANCH  39  40
ENDBRANCH  38  39
ENDBRANCH   1  38
TORSDOF 17
ENDMDL
MODEL 2
REMARK VINA RESULT:      -9.8      4.964     10.171
REMARK SMILES Cc1cccc(N2C(=O)/C(=C/c3cccn3-c3cccc(C(=O)NCCCCCCNC(=O)c4ccc(-c5c6nc(c(-c7c(F)c(F)c(F)c(F)c7F)c7ccc([nH]7)c(-c7c(F)c(F)c(F)c(F)c7F)c7nc(c(-c8c(F)c(F)c(F)c(F)c8F)c8ccc5[nH]8)C=C7)C=C6)cc4)c3)C(O)=NC2=S)c1C
REMARK SMILES IDX 27 1 26 2 25 3 24 4 22 5 23 6 21 8 17 9 18 10 97 11 19 12
REMARK SMILES IDX 20 13 16 14 12 15 13 16 14 17 15 18 11 19 7 20 8 21 101 22
REMARK SMILES IDX 9 23 10 24 100 25 102 26 98 27 6 28 1 29 2 30 3 31 103 32
REMARK SMILES IDX 4 33 104 34 5 35 99 36 28 38 29 39 30 40 31 41 32 42 33 44
REMARK SMILES IDX 34 45 35 46 96 47 36 48 95 49 37 50 38 51 39 52 89 53 40 54
REMARK SMILES IDX 94 55 88 56 90 57 41 58 93 59 87 60 86 61 42 63 74 64 54 65
REMARK SMILES IDX 73 66 55 67 58 68 72 69 91 70 56 71 57 72 71 74 92 75 59 76
REMARK SMILES IDX 43 77 44 78 52 79 45 80 46 81 50 82 53 83 47 84 48 85 51 86
REMARK SMILES IDX 49 87 75 88 76 89 84 90 77 91 78 92 82 93 85 94 79 95 80 96
REMARK SMILES IDX 83 97 81 98 60 99 61 100 69 101 62 102 63 103 67 104 70 105
REMARK SMILES IDX 64 106 65 107 68 108 66 109
REMARK H PARENT 24 7 99 37 31 43 90 62 58 73
REMARK Flexibility Score: inf
ROOT
ATOM      1  C   UNL A   1      35.084  33.754  28.082  1.00  0.00     0.002 C 
ENDROOT
BRANCH   1   2
ATOM      2  C   UNL A   1      35.564  32.360  27.680  1.00  0.00     0.021 C 
BRANCH   2   3
ATOM      3  C   UNL A   1      34.660  31.189  28.049  1.00  0.00     0.116 C 
BRANCH   3   4
ATOM      4  N   UNL A   1      34.650  30.094  27.095  1.00  0.00    -0.352 N 
ATOM      5  C   UNL A   1      33.713  29.709  26.157  1.00  0.00     0.251 C 
ATOM      6  O   UNL A   1      33.939  28.713  25.473  1.00  0.00    -0.269 OA
ATOM      7  H   UNL A   1      35.454  29.527  27.121  1.00  0.00     0.163 HD
BRANCH   5   8
ATOM      8  C   UNL A   1      32.410  30.417  25.999  1.00  0.00     0.041 A 
ATOM      9  C   UNL A   1      30.368  30.824  24.752  1.00  0.00     0.046 A 
ATOM     10  C   UNL A   1      30.181  32.017  25.465  1.00  0.00     0.026 A 
ATOM     11  C   UNL A   1      31.428  29.983  25.105  1.00  0.00     0.040 A 
ATOM     12  C   UNL A   1      31.065  32.371  26.486  1.00  0.00     0.003 A 
ATOM     13  C   UNL A   1      32.195  31.589  26.732  1.00  0.00     0.014 A 
BRANCH   9  14
ATOM     14  N   UNL A   1      29.596  30.564  23.574  1.00  0.00    -0.317 N 
ATOM     15  C   UNL A   1      29.837  29.675  22.515  1.00  0.00     0.047 A 
ATOM     16  C   UNL A   1      28.886  29.910  21.534  1.00  0.00     0.028 A 
ATOM     17  C   UNL A   1      28.091  30.994  21.944  1.00  0.00     0.020 A 
ATOM     18  C   UNL A   1      28.522  31.358  23.197  1.00  0.00     0.092 A 
BRANCH  15  19
ATOM     19  C   UNL A   1      30.845  28.677  22.595  1.00  0.00     0.046 C 
ATOM     20  N   UNL A   1      31.857  25.406  23.833  1.00  0.00    -0.251 N 
ATOM     21  C   UNL A   1      31.920  26.575  23.072  1.00  0.00     0.270 C 
ATOM     22  C   UNL A   1      30.765  25.088  24.665  1.00  0.00     0.210 C 
ATOM     23  O   UNL A   1      32.874  26.900  22.364  1.00  0.00    -0.268 OA
ATOM     24  C   UNL A   1      30.706  27.450  23.141  1.00  0.00     0.104 C 
ATOM     25  N   UNL A   1      29.576  25.741  24.453  1.00  0.00    -0.184 NA
ATOM     26  S   UNL A   1      30.812  23.936  25.913  1.00  0.00    -0.038 S 
ATOM     27  C   UNL A   1      29.539  26.814  23.755  1.00  0.00     0.226 C 
BRANCH  20  28
ATOM     28  C   UNL A   1      33.009  24.549  23.779  1.00  0.00     0.055 A 
ATOM     29  C   UNL A   1      36.424  23.980  25.446  1.00  0.00     0.044 C 
ATOM     30  C   UNL A   1      35.225  23.861  24.542  1.00  0.00    -0.046 A 
ATOM     31  C   UNL A   1      35.256  22.912  23.510  1.00  0.00     0.004 A 
ATOM     32  C   UNL A   1      34.078  24.672  24.704  1.00  0.00    -0.024 A 
ATOM     33  C   UNL A   1      34.177  22.758  22.643  1.00  0.00     0.002 A 
ATOM     34  C   UNL A   1      33.997  25.654  25.841  1.00  0.00     0.047 C 
ATOM     35  C   UNL A   1      33.056  23.571  22.776  1.00  0.00     0.027 A 
ENDBRANCH  20  28
BRANCH  27  36
ATOM     36  O   UNL A   1      28.316  27.306  23.512  1.00  0.00    -0.493 OA
ATOM     37  H   UNL A   1      27.937  27.218  22.659  1.00  0.00     0.295 HD
ENDBRANCH  27  36
ENDBRANCH  15  19
ENDBRANCH   9  14
ENDBRANCH   5   8
ENDBRANCH   3   4
ENDBRANCH   2   3
ENDBRANCH   1   2
BRANCH   1  38
ATOM     38  C   UNL A   1      34.011  33.819  29.171  1.00  0.00     0.002 C 
BRANCH  38  39
ATOM     39  C   UNL A   1      32.970  34.936  29.029  1.00  0.00     0.021 C 
BRANCH  39  40
ATOM     40  C   UNL A   1      33.232  36.187  29.854  1.00  0.00     0.116 C 
BRANCH  40  41
ATOM     41  N   UNL A   1      32.497  36.145  31.106  1.00  0.00    -0.352 N 
ATOM     42  C   UNL A   1      32.708  35.376  32.220  1.00  0.00     0.251 C 
ATOM     43  H   UNL A   1      31.732  36.762  31.162  1.00  0.00     0.163 HD
ATOM     44  O   UNL A   1      31.794  35.207  33.017  1.00  0.00    -0.269 OA
BRANCH  42  45
ATOM     45  C   UNL A   1      34.019  34.744  32.476  1.00  0.00     0.039 A 
ATOM     46  C   UNL A   1      34.025  33.428  32.956  1.00  0.00     0.014 A 
ATOM     47  C   UNL A   1      35.217  35.452  32.344  1.00  0.00     0.014 A 
ATOM     48  C   UNL A   1      35.233  32.809  33.257  1.00  0.00     0.010 A 
ATOM     49  C   UNL A   1      36.428  34.826  32.597  1.00  0.00     0.010 A 
ATOM     50  C   UNL A   1      36.431  33.503  33.050  1.00  0.00    -0.014 A 
BRANCH  50  51
ATOM     51  C   UNL A   1      37.705  32.767  33.166  1.00  0.00     0.031 A 
ATOM     52  C   UNL A   1      37.761  31.596  32.159  1.00  0.00     0.074 A 
ATOM     53  C   UNL A   1      38.580  33.219  34.116  1.00  0.00     0.049 A 
ATOM     54  N   UNL A   1      38.417  30.476  32.209  1.00  0.00    -0.248 NA
ATOM     55  C   UNL A   1      36.912  31.651  30.933  1.00  0.00     0.031 C 
ATOM     56  C   UNL A   1      38.362  34.420  34.956  1.00  0.00     0.029 A 
ATOM     57  N   UNL A   1      39.808  32.789  34.582  1.00  0.00    -0.354 N 
ATOM     58  C   UNL A   1      38.218  29.799  30.981  1.00  0.00     0.074 A 
ATOM     59  C   UNL A   1      37.195  30.518  30.286  1.00  0.00     0.031 C 
ATOM     60  C   UNL A   1      39.355  34.570  35.858  1.00  0.00     0.029 A 
ATOM     61  C   UNL A   1      40.318  33.500  35.706  1.00  0.00     0.049 A 
ATOM     62  H   UNL A   1      40.297  32.043  34.166  1.00  0.00     0.167 HD
ATOM     63  C   UNL A   1      39.016  28.768  30.564  1.00  0.00     0.037 A 
ATOM     64  C   UNL A   1      41.406  33.210  36.491  1.00  0.00     0.037 A 
ATOM     65  C   UNL A   1      39.975  28.476  31.572  1.00  0.00     0.049 A 
ATOM     66  C   UNL A   1      42.058  32.081  35.817  1.00  0.00     0.074 A 
ATOM     67  C   UNL A   1      39.864  27.881  32.800  1.00  0.00     0.029 A 
ATOM     68  N   UNL A   1      41.164  29.157  31.503  1.00  0.00    -0.354 N 
ATOM     69  N   UNL A   1      42.747  32.171  34.719  1.00  0.00    -0.248 NA
ATOM     70  C   UNL A   1      41.839  30.730  36.350  1.00  0.00     0.031 C 
ATOM     71  C   UNL A   1      40.747  28.635  33.598  1.00  0.00     0.029 A 
ATOM     72  C   UNL A   1      41.524  29.471  32.786  1.00  0.00     0.049 A 
ATOM     73  H   UNL A   1      41.664  29.379  30.684  1.00  0.00     0.167 HD
ATOM     74  C   UNL A   1      42.741  30.872  34.275  1.00  0.00     0.074 A 
ATOM     75  C   UNL A   1      42.490  30.033  35.425  1.00  0.00     0.031 C 
ATOM     76  C   UNL A   1      42.381  30.610  32.994  1.00  0.00     0.037 A 
BRANCH  63  77
ATOM     77  C   UNL A   1      39.233  28.105  29.229  1.00  0.00     0.064 A 
ATOM     78  C   UNL A   1      39.283  26.685  29.192  1.00  0.00     0.173 A 
ATOM     79  C   UNL A   1      39.769  28.766  28.118  1.00  0.00     0.173 A 
ATOM     80  F   UNL A   1      38.743  25.953  30.180  1.00  0.00    -0.203 F 
ATOM     81  C   UNL A   1      39.972  25.992  28.199  1.00  0.00     0.198 A 
ATOM     82  C   UNL A   1      40.413  28.061  27.094  1.00  0.00     0.198 A 
ATOM     83  F   UNL A   1      39.778  30.103  28.045  1.00  0.00    -0.203 F 
ATOM     84  F   UNL A   1      40.133  24.664  28.299  1.00  0.00    -0.200 F 
ATOM     85  C   UNL A   1      40.558  26.684  27.160  1.00  0.00     0.200 A 
ATOM     86  F   UNL A   1      40.972  28.735  26.078  1.00  0.00    -0.200 F 
ATOM     87  F   UNL A   1      41.291  26.035  26.247  1.00  0.00    -0.200 F 
ENDBRANCH  63  77
BRANCH  64  88
ATOM     88  C   UNL A   1      42.006  33.635  37.818  1.00  0.00     0.064 A 
ATOM     89  C   UNL A   1      43.253  34.240  38.012  1.00  0.00     0.173 A 
ATOM     90  C   UNL A   1      41.240  33.503  39.017  1.00  0.00     0.173 A 
ATOM     91  F   UNL A   1      44.149  34.306  37.022  1.00  0.00    -0.203 F 
ATOM     92  C   UNL A   1      43.635  34.785  39.256  1.00  0.00     0.198 A 
ATOM     93  C   UNL A   1      41.591  34.089  40.233  1.00  0.00     0.198 A 
ATOM     94  F   UNL A   1      40.106  32.792  39.058  1.00  0.00    -0.203 F 
ATOM     95  F   UNL A   1      44.837  35.363  39.386  1.00  0.00    -0.200 F 
ATOM     96  C   UNL A   1      42.786  34.752  40.349  1.00  0.00     0.200 A 
ATOM     97  F   UNL A   1      40.748  34.017  41.273  1.00  0.00    -0.200 F 
ATOM     98  F   UNL A   1      43.122  35.335  41.507  1.00  0.00    -0.200 F 
ENDBRANCH  64  88
BRANCH  76  99
ATOM     99  C   UNL A   1      42.605  31.761  32.033  1.00  0.00     0.064 A 
ATOM    100  C   UNL A   1      43.913  32.182  31.750  1.00  0.00     0.173 A 
ATOM    101  C   UNL A   1      41.575  32.533  31.467  1.00  0.00     0.173 A 
ATOM    102  F   UNL A   1      44.955  31.492  32.235  1.00  0.00    -0.203 F 
ATOM    103  C   UNL A   1      44.170  33.308  30.962  1.00  0.00     0.198 A 
ATOM    104  C   UNL A   1      41.827  33.656  30.674  1.00  0.00     0.198 A 
ATOM    105  F   UNL A   1      40.299  32.213  31.666  1.00  0.00    -0.203 F 
ATOM    106  F   UNL A   1      45.435  33.673  30.713  1.00  0.00    -0.200 F 
ATOM    107  C   UNL A   1      43.127  34.046  30.425  1.00  0.00     0.200 A 
ATOM    108  F   UNL A   1      40.806  34.350  30.148  1.00  0.00    -0.200 F 
ATOM    109  F   UNL A   1      43.376  35.116  29.656  1.00  0.00    -0.200 F 
ENDBRANCH  76  99
ENDBRANCH  50  51
ENDBRANCH  42  45
ENDBRANCH  40  41
ENDBRANCH  39  40
ENDBRANCH  38  39
ENDBRANCH   1  38
TORSDOF 17
ENDMDL
MODEL 3
REMARK VINA RESULT:      -9.8      1.616      2.163
REMARK SMILES Cc1cccc(N2C(=O)/C(=C/c3cccn3-c3cccc(C(=O)NCCCCCCNC(=O)c4ccc(-c5c6nc(c(-c7c(F)c(F)c(F)c(F)c7F)c7ccc([nH]7)c(-c7c(F)c(F)c(F)c(F)c7F)c7nc(c(-c8c(F)c(F)c(F)c(F)c8F)c8ccc5[nH]8)C=C7)C=C6)cc4)c3)C(O)=NC2=S)c1C
REMARK SMILES IDX 27 1 26 2 25 3 24 4 22 5 23 6 21 8 17 9 18 10 97 11 19 12
REMARK SMILES IDX 20 13 16 14 12 15 13 16 14 17 15 18 11 19 7 20 8 21 101 22
REMARK SMILES IDX 9 23 10 24 100 25 102 26 98 27 6 28 1 29 2 30 3 31 103 32
REMARK SMILES IDX 4 33 104 34 5 35 99 36 28 38 29 39 30 40 31 41 32 42 33 44
REMARK SMILES IDX 34 45 35 46 96 47 36 48 95 49 37 50 38 51 39 52 89 53 40 54
REMARK SMILES IDX 94 55 88 56 90 57 41 58 93 59 87 60 86 61 42 63 74 64 54 65
REMARK SMILES IDX 73 66 55 67 58 68 72 69 91 70 56 71 57 72 71 74 92 75 59 76
REMARK SMILES IDX 43 77 44 78 52 79 45 80 46 81 50 82 53 83 47 84 48 85 51 86
REMARK SMILES IDX 49 87 75 88 76 89 84 90 77 91 78 92 82 93 85 94 79 95 80 96
REMARK SMILES IDX 83 97 81 98 60 99 61 100 69 101 62 102 63 103 67 104 70 105
REMARK SMILES IDX 64 106 65 107 68 108 66 109
REMARK H PARENT 24 7 99 37 31 43 90 62 58 73
REMARK Flexibility Score: inf
ROOT
ATOM      1  C   UNL A   1      39.229  31.741  32.081  1.00  0.00     0.002 C 
ENDROOT
BRANCH   1   2
ATOM      2  C   UNL A   1      39.418  30.302  32.557  1.00  0.00     0.021 C 
BRANCH   2   3
ATOM      3  C   UNL A   1      40.787  29.937  33.119  1.00  0.00     0.116 C 
BRANCH   3   4
ATOM      4  N   UNL A   1      40.771  28.965  34.199  1.00  0.00    -0.352 N 
ATOM      5  C   UNL A   1      41.117  29.075  35.530  1.00  0.00     0.251 C 
ATOM      6  O   UNL A   1      41.030  28.078  36.245  1.00  0.00    -0.269 OA
ATOM      7  H   UNL A   1      40.456  28.071  33.933  1.00  0.00     0.163 HD
BRANCH   5   8
ATOM      8  C   UNL A   1      41.659  30.337  36.109  1.00  0.00     0.041 A 
ATOM      9  C   UNL A   1      41.490  32.730  36.484  1.00  0.00     0.046 A 
ATOM     10  C   UNL A   1      42.851  32.764  36.819  1.00  0.00     0.026 A 
ATOM     11  C   UNL A   1      40.885  31.494  36.236  1.00  0.00     0.040 A 
ATOM     12  C   UNL A   1      43.593  31.582  36.868  1.00  0.00     0.003 A 
ATOM     13  C   UNL A   1      43.007  30.376  36.483  1.00  0.00     0.014 A 
BRANCH   9  14
ATOM     14  N   UNL A   1      40.783  33.949  36.227  1.00  0.00    -0.317 N 
ATOM     15  C   UNL A   1      40.791  34.775  35.094  1.00  0.00     0.047 A 
ATOM     16  C   UNL A   1      40.072  35.922  35.395  1.00  0.00     0.028 A 
ATOM     17  C   UNL A   1      39.672  35.849  36.741  1.00  0.00     0.020 A 
ATOM     18  C   UNL A   1      40.091  34.631  37.218  1.00  0.00     0.092 A 
BRANCH  15  19
ATOM     19  C   UNL A   1      41.376  34.355  33.870  1.00  0.00     0.046 C 
ATOM     20  N   UNL A   1      44.094  34.702  31.471  1.00  0.00    -0.251 N 
ATOM     21  C   UNL A   1      42.974  34.132  32.081  1.00  0.00     0.270 C 
ATOM     22  C   UNL A   1      44.772  35.818  31.999  1.00  0.00     0.210 C 
ATOM     23  O   UNL A   1      42.336  33.181  31.628  1.00  0.00    -0.268 OA
ATOM     24  C   UNL A   1      42.576  34.746  33.388  1.00  0.00     0.104 C 
ATOM     25  N   UNL A   1      44.573  36.133  33.321  1.00  0.00    -0.184 NA
ATOM     26  S   UNL A   1      45.838  36.801  31.113  1.00  0.00    -0.038 S 
ATOM     27  C   UNL A   1      43.579  35.644  33.962  1.00  0.00     0.226 C 
BRANCH  20  28
ATOM     28  C   UNL A   1      44.496  34.127  30.218  1.00  0.00     0.055 A 
ATOM     29  C   UNL A   1      43.648  34.168  26.469  1.00  0.00     0.044 C 
ATOM     30  C   UNL A   1      44.279  33.850  27.800  1.00  0.00    -0.046 A 
ATOM     31  C   UNL A   1      45.269  32.858  27.852  1.00  0.00     0.004 A 
ATOM     32  C   UNL A   1      43.905  34.519  28.989  1.00  0.00    -0.024 A 
ATOM     33  C   UNL A   1      45.886  32.521  29.054  1.00  0.00     0.002 A 
ATOM     34  C   UNL A   1      42.890  35.629  28.948  1.00  0.00     0.047 C 
ATOM     35  C   UNL A   1      45.505  33.153  30.233  1.00  0.00     0.027 A 
ENDBRANCH  20  28
BRANCH  27  36
ATOM     36  O   UNL A   1      43.542  35.922  35.273  1.00  0.00    -0.493 OA
ATOM     37  H   UNL A   1      43.190  36.739  35.569  1.00  0.00     0.295 HD
ENDBRANCH  27  36
ENDBRANCH  15  19
ENDBRANCH   9  14
ENDBRANCH   5   8
ENDBRANCH   3   4
ENDBRANCH   2   3
ENDBRANCH   1   2
BRANCH   1  38
ATOM     38  C   UNL A   1      38.978  31.939  30.584  1.00  0.00     0.002 C 
BRANCH  38  39
ATOM     39  C   UNL A   1      37.635  32.571  30.200  1.00  0.00     0.021 C 
BRANCH  39  40
ATOM     40  C   UNL A   1      37.333  32.619  28.711  1.00  0.00     0.116 C 
BRANCH  40  41
ATOM     41  N   UNL A   1      36.294  31.664  28.362  1.00  0.00    -0.352 N 
ATOM     42  C   UNL A   1      36.405  30.374  27.915  1.00  0.00     0.251 C 
ATOM     43  H   UNL A   1      35.372  31.995  28.463  1.00  0.00     0.163 HD
ATOM     44  O   UNL A   1      35.462  29.857  27.329  1.00  0.00    -0.269 OA
BRANCH  42  45
ATOM     45  C   UNL A   1      37.644  29.597  28.121  1.00  0.00     0.039 A 
ATOM     46  C   UNL A   1      38.625  29.655  27.123  1.00  0.00     0.014 A 
ATOM     47  C   UNL A   1      37.806  28.747  29.220  1.00  0.00     0.014 A 
ATOM     48  C   UNL A   1      39.786  28.902  27.251  1.00  0.00     0.010 A 
ATOM     49  C   UNL A   1      38.982  28.029  29.379  1.00  0.00     0.010 A 
ATOM     50  C   UNL A   1      39.970  28.112  28.393  1.00  0.00    -0.014 A 
BRANCH  50  51
ATOM     51  C   UNL A   1      41.290  27.493  28.619  1.00  0.00     0.031 A 
ATOM     52  C   UNL A   1      41.298  26.019  28.152  1.00  0.00     0.074 A 
ATOM     53  C   UNL A   1      42.242  28.292  29.194  1.00  0.00     0.049 A 
ATOM     54  N   UNL A   1      42.022  25.017  28.549  1.00  0.00    -0.248 NA
ATOM     55  C   UNL A   1      40.310  25.578  27.125  1.00  0.00     0.031 C 
ATOM     56  C   UNL A   1      42.053  29.724  29.518  1.00  0.00     0.029 A 
ATOM     57  N   UNL A   1      43.539  28.091  29.625  1.00  0.00    -0.354 N 
ATOM     58  C   UNL A   1      41.721  23.907  27.721  1.00  0.00     0.074 A 
ATOM     59  C   UNL A   1      40.582  24.284  26.942  1.00  0.00     0.031 C 
ATOM     60  C   UNL A   1      43.133  30.228  30.151  1.00  0.00     0.029 A 
ATOM     61  C   UNL A   1      44.134  29.194  30.304  1.00  0.00     0.049 A 
ATOM     62  H   UNL A   1      44.020  27.246  29.473  1.00  0.00     0.167 HD
ATOM     63  C   UNL A   1      42.524  22.803  27.640  1.00  0.00     0.037 A 
ATOM     64  C   UNL A   1      45.322  29.247  30.989  1.00  0.00     0.037 A 
ATOM     65  C   UNL A   1      43.611  22.942  28.547  1.00  0.00     0.049 A 
ATOM     66  C   UNL A   1      45.958  27.949  30.732  1.00  0.00     0.074 A 
ATOM     67  C   UNL A   1      43.680  22.880  29.913  1.00  0.00     0.029 A 
ATOM     68  N   UNL A   1      44.740  23.550  28.061  1.00  0.00    -0.354 N 
ATOM     69  N   UNL A   1      46.506  27.604  29.605  1.00  0.00    -0.248 NA
ATOM     70  C   UNL A   1      45.884  26.917  31.774  1.00  0.00     0.031 C 
ATOM     71  C   UNL A   1      44.604  23.895  30.229  1.00  0.00     0.029 A 
ATOM     72  C   UNL A   1      45.229  24.349  29.061  1.00  0.00     0.049 A 
ATOM     73  H   UNL A   1      45.127  23.434  27.163  1.00  0.00     0.167 HD
ATOM     74  C   UNL A   1      46.526  26.235  29.709  1.00  0.00     0.074 A 
ATOM     75  C   UNL A   1      46.462  25.917  31.118  1.00  0.00     0.031 C 
ATOM     76  C   UNL A   1      46.035  25.485  28.692  1.00  0.00     0.037 A 
BRANCH  63  77
ATOM     77  C   UNL A   1      42.624  21.668  26.654  1.00  0.00     0.064 A 
ATOM     78  C   UNL A   1      42.150  20.391  27.060  1.00  0.00     0.173 A 
ATOM     79  C   UNL A   1      43.480  21.681  25.548  1.00  0.00     0.173 A 
ATOM     80  F   UNL A   1      41.277  20.273  28.074  1.00  0.00    -0.203 F 
ATOM     81  C   UNL A   1      42.637  19.209  26.508  1.00  0.00     0.198 A 
ATOM     82  C   UNL A   1      43.924  20.490  24.959  1.00  0.00     0.198 A 
ATOM     83  F   UNL A   1      43.988  22.826  25.077  1.00  0.00    -0.203 F 
ATOM     84  F   UNL A   1      42.285  18.028  27.038  1.00  0.00    -0.200 F 
ATOM     85  C   UNL A   1      43.543  19.259  25.470  1.00  0.00     0.200 A 
ATOM     86  F   UNL A   1      44.796  20.541  23.943  1.00  0.00    -0.200 F 
ATOM     87  F   UNL A   1      44.078  18.130  24.987  1.00  0.00    -0.200 F 
ENDBRANCH  63  77
BRANCH  64  88
ATOM     88  C   UNL A   1      46.047  30.167  31.954  1.00  0.00     0.064 A 
ATOM     89  C   UNL A   1      47.417  30.453  31.960  1.00  0.00     0.173 A 
ATOM     90  C   UNL A   1      45.303  30.904  32.925  1.00  0.00     0.173 A 
ATOM     91  F   UNL A   1      48.273  29.745  31.216  1.00  0.00    -0.203 F 
ATOM     92  C   UNL A   1      47.964  31.477  32.763  1.00  0.00     0.198 A 
ATOM     93  C   UNL A   1      45.831  31.954  33.678  1.00  0.00     0.198 A 
ATOM     94  F   UNL A   1      44.018  30.635  33.186  1.00  0.00    -0.203 F 
ATOM     95  F   UNL A   1      49.282  31.717  32.724  1.00  0.00    -0.200 F 
ATOM     96  C   UNL A   1      47.165  32.256  33.581  1.00  0.00     0.200 A 
ATOM     97  F   UNL A   1      45.025  32.672  34.474  1.00  0.00    -0.200 F 
ATOM     98  F   UNL A   1      47.677  33.274  34.285  1.00  0.00    -0.200 F 
ENDBRANCH  64  88
BRANCH  76  99
ATOM     99  C   UNL A   1      46.075  26.164  27.337  1.00  0.00     0.064 A 
ATOM    100  C   UNL A   1      47.313  26.477  26.756  1.00  0.00     0.173 A 
ATOM    101  C   UNL A   1      44.939  26.615  26.642  1.00  0.00     0.173 A 
ATOM    102  F   UNL A   1      48.447  26.069  27.344  1.00  0.00    -0.203 F 
ATOM    103  C   UNL A   1      47.406  27.203  25.565  1.00  0.00     0.198 A 
ATOM    104  C   UNL A   1      45.026  27.337  25.449  1.00  0.00     0.198 A 
ATOM    105  F   UNL A   1      43.717  26.363  27.103  1.00  0.00    -0.203 F 
ATOM    106  F   UNL A   1      48.609  27.477  25.043  1.00  0.00    -0.200 F 
ATOM    107  C   UNL A   1      46.262  27.634  24.911  1.00  0.00     0.200 A 
ATOM    108  F   UNL A   1      43.909  27.733  24.819  1.00  0.00    -0.200 F 
ATOM    109  F   UNL A   1      46.353  28.316  23.761  1.00  0.00    -0.200 F 
ENDBRANCH  76  99
ENDBRANCH  50  51
ENDBRANCH  42  45
ENDBRANCH  40  41
ENDBRANCH  39  40
ENDBRANCH  38  39
ENDBRANCH   1  38
TORSDOF 17
ENDMDL
