MODEL 1
REMARK VINA RESULT:     -11.0      0.000      0.000
REMARK SMILES COC(=O)C[C@H](NC(=O)N(C)C[C@@H]1CCC[N@H+]1C)C(=O)NCCCCCCNC(=O)c1ccc(-c2c3nc(c(-c4c(F)c(F)c(F)c(F)c4F)c4ccc([nH]4)c(-c4c(F)c(F)c(F)c(F)c4F)c4nc(c(-c5c(F)c(F)c(F)c(F)c5F)c5ccc2[nH]5)C=C4)C=C3)cc1
REMARK SMILES IDX 23 1 22 2 21 3 19 4 20 5 6 7 5 8 3 9 4 10 2 11 1 12 7 13
REMARK SMILES IDX 8 14 9 16 10 17 11 18 12 19 13 20 14 21 17 22 15 23 16 24
REMARK SMILES IDX 18 25 24 27 25 28 26 29 27 30 28 31 29 32 30 34 31 35 32 36
REMARK SMILES IDX 93 37 33 38 92 39 34 40 35 41 36 42 86 43 37 44 91 45 85 46
REMARK SMILES IDX 87 47 38 48 90 49 84 50 83 51 39 53 71 54 51 55 70 56 52 57
REMARK SMILES IDX 55 58 69 59 88 60 53 61 54 62 68 64 89 65 56 66 40 67 41 68
REMARK SMILES IDX 49 69 42 70 43 71 47 72 50 73 44 74 45 75 48 76 46 77 72 78
REMARK SMILES IDX 73 79 81 80 74 81 75 82 79 83 82 84 76 85 77 86 80 87 78 88
REMARK SMILES IDX 57 89 58 90 66 91 59 92 60 93 64 94 67 95 61 96 62 97 65 98
REMARK SMILES IDX 63 99
REMARK H PARENT 21 6 7 15 17 26 28 33 87 52 55 63
REMARK Flexibility Score: inf
ROOT
ATOM      1  C   UNL A   1      33.242  28.835  27.311  1.00  0.00     0.021 C 
ENDROOT
BRANCH   1   2
ATOM      2  C   UNL A   1      33.178  27.616  26.398  1.00  0.00     0.116 C 
BRANCH   2   3
ATOM      3  N   UNL A   1      31.833  27.070  26.302  1.00  0.00    -0.354 N 
ATOM      4  C   UNL A   1      30.992  26.981  25.230  1.00  0.00     0.243 C 
ATOM      5  O   UNL A   1      29.983  26.283  25.348  1.00  0.00    -0.273 OA
ATOM      6  H   UNL A   1      31.472  26.707  27.144  1.00  0.00     0.163 HD
BRANCH   4   7
ATOM      7  C   UNL A   1      31.331  27.681  23.888  1.00  0.00     0.184 C 
BRANCH   7   8
ATOM      8  C   UNL A   1      30.563  28.989  23.732  1.00  0.00     0.157 C 
BRANCH   8   9
ATOM      9  C   UNL A   1      29.513  28.887  22.650  1.00  0.00     0.308 C 
ATOM     10  O   UNL A   1      29.635  29.366  21.534  1.00  0.00    -0.252 OA
BRANCH   9  11
ATOM     11  O   UNL A   1      28.418  28.233  23.120  1.00  0.00    -0.469 OA
ATOM     12  C   UNL A   1      27.176  28.933  23.025  1.00  0.00     0.282 C 
ENDBRANCH   9  11
ENDBRANCH   8   9
ENDBRANCH   7   8
BRANCH   7  13
ATOM     13  N   UNL A   1      31.157  26.649  22.851  1.00  0.00    -0.326 N 
ATOM     14  C   UNL A   1      31.984  25.753  22.293  1.00  0.00     0.318 C 
ATOM     15  H   UNL A   1      30.242  26.609  22.492  1.00  0.00     0.166 HD
ATOM     16  O   UNL A   1      31.958  25.727  21.060  1.00  0.00    -0.249 OA
BRANCH  14  17
ATOM     17  N   UNL A   1      32.748  24.902  23.037  1.00  0.00    -0.322 N 
ATOM     18  C   UNL A   1      34.116  25.131  23.466  1.00  0.00     0.149 C 
BRANCH  17  19
ATOM     19  C   UNL A   1      32.110  23.659  23.516  1.00  0.00     0.185 C 
BRANCH  19  20
ATOM     20  C   UNL A   1      32.971  22.860  24.534  1.00  0.00     0.203 C 
ATOM     21  C   UNL A   1      33.470  21.517  24.001  1.00  0.00     0.073 C 
ATOM     22  N   UNL A   1      32.276  22.395  25.756  1.00  0.00    -0.333 N 
ATOM     23  C   UNL A   1      33.884  20.758  25.263  1.00  0.00     0.068 C 
ATOM     24  C   UNL A   1      33.279  21.550  26.417  1.00  0.00     0.262 C 
ATOM     25  C   UNL A   1      31.851  23.483  26.632  1.00  0.00     0.333 C 
ATOM     26  H   UNL A   1      31.409  21.907  25.530  1.00  0.00     0.348 HD
ENDBRANCH  19  20
ENDBRANCH  17  19
ENDBRANCH  14  17
ENDBRANCH   7  13
ENDBRANCH   4   7
ENDBRANCH   2   3
ENDBRANCH   1   2
BRANCH   1  27
ATOM     27  C   UNL A   1      33.056  30.171  26.584  1.00  0.00     0.002 C 
BRANCH  27  28
ATOM     28  C   UNL A   1      31.617  30.695  26.545  1.00  0.00     0.002 C 
BRANCH  28  29
ATOM     29  C   UNL A   1      31.465  32.202  26.752  1.00  0.00     0.021 C 
BRANCH  29  30
ATOM     30  C   UNL A   1      32.691  32.888  27.343  1.00  0.00     0.116 C 
BRANCH  30  31
ATOM     31  N   UNL A   1      32.436  34.276  27.695  1.00  0.00    -0.352 N 
ATOM     32  C   UNL A   1      33.023  35.045  28.668  1.00  0.00     0.251 C 
ATOM     33  H   UNL A   1      31.743  34.727  27.160  1.00  0.00     0.163 HD
ATOM     34  O   UNL A   1      32.571  36.152  28.942  1.00  0.00    -0.269 OA
BRANCH  32  35
ATOM     35  C   UNL A   1      34.189  34.520  29.405  1.00  0.00     0.039 A 
ATOM     36  C   UNL A   1      33.981  33.895  30.636  1.00  0.00     0.014 A 
ATOM     37  C   UNL A   1      35.479  34.631  28.879  1.00  0.00     0.014 A 
ATOM     38  C   UNL A   1      35.063  33.327  31.312  1.00  0.00     0.010 A 
ATOM     39  C   UNL A   1      36.540  33.994  29.512  1.00  0.00     0.010 A 
ATOM     40  C   UNL A   1      36.344  33.340  30.737  1.00  0.00    -0.014 A 
BRANCH  40  41
ATOM     41  C   UNL A   1      37.491  32.674  31.406  1.00  0.00     0.031 A 
ATOM     42  C   UNL A   1      38.178  31.511  30.748  1.00  0.00     0.074 A 
ATOM     43  C   UNL A   1      37.871  33.079  32.633  1.00  0.00     0.049 A 
ATOM     44  N   UNL A   1      39.157  30.765  31.195  1.00  0.00    -0.248 NA
ATOM     45  C   UNL A   1      37.684  31.115  29.419  1.00  0.00     0.031 C 
ATOM     46  C   UNL A   1      37.250  34.163  33.395  1.00  0.00     0.029 A 
ATOM     47  N   UNL A   1      38.867  32.621  33.459  1.00  0.00    -0.354 N 
ATOM     48  C   UNL A   1      39.383  29.810  30.214  1.00  0.00     0.074 A 
ATOM     49  C   UNL A   1      38.404  30.031  29.173  1.00  0.00     0.031 C 
ATOM     50  C   UNL A   1      37.892  34.303  34.564  1.00  0.00     0.029 A 
ATOM     51  C   UNL A   1      38.942  33.292  34.656  1.00  0.00     0.049 A 
ATOM     52  H   UNL A   1      39.469  31.881  33.218  1.00  0.00     0.167 HD
ATOM     53  C   UNL A   1      40.337  28.849  30.176  1.00  0.00     0.037 A 
ATOM     54  C   UNL A   1      39.758  33.106  35.710  1.00  0.00     0.037 A 
ATOM     55  C   UNL A   1      41.321  28.646  31.207  1.00  0.00     0.049 A 
ATOM     56  C   UNL A   1      40.800  32.022  35.647  1.00  0.00     0.074 A 
ATOM     57  C   UNL A   1      42.367  27.742  31.234  1.00  0.00     0.029 A 
ATOM     58  N   UNL A   1      41.372  29.353  32.400  1.00  0.00    -0.354 N 
ATOM     59  N   UNL A   1      41.055  31.174  34.682  1.00  0.00    -0.248 NA
ATOM     60  C   UNL A   1      41.674  31.876  36.820  1.00  0.00     0.031 C 
ATOM     61  C   UNL A   1      43.015  27.859  32.468  1.00  0.00     0.029 A 
ATOM     62  C   UNL A   1      42.415  28.883  33.183  1.00  0.00     0.049 A 
ATOM     63  H   UNL A   1      40.759  30.080  32.653  1.00  0.00     0.167 HD
ATOM     64  C   UNL A   1      42.134  30.414  35.115  1.00  0.00     0.074 A 
ATOM     65  C   UNL A   1      42.496  30.915  36.424  1.00  0.00     0.031 C 
ATOM     66  C   UNL A   1      42.767  29.394  34.484  1.00  0.00     0.037 A 
BRANCH  53  67
ATOM     67  C   UNL A   1      40.363  27.939  28.980  1.00  0.00     0.064 A 
ATOM     68  C   UNL A   1      41.105  28.251  27.829  1.00  0.00     0.173 A 
ATOM     69  C   UNL A   1      39.668  26.720  28.999  1.00  0.00     0.173 A 
ATOM     70  F   UNL A   1      41.779  29.409  27.753  1.00  0.00    -0.203 F 
ATOM     71  C   UNL A   1      41.125  27.392  26.733  1.00  0.00     0.198 A 
ATOM     72  C   UNL A   1      39.719  25.847  27.915  1.00  0.00     0.198 A 
ATOM     73  F   UNL A   1      38.948  26.368  30.074  1.00  0.00    -0.203 F 
ATOM     74  F   UNL A   1      41.797  27.737  25.627  1.00  0.00    -0.200 F 
ATOM     75  C   UNL A   1      40.439  26.188  26.780  1.00  0.00     0.200 A 
ATOM     76  F   UNL A   1      39.069  24.677  27.968  1.00  0.00    -0.200 F 
ATOM     77  F   UNL A   1      40.468  25.357  25.729  1.00  0.00    -0.200 F 
ENDBRANCH  53  67
BRANCH  54  78
ATOM     78  C   UNL A   1      39.632  33.977  36.909  1.00  0.00     0.064 A 
ATOM     79  C   UNL A   1      38.869  33.575  38.015  1.00  0.00     0.173 A 
ATOM     80  C   UNL A   1      40.265  35.226  36.974  1.00  0.00     0.173 A 
ATOM     81  F   UNL A   1      38.228  32.398  37.994  1.00  0.00    -0.203 F 
ATOM     82  C   UNL A   1      38.726  34.400  39.129  1.00  0.00     0.198 A 
ATOM     83  C   UNL A   1      40.149  36.036  38.102  1.00  0.00     0.198 A 
ATOM     84  F   UNL A   1      41.012  35.656  35.947  1.00  0.00    -0.203 F 
ATOM     85  F   UNL A   1      37.950  34.013  40.151  1.00  0.00    -0.200 F 
ATOM     86  C   UNL A   1      39.370  35.627  39.175  1.00  0.00     0.200 A 
ATOM     87  F   UNL A   1      40.788  37.213  38.149  1.00  0.00    -0.200 F 
ATOM     88  F   UNL A   1      39.238  36.418  40.248  1.00  0.00    -0.200 F 
ENDBRANCH  54  78
BRANCH  66  89
ATOM     89  C   UNL A   1      43.945  28.776  35.182  1.00  0.00     0.064 A 
ATOM     90  C   UNL A   1      43.803  27.672  36.037  1.00  0.00     0.173 A 
ATOM     91  C   UNL A   1      45.240  29.270  34.958  1.00  0.00     0.173 A 
ATOM     92  F   UNL A   1      42.585  27.171  36.296  1.00  0.00    -0.203 F 
ATOM     93  C   UNL A   1      44.909  27.106  36.665  1.00  0.00     0.198 A 
ATOM     94  C   UNL A   1      46.347  28.678  35.560  1.00  0.00     0.198 A 
ATOM     95  F   UNL A   1      45.433  30.317  34.144  1.00  0.00    -0.203 F 
ATOM     96  F   UNL A   1      44.743  26.087  37.520  1.00  0.00    -0.200 F 
ATOM     97  C   UNL A   1      46.181  27.603  36.419  1.00  0.00     0.200 A 
ATOM     98  F   UNL A   1      47.577  29.148  35.307  1.00  0.00    -0.200 F 
ATOM     99  F   UNL A   1      47.244  27.050  37.017  1.00  0.00    -0.200 F 
ENDBRANCH  66  89
ENDBRANCH  40  41
ENDBRANCH  32  35
ENDBRANCH  30  31
ENDBRANCH  29  30
ENDBRANCH  28  29
ENDBRANCH  27  28
ENDBRANCH   1  27
TORSDOF 20
ENDMDL
MODEL 2
REMARK VINA RESULT:     -10.6      1.185      3.327
REMARK SMILES COC(=O)C[C@H](NC(=O)N(C)C[C@@H]1CCC[N@H+]1C)C(=O)NCCCCCCNC(=O)c1ccc(-c2c3nc(c(-c4c(F)c(F)c(F)c(F)c4F)c4ccc([nH]4)c(-c4c(F)c(F)c(F)c(F)c4F)c4nc(c(-c5c(F)c(F)c(F)c(F)c5F)c5ccc2[nH]5)C=C4)C=C3)cc1
REMARK SMILES IDX 23 1 22 2 21 3 19 4 20 5 6 7 5 8 3 9 4 10 2 11 1 12 7 13
REMARK SMILES IDX 8 14 9 16 10 17 11 18 12 19 13 20 14 21 17 22 15 23 16 24
REMARK SMILES IDX 18 25 24 27 25 28 26 29 27 30 28 31 29 32 30 34 31 35 32 36
REMARK SMILES IDX 93 37 33 38 92 39 34 40 35 41 36 42 86 43 37 44 91 45 85 46
REMARK SMILES IDX 87 47 38 48 90 49 84 50 83 51 39 53 71 54 51 55 70 56 52 57
REMARK SMILES IDX 55 58 69 59 88 60 53 61 54 62 68 64 89 65 56 66 40 67 41 68
REMARK SMILES IDX 49 69 42 70 43 71 47 72 50 73 44 74 45 75 48 76 46 77 72 78
REMARK SMILES IDX 73 79 81 80 74 81 75 82 79 83 82 84 76 85 77 86 80 87 78 88
REMARK SMILES IDX 57 89 58 90 66 91 59 92 60 93 64 94 67 95 61 96 62 97 65 98
REMARK SMILES IDX 63 99
REMARK H PARENT 21 6 7 15 17 26 28 33 87 52 55 63
REMARK Flexibility Score: inf
ROOT
ATOM      1  C   UNL A   1      33.187  28.915  27.372  1.00  0.00     0.021 C 
ENDROOT
BRANCH   1   2
ATOM      2  C   UNL A   1      33.075  27.569  26.664  1.00  0.00     0.116 C 
BRANCH   2   3
ATOM      3  N   UNL A   1      33.559  27.627  25.293  1.00  0.00    -0.354 N 
ATOM      4  C   UNL A   1      33.755  26.626  24.385  1.00  0.00     0.243 C 
ATOM      5  O   UNL A   1      33.971  26.947  23.215  1.00  0.00    -0.273 OA
ATOM      6  H   UNL A   1      33.780  28.530  24.969  1.00  0.00     0.163 HD
BRANCH   4   7
ATOM      7  C   UNL A   1      33.643  25.136  24.801  1.00  0.00     0.184 C 
BRANCH   7   8
ATOM      8  C   UNL A   1      35.005  24.450  24.788  1.00  0.00     0.157 C 
BRANCH   8   9
ATOM      9  C   UNL A   1      35.065  23.362  23.740  1.00  0.00     0.308 C 
ATOM     10  O   UNL A   1      34.880  23.552  22.549  1.00  0.00    -0.252 OA
BRANCH   9  11
ATOM     11  O   UNL A   1      35.309  22.161  24.326  1.00  0.00    -0.469 OA
ATOM     12  C   UNL A   1      34.163  21.364  24.633  1.00  0.00     0.282 C 
ENDBRANCH   9  11
ENDBRANCH   8   9
ENDBRANCH   7   8
BRANCH   7  13
ATOM     13  N   UNL A   1      32.575  24.571  23.958  1.00  0.00    -0.326 N 
ATOM     14  C   UNL A   1      31.240  24.526  24.067  1.00  0.00     0.318 C 
ATOM     15  H   UNL A   1      32.914  24.134  23.144  1.00  0.00     0.166 HD
ATOM     16  O   UNL A   1      30.747  23.410  23.887  1.00  0.00    -0.249 OA
BRANCH  14  17
ATOM     17  N   UNL A   1      30.489  25.640  24.303  1.00  0.00    -0.322 N 
ATOM     18  C   UNL A   1      29.968  26.067  25.588  1.00  0.00     0.149 C 
BRANCH  17  19
ATOM     19  C   UNL A   1      30.235  26.542  23.160  1.00  0.00     0.185 C 
BRANCH  19  20
ATOM     20  C   UNL A   1      29.250  27.701  23.479  1.00  0.00     0.203 C 
ATOM     21  C   UNL A   1      27.789  27.263  23.567  1.00  0.00     0.073 C 
ATOM     22  N   UNL A   1      29.128  28.757  22.448  1.00  0.00    -0.333 N 
ATOM     23  C   UNL A   1      27.009  28.574  23.443  1.00  0.00     0.068 C 
ATOM     24  C   UNL A   1      28.029  29.593  22.947  1.00  0.00     0.262 C 
ATOM     25  C   UNL A   1      30.345  29.543  22.274  1.00  0.00     0.333 C 
ATOM     26  H   UNL A   1      28.956  28.359  21.524  1.00  0.00     0.348 HD
ENDBRANCH  19  20
ENDBRANCH  17  19
ENDBRANCH  14  17
ENDBRANCH   7  13
ENDBRANCH   4   7
ENDBRANCH   2   3
ENDBRANCH   1   2
BRANCH   1  27
ATOM     27  C   UNL A   1      33.099  30.123  26.434  1.00  0.00     0.002 C 
BRANCH  27  28
ATOM     28  C   UNL A   1      31.683  30.653  26.187  1.00  0.00     0.002 C 
BRANCH  28  29
ATOM     29  C   UNL A   1      31.429  32.083  26.666  1.00  0.00     0.021 C 
BRANCH  29  30
ATOM     30  C   UNL A   1      32.635  32.763  27.302  1.00  0.00     0.116 C 
BRANCH  30  31
ATOM     31  N   UNL A   1      32.379  34.157  27.628  1.00  0.00    -0.352 N 
ATOM     32  C   UNL A   1      32.969  34.946  28.583  1.00  0.00     0.251 C 
ATOM     33  H   UNL A   1      31.683  34.597  27.087  1.00  0.00     0.163 HD
ATOM     34  O   UNL A   1      32.516  36.057  28.838  1.00  0.00    -0.269 OA
BRANCH  32  35
ATOM     35  C   UNL A   1      34.139  34.436  29.326  1.00  0.00     0.039 A 
ATOM     36  C   UNL A   1      33.936  33.823  30.563  1.00  0.00     0.014 A 
ATOM     37  C   UNL A   1      35.428  34.552  28.798  1.00  0.00     0.014 A 
ATOM     38  C   UNL A   1      35.022  33.269  31.244  1.00  0.00     0.010 A 
ATOM     39  C   UNL A   1      36.494  33.929  29.437  1.00  0.00     0.010 A 
ATOM     40  C   UNL A   1      36.303  33.286  30.669  1.00  0.00    -0.014 A 
BRANCH  40  41
ATOM     41  C   UNL A   1      37.454  32.635  31.344  1.00  0.00     0.031 A 
ATOM     42  C   UNL A   1      38.161  31.482  30.689  1.00  0.00     0.074 A 
ATOM     43  C   UNL A   1      37.823  33.045  32.573  1.00  0.00     0.049 A 
ATOM     44  N   UNL A   1      39.147  30.749  31.143  1.00  0.00    -0.248 NA
ATOM     45  C   UNL A   1      37.680  31.080  29.358  1.00  0.00     0.031 C 
ATOM     46  C   UNL A   1      37.183  34.121  33.332  1.00  0.00     0.029 A 
ATOM     47  N   UNL A   1      38.820  32.600  33.405  1.00  0.00    -0.354 N 
ATOM     48  C   UNL A   1      39.392  29.797  30.163  1.00  0.00     0.074 A 
ATOM     49  C   UNL A   1      38.416  30.005  29.116  1.00  0.00     0.031 C 
ATOM     50  C   UNL A   1      37.817  34.269  34.505  1.00  0.00     0.029 A 
ATOM     51  C   UNL A   1      38.879  33.272  34.602  1.00  0.00     0.049 A 
ATOM     52  H   UNL A   1      39.433  31.869  33.168  1.00  0.00     0.167 HD
ATOM     53  C   UNL A   1      40.358  28.849  30.129  1.00  0.00     0.037 A 
ATOM     54  C   UNL A   1      39.691  33.097  35.661  1.00  0.00     0.037 A 
ATOM     55  C   UNL A   1      41.339  28.659  31.166  1.00  0.00     0.049 A 
ATOM     56  C   UNL A   1      40.748  32.027  35.604  1.00  0.00     0.074 A 
ATOM     57  C   UNL A   1      42.398  27.768  31.199  1.00  0.00     0.029 A 
ATOM     58  N   UNL A   1      41.375  29.366  32.360  1.00  0.00    -0.354 N 
ATOM     59  N   UNL A   1      41.020  31.182  34.640  1.00  0.00    -0.248 NA
ATOM     60  C   UNL A   1      41.617  31.892  36.781  1.00  0.00     0.031 C 
ATOM     61  C   UNL A   1      43.036  27.894  32.436  1.00  0.00     0.029 A 
ATOM     62  C   UNL A   1      42.419  28.910  33.149  1.00  0.00     0.049 A 
ATOM     63  H   UNL A   1      40.750  30.085  32.610  1.00  0.00     0.167 HD
ATOM     64  C   UNL A   1      42.107  30.437  35.079  1.00  0.00     0.074 A 
ATOM     65  C   UNL A   1      42.454  30.942  36.390  1.00  0.00     0.031 C 
ATOM     66  C   UNL A   1      42.757  29.426  34.451  1.00  0.00     0.037 A 
BRANCH  53  67
ATOM     67  C   UNL A   1      40.403  27.940  28.933  1.00  0.00     0.064 A 
ATOM     68  C   UNL A   1      39.695  26.728  28.899  1.00  0.00     0.173 A 
ATOM     69  C   UNL A   1      41.133  28.303  27.792  1.00  0.00     0.173 A 
ATOM     70  F   UNL A   1      38.989  26.327  29.967  1.00  0.00    -0.203 F 
ATOM     71  C   UNL A   1      39.740  25.902  27.779  1.00  0.00     0.198 A 
ATOM     72  C   UNL A   1      41.148  27.491  26.660  1.00  0.00     0.198 A 
ATOM     73  F   UNL A   1      41.824  29.452  27.767  1.00  0.00    -0.203 F 
ATOM     74  F   UNL A   1      39.099  24.726  27.790  1.00  0.00    -0.200 F 
ATOM     75  C   UNL A   1      40.460  26.288  26.658  1.00  0.00     0.200 A 
ATOM     76  F   UNL A   1      41.830  27.874  25.572  1.00  0.00    -0.200 F 
ATOM     77  F   UNL A   1      40.495  25.497  25.576  1.00  0.00    -0.200 F 
ENDBRANCH  53  67
BRANCH  54  78
ATOM     78  C   UNL A   1      39.547  33.965  36.859  1.00  0.00     0.064 A 
ATOM     79  C   UNL A   1      38.792  33.549  37.966  1.00  0.00     0.173 A 
ATOM     80  C   UNL A   1      40.154  35.228  36.924  1.00  0.00     0.173 A 
ATOM     81  F   UNL A   1      38.176  32.358  37.945  1.00  0.00    -0.203 F 
ATOM     82  C   UNL A   1      38.632  34.371  39.079  1.00  0.00     0.198 A 
ATOM     83  C   UNL A   1      40.021  36.036  38.052  1.00  0.00     0.198 A 
ATOM     84  F   UNL A   1      40.892  35.673  35.896  1.00  0.00    -0.203 F 
ATOM     85  F   UNL A   1      37.864  33.969  40.101  1.00  0.00    -0.200 F 
ATOM     86  C   UNL A   1      39.251  35.611  39.124  1.00  0.00     0.200 A 
ATOM     87  F   UNL A   1      40.635  37.225  38.098  1.00  0.00    -0.200 F 
ATOM     88  F   UNL A   1      39.101  36.400  40.197  1.00  0.00    -0.200 F 
ENDBRANCH  54  78
BRANCH  66  89
ATOM     89  C   UNL A   1      43.939  28.823  35.156  1.00  0.00     0.064 A 
ATOM     90  C   UNL A   1      43.806  27.719  36.013  1.00  0.00     0.173 A 
ATOM     91  C   UNL A   1      45.229  29.332  34.937  1.00  0.00     0.173 A 
ATOM     92  F   UNL A   1      42.594  27.204  36.267  1.00  0.00    -0.203 F 
ATOM     93  C   UNL A   1      44.917  27.168  36.647  1.00  0.00     0.198 A 
ATOM     94  C   UNL A   1      46.340  28.754  35.544  1.00  0.00     0.198 A 
ATOM     95  F   UNL A   1      45.413  30.380  34.121  1.00  0.00    -0.203 F 
ATOM     96  F   UNL A   1      44.759  26.149  37.503  1.00  0.00    -0.200 F 
ATOM     97  C   UNL A   1      46.183  27.679  36.406  1.00  0.00     0.200 A 
ATOM     98  F   UNL A   1      47.565  29.239  35.296  1.00  0.00    -0.200 F 
ATOM     99  F   UNL A   1      47.250  27.141  37.009  1.00  0.00    -0.200 F 
ENDBRANCH  66  89
ENDBRANCH  40  41
ENDBRANCH  32  35
ENDBRANCH  30  31
ENDBRANCH  29  30
ENDBRANCH  28  29
ENDBRANCH  27  28
ENDBRANCH   1  27
TORSDOF 20
ENDMDL
MODEL 3
REMARK VINA RESULT:     -10.5      1.417      7.476
REMARK SMILES COC(=O)C[C@H](NC(=O)N(C)C[C@@H]1CCC[N@H+]1C)C(=O)NCCCCCCNC(=O)c1ccc(-c2c3nc(c(-c4c(F)c(F)c(F)c(F)c4F)c4ccc([nH]4)c(-c4c(F)c(F)c(F)c(F)c4F)c4nc(c(-c5c(F)c(F)c(F)c(F)c5F)c5ccc2[nH]5)C=C4)C=C3)cc1
REMARK SMILES IDX 23 1 22 2 21 3 19 4 20 5 6 7 5 8 3 9 4 10 2 11 1 12 7 13
REMARK SMILES IDX 8 14 9 16 10 17 11 18 12 19 13 20 14 21 17 22 15 23 16 24
REMARK SMILES IDX 18 25 24 27 25 28 26 29 27 30 28 31 29 32 30 34 31 35 32 36
REMARK SMILES IDX 93 37 33 38 92 39 34 40 35 41 36 42 86 43 37 44 91 45 85 46
REMARK SMILES IDX 87 47 38 48 90 49 84 50 83 51 39 53 71 54 51 55 70 56 52 57
REMARK SMILES IDX 55 58 69 59 88 60 53 61 54 62 68 64 89 65 56 66 40 67 41 68
REMARK SMILES IDX 49 69 42 70 43 71 47 72 50 73 44 74 45 75 48 76 46 77 72 78
REMARK SMILES IDX 73 79 81 80 74 81 75 82 79 83 82 84 76 85 77 86 80 87 78 88
REMARK SMILES IDX 57 89 58 90 66 91 59 92 60 93 64 94 67 95 61 96 62 97 65 98
REMARK SMILES IDX 63 99
REMARK H PARENT 21 6 7 15 17 26 28 33 87 52 55 63
REMARK Flexibility Score: inf
ROOT
ATOM      1  C   UNL A   1      32.713  28.499  27.244  1.00  0.00     0.021 C 
ENDROOT
BRANCH   1   2
ATOM      2  C   UNL A   1      31.789  27.895  26.193  1.00  0.00     0.116 C 
BRANCH   2   3
ATOM      3  N   UNL A   1      31.020  26.776  26.715  1.00  0.00    -0.354 N 
ATOM      4  C   UNL A   1      30.625  25.618  26.107  1.00  0.00     0.243 C 
ATOM      5  O   UNL A   1      30.162  24.725  26.820  1.00  0.00    -0.273 OA
ATOM      6  H   UNL A   1      30.739  26.868  27.655  1.00  0.00     0.163 HD
BRANCH   4   7
ATOM      7  C   UNL A   1      30.815  25.411  24.582  1.00  0.00     0.184 C 
BRANCH   7   8
ATOM      8  C   UNL A   1      29.938  26.363  23.776  1.00  0.00     0.157 C 
BRANCH   8   9
ATOM      9  C   UNL A   1      30.746  27.126  22.753  1.00  0.00     0.308 C 
ATOM     10  O   UNL A   1      30.284  27.991  22.026  1.00  0.00    -0.252 OA
BRANCH   9  11
ATOM     11  O   UNL A   1      32.028  26.677  22.738  1.00  0.00    -0.469 OA
ATOM     12  C   UNL A   1      33.020  27.613  22.309  1.00  0.00     0.282 C 
ENDBRANCH   9  11
ENDBRANCH   8   9
ENDBRANCH   7   8
BRANCH   7  13
ATOM     13  N   UNL A   1      30.652  23.964  24.358  1.00  0.00    -0.326 N 
ATOM     14  C   UNL A   1      31.509  22.970  24.085  1.00  0.00     0.318 C 
ATOM     15  H   UNL A   1      29.717  23.664  24.421  1.00  0.00     0.166 HD
ATOM     16  O   UNL A   1      31.177  22.249  23.142  1.00  0.00    -0.249 OA
BRANCH  14  17
ATOM     17  N   UNL A   1      32.629  22.746  24.831  1.00  0.00    -0.322 N 
ATOM     18  C   UNL A   1      32.665  22.367  26.232  1.00  0.00     0.149 C 
BRANCH  17  19
ATOM     19  C   UNL A   1      33.933  22.825  24.140  1.00  0.00     0.185 C 
BRANCH  19  20
ATOM     20  C   UNL A   1      35.156  22.811  25.098  1.00  0.00     0.203 C 
ATOM     21  C   UNL A   1      36.005  24.081  25.034  1.00  0.00     0.073 C 
ATOM     22  N   UNL A   1      36.202  21.803  24.807  1.00  0.00    -0.333 N 
ATOM     23  C   UNL A   1      37.326  23.667  25.688  1.00  0.00     0.068 C 
ATOM     24  C   UNL A   1      37.274  22.145  25.752  1.00  0.00     0.262 C 
ATOM     25  C   UNL A   1      35.753  20.428  25.003  1.00  0.00     0.333 C 
ATOM     26  H   UNL A   1      36.489  21.833  23.829  1.00  0.00     0.348 HD
ENDBRANCH  19  20
ENDBRANCH  17  19
ENDBRANCH  14  17
ENDBRANCH   7  13
ENDBRANCH   4   7
ENDBRANCH   2   3
ENDBRANCH   1   2
BRANCH   1  27
ATOM     27  C   UNL A   1      32.740  30.031  27.245  1.00  0.00     0.002 C 
BRANCH  27  28
ATOM     28  C   UNL A   1      31.579  30.702  26.505  1.00  0.00     0.002 C 
BRANCH  28  29
ATOM     29  C   UNL A   1      31.427  32.204  26.753  1.00  0.00     0.021 C 
BRANCH  29  30
ATOM     30  C   UNL A   1      32.743  32.962  26.880  1.00  0.00     0.116 C 
BRANCH  30  31
ATOM     31  N   UNL A   1      32.599  34.202  27.624  1.00  0.00    -0.352 N 
ATOM     32  C   UNL A   1      33.264  34.619  28.750  1.00  0.00     0.251 C 
ATOM     33  H   UNL A   1      31.931  34.833  27.271  1.00  0.00     0.163 HD
ATOM     34  O   UNL A   1      32.902  35.627  29.349  1.00  0.00    -0.269 OA
BRANCH  32  35
ATOM     35  C   UNL A   1      34.404  33.828  29.256  1.00  0.00     0.039 A 
ATOM     36  C   UNL A   1      35.701  34.237  28.937  1.00  0.00     0.014 A 
ATOM     37  C   UNL A   1      34.196  32.698  30.052  1.00  0.00     0.014 A 
ATOM     38  C   UNL A   1      36.791  33.545  29.467  1.00  0.00     0.010 A 
ATOM     39  C   UNL A   1      35.280  32.062  30.644  1.00  0.00     0.010 A 
ATOM     40  C   UNL A   1      36.589  32.475  30.354  1.00  0.00    -0.014 A 
BRANCH  40  41
ATOM     41  C   UNL A   1      37.737  31.778  30.987  1.00  0.00     0.031 A 
ATOM     42  C   UNL A   1      38.178  32.153  32.373  1.00  0.00     0.074 A 
ATOM     43  C   UNL A   1      38.417  30.849  30.288  1.00  0.00     0.049 A 
ATOM     44  N   UNL A   1      39.189  31.701  33.072  1.00  0.00    -0.248 NA
ATOM     45  C   UNL A   1      37.397  33.195  33.058  1.00  0.00     0.031 C 
ATOM     46  C   UNL A   1      38.116  30.434  28.917  1.00  0.00     0.029 A 
ATOM     47  N   UNL A   1      39.509  30.091  30.631  1.00  0.00    -0.354 N 
ATOM     48  C   UNL A   1      39.171  32.410  34.265  1.00  0.00     0.074 A 
ATOM     49  C   UNL A   1      38.088  33.363  34.175  1.00  0.00     0.031 C 
ATOM     50  C   UNL A   1      38.983  29.481  28.544  1.00  0.00     0.029 A 
ATOM     51  C   UNL A   1      39.930  29.248  29.631  1.00  0.00     0.049 A 
ATOM     52  H   UNL A   1      39.950  30.147  31.509  1.00  0.00     0.167 HD
ATOM     53  C   UNL A   1      39.973  32.262  35.346  1.00  0.00     0.037 A 
ATOM     54  C   UNL A   1      40.968  28.392  29.592  1.00  0.00     0.037 A 
ATOM     55  C   UNL A   1      41.039  31.298  35.437  1.00  0.00     0.049 A 
ATOM     56  C   UNL A   1      41.853  28.257  30.802  1.00  0.00     0.074 A 
ATOM     57  C   UNL A   1      41.867  31.027  36.511  1.00  0.00     0.029 A 
ATOM     58  N   UNL A   1      41.429  30.453  34.407  1.00  0.00    -0.354 N 
ATOM     59  N   UNL A   1      41.780  28.878  31.954  1.00  0.00    -0.248 NA
ATOM     60  C   UNL A   1      42.959  27.295  30.709  1.00  0.00     0.031 C 
ATOM     61  C   UNL A   1      42.798  30.063  36.112  1.00  0.00     0.029 A 
ATOM     62  C   UNL A   1      42.507  29.682  34.812  1.00  0.00     0.049 A 
ATOM     63  H   UNL A   1      41.004  30.408  33.521  1.00  0.00     0.167 HD
ATOM     64  C   UNL A   1      42.809  28.364  32.732  1.00  0.00     0.074 A 
ATOM     65  C   UNL A   1      43.480  27.366  31.926  1.00  0.00     0.031 C 
ATOM     66  C   UNL A   1      43.163  28.689  34.000  1.00  0.00     0.037 A 
BRANCH  53  67
ATOM     67  C   UNL A   1      39.732  33.167  36.522  1.00  0.00     0.064 A 
ATOM     68  C   UNL A   1      40.404  34.392  36.663  1.00  0.00     0.173 A 
ATOM     69  C   UNL A   1      38.789  32.823  37.502  1.00  0.00     0.173 A 
ATOM     70  F   UNL A   1      41.324  34.766  35.760  1.00  0.00    -0.203 F 
ATOM     71  C   UNL A   1      40.162  35.223  37.754  1.00  0.00     0.198 A 
ATOM     72  C   UNL A   1      38.524  33.672  38.573  1.00  0.00     0.198 A 
ATOM     73  F   UNL A   1      38.114  31.667  37.415  1.00  0.00    -0.203 F 
ATOM     74  F   UNL A   1      40.853  36.361  37.893  1.00  0.00    -0.200 F 
ATOM     75  C   UNL A   1      39.216  34.866  38.704  1.00  0.00     0.200 A 
ATOM     76  F   UNL A   1      37.598  33.334  39.481  1.00  0.00    -0.200 F 
ATOM     77  F   UNL A   1      38.976  35.671  39.748  1.00  0.00    -0.200 F 
ENDBRANCH  53  67
BRANCH  54  78
ATOM     78  C   UNL A   1      41.218  27.583  28.369  1.00  0.00     0.064 A 
ATOM     79  C   UNL A   1      42.067  28.052  27.356  1.00  0.00     0.173 A 
ATOM     80  C   UNL A   1      40.614  26.331  28.185  1.00  0.00     0.173 A 
ATOM     81  F   UNL A   1      42.653  29.251  27.475  1.00  0.00    -0.203 F 
ATOM     82  C   UNL A   1      42.282  27.309  26.196  1.00  0.00     0.198 A 
ATOM     83  C   UNL A   1      40.856  25.575  27.040  1.00  0.00     0.198 A 
ATOM     84  F   UNL A   1      39.798  25.833  29.126  1.00  0.00    -0.203 F 
ATOM     85  F   UNL A   1      43.058  27.803  25.221  1.00  0.00    -0.200 F 
ATOM     86  C   UNL A   1      41.682  26.069  26.041  1.00  0.00     0.200 A 
ATOM     87  F   UNL A   1      40.288  24.369  26.903  1.00  0.00    -0.200 F 
ATOM     88  F   UNL A   1      41.893  25.353  24.929  1.00  0.00    -0.200 F 
ENDBRANCH  54  78
BRANCH  66  89
ATOM     89  C   UNL A   1      44.307  27.930  34.612  1.00  0.00     0.064 A 
ATOM     90  C   UNL A   1      45.623  28.414  34.569  1.00  0.00     0.173 A 
ATOM     91  C   UNL A   1      44.074  26.722  35.288  1.00  0.00     0.173 A 
ATOM     92  F   UNL A   1      45.902  29.556  33.923  1.00  0.00    -0.203 F 
ATOM     93  C   UNL A   1      46.667  27.700  35.154  1.00  0.00     0.198 A 
ATOM     94  C   UNL A   1      45.114  26.032  35.903  1.00  0.00     0.198 A 
ATOM     95  F   UNL A   1      42.833  26.219  35.367  1.00  0.00    -0.203 F 
ATOM     96  F   UNL A   1      47.924  28.154  35.053  1.00  0.00    -0.200 F 
ATOM     97  C   UNL A   1      46.411  26.516  35.828  1.00  0.00     0.200 A 
ATOM     98  F   UNL A   1      44.862  24.895  36.568  1.00  0.00    -0.200 F 
ATOM     99  F   UNL A   1      47.415  25.837  36.398  1.00  0.00    -0.200 F 
ENDBRANCH  66  89
ENDBRANCH  40  41
ENDBRANCH  32  35
ENDBRANCH  30  31
ENDBRANCH  29  30
ENDBRANCH  28  29
ENDBRANCH  27  28
ENDBRANCH   1  27
TORSDOF 20
ENDMDL
