MODEL 1
REMARK VINA RESULT:     -10.7      0.000      0.000
REMARK SMILES COCCCC(=O)N[C@H]1CC[C@@H](C(=O)NCCCCCCNC(=O)c2ccc(-c3c4nc(c(-c5c(F)c(F)c(F)c(F)c5F)c5ccc([nH]5)c(-c5c(F)c(F)c(F)c(F)c5F)c5nc(c(-c6c(F)c(F)c(F)c(F)c6F)c6ccc3[nH]6)C=C5)C=C4)cc2)CC1
REMARK SMILES IDX 17 1 16 2 15 3 13 4 14 5 12 7 9 8 10 9 89 10 11 11 88 12
REMARK SMILES IDX 8 13 6 14 7 15 5 17 4 18 3 19 2 20 1 21 18 22 19 23 20 24
REMARK SMILES IDX 21 25 22 26 23 27 24 29 25 30 26 31 87 32 27 33 86 34 28 35
REMARK SMILES IDX 29 36 30 37 80 38 31 39 85 40 79 41 81 42 32 43 84 44 78 45
REMARK SMILES IDX 77 46 33 48 65 49 45 50 64 51 46 52 49 53 63 54 82 55 47 56
REMARK SMILES IDX 48 57 62 59 83 60 50 61 34 62 35 63 43 64 36 65 37 66 41 67
REMARK SMILES IDX 44 68 38 69 39 70 42 71 40 72 66 73 67 74 75 75 68 76 69 77
REMARK SMILES IDX 73 78 76 79 70 80 71 81 74 82 72 83 51 84 52 85 60 86 53 87
REMARK SMILES IDX 54 88 58 89 61 90 55 91 56 92 59 93 57 94
REMARK H PARENT 15 6 8 16 22 28 81 47 49 58
REMARK Flexibility Score: inf
ROOT
ATOM      1  C   UNL A   1      34.650  32.545  29.135  1.00  0.00     0.021 C 
ENDROOT
BRANCH   1   2
ATOM      2  C   UNL A   1      34.697  31.394  28.132  1.00  0.00     0.116 C 
BRANCH   2   3
ATOM      3  N   UNL A   1      33.580  31.349  27.222  1.00  0.00    -0.356 N 
ATOM      4  C   UNL A   1      32.701  30.369  26.902  1.00  0.00     0.223 C 
ATOM      5  O   UNL A   1      31.677  30.740  26.314  1.00  0.00    -0.275 OA
ATOM      6  H   UNL A   1      33.426  32.194  26.740  1.00  0.00     0.163 HD
BRANCH   4   7
ATOM      7  C   UNL A   1      32.898  28.870  27.180  1.00  0.00     0.078 C 
ATOM      8  C   UNL A   1      32.295  26.803  25.101  1.00  0.00     0.082 C 
ATOM      9  C   UNL A   1      33.663  27.509  25.125  1.00  0.00     0.026 C 
ATOM     10  C   UNL A   1      31.168  27.441  25.925  1.00  0.00     0.026 C 
ATOM     11  C   UNL A   1      34.031  28.157  26.447  1.00  0.00     0.015 C 
ATOM     12  C   UNL A   1      31.617  28.041  27.247  1.00  0.00     0.015 C 
BRANCH   8  13
ATOM     13  N   UNL A   1      31.888  26.645  23.707  1.00  0.00    -0.353 N 
ATOM     14  C   UNL A   1      31.336  27.455  22.779  1.00  0.00     0.220 C 
ATOM     15  O   UNL A   1      31.007  26.909  21.719  1.00  0.00    -0.275 OA
ATOM     16  H   UNL A   1      32.055  25.737  23.366  1.00  0.00     0.163 HD
BRANCH  14  17
ATOM     17  C   UNL A   1      31.224  28.959  22.928  1.00  0.00     0.102 C 
BRANCH  17  18
ATOM     18  C   UNL A   1      29.963  29.682  22.459  1.00  0.00     0.038 C 
BRANCH  18  19
ATOM     19  C   UNL A   1      29.100  30.490  23.426  1.00  0.00     0.160 C 
BRANCH  19  20
ATOM     20  O   UNL A   1      28.135  31.417  22.946  1.00  0.00    -0.385 OA
ATOM     21  C   UNL A   1      28.397  32.201  21.802  1.00  0.00     0.194 C 
ENDBRANCH  19  20
ENDBRANCH  18  19
ENDBRANCH  17  18
ENDBRANCH  14  17
ENDBRANCH   8  13
ENDBRANCH   4   7
ENDBRANCH   2   3
ENDBRANCH   1   2
BRANCH   1  22
ATOM     22  C   UNL A   1      35.551  33.721  28.760  1.00  0.00     0.002 C 
BRANCH  22  23
ATOM     23  C   UNL A   1      34.863  34.862  27.998  1.00  0.00     0.002 C 
BRANCH  23  24
ATOM     24  C   UNL A   1      34.055  35.849  28.845  1.00  0.00     0.021 C 
BRANCH  24  25
ATOM     25  C   UNL A   1      32.848  35.251  29.559  1.00  0.00     0.116 C 
BRANCH  25  26
ATOM     26  N   UNL A   1      32.402  36.091  30.661  1.00  0.00    -0.352 N 
ATOM     27  C   UNL A   1      32.723  36.030  31.993  1.00  0.00     0.251 C 
ATOM     28  H   UNL A   1      31.779  36.811  30.413  1.00  0.00     0.163 HD
ATOM     29  O   UNL A   1      32.069  36.658  32.817  1.00  0.00    -0.269 OA
BRANCH  27  30
ATOM     30  C   UNL A   1      33.866  35.205  32.430  1.00  0.00     0.039 A 
ATOM     31  C   UNL A   1      33.631  33.920  32.925  1.00  0.00     0.014 A 
ATOM     32  C   UNL A   1      35.165  35.713  32.368  1.00  0.00     0.014 A 
ATOM     33  C   UNL A   1      34.710  33.122  33.311  1.00  0.00     0.010 A 
ATOM     34  C   UNL A   1      36.242  34.893  32.684  1.00  0.00     0.010 A 
ATOM     35  C   UNL A   1      36.025  33.593  33.167  1.00  0.00    -0.014 A 
BRANCH  35  36
ATOM     36  C   UNL A   1      37.196  32.759  33.532  1.00  0.00     0.031 A 
ATOM     37  C   UNL A   1      37.940  33.044  34.809  1.00  0.00     0.074 A 
ATOM     38  C   UNL A   1      37.642  31.817  32.679  1.00  0.00     0.049 A 
ATOM     39  N   UNL A   1      39.064  32.534  35.244  1.00  0.00    -0.248 NA
ATOM     40  C   UNL A   1      37.358  34.060  35.702  1.00  0.00     0.031 C 
ATOM     41  C   UNL A   1      37.027  31.478  31.395  1.00  0.00     0.029 A 
ATOM     42  N   UNL A   1      38.732  30.985  32.753  1.00  0.00    -0.354 N 
ATOM     43  C   UNL A   1      39.336  33.188  36.440  1.00  0.00     0.074 A 
ATOM     44  C   UNL A   1      38.282  34.156  36.646  1.00  0.00     0.031 C 
ATOM     45  C   UNL A   1      37.745  30.508  30.805  1.00  0.00     0.029 A 
ATOM     46  C   UNL A   1      38.896  30.191  31.644  1.00  0.00     0.049 A 
ATOM     47  H   UNL A   1      39.340  30.960  33.528  1.00  0.00     0.167 HD
ATOM     48  C   UNL A   1      40.364  32.983  37.293  1.00  0.00     0.037 A 
ATOM     49  C   UNL A   1      39.879  29.325  31.329  1.00  0.00     0.037 A 
ATOM     50  C   UNL A   1      41.384  31.986  37.103  1.00  0.00     0.049 A 
ATOM     51  C   UNL A   1      41.014  29.124  32.301  1.00  0.00     0.074 A 
ATOM     52  C   UNL A   1      42.423  31.645  37.950  1.00  0.00     0.029 A 
ATOM     53  N   UNL A   1      41.492  31.172  35.985  1.00  0.00    -0.354 N 
ATOM     54  N   UNL A   1      41.218  29.690  33.466  1.00  0.00    -0.248 NA
ATOM     55  C   UNL A   1      42.054  28.158  31.919  1.00  0.00     0.031 C 
ATOM     56  C   UNL A   1      43.196  30.668  37.320  1.00  0.00     0.029 A 
ATOM     57  C   UNL A   1      42.600  30.349  36.111  1.00  0.00     0.049 A 
ATOM     58  H   UNL A   1      40.876  31.177  35.219  1.00  0.00     0.167 HD
ATOM     59  C   UNL A   1      42.380  29.120  33.971  1.00  0.00     0.074 A 
ATOM     60  C   UNL A   1      42.832  28.157  32.991  1.00  0.00     0.031 C 
ATOM     61  C   UNL A   1      43.015  29.371  35.140  1.00  0.00     0.037 A 
BRANCH  48  62
ATOM     62  C   UNL A   1      40.453  33.843  38.520  1.00  0.00     0.064 A 
ATOM     63  C   UNL A   1      39.787  33.507  39.708  1.00  0.00     0.173 A 
ATOM     64  C   UNL A   1      41.289  34.971  38.531  1.00  0.00     0.173 A 
ATOM     65  F   UNL A   1      38.969  32.445  39.747  1.00  0.00    -0.203 F 
ATOM     66  C   UNL A   1      39.947  34.275  40.859  1.00  0.00     0.198 A 
ATOM     67  C   UNL A   1      41.469  35.718  39.692  1.00  0.00     0.198 A 
ATOM     68  F   UNL A   1      41.951  35.333  37.423  1.00  0.00    -0.203 F 
ATOM     69  F   UNL A   1      39.279  33.952  41.974  1.00  0.00    -0.200 F 
ATOM     70  C   UNL A   1      40.797  35.371  40.853  1.00  0.00     0.200 A 
ATOM     71  F   UNL A   1      42.304  36.767  39.689  1.00  0.00    -0.200 F 
ATOM     72  F   UNL A   1      40.969  36.094  41.968  1.00  0.00    -0.200 F 
ENDBRANCH  48  62
BRANCH  49  73
ATOM     73  C   UNL A   1      39.853  28.585  30.037  1.00  0.00     0.064 A 
ATOM     74  C   UNL A   1      39.293  27.302  29.952  1.00  0.00     0.173 A 
ATOM     75  C   UNL A   1      40.435  29.119  28.879  1.00  0.00     0.173 A 
ATOM     76  F   UNL A   1      38.741  26.739  31.037  1.00  0.00    -0.203 F 
ATOM     77  C   UNL A   1      39.355  26.565  28.771  1.00  0.00     0.198 A 
ATOM     78  C   UNL A   1      40.465  28.395  27.687  1.00  0.00     0.198 A 
ATOM     79  F   UNL A   1      40.983  30.343  28.902  1.00  0.00    -0.203 F 
ATOM     80  F   UNL A   1      38.880  25.313  28.740  1.00  0.00    -0.200 F 
ATOM     81  C   UNL A   1      39.940  27.113  27.639  1.00  0.00     0.200 A 
ATOM     82  F   UNL A   1      41.017  28.934  26.591  1.00  0.00    -0.200 F 
ATOM     83  F   UNL A   1      40.010  26.399  26.507  1.00  0.00    -0.200 F 
ENDBRANCH  49  73
BRANCH  61  84
ATOM     84  C   UNL A   1      44.229  28.550  35.464  1.00  0.00     0.064 A 
ATOM     85  C   UNL A   1      45.517  28.944  35.075  1.00  0.00     0.173 A 
ATOM     86  C   UNL A   1      44.102  27.385  36.237  1.00  0.00     0.173 A 
ATOM     87  F   UNL A   1      45.690  30.043  34.325  1.00  0.00    -0.203 F 
ATOM     88  C   UNL A   1      46.632  28.190  35.430  1.00  0.00     0.198 A 
ATOM     89  C   UNL A   1      45.223  26.653  36.619  1.00  0.00     0.198 A 
ATOM     90  F   UNL A   1      42.893  26.970  36.643  1.00  0.00    -0.203 F 
ATOM     91  F   UNL A   1      47.850  28.561  35.011  1.00  0.00    -0.200 F 
ATOM     92  C   UNL A   1      46.485  27.053  36.211  1.00  0.00     0.200 A 
ATOM     93  F   UNL A   1      45.080  25.566  37.390  1.00  0.00    -0.200 F 
ATOM     94  F   UNL A   1      47.562  26.339  36.567  1.00  0.00    -0.200 F 
ENDBRANCH  61  84
ENDBRANCH  35  36
ENDBRANCH  27  30
ENDBRANCH  25  26
ENDBRANCH  24  25
ENDBRANCH  23  24
ENDBRANCH  22  23
ENDBRANCH   1  22
TORSDOF 18
ENDMDL
MODEL 2
REMARK VINA RESULT:     -10.5      6.867     11.601
REMARK SMILES COCCCC(=O)N[C@H]1CC[C@@H](C(=O)NCCCCCCNC(=O)c2ccc(-c3c4nc(c(-c5c(F)c(F)c(F)c(F)c5F)c5ccc([nH]5)c(-c5c(F)c(F)c(F)c(F)c5F)c5nc(c(-c6c(F)c(F)c(F)c(F)c6F)c6ccc3[nH]6)C=C5)C=C4)cc2)CC1
REMARK SMILES IDX 17 1 16 2 15 3 13 4 14 5 12 7 9 8 10 9 89 10 11 11 88 12
REMARK SMILES IDX 8 13 6 14 7 15 5 17 4 18 3 19 2 20 1 21 18 22 19 23 20 24
REMARK SMILES IDX 21 25 22 26 23 27 24 29 25 30 26 31 87 32 27 33 86 34 28 35
REMARK SMILES IDX 29 36 30 37 80 38 31 39 85 40 79 41 81 42 32 43 84 44 78 45
REMARK SMILES IDX 77 46 33 48 65 49 45 50 64 51 46 52 49 53 63 54 82 55 47 56
REMARK SMILES IDX 48 57 62 59 83 60 50 61 34 62 35 63 43 64 36 65 37 66 41 67
REMARK SMILES IDX 44 68 38 69 39 70 42 71 40 72 66 73 67 74 75 75 68 76 69 77
REMARK SMILES IDX 73 78 76 79 70 80 71 81 74 82 72 83 51 84 52 85 60 86 53 87
REMARK SMILES IDX 54 88 58 89 61 90 55 91 56 92 59 93 57 94
REMARK H PARENT 15 6 8 16 22 28 81 47 49 58
REMARK Flexibility Score: inf
ROOT
ATOM      1  C   UNL A   1      36.235  22.823  26.048  1.00  0.00     0.021 C 
ENDROOT
BRANCH   1   2
ATOM      2  C   UNL A   1      34.834  23.382  25.811  1.00  0.00     0.116 C 
BRANCH   2   3
ATOM      3  N   UNL A   1      34.807  24.679  25.183  1.00  0.00    -0.356 N 
ATOM      4  C   UNL A   1      33.931  25.264  24.330  1.00  0.00     0.223 C 
ATOM      5  O   UNL A   1      34.035  26.492  24.216  1.00  0.00    -0.275 OA
ATOM      6  H   UNL A   1      35.574  25.251  25.419  1.00  0.00     0.163 HD
BRANCH   4   7
ATOM      7  C   UNL A   1      32.872  24.526  23.496  1.00  0.00     0.078 C 
ATOM      8  C   UNL A   1      32.155  21.674  24.049  1.00  0.00     0.082 C 
ATOM      9  C   UNL A   1      31.481  22.814  24.835  1.00  0.00     0.026 C 
ATOM     10  C   UNL A   1      33.425  22.026  23.264  1.00  0.00     0.026 C 
ATOM     11  C   UNL A   1      31.551  24.180  24.176  1.00  0.00     0.015 C 
ATOM     12  C   UNL A   1      33.401  23.399  22.613  1.00  0.00     0.015 C 
BRANCH   8  13
ATOM     13  N   UNL A   1      32.410  20.573  24.975  1.00  0.00    -0.353 N 
ATOM     14  C   UNL A   1      32.477  19.229  24.859  1.00  0.00     0.220 C 
ATOM     15  O   UNL A   1      32.586  18.605  25.921  1.00  0.00    -0.275 OA
ATOM     16  H   UNL A   1      32.568  20.882  25.895  1.00  0.00     0.163 HD
BRANCH  14  17
ATOM     17  C   UNL A   1      32.549  18.497  23.535  1.00  0.00     0.102 C 
BRANCH  17  18
ATOM     18  C   UNL A   1      33.626  17.439  23.304  1.00  0.00     0.038 C 
BRANCH  18  19
ATOM     19  C   UNL A   1      34.176  16.596  24.454  1.00  0.00     0.160 C 
BRANCH  19  20
ATOM     20  O   UNL A   1      33.662  15.297  24.720  1.00  0.00    -0.385 OA
ATOM     21  C   UNL A   1      32.499  15.130  25.500  1.00  0.00     0.194 C 
ENDBRANCH  19  20
ENDBRANCH  18  19
ENDBRANCH  17  18
ENDBRANCH  14  17
ENDBRANCH   8  13
ENDBRANCH   4   7
ENDBRANCH   2   3
ENDBRANCH   1   2
BRANCH   1  22
ATOM     22  C   UNL A   1      36.785  22.026  24.866  1.00  0.00     0.002 C 
BRANCH  22  23
ATOM     23  C   UNL A   1      36.635  20.502  24.971  1.00  0.00     0.002 C 
BRANCH  23  24
ATOM     24  C   UNL A   1      37.925  19.687  24.856  1.00  0.00     0.021 C 
BRANCH  24  25
ATOM     25  C   UNL A   1      39.078  20.174  25.728  1.00  0.00     0.116 C 
BRANCH  25  26
ATOM     26  N   UNL A   1      40.086  19.142  25.916  1.00  0.00    -0.352 N 
ATOM     27  C   UNL A   1      41.441  19.264  26.094  1.00  0.00     0.251 C 
ATOM     28  H   UNL A   1      39.745  18.218  25.916  1.00  0.00     0.163 HD
ATOM     29  O   UNL A   1      42.170  18.285  25.991  1.00  0.00    -0.269 OA
BRANCH  27  30
ATOM     30  C   UNL A   1      42.017  20.584  26.417  1.00  0.00     0.039 A 
ATOM     31  C   UNL A   1      42.401  21.434  25.377  1.00  0.00     0.014 A 
ATOM     32  C   UNL A   1      42.196  20.967  27.748  1.00  0.00     0.014 A 
ATOM     33  C   UNL A   1      42.918  22.696  25.674  1.00  0.00     0.010 A 
ATOM     34  C   UNL A   1      42.642  22.250  28.041  1.00  0.00     0.010 A 
ATOM     35  C   UNL A   1      43.016  23.124  27.008  1.00  0.00    -0.014 A 
BRANCH  35  36
ATOM     36  C   UNL A   1      43.526  24.472  27.359  1.00  0.00     0.031 A 
ATOM     37  C   UNL A   1      42.574  25.510  27.889  1.00  0.00     0.074 A 
ATOM     38  C   UNL A   1      44.812  24.788  27.116  1.00  0.00     0.049 A 
ATOM     39  N   UNL A   1      42.779  26.782  28.122  1.00  0.00    -0.248 NA
ATOM     40  C   UNL A   1      41.197  25.067  28.165  1.00  0.00     0.031 C 
ATOM     41  C   UNL A   1      45.818  23.878  26.568  1.00  0.00     0.029 A 
ATOM     42  N   UNL A   1      45.490  25.972  27.277  1.00  0.00    -0.354 N 
ATOM     43  C   UNL A   1      41.556  27.291  28.540  1.00  0.00     0.074 A 
ATOM     44  C   UNL A   1      40.604  26.204  28.496  1.00  0.00     0.031 C 
ATOM     45  C   UNL A   1      46.984  24.533  26.443  1.00  0.00     0.029 A 
ATOM     46  C   UNL A   1      46.797  25.920  26.856  1.00  0.00     0.049 A 
ATOM     47  H   UNL A   1      45.079  26.781  27.660  1.00  0.00     0.167 HD
ATOM     48  C   UNL A   1      41.264  28.549  28.940  1.00  0.00     0.037 A 
ATOM     49  C   UNL A   1      47.728  26.891  26.785  1.00  0.00     0.037 A 
ATOM     50  C   UNL A   1      42.228  29.613  29.024  1.00  0.00     0.049 A 
ATOM     51  C   UNL A   1      47.367  28.284  27.235  1.00  0.00     0.074 A 
ATOM     52  C   UNL A   1      42.048  30.902  29.495  1.00  0.00     0.029 A 
ATOM     53  N   UNL A   1      43.553  29.511  28.627  1.00  0.00    -0.354 N 
ATOM     54  N   UNL A   1      46.229  28.735  27.704  1.00  0.00    -0.248 NA
ATOM     55  C   UNL A   1      48.423  29.304  27.152  1.00  0.00     0.031 C 
ATOM     56  C   UNL A   1      43.247  31.598  29.326  1.00  0.00     0.029 A 
ATOM     57  C   UNL A   1      44.193  30.725  28.815  1.00  0.00     0.049 A 
ATOM     58  H   UNL A   1      43.974  28.699  28.265  1.00  0.00     0.167 HD
ATOM     59  C   UNL A   1      46.444  30.073  28.010  1.00  0.00     0.074 A 
ATOM     60  C   UNL A   1      47.823  30.359  27.682  1.00  0.00     0.031 C 
ATOM     61  C   UNL A   1      45.577  30.982  28.516  1.00  0.00     0.037 A 
BRANCH  48  62
ATOM     62  C   UNL A   1      39.847  28.862  29.325  1.00  0.00     0.064 A 
ATOM     63  C   UNL A   1      38.908  29.310  28.384  1.00  0.00     0.173 A 
ATOM     64  C   UNL A   1      39.402  28.621  30.635  1.00  0.00     0.173 A 
ATOM     65  F   UNL A   1      39.284  29.564  27.122  1.00  0.00    -0.203 F 
ATOM     66  C   UNL A   1      37.579  29.517  28.744  1.00  0.00     0.198 A 
ATOM     67  C   UNL A   1      38.066  28.800  30.982  1.00  0.00     0.198 A 
ATOM     68  F   UNL A   1      40.259  28.187  31.571  1.00  0.00    -0.203 F 
ATOM     69  F   UNL A   1      36.705  29.973  27.836  1.00  0.00    -0.200 F 
ATOM     70  C   UNL A   1      37.156  29.250  30.037  1.00  0.00     0.200 A 
ATOM     71  F   UNL A   1      37.657  28.525  32.228  1.00  0.00    -0.200 F 
ATOM     72  F   UNL A   1      35.872  29.425  30.375  1.00  0.00    -0.200 F 
ENDBRANCH  48  62
BRANCH  49  73
ATOM     73  C   UNL A   1      49.091  26.598  26.261  1.00  0.00     0.064 A 
ATOM     74  C   UNL A   1      50.086  26.070  27.096  1.00  0.00     0.173 A 
ATOM     75  C   UNL A   1      49.441  26.889  24.935  1.00  0.00     0.173 A 
ATOM     76  F   UNL A   1      49.808  25.791  28.378  1.00  0.00    -0.203 F 
ATOM     77  C   UNL A   1      51.390  25.887  26.637  1.00  0.00     0.198 A 
ATOM     78  C   UNL A   1      50.736  26.672  24.467  1.00  0.00     0.198 A 
ATOM     79  F   UNL A   1      48.528  27.393  24.091  1.00  0.00    -0.203 F 
ATOM     80  F   UNL A   1      52.338  25.454  27.478  1.00  0.00    -0.200 F 
ATOM     81  C   UNL A   1      51.713  26.187  25.322  1.00  0.00     0.200 A 
ATOM     82  F   UNL A   1      51.041  26.948  23.191  1.00  0.00    -0.200 F 
ATOM     83  F   UNL A   1      52.969  26.022  24.885  1.00  0.00    -0.200 F 
ENDBRANCH  49  73
BRANCH  61  84
ATOM     84  C   UNL A   1      46.103  32.356  28.814  1.00  0.00     0.064 A 
ATOM     85  C   UNL A   1      46.694  32.673  30.046  1.00  0.00     0.173 A 
ATOM     86  C   UNL A   1      46.074  33.349  27.822  1.00  0.00     0.173 A 
ATOM     87  F   UNL A   1      46.734  31.764  31.030  1.00  0.00    -0.203 F 
ATOM     88  C   UNL A   1      47.218  33.941  30.280  1.00  0.00     0.198 A 
ATOM     89  C   UNL A   1      46.631  34.604  28.048  1.00  0.00     0.198 A 
ATOM     90  F   UNL A   1      45.529  33.092  26.623  1.00  0.00    -0.203 F 
ATOM     91  F   UNL A   1      47.739  34.237  31.479  1.00  0.00    -0.200 F 
ATOM     92  C   UNL A   1      47.197  34.901  29.278  1.00  0.00     0.200 A 
ATOM     93  F   UNL A   1      46.627  35.523  27.072  1.00  0.00    -0.200 F 
ATOM     94  F   UNL A   1      47.719  36.115  29.500  1.00  0.00    -0.200 F 
ENDBRANCH  61  84
ENDBRANCH  35  36
ENDBRANCH  27  30
ENDBRANCH  25  26
ENDBRANCH  24  25
ENDBRANCH  23  24
ENDBRANCH  22  23
ENDBRANCH   1  22
TORSDOF 18
ENDMDL
MODEL 3
REMARK VINA RESULT:     -10.5      0.895      2.197
REMARK SMILES COCCCC(=O)N[C@H]1CC[C@@H](C(=O)NCCCCCCNC(=O)c2ccc(-c3c4nc(c(-c5c(F)c(F)c(F)c(F)c5F)c5ccc([nH]5)c(-c5c(F)c(F)c(F)c(F)c5F)c5nc(c(-c6c(F)c(F)c(F)c(F)c6F)c6ccc3[nH]6)C=C5)C=C4)cc2)CC1
REMARK SMILES IDX 17 1 16 2 15 3 13 4 14 5 12 7 9 8 10 9 89 10 11 11 88 12
REMARK SMILES IDX 8 13 6 14 7 15 5 17 4 18 3 19 2 20 1 21 18 22 19 23 20 24
REMARK SMILES IDX 21 25 22 26 23 27 24 29 25 30 26 31 87 32 27 33 86 34 28 35
REMARK SMILES IDX 29 36 30 37 80 38 31 39 85 40 79 41 81 42 32 43 84 44 78 45
REMARK SMILES IDX 77 46 33 48 65 49 45 50 64 51 46 52 49 53 63 54 82 55 47 56
REMARK SMILES IDX 48 57 62 59 83 60 50 61 34 62 35 63 43 64 36 65 37 66 41 67
REMARK SMILES IDX 44 68 38 69 39 70 42 71 40 72 66 73 67 74 75 75 68 76 69 77
REMARK SMILES IDX 73 78 76 79 70 80 71 81 74 82 72 83 51 84 52 85 60 86 53 87
REMARK SMILES IDX 54 88 58 89 61 90 55 91 56 92 59 93 57 94
REMARK H PARENT 15 6 8 16 22 28 81 47 49 58
REMARK Flexibility Score: inf
ROOT
ATOM      1  C   UNL A   1      34.705  32.615  29.322  1.00  0.00     0.021 C 
ENDROOT
BRANCH   1   2
ATOM      2  C   UNL A   1      34.309  32.070  27.952  1.00  0.00     0.116 C 
BRANCH   2   3
ATOM      3  N   UNL A   1      34.833  30.760  27.656  1.00  0.00    -0.356 N 
ATOM      4  C   UNL A   1      34.237  29.597  27.297  1.00  0.00     0.223 C 
ATOM      5  O   UNL A   1      34.988  28.737  26.821  1.00  0.00    -0.275 OA
ATOM      6  H   UNL A   1      35.813  30.698  27.729  1.00  0.00     0.163 HD
BRANCH   4   7
ATOM      7  C   UNL A   1      32.744  29.272  27.465  1.00  0.00     0.078 C 
ATOM      8  C   UNL A   1      31.063  28.401  25.147  1.00  0.00     0.082 C 
ATOM      9  C   UNL A   1      31.901  27.374  25.932  1.00  0.00     0.026 C 
ATOM     10  C   UNL A   1      31.400  29.883  25.361  1.00  0.00     0.026 C 
ATOM     11  C   UNL A   1      32.319  27.813  27.324  1.00  0.00     0.015 C 
ATOM     12  C   UNL A   1      31.780  30.242  26.788  1.00  0.00     0.015 C 
BRANCH   8  13
ATOM     13  N   UNL A   1      31.132  28.056  23.730  1.00  0.00    -0.353 N 
ATOM     14  C   UNL A   1      30.221  27.846  22.756  1.00  0.00     0.220 C 
ATOM     15  O   UNL A   1      30.671  27.431  21.681  1.00  0.00    -0.275 OA
ATOM     16  H   UNL A   1      32.057  27.951  23.411  1.00  0.00     0.163 HD
BRANCH  14  17
ATOM     17  C   UNL A   1      28.753  28.201  22.881  1.00  0.00     0.102 C 
BRANCH  17  18
ATOM     18  C   UNL A   1      28.312  29.662  22.809  1.00  0.00     0.038 C 
BRANCH  18  19
ATOM     19  C   UNL A   1      28.697  30.555  21.630  1.00  0.00     0.160 C 
BRANCH  19  20
ATOM     20  O   UNL A   1      27.703  31.199  20.845  1.00  0.00    -0.385 OA
ATOM     21  C   UNL A   1      28.024  32.329  20.063  1.00  0.00     0.194 C 
ENDBRANCH  19  20
ENDBRANCH  18  19
ENDBRANCH  17  18
ENDBRANCH  14  17
ENDBRANCH   8  13
ENDBRANCH   4   7
ENDBRANCH   2   3
ENDBRANCH   1   2
BRANCH   1  22
ATOM     22  C   UNL A   1      35.347  34.000  29.269  1.00  0.00     0.002 C 
BRANCH  22  23
ATOM     23  C   UNL A   1      34.685  34.996  28.306  1.00  0.00     0.002 C 
BRANCH  23  24
ATOM     24  C   UNL A   1      33.405  35.670  28.805  1.00  0.00     0.021 C 
BRANCH  24  25
ATOM     25  C   UNL A   1      33.599  36.657  29.953  1.00  0.00     0.116 C 
BRANCH  25  26
ATOM     26  N   UNL A   1      32.540  36.545  30.944  1.00  0.00    -0.352 N 
ATOM     27  C   UNL A   1      32.437  35.705  32.025  1.00  0.00     0.251 C 
ATOM     28  H   UNL A   1      31.784  37.164  30.823  1.00  0.00     0.163 HD
ATOM     29  O   UNL A   1      31.370  35.576  32.610  1.00  0.00    -0.269 OA
BRANCH  27  30
ATOM     30  C   UNL A   1      33.626  34.959  32.482  1.00  0.00     0.039 A 
ATOM     31  C   UNL A   1      33.487  33.626  32.873  1.00  0.00     0.014 A 
ATOM     32  C   UNL A   1      34.871  35.589  32.544  1.00  0.00     0.014 A 
ATOM     33  C   UNL A   1      34.613  32.905  33.278  1.00  0.00     0.010 A 
ATOM     34  C   UNL A   1      36.001  34.851  32.877  1.00  0.00     0.010 A 
ATOM     35  C   UNL A   1      35.882  33.505  33.255  1.00  0.00    -0.014 A 
BRANCH  35  36
ATOM     36  C   UNL A   1      37.104  32.759  33.643  1.00  0.00     0.031 A 
ATOM     37  C   UNL A   1      37.798  33.092  34.936  1.00  0.00     0.074 A 
ATOM     38  C   UNL A   1      37.637  31.856  32.797  1.00  0.00     0.049 A 
ATOM     39  N   UNL A   1      38.947  32.665  35.394  1.00  0.00    -0.248 NA
ATOM     40  C   UNL A   1      37.123  34.058  35.820  1.00  0.00     0.031 C 
ATOM     41  C   UNL A   1      37.076  31.479  31.499  1.00  0.00     0.029 A 
ATOM     42  N   UNL A   1      38.784  31.108  32.891  1.00  0.00    -0.354 N 
ATOM     43  C   UNL A   1      39.144  33.332  36.597  1.00  0.00     0.074 A 
ATOM     44  C   UNL A   1      38.017  34.218  36.784  1.00  0.00     0.031 C 
ATOM     45  C   UNL A   1      37.876  30.568  30.921  1.00  0.00     0.029 A 
ATOM     46  C   UNL A   1      39.030  30.333  31.784  1.00  0.00     0.049 A 
ATOM     47  H   UNL A   1      39.375  31.124  33.679  1.00  0.00     0.167 HD
ATOM     48  C   UNL A   1      40.167  33.200  37.472  1.00  0.00     0.037 A 
ATOM     49  C   UNL A   1      40.081  29.544  31.488  1.00  0.00     0.037 A 
ATOM     50  C   UNL A   1      41.262  32.282  37.300  1.00  0.00     0.049 A 
ATOM     51  C   UNL A   1      41.207  29.423  32.483  1.00  0.00     0.074 A 
ATOM     52  C   UNL A   1      42.305  32.016  38.169  1.00  0.00     0.029 A 
ATOM     53  N   UNL A   1      41.454  31.484  36.183  1.00  0.00    -0.354 N 
ATOM     54  N   UNL A   1      41.343  29.997  33.654  1.00  0.00    -0.248 NA
ATOM     55  C   UNL A   1      42.324  28.538  32.120  1.00  0.00     0.031 C 
ATOM     56  C   UNL A   1      43.161  31.101  37.553  1.00  0.00     0.029 A 
ATOM     57  C   UNL A   1      42.617  30.746  36.330  1.00  0.00     0.049 A 
ATOM     58  H   UNL A   1      40.855  31.447  35.403  1.00  0.00     0.167 HD
ATOM     59  C   UNL A   1      42.534  29.513  34.182  1.00  0.00     0.074 A 
ATOM     60  C   UNL A   1      43.077  28.590  33.209  1.00  0.00     0.031 C 
ATOM     61  C   UNL A   1      43.124  29.805  35.365  1.00  0.00     0.037 A 
BRANCH  48  62
ATOM     62  C   UNL A   1      40.165  34.059  38.702  1.00  0.00     0.064 A 
ATOM     63  C   UNL A   1      40.775  35.322  38.723  1.00  0.00     0.173 A 
ATOM     64  C   UNL A   1      39.465  33.649  39.848  1.00  0.00     0.173 A 
ATOM     65  F   UNL A   1      41.465  35.757  37.657  1.00  0.00    -0.203 F 
ATOM     66  C   UNL A   1      40.692  36.138  39.848  1.00  0.00     0.198 A 
ATOM     67  C   UNL A   1      39.360  34.480  40.960  1.00  0.00     0.198 A 
ATOM     68  F   UNL A   1      38.861  32.452  39.879  1.00  0.00    -0.203 F 
ATOM     69  F   UNL A   1      41.307  37.329  39.856  1.00  0.00    -0.200 F 
ATOM     70  C   UNL A   1      39.975  35.722  40.960  1.00  0.00     0.200 A 
ATOM     71  F   UNL A   1      38.652  34.083  42.027  1.00  0.00    -0.200 F 
ATOM     72  F   UNL A   1      39.876  36.519  42.032  1.00  0.00    -0.200 F 
ENDBRANCH  48  62
BRANCH  49  73
ATOM     73  C   UNL A   1      40.138  28.810  30.193  1.00  0.00     0.064 A 
ATOM     74  C   UNL A   1      40.785  29.362  29.078  1.00  0.00     0.173 A 
ATOM     75  C   UNL A   1      39.500  27.572  30.028  1.00  0.00     0.173 A 
ATOM     76  F   UNL A   1      41.393  30.553  29.178  1.00  0.00    -0.203 F 
ATOM     77  C   UNL A   1      40.754  28.727  27.839  1.00  0.00     0.198 A 
ATOM     78  C   UNL A   1      39.502  26.919  28.797  1.00  0.00     0.198 A 
ATOM     79  F   UNL A   1      38.869  26.996  31.062  1.00  0.00    -0.203 F 
ATOM     80  F   UNL A   1      41.315  29.314  26.773  1.00  0.00    -0.200 F 
ATOM     81  C   UNL A   1      40.114  27.504  27.699  1.00  0.00     0.200 A 
ATOM     82  F   UNL A   1      38.895  25.731  28.669  1.00  0.00    -0.200 F 
ATOM     83  F   UNL A   1      40.075  26.899  26.504  1.00  0.00    -0.200 F 
ENDBRANCH  49  73
BRANCH  61  84
ATOM     84  C   UNL A   1      44.388  29.076  35.713  1.00  0.00     0.064 A 
ATOM     85  C   UNL A   1      44.375  27.846  36.387  1.00  0.00     0.173 A 
ATOM     86  C   UNL A   1      45.629  29.588  35.301  1.00  0.00     0.173 A 
ATOM     87  F   UNL A   1      43.216  27.322  36.812  1.00  0.00    -0.203 F 
ATOM     88  C   UNL A   1      45.560  27.166  36.654  1.00  0.00     0.198 A 
ATOM     89  C   UNL A   1      46.808  28.887  35.539  1.00  0.00     0.198 A 
ATOM     90  F   UNL A   1      45.696  30.755  34.644  1.00  0.00    -0.203 F 
ATOM     91  F   UNL A   1      45.528  26.013  37.338  1.00  0.00    -0.200 F 
ATOM     92  C   UNL A   1      46.773  27.680  36.220  1.00  0.00     0.200 A 
ATOM     93  F   UNL A   1      47.977  29.377  35.102  1.00  0.00    -0.200 F 
ATOM     94  F   UNL A   1      47.910  27.014  36.463  1.00  0.00    -0.200 F 
ENDBRANCH  61  84
ENDBRANCH  35  36
ENDBRANCH  27  30
ENDBRANCH  25  26
ENDBRANCH  24  25
ENDBRANCH  23  24
ENDBRANCH  22  23
ENDBRANCH   1  22
TORSDOF 18
ENDMDL
