MODEL 1
REMARK VINA RESULT:     -12.1      0.000      0.000
REMARK SMILES CCOC(=O)c1c(C)nn(-c2ncccc2NC(=O)/C=C/C(=O)NCCCCCCNC(=O)c2ccc(-c3c4nc(c(-c5c(F)c(F)c(F)c(F)c5F)c5ccc([nH]5)c(-c5c(F)c(F)c(F)c(F)c5F)c5nc(c(-c6c(F)c(F)c(F)c(F)c6F)c6ccc3[nH]6)C=C5)C=C4)cc2)c1C
REMARK SMILES IDX 25 1 24 2 22 3 23 4 21 6 20 7 18 8 17 9 19 11 16 12 11 13
REMARK SMILES IDX 12 14 13 15 15 16 14 17 10 18 6 19 7 20 97 21 8 22 9 23
REMARK SMILES IDX 98 24 4 25 5 26 3 27 2 28 1 29 26 30 27 31 28 32 29 33 30 34
REMARK SMILES IDX 31 35 32 36 33 38 34 39 35 40 96 41 36 42 95 43 37 44 38 45
REMARK SMILES IDX 39 46 89 47 40 48 94 49 88 50 90 51 41 52 93 53 87 54 86 55
REMARK SMILES IDX 42 57 74 58 54 59 73 60 55 61 58 62 72 63 91 64 56 65 57 66
REMARK SMILES IDX 71 68 92 69 59 70 43 71 44 72 52 73 45 74 46 75 50 76 53 77
REMARK SMILES IDX 47 78 48 79 51 80 49 81 75 82 76 83 84 84 77 85 78 86 82 87
REMARK SMILES IDX 85 88 79 89 80 90 83 91 81 92 60 93 61 94 69 95 62 96 63 97
REMARK SMILES IDX 67 98 70 99 64 100 65 101 68 102 66 103
REMARK H PARENT 24 5 17 10 31 37 90 56 58 67
REMARK Flexibility Score: inf
ROOT
ATOM      1  C   UNL A   1      37.052  20.824  24.979  1.00  0.00     0.116 C 
ENDROOT
BRANCH   1   2
ATOM      2  N   UNL A   1      37.464  22.130  25.440  1.00  0.00    -0.353 N 
ATOM      3  C   UNL A   1      36.728  23.103  26.064  1.00  0.00     0.244 C 
ATOM      4  O   UNL A   1      37.297  24.109  26.484  1.00  0.00    -0.270 OA
ATOM      5  H   UNL A   1      38.410  22.353  25.283  1.00  0.00     0.163 HD
BRANCH   3   6
ATOM      6  C   UNL A   1      35.241  23.052  26.137  1.00  0.00     0.077 C 
ATOM      7  C   UNL A   1      34.537  22.256  26.956  1.00  0.00     0.077 C 
BRANCH   7   8
ATOM      8  C   UNL A   1      33.046  22.131  27.163  1.00  0.00     0.248 C 
ATOM      9  N   UNL A   1      32.155  21.561  26.292  1.00  0.00    -0.319 N 
ATOM     10  H   UNL A   1      31.214  21.733  26.524  1.00  0.00     0.170 HD
ATOM     11  O   UNL A   1      32.580  22.635  28.192  1.00  0.00    -0.270 OA
BRANCH   9  12
ATOM     12  C   UNL A   1      32.313  20.777  25.134  1.00  0.00     0.086 A 
ATOM     13  C   UNL A   1      32.156  21.165  23.790  1.00  0.00     0.177 A 
ATOM     14  N   UNL A   1      32.114  20.256  22.771  1.00  0.00    -0.235 NA
ATOM     15  C   UNL A   1      32.289  18.953  23.096  1.00  0.00     0.114 A 
ATOM     16  C   UNL A   1      32.747  19.469  25.368  1.00  0.00     0.032 A 
ATOM     17  C   UNL A   1      32.687  18.528  24.349  1.00  0.00     0.022 A 
BRANCH  13  18
ATOM     18  N   UNL A   1      32.177  22.563  23.462  1.00  0.00    -0.216 N 
ATOM     19  C   UNL A   1      32.593  24.595  22.664  1.00  0.00     0.104 A 
ATOM     20  C   UNL A   1      31.349  24.538  23.314  1.00  0.00     0.075 A 
ATOM     21  C   UNL A   1      33.169  23.341  22.878  1.00  0.00     0.058 A 
ATOM     22  C   UNL A   1      30.263  25.532  23.496  1.00  0.00     0.070 C 
ATOM     23  N   UNL A   1      31.161  23.346  23.844  1.00  0.00    -0.171 NA
ATOM     24  C   UNL A   1      34.583  22.890  22.781  1.00  0.00     0.068 C 
BRANCH  19  25
ATOM     25  C   UNL A   1      33.122  25.769  22.008  1.00  0.00     0.341 C 
ATOM     26  O   UNL A   1      33.242  25.860  20.808  1.00  0.00    -0.246 OA
BRANCH  25  27
ATOM     27  O   UNL A   1      33.595  26.672  22.916  1.00  0.00    -0.462 OA
BRANCH  27  28
ATOM     28  C   UNL A   1      33.416  28.031  22.522  1.00  0.00     0.230 C 
ATOM     29  C   UNL A   1      33.599  28.960  23.709  1.00  0.00     0.049 C 
ENDBRANCH  27  28
ENDBRANCH  25  27
ENDBRANCH  19  25
ENDBRANCH  13  18
ENDBRANCH   9  12
ENDBRANCH   7   8
ENDBRANCH   3   6
ENDBRANCH   1   2
BRANCH   1  30
ATOM     30  C   UNL A   1      38.156  19.814  24.622  1.00  0.00     0.021 C 
BRANCH  30  31
ATOM     31  C   UNL A   1      39.022  19.192  25.727  1.00  0.00     0.002 C 
BRANCH  31  32
ATOM     32  C   UNL A   1      40.347  19.863  26.105  1.00  0.00     0.002 C 
BRANCH  32  33
ATOM     33  C   UNL A   1      41.613  19.000  26.157  1.00  0.00     0.021 C 
BRANCH  33  34
ATOM     34  C   UNL A   1      42.930  19.749  26.345  1.00  0.00     0.116 C 
BRANCH  34  35
ATOM     35  N   UNL A   1      43.825  19.687  25.191  1.00  0.00    -0.352 N 
ATOM     36  C   UNL A   1      44.373  20.726  24.462  1.00  0.00     0.251 C 
ATOM     37  H   UNL A   1      44.072  18.782  24.892  1.00  0.00     0.163 HD
ATOM     38  O   UNL A   1      44.856  20.527  23.352  1.00  0.00    -0.269 OA
BRANCH  36  39
ATOM     39  C   UNL A   1      44.356  22.094  25.016  1.00  0.00     0.039 A 
ATOM     40  C   UNL A   1      43.434  23.045  24.563  1.00  0.00     0.014 A 
ATOM     41  C   UNL A   1      45.261  22.420  26.019  1.00  0.00     0.014 A 
ATOM     42  C   UNL A   1      43.366  24.287  25.195  1.00  0.00     0.010 A 
ATOM     43  C   UNL A   1      45.091  23.583  26.734  1.00  0.00     0.010 A 
ATOM     44  C   UNL A   1      44.182  24.545  26.304  1.00  0.00    -0.014 A 
BRANCH  44  45
ATOM     45  C   UNL A   1      44.014  25.767  27.098  1.00  0.00     0.031 A 
ATOM     46  C   UNL A   1      44.966  26.868  26.774  1.00  0.00     0.074 A 
ATOM     47  C   UNL A   1      42.929  25.999  27.873  1.00  0.00     0.049 A 
ATOM     48  N   UNL A   1      45.774  27.481  27.576  1.00  0.00    -0.248 NA
ATOM     49  C   UNL A   1      45.085  27.301  25.370  1.00  0.00     0.031 C 
ATOM     50  C   UNL A   1      41.744  25.140  28.003  1.00  0.00     0.029 A 
ATOM     51  N   UNL A   1      42.574  27.106  28.598  1.00  0.00    -0.354 N 
ATOM     52  C   UNL A   1      46.358  28.504  26.827  1.00  0.00     0.074 A 
ATOM     53  C   UNL A   1      46.023  28.247  25.452  1.00  0.00     0.031 C 
ATOM     54  C   UNL A   1      40.721  25.853  28.515  1.00  0.00     0.029 A 
ATOM     55  C   UNL A   1      41.226  27.147  28.935  1.00  0.00     0.049 A 
ATOM     56  H   UNL A   1      43.215  27.807  28.858  1.00  0.00     0.167 HD
ATOM     57  C   UNL A   1      46.826  29.629  27.434  1.00  0.00     0.037 A 
ATOM     58  C   UNL A   1      40.540  28.165  29.507  1.00  0.00     0.037 A 
ATOM     59  C   UNL A   1      46.933  29.448  28.856  1.00  0.00     0.049 A 
ATOM     60  C   UNL A   1      41.502  29.041  30.204  1.00  0.00     0.074 A 
ATOM     61  C   UNL A   1      47.837  28.920  29.748  1.00  0.00     0.029 A 
ATOM     62  N   UNL A   1      45.751  29.611  29.520  1.00  0.00    -0.354 N 
ATOM     63  N   UNL A   1      42.196  28.663  31.241  1.00  0.00    -0.248 NA
ATOM     64  C   UNL A   1      41.938  30.281  29.571  1.00  0.00     0.031 C 
ATOM     65  C   UNL A   1      47.116  28.670  30.954  1.00  0.00     0.029 A 
ATOM     66  C   UNL A   1      45.795  29.066  30.773  1.00  0.00     0.049 A 
ATOM     67  H   UNL A   1      44.963  30.064  29.142  1.00  0.00     0.167 HD
ATOM     68  C   UNL A   1      43.377  29.364  31.121  1.00  0.00     0.074 A 
ATOM     69  C   UNL A   1      43.094  30.464  30.213  1.00  0.00     0.031 C 
ATOM     70  C   UNL A   1      44.562  28.794  31.471  1.00  0.00     0.037 A 
BRANCH  57  71
ATOM     71  C   UNL A   1      46.731  31.032  26.867  1.00  0.00     0.064 A 
ATOM     72  C   UNL A   1      47.872  31.863  26.903  1.00  0.00     0.173 A 
ATOM     73  C   UNL A   1      45.510  31.691  26.617  1.00  0.00     0.173 A 
ATOM     74  F   UNL A   1      49.085  31.349  27.156  1.00  0.00    -0.203 F 
ATOM     75  C   UNL A   1      47.782  33.253  26.769  1.00  0.00     0.198 A 
ATOM     76  C   UNL A   1      45.431  33.072  26.430  1.00  0.00     0.198 A 
ATOM     77  F   UNL A   1      44.335  31.052  26.664  1.00  0.00    -0.203 F 
ATOM     78  F   UNL A   1      48.874  34.011  26.932  1.00  0.00    -0.200 F 
ATOM     79  C   UNL A   1      46.561  33.856  26.537  1.00  0.00     0.200 A 
ATOM     80  F   UNL A   1      44.234  33.643  26.232  1.00  0.00    -0.200 F 
ATOM     81  F   UNL A   1      46.461  35.190  26.465  1.00  0.00    -0.200 F 
ENDBRANCH  57  71
BRANCH  58  82
ATOM     82  C   UNL A   1      39.118  28.528  29.323  1.00  0.00     0.064 A 
ATOM     83  C   UNL A   1      38.232  28.640  30.403  1.00  0.00     0.173 A 
ATOM     84  C   UNL A   1      38.668  29.035  28.091  1.00  0.00     0.173 A 
ATOM     85  F   UNL A   1      38.601  28.218  31.620  1.00  0.00    -0.203 F 
ATOM     86  C   UNL A   1      36.980  29.247  30.261  1.00  0.00     0.198 A 
ATOM     87  C   UNL A   1      37.418  29.634  27.944  1.00  0.00     0.198 A 
ATOM     88  F   UNL A   1      39.482  29.034  27.030  1.00  0.00    -0.203 F 
ATOM     89  F   UNL A   1      36.182  29.389  31.329  1.00  0.00    -0.200 F 
ATOM     90  C   UNL A   1      36.578  29.753  29.034  1.00  0.00     0.200 A 
ATOM     91  F   UNL A   1      37.061  30.147  26.757  1.00  0.00    -0.200 F 
ATOM     92  F   UNL A   1      35.404  30.388  28.912  1.00  0.00    -0.200 F 
ENDBRANCH  58  82
BRANCH  70  93
ATOM     93  C   UNL A   1      44.541  27.701  32.487  1.00  0.00     0.064 A 
ATOM     94  C   UNL A   1      44.502  26.332  32.180  1.00  0.00     0.173 A 
ATOM     95  C   UNL A   1      44.640  28.063  33.836  1.00  0.00     0.173 A 
ATOM     96  F   UNL A   1      44.476  25.910  30.909  1.00  0.00    -0.203 F 
ATOM     97  C   UNL A   1      44.528  25.371  33.189  1.00  0.00     0.198 A 
ATOM     98  C   UNL A   1      44.700  27.103  34.838  1.00  0.00     0.198 A 
ATOM     99  F   UNL A   1      44.713  29.359  34.179  1.00  0.00    -0.203 F 
ATOM    100  F   UNL A   1      44.474  24.067  32.877  1.00  0.00    -0.200 F 
ATOM    101  C   UNL A   1      44.635  25.757  34.516  1.00  0.00     0.200 A 
ATOM    102  F   UNL A   1      44.838  27.482  36.116  1.00  0.00    -0.200 F 
ATOM    103  F   UNL A   1      44.694  24.832  35.484  1.00  0.00    -0.200 F 
ENDBRANCH  70  93
ENDBRANCH  44  45
ENDBRANCH  36  39
ENDBRANCH  34  35
ENDBRANCH  33  34
ENDBRANCH  32  33
ENDBRANCH  31  32
ENDBRANCH  30  31
ENDBRANCH   1  30
TORSDOF 19
ENDMDL
MODEL 2
REMARK VINA RESULT:     -11.8      2.708      8.555
REMARK SMILES CCOC(=O)c1c(C)nn(-c2ncccc2NC(=O)/C=C/C(=O)NCCCCCCNC(=O)c2ccc(-c3c4nc(c(-c5c(F)c(F)c(F)c(F)c5F)c5ccc([nH]5)c(-c5c(F)c(F)c(F)c(F)c5F)c5nc(c(-c6c(F)c(F)c(F)c(F)c6F)c6ccc3[nH]6)C=C5)C=C4)cc2)c1C
REMARK SMILES IDX 25 1 24 2 22 3 23 4 21 6 20 7 18 8 17 9 19 11 16 12 11 13
REMARK SMILES IDX 12 14 13 15 15 16 14 17 10 18 6 19 7 20 97 21 8 22 9 23
REMARK SMILES IDX 98 24 4 25 5 26 3 27 2 28 1 29 26 30 27 31 28 32 29 33 30 34
REMARK SMILES IDX 31 35 32 36 33 38 34 39 35 40 96 41 36 42 95 43 37 44 38 45
REMARK SMILES IDX 39 46 89 47 40 48 94 49 88 50 90 51 41 52 93 53 87 54 86 55
REMARK SMILES IDX 42 57 74 58 54 59 73 60 55 61 58 62 72 63 91 64 56 65 57 66
REMARK SMILES IDX 71 68 92 69 59 70 43 71 44 72 52 73 45 74 46 75 50 76 53 77
REMARK SMILES IDX 47 78 48 79 51 80 49 81 75 82 76 83 84 84 77 85 78 86 82 87
REMARK SMILES IDX 85 88 79 89 80 90 83 91 81 92 60 93 61 94 69 95 62 96 63 97
REMARK SMILES IDX 67 98 70 99 64 100 65 101 68 102 66 103
REMARK H PARENT 24 5 17 10 31 37 90 56 58 67
REMARK Flexibility Score: inf
ROOT
ATOM      1  C   UNL A   1      31.932  28.083  24.372  1.00  0.00     0.116 C 
ENDROOT
BRANCH   1   2
ATOM      2  N   UNL A   1      33.026  28.380  23.475  1.00  0.00    -0.353 N 
ATOM      3  C   UNL A   1      33.440  27.706  22.356  1.00  0.00     0.244 C 
ATOM      4  O   UNL A   1      34.329  28.191  21.659  1.00  0.00    -0.270 OA
ATOM      5  H   UNL A   1      33.550  29.182  23.702  1.00  0.00     0.163 HD
BRANCH   3   6
ATOM      6  C   UNL A   1      32.946  26.341  22.021  1.00  0.00     0.077 C 
ATOM      7  C   UNL A   1      33.575  25.198  22.332  1.00  0.00     0.077 C 
BRANCH   7   8
ATOM      8  C   UNL A   1      33.175  23.760  22.093  1.00  0.00     0.248 C 
ATOM      9  N   UNL A   1      32.749  22.872  23.045  1.00  0.00    -0.319 N 
ATOM     10  H   UNL A   1      32.705  21.943  22.724  1.00  0.00     0.170 HD
ATOM     11  O   UNL A   1      33.290  23.332  20.939  1.00  0.00    -0.270 OA
BRANCH   9  12
ATOM     12  C   UNL A   1      32.358  23.021  24.390  1.00  0.00     0.086 A 
ATOM     13  C   UNL A   1      33.016  22.558  25.545  1.00  0.00     0.177 A 
ATOM     14  N   UNL A   1      32.419  22.567  26.774  1.00  0.00    -0.235 NA
ATOM     15  C   UNL A   1      31.176  23.097  26.855  1.00  0.00     0.114 A 
ATOM     16  C   UNL A   1      31.205  23.786  24.582  1.00  0.00     0.032 A 
ATOM     17  C   UNL A   1      30.573  23.785  25.819  1.00  0.00     0.022 A 
BRANCH  13  18
ATOM     18  N   UNL A   1      34.402  22.192  25.458  1.00  0.00    -0.216 N 
ATOM     19  C   UNL A   1      36.619  22.062  25.554  1.00  0.00     0.104 A 
ATOM     20  C   UNL A   1      36.041  20.828  25.214  1.00  0.00     0.075 A 
ATOM     21  C   UNL A   1      35.552  22.962  25.586  1.00  0.00     0.058 A 
ATOM     22  C   UNL A   1      36.613  19.478  24.986  1.00  0.00     0.070 C 
ATOM     23  N   UNL A   1      34.734  20.950  25.087  1.00  0.00    -0.171 NA
ATOM     24  C   UNL A   1      35.529  24.448  25.516  1.00  0.00     0.068 C 
BRANCH  19  25
ATOM     25  C   UNL A   1      38.035  22.282  25.733  1.00  0.00     0.341 C 
ATOM     26  O   UNL A   1      38.856  21.395  25.680  1.00  0.00    -0.246 OA
BRANCH  25  27
ATOM     27  O   UNL A   1      38.292  23.569  26.112  1.00  0.00    -0.462 OA
BRANCH  27  28
ATOM     28  C   UNL A   1      39.243  23.678  27.168  1.00  0.00     0.230 C 
ATOM     29  C   UNL A   1      38.950  24.896  28.027  1.00  0.00     0.049 C 
ENDBRANCH  27  28
ENDBRANCH  25  27
ENDBRANCH  19  25
ENDBRANCH  13  18
ENDBRANCH   9  12
ENDBRANCH   7   8
ENDBRANCH   3   6
ENDBRANCH   1   2
BRANCH   1  30
ATOM     30  C   UNL A   1      32.273  27.816  25.847  1.00  0.00     0.021 C 
BRANCH  30  31
ATOM     31  C   UNL A   1      33.728  27.573  26.273  1.00  0.00     0.002 C 
BRANCH  31  32
ATOM     32  C   UNL A   1      34.519  28.715  26.917  1.00  0.00     0.002 C 
BRANCH  32  33
ATOM     33  C   UNL A   1      33.741  29.880  27.541  1.00  0.00     0.021 C 
BRANCH  33  34
ATOM     34  C   UNL A   1      34.465  31.223  27.590  1.00  0.00     0.116 C 
BRANCH  34  35
ATOM     35  N   UNL A   1      34.398  31.895  28.886  1.00  0.00    -0.352 N 
ATOM     36  C   UNL A   1      35.221  31.740  29.986  1.00  0.00     0.251 C 
ATOM     37  H   UNL A   1      33.667  32.545  28.991  1.00  0.00     0.163 HD
ATOM     38  O   UNL A   1      34.871  32.140  31.092  1.00  0.00    -0.269 OA
BRANCH  36  39
ATOM     39  C   UNL A   1      36.526  31.068  29.833  1.00  0.00     0.039 A 
ATOM     40  C   UNL A   1      37.684  31.798  29.539  1.00  0.00     0.014 A 
ATOM     41  C   UNL A   1      36.593  29.691  30.010  1.00  0.00     0.014 A 
ATOM     42  C   UNL A   1      38.917  31.146  29.524  1.00  0.00     0.010 A 
ATOM     43  C   UNL A   1      37.819  29.083  30.142  1.00  0.00     0.010 A 
ATOM     44  C   UNL A   1      38.986  29.785  29.854  1.00  0.00    -0.014 A 
BRANCH  44  45
ATOM     45  C   UNL A   1      40.279  29.112  30.019  1.00  0.00     0.031 A 
ATOM     46  C   UNL A   1      40.722  28.930  31.432  1.00  0.00     0.074 A 
ATOM     47  C   UNL A   1      40.907  28.465  29.010  1.00  0.00     0.049 A 
ATOM     48  N   UNL A   1      41.825  29.327  31.976  1.00  0.00    -0.248 NA
ATOM     49  C   UNL A   1      39.795  28.283  32.378  1.00  0.00     0.031 C 
ATOM     50  C   UNL A   1      40.400  28.267  27.645  1.00  0.00     0.029 A 
ATOM     51  N   UNL A   1      42.056  27.720  29.011  1.00  0.00    -0.354 N 
ATOM     52  C   UNL A   1      41.822  28.812  33.273  1.00  0.00     0.074 A 
ATOM     53  C   UNL A   1      40.492  28.321  33.515  1.00  0.00     0.031 C 
ATOM     54  C   UNL A   1      41.074  27.261  27.053  1.00  0.00     0.029 A 
ATOM     55  C   UNL A   1      42.182  26.881  27.909  1.00  0.00     0.049 A 
ATOM     56  H   UNL A   1      42.732  27.774  29.726  1.00  0.00     0.167 HD
ATOM     57  C   UNL A   1      42.992  28.578  33.929  1.00  0.00     0.037 A 
ATOM     58  C   UNL A   1      43.112  25.921  27.694  1.00  0.00     0.037 A 
ATOM     59  C   UNL A   1      44.098  29.218  33.270  1.00  0.00     0.049 A 
ATOM     60  C   UNL A   1      44.289  26.215  28.535  1.00  0.00     0.074 A 
ATOM     61  C   UNL A   1      44.680  30.463  33.242  1.00  0.00     0.029 A 
ATOM     62  N   UNL A   1      44.583  28.514  32.206  1.00  0.00    -0.354 N 
ATOM     63  N   UNL A   1      45.045  27.264  28.369  1.00  0.00    -0.248 NA
ATOM     64  C   UNL A   1      44.479  25.492  29.788  1.00  0.00     0.031 C 
ATOM     65  C   UNL A   1      45.459  30.518  32.047  1.00  0.00     0.029 A 
ATOM     66  C   UNL A   1      45.344  29.300  31.386  1.00  0.00     0.049 A 
ATOM     67  H   UNL A   1      44.405  27.559  32.047  1.00  0.00     0.167 HD
ATOM     68  C   UNL A   1      45.475  27.567  29.643  1.00  0.00     0.074 A 
ATOM     69  C   UNL A   1      45.266  26.360  30.428  1.00  0.00     0.031 C 
ATOM     70  C   UNL A   1      45.620  28.861  30.039  1.00  0.00     0.037 A 
BRANCH  57  71
ATOM     71  C   UNL A   1      43.254  27.407  34.855  1.00  0.00     0.064 A 
ATOM     72  C   UNL A   1      43.524  27.659  36.218  1.00  0.00     0.173 A 
ATOM     73  C   UNL A   1      43.586  26.113  34.403  1.00  0.00     0.173 A 
ATOM     74  F   UNL A   1      43.271  28.863  36.754  1.00  0.00    -0.203 F 
ATOM     75  C   UNL A   1      44.142  26.710  37.040  1.00  0.00     0.198 A 
ATOM     76  C   UNL A   1      44.154  25.151  35.239  1.00  0.00     0.198 A 
ATOM     77  F   UNL A   1      43.490  25.765  33.114  1.00  0.00    -0.203 F 
ATOM     78  F   UNL A   1      44.490  27.038  38.292  1.00  0.00    -0.200 F 
ATOM     79  C   UNL A   1      44.461  25.459  36.549  1.00  0.00     0.200 A 
ATOM     80  F   UNL A   1      44.480  23.951  34.738  1.00  0.00    -0.200 F 
ATOM     81  F   UNL A   1      45.105  24.569  37.314  1.00  0.00    -0.200 F 
ENDBRANCH  57  71
BRANCH  58  82
ATOM     82  C   UNL A   1      42.965  24.655  26.943  1.00  0.00     0.064 A 
ATOM     83  C   UNL A   1      43.480  24.491  25.651  1.00  0.00     0.173 A 
ATOM     84  C   UNL A   1      42.538  23.487  27.599  1.00  0.00     0.173 A 
ATOM     85  F   UNL A   1      43.946  25.549  24.974  1.00  0.00    -0.203 F 
ATOM     86  C   UNL A   1      43.585  23.226  25.062  1.00  0.00     0.198 A 
ATOM     87  C   UNL A   1      42.635  22.225  27.012  1.00  0.00     0.198 A 
ATOM     88  F   UNL A   1      42.103  23.549  28.862  1.00  0.00    -0.203 F 
ATOM     89  F   UNL A   1      44.138  23.100  23.847  1.00  0.00    -0.200 F 
ATOM     90  C   UNL A   1      43.173  22.093  25.746  1.00  0.00     0.200 A 
ATOM     91  F   UNL A   1      42.261  21.139  27.704  1.00  0.00    -0.200 F 
ATOM     92  F   UNL A   1      43.330  20.877  25.207  1.00  0.00    -0.200 F 
ENDBRANCH  58  82
BRANCH  70  93
ATOM     93  C   UNL A   1      45.882  29.889  28.990  1.00  0.00     0.064 A 
ATOM     94  C   UNL A   1      47.140  30.141  28.422  1.00  0.00     0.173 A 
ATOM     95  C   UNL A   1      44.786  30.601  28.486  1.00  0.00     0.173 A 
ATOM     96  F   UNL A   1      48.221  29.450  28.806  1.00  0.00    -0.203 F 
ATOM     97  C   UNL A   1      47.294  31.091  27.414  1.00  0.00     0.198 A 
ATOM     98  C   UNL A   1      44.936  31.523  27.458  1.00  0.00     0.198 A 
ATOM     99  F   UNL A   1      43.556  30.372  28.974  1.00  0.00    -0.203 F 
ATOM    100  F   UNL A   1      48.507  31.329  26.893  1.00  0.00    -0.200 F 
ATOM    101  C   UNL A   1      46.190  31.775  26.928  1.00  0.00     0.200 A 
ATOM    102  F   UNL A   1      43.860  32.155  26.969  1.00  0.00    -0.200 F 
ATOM    103  F   UNL A   1      46.332  32.664  25.935  1.00  0.00    -0.200 F 
ENDBRANCH  70  93
ENDBRANCH  44  45
ENDBRANCH  36  39
ENDBRANCH  34  35
ENDBRANCH  33  34
ENDBRANCH  32  33
ENDBRANCH  31  32
ENDBRANCH  30  31
ENDBRANCH   1  30
TORSDOF 19
ENDMDL
MODEL 3
REMARK VINA RESULT:     -11.8      2.651      4.828
REMARK SMILES CCOC(=O)c1c(C)nn(-c2ncccc2NC(=O)/C=C/C(=O)NCCCCCCNC(=O)c2ccc(-c3c4nc(c(-c5c(F)c(F)c(F)c(F)c5F)c5ccc([nH]5)c(-c5c(F)c(F)c(F)c(F)c5F)c5nc(c(-c6c(F)c(F)c(F)c(F)c6F)c6ccc3[nH]6)C=C5)C=C4)cc2)c1C
REMARK SMILES IDX 25 1 24 2 22 3 23 4 21 6 20 7 18 8 17 9 19 11 16 12 11 13
REMARK SMILES IDX 12 14 13 15 15 16 14 17 10 18 6 19 7 20 97 21 8 22 9 23
REMARK SMILES IDX 98 24 4 25 5 26 3 27 2 28 1 29 26 30 27 31 28 32 29 33 30 34
REMARK SMILES IDX 31 35 32 36 33 38 34 39 35 40 96 41 36 42 95 43 37 44 38 45
REMARK SMILES IDX 39 46 89 47 40 48 94 49 88 50 90 51 41 52 93 53 87 54 86 55
REMARK SMILES IDX 42 57 74 58 54 59 73 60 55 61 58 62 72 63 91 64 56 65 57 66
REMARK SMILES IDX 71 68 92 69 59 70 43 71 44 72 52 73 45 74 46 75 50 76 53 77
REMARK SMILES IDX 47 78 48 79 51 80 49 81 75 82 76 83 84 84 77 85 78 86 82 87
REMARK SMILES IDX 85 88 79 89 80 90 83 91 81 92 60 93 61 94 69 95 62 96 63 97
REMARK SMILES IDX 67 98 70 99 64 100 65 101 68 102 66 103
REMARK H PARENT 24 5 17 10 31 37 90 56 58 67
REMARK Flexibility Score: inf
ROOT
ATOM      1  C   UNL A   1      32.509  23.697  26.739  1.00  0.00     0.116 C 
ENDROOT
BRANCH   1   2
ATOM      2  N   UNL A   1      31.128  24.110  26.851  1.00  0.00    -0.353 N 
ATOM      3  C   UNL A   1      30.555  25.316  26.545  1.00  0.00     0.244 C 
ATOM      4  O   UNL A   1      29.332  25.430  26.603  1.00  0.00    -0.270 OA
ATOM      5  H   UNL A   1      30.511  23.425  27.196  1.00  0.00     0.163 HD
BRANCH   3   6
ATOM      6  C   UNL A   1      31.365  26.537  26.274  1.00  0.00     0.077 C 
ATOM      7  C   UNL A   1      30.891  27.792  26.279  1.00  0.00     0.077 C 
BRANCH   7   8
ATOM      8  C   UNL A   1      31.598  29.110  26.065  1.00  0.00     0.248 C 
ATOM      9  N   UNL A   1      31.467  29.929  24.974  1.00  0.00    -0.319 N 
ATOM     10  H   UNL A   1      32.137  30.648  24.940  1.00  0.00     0.170 HD
ATOM     11  O   UNL A   1      32.406  29.458  26.933  1.00  0.00    -0.270 OA
BRANCH   9  12
ATOM     12  C   UNL A   1      30.566  29.949  23.892  1.00  0.00     0.086 A 
ATOM     13  C   UNL A   1      30.505  29.072  22.792  1.00  0.00     0.177 A 
ATOM     14  N   UNL A   1      29.732  29.335  21.697  1.00  0.00    -0.235 NA
ATOM     15  C   UNL A   1      28.972  30.456  21.728  1.00  0.00     0.114 A 
ATOM     16  C   UNL A   1      29.575  30.930  23.975  1.00  0.00     0.032 A 
ATOM     17  C   UNL A   1      28.798  31.226  22.863  1.00  0.00     0.022 A 
BRANCH  13  18
ATOM     18  N   UNL A   1      31.163  27.799  22.878  1.00  0.00    -0.216 N 
ATOM     19  C   UNL A   1      32.575  26.104  23.144  1.00  0.00     0.104 A 
ATOM     20  C   UNL A   1      31.246  25.661  23.046  1.00  0.00     0.075 A 
ATOM     21  C   UNL A   1      32.515  27.479  22.908  1.00  0.00     0.058 A 
ATOM     22  C   UNL A   1      30.622  24.320  23.158  1.00  0.00     0.070 C 
ATOM     23  N   UNL A   1      30.438  26.676  22.812  1.00  0.00    -0.171 NA
ATOM     24  C   UNL A   1      33.573  28.446  22.512  1.00  0.00     0.068 C 
BRANCH  19  25
ATOM     25  C   UNL A   1      33.713  25.240  23.362  1.00  0.00     0.341 C 
ATOM     26  O   UNL A   1      34.496  25.393  24.272  1.00  0.00    -0.246 OA
BRANCH  25  27
ATOM     27  O   UNL A   1      33.861  24.348  22.339  1.00  0.00    -0.462 OA
BRANCH  27  28
ATOM     28  C   UNL A   1      34.375  23.084  22.749  1.00  0.00     0.230 C 
ATOM     29  C   UNL A   1      33.272  22.226  23.343  1.00  0.00     0.049 C 
ENDBRANCH  27  28
ENDBRANCH  25  27
ENDBRANCH  19  25
ENDBRANCH  13  18
ENDBRANCH   9  12
ENDBRANCH   7   8
ENDBRANCH   3   6
ENDBRANCH   1   2
BRANCH   1  30
ATOM     30  C   UNL A   1      32.942  22.443  27.516  1.00  0.00     0.021 C 
BRANCH  30  31
ATOM     31  C   UNL A   1      34.240  21.712  27.142  1.00  0.00     0.002 C 
BRANCH  31  32
ATOM     32  C   UNL A   1      35.335  22.472  26.387  1.00  0.00     0.002 C 
BRANCH  32  33
ATOM     33  C   UNL A   1      36.485  21.670  25.766  1.00  0.00     0.021 C 
BRANCH  33  34
ATOM     34  C   UNL A   1      37.826  22.392  25.656  1.00  0.00     0.116 C 
BRANCH  34  35
ATOM     35  N   UNL A   1      38.990  21.523  25.817  1.00  0.00    -0.352 N 
ATOM     36  C   UNL A   1      40.240  21.834  26.321  1.00  0.00     0.251 C 
ATOM     37  H   UNL A   1      38.868  20.590  25.527  1.00  0.00     0.163 HD
ATOM     38  O   UNL A   1      41.198  21.094  26.119  1.00  0.00    -0.269 OA
BRANCH  36  39
ATOM     39  C   UNL A   1      40.428  23.079  27.090  1.00  0.00     0.039 A 
ATOM     40  C   UNL A   1      41.439  23.186  28.053  1.00  0.00     0.014 A 
ATOM     41  C   UNL A   1      39.597  24.160  26.824  1.00  0.00     0.014 A 
ATOM     42  C   UNL A   1      41.666  24.416  28.671  1.00  0.00     0.010 A 
ATOM     43  C   UNL A   1      39.919  25.401  27.322  1.00  0.00     0.010 A 
ATOM     44  C   UNL A   1      40.918  25.536  28.282  1.00  0.00    -0.014 A 
BRANCH  44  45
ATOM     45  C   UNL A   1      41.247  26.875  28.781  1.00  0.00     0.031 A 
ATOM     46  C   UNL A   1      42.481  27.480  28.202  1.00  0.00     0.074 A 
ATOM     47  C   UNL A   1      40.381  27.627  29.500  1.00  0.00     0.049 A 
ATOM     48  N   UNL A   1      43.520  27.923  28.833  1.00  0.00    -0.248 NA
ATOM     49  C   UNL A   1      42.609  27.543  26.735  1.00  0.00     0.031 C 
ATOM     50  C   UNL A   1      38.993  27.285  29.838  1.00  0.00     0.029 A 
ATOM     51  N   UNL A   1      40.491  28.912  29.961  1.00  0.00    -0.354 N 
ATOM     52  C   UNL A   1      44.342  28.498  27.863  1.00  0.00     0.074 A 
ATOM     53  C   UNL A   1      43.814  28.096  26.587  1.00  0.00     0.031 C 
ATOM     54  C   UNL A   1      38.324  28.400  30.191  1.00  0.00     0.029 A 
ATOM     55  C   UNL A   1      39.273  29.492  30.300  1.00  0.00     0.049 A 
ATOM     56  H   UNL A   1      41.352  29.382  30.045  1.00  0.00     0.167 HD
ATOM     57  C   UNL A   1      45.217  29.487  28.193  1.00  0.00     0.037 A 
ATOM     58  C   UNL A   1      39.028  30.780  30.636  1.00  0.00     0.037 A 
ATOM     59  C   UNL A   1      45.389  29.579  29.618  1.00  0.00     0.049 A 
ATOM     60  C   UNL A   1      40.290  31.388  31.103  1.00  0.00     0.074 A 
ATOM     61  C   UNL A   1      46.139  28.964  30.592  1.00  0.00     0.029 A 
ATOM     62  N   UNL A   1      44.398  30.279  30.244  1.00  0.00    -0.354 N 
ATOM     63  N   UNL A   1      40.908  31.015  32.188  1.00  0.00    -0.248 NA
ATOM     64  C   UNL A   1      41.059  32.237  30.199  1.00  0.00     0.031 C 
ATOM     65  C   UNL A   1      45.491  29.238  31.834  1.00  0.00     0.029 A 
ATOM     66  C   UNL A   1      44.372  30.025  31.587  1.00  0.00     0.049 A 
ATOM     67  H   UNL A   1      43.778  30.891  29.785  1.00  0.00     0.167 HD
ATOM     68  C   UNL A   1      42.240  31.216  31.895  1.00  0.00     0.074 A 
ATOM     69  C   UNL A   1      42.263  32.132  30.765  1.00  0.00     0.031 C 
ATOM     70  C   UNL A   1      43.190  30.352  32.347  1.00  0.00     0.037 A 
BRANCH  57  71
ATOM     71  C   UNL A   1      45.551  30.684  27.325  1.00  0.00     0.064 A 
ATOM     72  C   UNL A   1      46.903  31.054  27.158  1.00  0.00     0.173 A 
ATOM     73  C   UNL A   1      44.606  31.662  26.948  1.00  0.00     0.173 A 
ATOM     74  F   UNL A   1      47.889  30.213  27.505  1.00  0.00    -0.203 F 
ATOM     75  C   UNL A   1      47.275  32.327  26.713  1.00  0.00     0.198 A 
ATOM     76  C   UNL A   1      44.980  32.912  26.455  1.00  0.00     0.198 A 
ATOM     77  F   UNL A   1      43.294  31.497  27.153  1.00  0.00    -0.203 F 
ATOM     78  F   UNL A   1      48.570  32.673  26.687  1.00  0.00    -0.200 F 
ATOM     79  C   UNL A   1      46.313  33.257  26.367  1.00  0.00     0.200 A 
ATOM     80  F   UNL A   1      44.034  33.810  26.148  1.00  0.00    -0.200 F 
ATOM     81  F   UNL A   1      46.663  34.495  25.997  1.00  0.00    -0.200 F 
ENDBRANCH  57  71
BRANCH  58  82
ATOM     82  C   UNL A   1      37.802  31.573  30.396  1.00  0.00     0.064 A 
ATOM     83  C   UNL A   1      37.215  32.359  31.396  1.00  0.00     0.173 A 
ATOM     84  C   UNL A   1      37.334  31.777  29.086  1.00  0.00     0.173 A 
ATOM     85  F   UNL A   1      37.634  32.254  32.665  1.00  0.00    -0.203 F 
ATOM     86  C   UNL A   1      36.236  33.311  31.096  1.00  0.00     0.198 A 
ATOM     87  C   UNL A   1      36.352  32.720  28.785  1.00  0.00     0.198 A 
ATOM     88  F   UNL A   1      37.894  31.119  28.065  1.00  0.00    -0.203 F 
ATOM     89  F   UNL A   1      35.739  34.087  32.070  1.00  0.00    -0.200 F 
ATOM     90  C   UNL A   1      35.812  33.499  29.789  1.00  0.00     0.200 A 
ATOM     91  F   UNL A   1      35.981  32.909  27.510  1.00  0.00    -0.200 F 
ATOM     92  F   UNL A   1      34.918  34.452  29.494  1.00  0.00    -0.200 F 
ENDBRANCH  58  82
BRANCH  70  93
ATOM     93  C   UNL A   1      42.894  29.572  33.584  1.00  0.00     0.064 A 
ATOM     94  C   UNL A   1      43.034  30.068  34.889  1.00  0.00     0.173 A 
ATOM     95  C   UNL A   1      42.372  28.281  33.431  1.00  0.00     0.173 A 
ATOM     96  F   UNL A   1      43.463  31.317  35.110  1.00  0.00    -0.203 F 
ATOM     97  C   UNL A   1      42.695  29.287  35.993  1.00  0.00     0.198 A 
ATOM     98  C   UNL A   1      42.003  27.517  34.531  1.00  0.00     0.198 A 
ATOM     99  F   UNL A   1      42.188  27.774  32.202  1.00  0.00    -0.203 F 
ATOM    100  F   UNL A   1      42.851  29.773  37.234  1.00  0.00    -0.200 F 
ATOM    101  C   UNL A   1      42.172  28.016  35.812  1.00  0.00     0.200 A 
ATOM    102  F   UNL A   1      41.466  26.303  34.348  1.00  0.00    -0.200 F 
ATOM    103  F   UNL A   1      41.815  27.278  36.872  1.00  0.00    -0.200 F 
ENDBRANCH  70  93
ENDBRANCH  44  45
ENDBRANCH  36  39
ENDBRANCH  34  35
ENDBRANCH  33  34
ENDBRANCH  32  33
ENDBRANCH  31  32
ENDBRANCH  30  31
ENDBRANCH   1  30
TORSDOF 19
ENDMDL
