MODEL 1
REMARK VINA RESULT:     -11.5      0.000      0.000
REMARK SMILES CCn1cnc(S(=O)(=O)N[C@H](CC(C)C)C(=O)NCCCCCCNC(=O)c2ccc(-c3c4nc(c(-c5c(F)c(F)c(F)c(F)c5F)c5ccc([nH]5)c(-c5c(F)c(F)c(F)c(F)c5F)c5nc(c(-c6c(F)c(F)c(F)c(F)c6F)c6ccc3[nH]6)C=C5)C=C4)cc2)c1
REMARK SMILES IDX 20 1 19 2 18 3 16 4 17 5 11 7 10 8 7 10 8 11 9 12 6 13 3 14
REMARK SMILES IDX 4 15 91 16 5 17 2 18 1 19 12 20 13 21 14 22 15 23 21 24
REMARK SMILES IDX 22 25 23 26 24 27 25 28 26 29 27 31 28 32 29 33 90 34 30 35
REMARK SMILES IDX 89 36 31 37 32 38 33 39 83 40 34 41 88 42 82 43 84 44 35 45
REMARK SMILES IDX 87 46 81 47 80 48 36 50 68 51 48 52 67 53 49 54 52 55 66 56
REMARK SMILES IDX 85 57 50 58 51 59 65 61 86 62 53 63 37 64 38 65 46 66 39 67
REMARK SMILES IDX 40 68 44 69 47 70 41 71 42 72 45 73 43 74 69 75 70 76 78 77
REMARK SMILES IDX 71 78 72 79 76 80 79 81 73 82 74 83 77 84 75 85 54 86 55 87
REMARK SMILES IDX 63 88 56 89 57 90 61 91 64 92 58 93 59 94 62 95 60 96
REMARK H PARENT 18 6 10 9 25 30 84 49 52 60
REMARK Flexibility Score: inf
ROOT
ATOM      1  C   UNL A   1      35.190  24.400  25.114  1.00  0.00     0.021 C 
ENDROOT
BRANCH   1   2
ATOM      2  C   UNL A   1      34.066  25.360  24.762  1.00  0.00     0.116 C 
BRANCH   2   3
ATOM      3  N   UNL A   1      33.405  24.987  23.532  1.00  0.00    -0.355 N 
ATOM      4  C   UNL A   1      32.083  25.023  23.220  1.00  0.00     0.238 C 
ATOM      5  O   UNL A   1      31.736  24.601  22.113  1.00  0.00    -0.273 OA
ATOM      6  H   UNL A   1      33.998  24.661  22.817  1.00  0.00     0.163 HD
BRANCH   4   7
ATOM      7  C   UNL A   1      31.049  25.539  24.222  1.00  0.00     0.159 C 
BRANCH   7   8
ATOM      8  N   UNL A   1      30.330  24.545  25.054  1.00  0.00    -0.197 NA
ATOM      9  H   UNL A   1      29.411  24.947  25.242  1.00  0.00     0.142 HD
BRANCH   8  10
ATOM     10  S   UNL A   1      30.916  24.001  26.548  1.00  0.00     0.260 S 
ATOM     11  O   UNL A   1      29.781  23.415  27.242  1.00  0.00    -0.205 OA
ATOM     12  O   UNL A   1      31.621  25.118  27.121  1.00  0.00    -0.205 OA
BRANCH  10  13
ATOM     13  C   UNL A   1      32.095  22.739  26.408  1.00  0.00     0.188 A 
ATOM     14  N   UNL A   1      33.210  20.991  25.732  1.00  0.00    -0.336 N 
ATOM     15  C   UNL A   1      33.717  21.432  26.921  1.00  0.00     0.201 A 
ATOM     16  C   UNL A   1      32.212  21.850  25.361  1.00  0.00     0.129 A 
ATOM     17  N   UNL A   1      33.060  22.477  27.368  1.00  0.00    -0.224 NA
BRANCH  14  18
ATOM     18  C   UNL A   1      33.640  19.842  24.962  1.00  0.00     0.120 C 
ATOM     19  C   UNL A   1      32.672  19.386  23.882  1.00  0.00     0.027 C 
ENDBRANCH  14  18
ENDBRANCH  10  13
ENDBRANCH   8  10
ENDBRANCH   7   8
BRANCH   7  20
ATOM     20  C   UNL A   1      30.135  26.613  23.560  1.00  0.00     0.033 C 
BRANCH  20  21
ATOM     21  C   UNL A   1      30.429  28.110  23.811  1.00  0.00    -0.015 C 
ATOM     22  C   UNL A   1      31.785  28.520  23.237  1.00  0.00     0.007 C 
ATOM     23  C   UNL A   1      29.325  28.981  23.200  1.00  0.00     0.007 C 
ENDBRANCH  20  21
ENDBRANCH   7  20
ENDBRANCH   4   7
ENDBRANCH   2   3
ENDBRANCH   1   2
BRANCH   1  24
ATOM     24  C   UNL A   1      35.408  23.308  24.065  1.00  0.00     0.002 C 
BRANCH  24  25
ATOM     25  C   UNL A   1      36.854  22.817  23.885  1.00  0.00     0.002 C 
BRANCH  25  26
ATOM     26  C   UNL A   1      37.411  21.843  24.937  1.00  0.00     0.021 C 
BRANCH  26  27
ATOM     27  C   UNL A   1      38.196  22.502  26.056  1.00  0.00     0.116 C 
BRANCH  27  28
ATOM     28  N   UNL A   1      39.538  21.931  26.227  1.00  0.00    -0.352 N 
ATOM     29  C   UNL A   1      40.755  22.571  26.383  1.00  0.00     0.251 C 
ATOM     30  H   UNL A   1      39.577  20.947  26.233  1.00  0.00     0.163 HD
ATOM     31  O   UNL A   1      41.810  21.995  26.150  1.00  0.00    -0.269 OA
BRANCH  29  32
ATOM     32  C   UNL A   1      40.764  23.963  26.859  1.00  0.00     0.039 A 
ATOM     33  C   UNL A   1      39.958  24.972  26.323  1.00  0.00     0.014 A 
ATOM     34  C   UNL A   1      41.615  24.236  27.917  1.00  0.00     0.014 A 
ATOM     35  C   UNL A   1      40.023  26.242  26.894  1.00  0.00     0.010 A 
ATOM     36  C   UNL A   1      41.405  25.342  28.673  1.00  0.00     0.010 A 
ATOM     37  C   UNL A   1      40.770  26.406  28.067  1.00  0.00    -0.014 A 
BRANCH  37  38
ATOM     38  C   UNL A   1      40.929  27.667  28.760  1.00  0.00     0.031 A 
ATOM     39  C   UNL A   1      41.997  28.523  28.213  1.00  0.00     0.074 A 
ATOM     40  C   UNL A   1      39.970  28.129  29.596  1.00  0.00     0.049 A 
ATOM     41  N   UNL A   1      43.117  28.822  28.777  1.00  0.00    -0.248 NA
ATOM     42  C   UNL A   1      41.898  28.957  26.811  1.00  0.00     0.031 C 
ATOM     43  C   UNL A   1      38.672  27.528  29.935  1.00  0.00     0.029 A 
ATOM     44  N   UNL A   1      39.909  29.331  30.224  1.00  0.00    -0.354 N 
ATOM     45  C   UNL A   1      43.771  29.666  27.888  1.00  0.00     0.074 A 
ATOM     46  C   UNL A   1      43.097  29.512  26.627  1.00  0.00     0.031 C 
ATOM     47  C   UNL A   1      37.875  28.458  30.504  1.00  0.00     0.029 A 
ATOM     48  C   UNL A   1      38.646  29.669  30.702  1.00  0.00     0.049 A 
ATOM     49  H   UNL A   1      40.693  29.916  30.333  1.00  0.00     0.167 HD
ATOM     50  C   UNL A   1      44.624  30.623  28.348  1.00  0.00     0.037 A 
ATOM     51  C   UNL A   1      38.279  30.901  31.140  1.00  0.00     0.037 A 
ATOM     52  C   UNL A   1      44.954  30.387  29.737  1.00  0.00     0.049 A 
ATOM     53  C   UNL A   1      39.541  31.622  31.487  1.00  0.00     0.074 A 
ATOM     54  C   UNL A   1      45.495  29.319  30.430  1.00  0.00     0.029 A 
ATOM     55  N   UNL A   1      44.328  31.162  30.688  1.00  0.00    -0.354 N 
ATOM     56  N   UNL A   1      40.328  31.260  32.468  1.00  0.00    -0.248 NA
ATOM     57  C   UNL A   1      40.184  32.392  30.428  1.00  0.00     0.031 C 
ATOM     58  C   UNL A   1      44.726  29.236  31.629  1.00  0.00     0.029 A 
ATOM     59  C   UNL A   1      43.837  30.311  31.646  1.00  0.00     0.049 A 
ATOM     60  H   UNL A   1      44.248  32.143  30.682  1.00  0.00     0.167 HD
ATOM     61  C   UNL A   1      41.613  31.369  31.954  1.00  0.00     0.074 A 
ATOM     62  C   UNL A   1      41.463  32.127  30.712  1.00  0.00     0.031 C 
ATOM     63  C   UNL A   1      42.632  30.574  32.398  1.00  0.00     0.037 A 
BRANCH  50  64
ATOM     64  C   UNL A   1      44.841  31.972  27.700  1.00  0.00     0.064 A 
ATOM     65  C   UNL A   1      46.035  32.179  26.977  1.00  0.00     0.173 A 
ATOM     66  C   UNL A   1      44.109  33.140  28.003  1.00  0.00     0.173 A 
ATOM     67  F   UNL A   1      46.809  31.143  26.625  1.00  0.00    -0.203 F 
ATOM     68  C   UNL A   1      46.514  33.459  26.693  1.00  0.00     0.198 A 
ATOM     69  C   UNL A   1      44.563  34.414  27.666  1.00  0.00     0.198 A 
ATOM     70  F   UNL A   1      42.986  33.124  28.728  1.00  0.00    -0.203 F 
ATOM     71  F   UNL A   1      47.724  33.606  26.138  1.00  0.00    -0.200 F 
ATOM     72  C   UNL A   1      45.784  34.577  27.050  1.00  0.00     0.200 A 
ATOM     73  F   UNL A   1      43.843  35.485  28.030  1.00  0.00    -0.200 F 
ATOM     74  F   UNL A   1      46.273  35.805  26.847  1.00  0.00    -0.200 F 
ENDBRANCH  50  64
BRANCH  51  75
ATOM     75  C   UNL A   1      36.976  31.581  30.918  1.00  0.00     0.064 A 
ATOM     76  C   UNL A   1      36.115  31.887  31.986  1.00  0.00     0.173 A 
ATOM     77  C   UNL A   1      36.654  32.173  29.678  1.00  0.00     0.173 A 
ATOM     78  F   UNL A   1      36.372  31.415  33.214  1.00  0.00    -0.203 F 
ATOM     79  C   UNL A   1      35.013  32.737  31.824  1.00  0.00     0.198 A 
ATOM     80  C   UNL A   1      35.549  33.012  29.516  1.00  0.00     0.198 A 
ATOM     81  F   UNL A   1      37.454  32.026  28.613  1.00  0.00    -0.203 F 
ATOM     82  F   UNL A   1      34.247  33.051  32.880  1.00  0.00    -0.200 F 
ATOM     83  C   UNL A   1      34.735  33.304  30.591  1.00  0.00     0.200 A 
ATOM     84  F   UNL A   1      35.320  33.582  28.324  1.00  0.00    -0.200 F 
ATOM     85  F   UNL A   1      33.713  34.160  30.447  1.00  0.00    -0.200 F 
ENDBRANCH  51  75
BRANCH  63  86
ATOM     86  C   UNL A   1      42.410  29.720  33.618  1.00  0.00     0.064 A 
ATOM     87  C   UNL A   1      41.899  28.410  33.584  1.00  0.00     0.173 A 
ATOM     88  C   UNL A   1      42.917  30.175  34.843  1.00  0.00     0.173 A 
ATOM     89  F   UNL A   1      41.495  27.858  32.436  1.00  0.00    -0.203 F 
ATOM     90  C   UNL A   1      41.865  27.613  34.728  1.00  0.00     0.198 A 
ATOM     91  C   UNL A   1      42.917  29.365  35.975  1.00  0.00     0.198 A 
ATOM     92  F   UNL A   1      43.472  31.395  34.929  1.00  0.00    -0.203 F 
ATOM     93  F   UNL A   1      41.370  26.368  34.664  1.00  0.00    -0.200 F 
ATOM     94  C   UNL A   1      42.383  28.088  35.920  1.00  0.00     0.200 A 
ATOM     95  F   UNL A   1      43.468  29.810  37.113  1.00  0.00    -0.200 F 
ATOM     96  F   UNL A   1      42.395  27.306  37.008  1.00  0.00    -0.200 F 
ENDBRANCH  63  86
ENDBRANCH  37  38
ENDBRANCH  29  32
ENDBRANCH  27  28
ENDBRANCH  26  27
ENDBRANCH  25  26
ENDBRANCH  24  25
ENDBRANCH   1  24
TORSDOF 19
ENDMDL
MODEL 2
REMARK VINA RESULT:     -11.5      1.323      3.337
REMARK SMILES CCn1cnc(S(=O)(=O)N[C@H](CC(C)C)C(=O)NCCCCCCNC(=O)c2ccc(-c3c4nc(c(-c5c(F)c(F)c(F)c(F)c5F)c5ccc([nH]5)c(-c5c(F)c(F)c(F)c(F)c5F)c5nc(c(-c6c(F)c(F)c(F)c(F)c6F)c6ccc3[nH]6)C=C5)C=C4)cc2)c1
REMARK SMILES IDX 20 1 19 2 18 3 16 4 17 5 11 7 10 8 7 10 8 11 9 12 6 13 3 14
REMARK SMILES IDX 4 15 91 16 5 17 2 18 1 19 12 20 13 21 14 22 15 23 21 24
REMARK SMILES IDX 22 25 23 26 24 27 25 28 26 29 27 31 28 32 29 33 90 34 30 35
REMARK SMILES IDX 89 36 31 37 32 38 33 39 83 40 34 41 88 42 82 43 84 44 35 45
REMARK SMILES IDX 87 46 81 47 80 48 36 50 68 51 48 52 67 53 49 54 52 55 66 56
REMARK SMILES IDX 85 57 50 58 51 59 65 61 86 62 53 63 37 64 38 65 46 66 39 67
REMARK SMILES IDX 40 68 44 69 47 70 41 71 42 72 45 73 43 74 69 75 70 76 78 77
REMARK SMILES IDX 71 78 72 79 76 80 79 81 73 82 74 83 77 84 75 85 54 86 55 87
REMARK SMILES IDX 63 88 56 89 57 90 61 91 64 92 58 93 59 94 62 95 60 96
REMARK H PARENT 18 6 10 9 25 30 84 49 52 60
REMARK Flexibility Score: inf
ROOT
ATOM      1  C   UNL A   1      34.974  23.532  26.115  1.00  0.00     0.021 C 
ENDROOT
BRANCH   1   2
ATOM      2  C   UNL A   1      34.267  24.845  25.822  1.00  0.00     0.116 C 
BRANCH   2   3
ATOM      3  N   UNL A   1      32.842  24.665  25.659  1.00  0.00    -0.355 N 
ATOM      4  C   UNL A   1      32.144  24.286  24.557  1.00  0.00     0.238 C 
ATOM      5  O   UNL A   1      30.912  24.249  24.635  1.00  0.00    -0.273 OA
ATOM      6  H   UNL A   1      32.300  24.843  26.462  1.00  0.00     0.163 HD
BRANCH   4   7
ATOM      7  C   UNL A   1      32.857  23.944  23.249  1.00  0.00     0.159 C 
BRANCH   7   8
ATOM      8  N   UNL A   1      32.219  24.364  21.979  1.00  0.00    -0.197 NA
ATOM      9  H   UNL A   1      32.585  23.739  21.259  1.00  0.00     0.142 HD
BRANCH   8  10
ATOM     10  S   UNL A   1      32.363  25.931  21.351  1.00  0.00     0.260 S 
ATOM     11  O   UNL A   1      31.619  25.940  20.103  1.00  0.00    -0.205 OA
ATOM     12  O   UNL A   1      33.772  26.228  21.362  1.00  0.00    -0.205 OA
BRANCH  10  13
ATOM     13  C   UNL A   1      31.634  27.144  22.352  1.00  0.00     0.188 A 
ATOM     14  N   UNL A   1      31.262  28.589  23.942  1.00  0.00    -0.336 N 
ATOM     15  C   UNL A   1      30.142  28.448  23.175  1.00  0.00     0.201 A 
ATOM     16  C   UNL A   1      32.244  27.808  23.396  1.00  0.00     0.129 A 
ATOM     17  N   UNL A   1      30.323  27.571  22.213  1.00  0.00    -0.224 NA
BRANCH  14  18
ATOM     18  C   UNL A   1      31.429  29.423  25.115  1.00  0.00     0.120 C 
ATOM     19  C   UNL A   1      32.865  29.628  25.567  1.00  0.00     0.027 C 
ENDBRANCH  14  18
ENDBRANCH  10  13
ENDBRANCH   8  10
ENDBRANCH   7   8
BRANCH   7  20
ATOM     20  C   UNL A   1      33.356  22.468  23.267  1.00  0.00     0.033 C 
BRANCH  20  21
ATOM     21  C   UNL A   1      32.373  21.345  23.668  1.00  0.00    -0.015 C 
ATOM     22  C   UNL A   1      32.077  20.413  22.493  1.00  0.00     0.007 C 
ATOM     23  C   UNL A   1      32.935  20.535  24.842  1.00  0.00     0.007 C 
ENDBRANCH  20  21
ENDBRANCH   7  20
ENDBRANCH   4   7
ENDBRANCH   2   3
ENDBRANCH   1   2
BRANCH   1  24
ATOM     24  C   UNL A   1      36.404  23.477  25.575  1.00  0.00     0.002 C 
BRANCH  24  25
ATOM     25  C   UNL A   1      36.786  22.213  24.788  1.00  0.00     0.002 C 
BRANCH  25  26
ATOM     26  C   UNL A   1      38.091  21.498  25.179  1.00  0.00     0.021 C 
BRANCH  26  27
ATOM     27  C   UNL A   1      38.937  22.238  26.199  1.00  0.00     0.116 C 
BRANCH  27  28
ATOM     28  N   UNL A   1      40.352  21.847  26.160  1.00  0.00    -0.352 N 
ATOM     29  C   UNL A   1      41.487  22.638  26.197  1.00  0.00     0.251 C 
ATOM     30  H   UNL A   1      40.517  20.878  26.101  1.00  0.00     0.163 HD
ATOM     31  O   UNL A   1      42.565  22.221  25.796  1.00  0.00    -0.269 OA
BRANCH  29  32
ATOM     32  C   UNL A   1      41.381  23.997  26.752  1.00  0.00     0.039 A 
ATOM     33  C   UNL A   1      40.380  24.905  26.397  1.00  0.00     0.014 A 
ATOM     34  C   UNL A   1      42.334  24.342  27.696  1.00  0.00     0.014 A 
ATOM     35  C   UNL A   1      40.359  26.147  27.029  1.00  0.00     0.010 A 
ATOM     36  C   UNL A   1      42.093  25.374  28.540  1.00  0.00     0.010 A 
ATOM     37  C   UNL A   1      41.242  26.365  28.095  1.00  0.00    -0.014 A 
BRANCH  37  38
ATOM     38  C   UNL A   1      41.332  27.605  28.835  1.00  0.00     0.031 A 
ATOM     39  C   UNL A   1      42.422  28.493  28.389  1.00  0.00     0.074 A 
ATOM     40  C   UNL A   1      40.311  28.027  29.617  1.00  0.00     0.049 A 
ATOM     41  N   UNL A   1      43.495  28.789  29.038  1.00  0.00    -0.248 NA
ATOM     42  C   UNL A   1      42.412  28.969  26.998  1.00  0.00     0.031 C 
ATOM     43  C   UNL A   1      39.002  27.398  29.846  1.00  0.00     0.029 A 
ATOM     44  N   UNL A   1      40.188  29.208  30.275  1.00  0.00    -0.354 N 
ATOM     45  C   UNL A   1      44.196  29.669  28.223  1.00  0.00     0.074 A 
ATOM     46  C   UNL A   1      43.612  29.546  26.915  1.00  0.00     0.031 C 
ATOM     47  C   UNL A   1      38.154  28.299  30.387  1.00  0.00     0.029 A 
ATOM     48  C   UNL A   1      38.890  29.513  30.674  1.00  0.00     0.049 A 
ATOM     49  H   UNL A   1      40.954  29.800  30.456  1.00  0.00     0.167 HD
ATOM     50  C   UNL A   1      45.000  30.623  28.769  1.00  0.00     0.037 A 
ATOM     51  C   UNL A   1      38.475  30.726  31.123  1.00  0.00     0.037 A 
ATOM     52  C   UNL A   1      45.237  30.348  30.170  1.00  0.00     0.049 A 
ATOM     53  C   UNL A   1      39.698  31.453  31.578  1.00  0.00     0.074 A 
ATOM     54  C   UNL A   1      45.746  29.266  30.866  1.00  0.00     0.029 A 
ATOM     55  N   UNL A   1      44.536  31.084  31.099  1.00  0.00    -0.354 N 
ATOM     56  N   UNL A   1      40.421  31.072  32.600  1.00  0.00    -0.248 NA
ATOM     57  C   UNL A   1      40.400  32.264  30.591  1.00  0.00     0.031 C 
ATOM     58  C   UNL A   1      44.898  29.135  32.007  1.00  0.00     0.029 A 
ATOM     59  C   UNL A   1      43.993  30.197  31.994  1.00  0.00     0.049 A 
ATOM     60  H   UNL A   1      44.440  32.063  31.117  1.00  0.00     0.167 HD
ATOM     61  C   UNL A   1      41.737  31.214  32.180  1.00  0.00     0.074 A 
ATOM     62  C   UNL A   1      41.660  32.008  30.954  1.00  0.00     0.031 C 
ATOM     63  C   UNL A   1      42.735  30.419  32.669  1.00  0.00     0.037 A 
BRANCH  50  64
ATOM     64  C   UNL A   1      45.240  31.994  28.180  1.00  0.00     0.064 A 
ATOM     65  C   UNL A   1      44.126  32.835  27.971  1.00  0.00     0.173 A 
ATOM     66  C   UNL A   1      46.429  32.399  27.536  1.00  0.00     0.173 A 
ATOM     67  F   UNL A   1      42.944  32.556  28.541  1.00  0.00    -0.203 F 
ATOM     68  C   UNL A   1      44.171  33.917  27.092  1.00  0.00     0.198 A 
ATOM     69  C   UNL A   1      46.485  33.515  26.703  1.00  0.00     0.198 A 
ATOM     70  F   UNL A   1      47.559  31.686  27.585  1.00  0.00    -0.203 F 
ATOM     71  F   UNL A   1      43.049  34.593  26.814  1.00  0.00    -0.200 F 
ATOM     72  C   UNL A   1      45.348  34.249  26.448  1.00  0.00     0.200 A 
ATOM     73  F   UNL A   1      47.634  33.813  26.081  1.00  0.00    -0.200 F 
ATOM     74  F   UNL A   1      45.378  35.239  25.548  1.00  0.00    -0.200 F 
ENDBRANCH  50  64
BRANCH  51  75
ATOM     75  C   UNL A   1      37.179  31.394  30.833  1.00  0.00     0.064 A 
ATOM     76  C   UNL A   1      36.235  31.640  31.844  1.00  0.00     0.173 A 
ATOM     77  C   UNL A   1      36.939  32.035  29.598  1.00  0.00     0.173 A 
ATOM     78  F   UNL A   1      36.408  31.118  33.067  1.00  0.00    -0.203 F 
ATOM     79  C   UNL A   1      35.132  32.479  31.636  1.00  0.00     0.198 A 
ATOM     80  C   UNL A   1      35.835  32.863  29.388  1.00  0.00     0.198 A 
ATOM     81  F   UNL A   1      37.820  31.948  28.591  1.00  0.00    -0.203 F 
ATOM     82  F   UNL A   1      34.283  32.734  32.643  1.00  0.00    -0.200 F 
ATOM     83  C   UNL A   1      34.937  33.095  30.411  1.00  0.00     0.200 A 
ATOM     84  F   UNL A   1      35.685  33.482  28.208  1.00  0.00    -0.200 F 
ATOM     85  F   UNL A   1      33.912  33.941  30.226  1.00  0.00    -0.200 F 
ENDBRANCH  51  75
BRANCH  63  86
ATOM     86  C   UNL A   1      42.444  29.525  33.844  1.00  0.00     0.064 A 
ATOM     87  C   UNL A   1      41.882  28.239  33.739  1.00  0.00     0.173 A 
ATOM     88  C   UNL A   1      42.932  29.906  35.101  1.00  0.00     0.173 A 
ATOM     89  F   UNL A   1      41.491  27.753  32.557  1.00  0.00    -0.203 F 
ATOM     90  C   UNL A   1      41.782  27.397  34.846  1.00  0.00     0.198 A 
ATOM     91  C   UNL A   1      42.866  29.050  36.197  1.00  0.00     0.198 A 
ATOM     92  F   UNL A   1      43.533  31.097  35.255  1.00  0.00    -0.203 F 
ATOM     93  F   UNL A   1      41.240  26.177  34.715  1.00  0.00    -0.200 F 
ATOM     94  C   UNL A   1      42.283  27.799  36.072  1.00  0.00     0.200 A 
ATOM     95  F   UNL A   1      43.401  29.424  37.367  1.00  0.00    -0.200 F 
ATOM     96  F   UNL A   1      42.232  26.972  37.125  1.00  0.00    -0.200 F 
ENDBRANCH  63  86
ENDBRANCH  37  38
ENDBRANCH  29  32
ENDBRANCH  27  28
ENDBRANCH  26  27
ENDBRANCH  25  26
ENDBRANCH  24  25
ENDBRANCH   1  24
TORSDOF 19
ENDMDL
MODEL 3
REMARK VINA RESULT:     -11.4      2.922      8.254
REMARK SMILES CCn1cnc(S(=O)(=O)N[C@H](CC(C)C)C(=O)NCCCCCCNC(=O)c2ccc(-c3c4nc(c(-c5c(F)c(F)c(F)c(F)c5F)c5ccc([nH]5)c(-c5c(F)c(F)c(F)c(F)c5F)c5nc(c(-c6c(F)c(F)c(F)c(F)c6F)c6ccc3[nH]6)C=C5)C=C4)cc2)c1
REMARK SMILES IDX 20 1 19 2 18 3 16 4 17 5 11 7 10 8 7 10 8 11 9 12 6 13 3 14
REMARK SMILES IDX 4 15 91 16 5 17 2 18 1 19 12 20 13 21 14 22 15 23 21 24
REMARK SMILES IDX 22 25 23 26 24 27 25 28 26 29 27 31 28 32 29 33 90 34 30 35
REMARK SMILES IDX 89 36 31 37 32 38 33 39 83 40 34 41 88 42 82 43 84 44 35 45
REMARK SMILES IDX 87 46 81 47 80 48 36 50 68 51 48 52 67 53 49 54 52 55 66 56
REMARK SMILES IDX 85 57 50 58 51 59 65 61 86 62 53 63 37 64 38 65 46 66 39 67
REMARK SMILES IDX 40 68 44 69 47 70 41 71 42 72 45 73 43 74 69 75 70 76 78 77
REMARK SMILES IDX 71 78 72 79 76 80 79 81 73 82 74 83 77 84 75 85 54 86 55 87
REMARK SMILES IDX 63 88 56 89 57 90 61 91 64 92 58 93 59 94 62 95 60 96
REMARK H PARENT 18 6 10 9 25 30 84 49 52 60
REMARK Flexibility Score: inf
ROOT
ATOM      1  C   UNL A   1      31.719  28.576  26.888  1.00  0.00     0.021 C 
ENDROOT
BRANCH   1   2
ATOM      2  C   UNL A   1      32.674  27.463  26.492  1.00  0.00     0.116 C 
BRANCH   2   3
ATOM      3  N   UNL A   1      33.279  27.707  25.202  1.00  0.00    -0.355 N 
ATOM      4  C   UNL A   1      33.189  26.980  24.058  1.00  0.00     0.238 C 
ATOM      5  O   UNL A   1      33.842  27.354  23.079  1.00  0.00    -0.273 OA
ATOM      6  H   UNL A   1      33.837  28.516  25.145  1.00  0.00     0.163 HD
BRANCH   4   7
ATOM      7  C   UNL A   1      32.330  25.717  23.990  1.00  0.00     0.159 C 
BRANCH   7   8
ATOM      8  N   UNL A   1      32.991  24.446  23.612  1.00  0.00    -0.197 NA
ATOM      9  H   UNL A   1      32.599  24.182  22.708  1.00  0.00     0.142 HD
BRANCH   8  10
ATOM     10  S   UNL A   1      32.924  23.052  24.574  1.00  0.00     0.260 S 
ATOM     11  O   UNL A   1      32.288  22.027  23.764  1.00  0.00    -0.205 OA
ATOM     12  O   UNL A   1      32.332  23.467  25.820  1.00  0.00    -0.205 OA
BRANCH  10  13
ATOM     13  C   UNL A   1      34.485  22.430  24.996  1.00  0.00     0.188 A 
ATOM     14  N   UNL A   1      36.605  22.268  25.483  1.00  0.00    -0.336 N 
ATOM     15  C   UNL A   1      36.066  21.021  25.343  1.00  0.00     0.201 A 
ATOM     16  C   UNL A   1      35.596  23.179  25.323  1.00  0.00     0.129 A 
ATOM     17  N   UNL A   1      34.790  21.079  25.034  1.00  0.00    -0.224 NA
BRANCH  14  18
ATOM     18  C   UNL A   1      37.983  22.606  25.773  1.00  0.00     0.120 C 
ATOM     19  C   UNL A   1      38.200  23.983  26.379  1.00  0.00     0.027 C 
ENDBRANCH  14  18
ENDBRANCH  10  13
ENDBRANCH   8  10
ENDBRANCH   7   8
BRANCH   7  20
ATOM     20  C   UNL A   1      30.995  26.003  23.239  1.00  0.00     0.033 C 
BRANCH  20  21
ATOM     21  C   UNL A   1      30.035  27.080  23.792  1.00  0.00    -0.015 C 
ATOM     22  C   UNL A   1      29.950  28.289  22.861  1.00  0.00     0.007 C 
ATOM     23  C   UNL A   1      28.635  26.491  24.003  1.00  0.00     0.007 C 
ENDBRANCH  20  21
ENDBRANCH   7  20
ENDBRANCH   4   7
ENDBRANCH   2   3
ENDBRANCH   1   2
BRANCH   1  24
ATOM     24  C   UNL A   1      31.995  29.899  26.171  1.00  0.00     0.002 C 
BRANCH  24  25
ATOM     25  C   UNL A   1      32.692  30.989  27.001  1.00  0.00     0.002 C 
BRANCH  25  26
ATOM     26  C   UNL A   1      34.138  30.724  27.453  1.00  0.00     0.021 C 
BRANCH  26  27
ATOM     27  C   UNL A   1      34.947  31.973  27.750  1.00  0.00     0.116 C 
BRANCH  27  28
ATOM     28  N   UNL A   1      34.719  32.493  29.104  1.00  0.00    -0.352 N 
ATOM     29  C   UNL A   1      35.194  32.030  30.319  1.00  0.00     0.251 C 
ATOM     30  H   UNL A   1      34.144  33.291  29.155  1.00  0.00     0.163 HD
ATOM     31  O   UNL A   1      34.643  32.327  31.372  1.00  0.00    -0.269 OA
BRANCH  29  32
ATOM     32  C   UNL A   1      36.398  31.184  30.329  1.00  0.00     0.039 A 
ATOM     33  C   UNL A   1      36.364  29.788  30.276  1.00  0.00     0.014 A 
ATOM     34  C   UNL A   1      37.609  31.854  30.367  1.00  0.00     0.014 A 
ATOM     35  C   UNL A   1      37.577  29.099  30.243  1.00  0.00     0.010 A 
ATOM     36  C   UNL A   1      38.737  31.212  29.977  1.00  0.00     0.010 A 
ATOM     37  C   UNL A   1      38.758  29.839  30.108  1.00  0.00    -0.014 A 
BRANCH  37  38
ATOM     38  C   UNL A   1      40.082  29.256  30.066  1.00  0.00     0.031 A 
ATOM     39  C   UNL A   1      40.684  29.039  31.395  1.00  0.00     0.074 A 
ATOM     40  C   UNL A   1      40.553  28.673  28.940  1.00  0.00     0.049 A 
ATOM     41  N   UNL A   1      41.689  29.666  31.902  1.00  0.00    -0.248 NA
ATOM     42  C   UNL A   1      39.991  28.153  32.342  1.00  0.00     0.031 C 
ATOM     43  C   UNL A   1      39.883  28.494  27.643  1.00  0.00     0.029 A 
ATOM     44  N   UNL A   1      41.710  27.983  28.770  1.00  0.00    -0.354 N 
ATOM     45  C   UNL A   1      41.895  29.097  33.152  1.00  0.00     0.074 A 
ATOM     46  C   UNL A   1      40.695  28.365  33.455  1.00  0.00     0.031 C 
ATOM     47  C   UNL A   1      40.539  27.562  26.918  1.00  0.00     0.029 A 
ATOM     48  C   UNL A   1      41.744  27.186  27.629  1.00  0.00     0.049 A 
ATOM     49  H   UNL A   1      42.463  28.042  29.400  1.00  0.00     0.167 HD
ATOM     50  C   UNL A   1      43.145  29.049  33.691  1.00  0.00     0.037 A 
ATOM     51  C   UNL A   1      42.674  26.231  27.370  1.00  0.00     0.037 A 
ATOM     52  C   UNL A   1      44.046  29.918  32.965  1.00  0.00     0.049 A 
ATOM     53  C   UNL A   1      43.860  26.550  28.221  1.00  0.00     0.074 A 
ATOM     54  C   UNL A   1      44.039  31.264  32.649  1.00  0.00     0.029 A 
ATOM     55  N   UNL A   1      44.923  29.337  32.076  1.00  0.00    -0.354 N 
ATOM     56  N   UNL A   1      44.590  27.623  28.060  1.00  0.00    -0.248 NA
ATOM     57  C   UNL A   1      43.900  25.967  29.556  1.00  0.00     0.031 C 
ATOM     58  C   UNL A   1      44.479  31.323  31.292  1.00  0.00     0.029 A 
ATOM     59  C   UNL A   1      44.824  30.030  30.896  1.00  0.00     0.049 A 
ATOM     60  H   UNL A   1      45.512  28.569  32.255  1.00  0.00     0.167 HD
ATOM     61  C   UNL A   1      44.826  28.092  29.345  1.00  0.00     0.074 A 
ATOM     62  C   UNL A   1      44.424  26.997  30.229  1.00  0.00     0.031 C 
ATOM     63  C   UNL A   1      45.015  29.421  29.600  1.00  0.00     0.037 A 
BRANCH  50  64
ATOM     64  C   UNL A   1      43.659  27.947  34.590  1.00  0.00     0.064 A 
ATOM     65  C   UNL A   1      43.569  26.617  34.130  1.00  0.00     0.173 A 
ATOM     66  C   UNL A   1      43.939  28.093  35.965  1.00  0.00     0.173 A 
ATOM     67  F   UNL A   1      43.316  26.355  32.839  1.00  0.00    -0.203 F 
ATOM     68  C   UNL A   1      43.631  25.528  35.001  1.00  0.00     0.198 A 
ATOM     69  C   UNL A   1      44.057  27.000  36.823  1.00  0.00     0.198 A 
ATOM     70  F   UNL A   1      44.002  29.282  36.571  1.00  0.00    -0.203 F 
ATOM     71  F   UNL A   1      43.390  24.294  34.539  1.00  0.00    -0.200 F 
ATOM     72  C   UNL A   1      43.862  25.721  36.350  1.00  0.00     0.200 A 
ATOM     73  F   UNL A   1      44.273  27.211  38.129  1.00  0.00    -0.200 F 
ATOM     74  F   UNL A   1      43.848  24.688  37.199  1.00  0.00    -0.200 F 
ENDBRANCH  50  64
BRANCH  51  75
ATOM     75  C   UNL A   1      42.446  24.905  26.738  1.00  0.00     0.064 A 
ATOM     76  C   UNL A   1      43.128  24.518  25.572  1.00  0.00     0.173 A 
ATOM     77  C   UNL A   1      41.735  23.883  27.403  1.00  0.00     0.173 A 
ATOM     78  F   UNL A   1      43.875  25.409  24.903  1.00  0.00    -0.203 F 
ATOM     79  C   UNL A   1      43.110  23.195  25.111  1.00  0.00     0.198 A 
ATOM     80  C   UNL A   1      41.709  22.567  26.938  1.00  0.00     0.198 A 
ATOM     81  F   UNL A   1      41.123  24.114  28.573  1.00  0.00    -0.203 F 
ATOM     82  F   UNL A   1      43.820  22.853  24.026  1.00  0.00    -0.200 F 
ATOM     83  C   UNL A   1      42.406  22.219  25.798  1.00  0.00     0.200 A 
ATOM     84  F   UNL A   1      41.055  21.629  27.638  1.00  0.00    -0.200 F 
ATOM     85  F   UNL A   1      42.431  20.943  25.388  1.00  0.00    -0.200 F 
ENDBRANCH  51  75
BRANCH  63  86
ATOM     86  C   UNL A   1      45.194  30.366  28.442  1.00  0.00     0.064 A 
ATOM     87  C   UNL A   1      44.144  31.070  27.826  1.00  0.00     0.173 A 
ATOM     88  C   UNL A   1      46.500  30.717  28.072  1.00  0.00     0.173 A 
ATOM     89  F   UNL A   1      42.874  30.876  28.197  1.00  0.00    -0.203 F 
ATOM     90  C   UNL A   1      44.390  32.049  26.864  1.00  0.00     0.198 A 
ATOM     91  C   UNL A   1      46.746  31.721  27.139  1.00  0.00     0.198 A 
ATOM     92  F   UNL A   1      47.548  30.124  28.666  1.00  0.00    -0.203 F 
ATOM     93  F   UNL A   1      43.367  32.702  26.294  1.00  0.00    -0.200 F 
ATOM     94  C   UNL A   1      45.691  32.380  26.529  1.00  0.00     0.200 A 
ATOM     95  F   UNL A   1      48.007  32.074  26.858  1.00  0.00    -0.200 F 
ATOM     96  F   UNL A   1      45.931  33.354  25.640  1.00  0.00    -0.200 F 
ENDBRANCH  63  86
ENDBRANCH  37  38
ENDBRANCH  29  32
ENDBRANCH  27  28
ENDBRANCH  26  27
ENDBRANCH  25  26
ENDBRANCH  24  25
ENDBRANCH   1  24
TORSDOF 19
ENDMDL
