MODEL 1
REMARK VINA RESULT:     -13.8      0.000      0.000
REMARK SMILES Cc1ccc(F)cc1NC(=O)c1nn(C)cc1C(=O)NCCCCCCNC(=O)c1ccc(-c2c3nc(c(-c4c(F)c(F)c(F)c(F)c4F)c4ccc([nH]4)c(-c4c(F)c(F)c(F)c(F)c4F)c4nc(c(-c5c(F)c(F)c(F)c(F)c5F)c5ccc2[nH]5)C=C4)C=C3)cc1
REMARK SMILES IDX 23 1 22 2 21 3 20 4 18 5 19 6 17 8 12 9 13 10 14 11 16 12
REMARK SMILES IDX 15 13 10 14 9 15 11 17 8 18 1 19 2 20 3 21 4 22 7 23 5 24
REMARK SMILES IDX 6 25 24 26 25 27 26 28 27 29 28 30 29 32 30 33 31 34 92 35
REMARK SMILES IDX 32 36 91 37 33 38 34 39 35 40 85 41 36 42 90 43 84 44 86 45
REMARK SMILES IDX 37 46 89 47 83 48 82 49 38 51 70 52 50 53 69 54 51 55 54 56
REMARK SMILES IDX 68 57 87 58 52 59 53 60 67 62 88 63 55 64 39 65 40 66 48 67
REMARK SMILES IDX 41 68 42 69 46 70 49 71 43 72 44 73 47 74 45 75 71 76 72 77
REMARK SMILES IDX 80 78 73 79 74 80 78 81 81 82 75 83 76 84 79 85 77 86 56 87
REMARK SMILES IDX 57 88 65 89 58 90 59 91 63 92 66 93 60 94 61 95 64 96 62 97
REMARK H PARENT 20 7 9 16 27 31 86 50 54 61
REMARK Flexibility Score: inf
ROOT
ATOM      1  C   UNL A   1      32.746  27.848  24.849  1.00  0.00     0.002 C 
ENDROOT
BRANCH   1   2
ATOM      2  C   UNL A   1      32.838  26.349  25.135  1.00  0.00     0.021 C 
BRANCH   2   3
ATOM      3  C   UNL A   1      34.032  25.609  24.542  1.00  0.00     0.116 C 
BRANCH   3   4
ATOM      4  N   UNL A   1      33.744  24.902  23.311  1.00  0.00    -0.352 N 
ATOM      5  C   UNL A   1      34.036  23.611  22.937  1.00  0.00     0.255 C 
ATOM      6  O   UNL A   1      33.670  23.232  21.830  1.00  0.00    -0.269 OA
ATOM      7  H   UNL A   1      33.262  25.430  22.634  1.00  0.00     0.163 HD
BRANCH   5   8
ATOM      8  C   UNL A   1      34.821  22.765  23.817  1.00  0.00     0.090 A 
ATOM      9  C   UNL A   1      34.324  21.975  24.902  1.00  0.00     0.163 A 
ATOM     10  N   UNL A   1      35.309  21.239  25.457  1.00  0.00    -0.167 NA
ATOM     11  N   UNL A   1      36.402  21.566  24.758  1.00  0.00    -0.274 N 
ATOM     12  C   UNL A   1      36.186  22.540  23.834  1.00  0.00     0.123 A 
ATOM     13  C   UNL A   1      37.627  20.836  24.977  1.00  0.00     0.173 C 
BRANCH   9  14
ATOM     14  C   UNL A   1      32.950  21.883  25.408  1.00  0.00     0.277 C 
ATOM     15  N   UNL A   1      32.193  20.739  25.242  1.00  0.00    -0.320 N 
ATOM     16  H   UNL A   1      31.253  20.854  25.510  1.00  0.00     0.170 HD
ATOM     17  O   UNL A   1      32.408  22.838  25.973  1.00  0.00    -0.267 OA
BRANCH  15  18
ATOM     18  C   UNL A   1      32.481  19.444  24.769  1.00  0.00     0.047 A 
ATOM     19  C   UNL A   1      32.033  20.187  22.328  1.00  0.00     0.046 C 
ATOM     20  C   UNL A   1      32.476  19.197  23.375  1.00  0.00    -0.027 A 
ATOM     21  C   UNL A   1      32.885  17.934  22.895  1.00  0.00     0.008 A 
ATOM     22  C   UNL A   1      33.257  16.919  23.771  1.00  0.00     0.039 A 
ATOM     23  C   UNL A   1      32.766  18.380  25.631  1.00  0.00     0.065 A 
ATOM     24  C   UNL A   1      33.167  17.146  25.131  1.00  0.00     0.125 A 
ATOM     25  F   UNL A   1      33.484  16.164  25.986  1.00  0.00    -0.207 F 
ENDBRANCH  15  18
ENDBRANCH   9  14
ENDBRANCH   5   8
ENDBRANCH   3   4
ENDBRANCH   2   3
ENDBRANCH   1   2
BRANCH   1  26
ATOM     26  C   UNL A   1      32.336  28.750  26.021  1.00  0.00     0.002 C 
BRANCH  26  27
ATOM     27  C   UNL A   1      33.251  28.743  27.250  1.00  0.00     0.021 C 
BRANCH  27  28
ATOM     28  C   UNL A   1      34.705  29.003  26.918  1.00  0.00     0.116 C 
BRANCH  28  29
ATOM     29  N   UNL A   1      35.088  30.394  27.136  1.00  0.00    -0.352 N 
ATOM     30  C   UNL A   1      36.142  30.864  27.891  1.00  0.00     0.251 C 
ATOM     31  H   UNL A   1      34.528  31.074  26.696  1.00  0.00     0.163 HD
ATOM     32  O   UNL A   1      36.183  32.023  28.278  1.00  0.00    -0.269 OA
BRANCH  30  33
ATOM     33  C   UNL A   1      37.242  29.932  28.197  1.00  0.00     0.039 A 
ATOM     34  C   UNL A   1      37.297  29.207  29.395  1.00  0.00     0.014 A 
ATOM     35  C   UNL A   1      38.253  29.818  27.250  1.00  0.00     0.014 A 
ATOM     36  C   UNL A   1      38.372  28.345  29.620  1.00  0.00     0.010 A 
ATOM     37  C   UNL A   1      39.195  28.845  27.382  1.00  0.00     0.010 A 
ATOM     38  C   UNL A   1      39.315  28.179  28.604  1.00  0.00    -0.014 A 
BRANCH  38  39
ATOM     39  C   UNL A   1      40.570  27.459  28.724  1.00  0.00     0.031 A 
ATOM     40  C   UNL A   1      40.663  26.021  28.463  1.00  0.00     0.074 A 
ATOM     41  C   UNL A   1      41.659  28.246  28.872  1.00  0.00     0.049 A 
ATOM     42  N   UNL A   1      41.599  25.267  28.923  1.00  0.00    -0.248 NA
ATOM     43  C   UNL A   1      39.693  25.305  27.642  1.00  0.00     0.031 C 
ATOM     44  C   UNL A   1      43.066  27.947  28.673  1.00  0.00     0.029 A 
ATOM     45  N   UNL A   1      41.656  29.567  29.350  1.00  0.00    -0.354 N 
ATOM     46  C   UNL A   1      41.558  24.089  28.211  1.00  0.00     0.074 A 
ATOM     47  C   UNL A   1      40.288  24.112  27.522  1.00  0.00     0.031 C 
ATOM     48  C   UNL A   1      43.795  28.898  29.292  1.00  0.00     0.029 A 
ATOM     49  C   UNL A   1      42.865  29.737  30.036  1.00  0.00     0.049 A 
ATOM     50  H   UNL A   1      40.947  30.239  29.226  1.00  0.00     0.167 HD
ATOM     51  C   UNL A   1      42.693  23.331  28.138  1.00  0.00     0.037 A 
ATOM     52  C   UNL A   1      42.827  29.880  31.395  1.00  0.00     0.037 A 
ATOM     53  C   UNL A   1      43.777  23.970  28.886  1.00  0.00     0.049 A 
ATOM     54  C   UNL A   1      43.514  28.733  32.085  1.00  0.00     0.074 A 
ATOM     55  C   UNL A   1      44.813  24.793  28.470  1.00  0.00     0.029 A 
ATOM     56  N   UNL A   1      43.680  24.129  30.265  1.00  0.00    -0.354 N 
ATOM     57  N   UNL A   1      43.600  27.531  31.582  1.00  0.00    -0.248 NA
ATOM     58  C   UNL A   1      44.189  28.863  33.369  1.00  0.00     0.031 C 
ATOM     59  C   UNL A   1      45.294  25.499  29.598  1.00  0.00     0.029 A 
ATOM     60  C   UNL A   1      44.565  25.097  30.704  1.00  0.00     0.049 A 
ATOM     61  H   UNL A   1      43.066  23.623  30.847  1.00  0.00     0.167 HD
ATOM     62  C   UNL A   1      44.357  26.751  32.411  1.00  0.00     0.074 A 
ATOM     63  C   UNL A   1      44.693  27.626  33.522  1.00  0.00     0.031 C 
ATOM     64  C   UNL A   1      44.666  25.456  32.111  1.00  0.00     0.037 A 
BRANCH  51  65
ATOM     65  C   UNL A   1      42.923  22.231  27.118  1.00  0.00     0.064 A 
ATOM     66  C   UNL A   1      42.213  21.010  27.196  1.00  0.00     0.173 A 
ATOM     67  C   UNL A   1      43.851  22.299  26.063  1.00  0.00     0.173 A 
ATOM     68  F   UNL A   1      41.220  20.828  28.075  1.00  0.00    -0.203 F 
ATOM     69  C   UNL A   1      42.490  19.919  26.368  1.00  0.00     0.198 A 
ATOM     70  C   UNL A   1      44.160  21.193  25.260  1.00  0.00     0.198 A 
ATOM     71  F   UNL A   1      44.452  23.452  25.740  1.00  0.00    -0.203 F 
ATOM     72  F   UNL A   1      41.789  18.784  26.506  1.00  0.00    -0.200 F 
ATOM     73  C   UNL A   1      43.487  19.998  25.421  1.00  0.00     0.200 A 
ATOM     74  F   UNL A   1      45.117  21.295  24.327  1.00  0.00    -0.200 F 
ATOM     75  F   UNL A   1      43.779  18.941  24.652  1.00  0.00    -0.200 F 
ENDBRANCH  51  65
BRANCH  52  76
ATOM     76  C   UNL A   1      41.563  30.541  31.858  1.00  0.00     0.064 A 
ATOM     77  C   UNL A   1      40.550  29.716  32.394  1.00  0.00     0.173 A 
ATOM     78  C   UNL A   1      41.521  31.903  32.190  1.00  0.00     0.173 A 
ATOM     79  F   UNL A   1      40.541  28.402  32.115  1.00  0.00    -0.203 F 
ATOM     80  C   UNL A   1      39.638  30.197  33.331  1.00  0.00     0.198 A 
ATOM     81  C   UNL A   1      40.587  32.387  33.113  1.00  0.00     0.198 A 
ATOM     82  F   UNL A   1      42.445  32.748  31.711  1.00  0.00    -0.203 F 
ATOM     83  F   UNL A   1      38.783  29.353  33.926  1.00  0.00    -0.200 F 
ATOM     84  C   UNL A   1      39.676  31.528  33.711  1.00  0.00     0.200 A 
ATOM     85  F   UNL A   1      40.624  33.675  33.486  1.00  0.00    -0.200 F 
ATOM     86  F   UNL A   1      38.856  31.973  34.672  1.00  0.00    -0.200 F 
ENDBRANCH  52  76
BRANCH  64  87
ATOM     87  C   UNL A   1      45.220  24.445  33.081  1.00  0.00     0.064 A 
ATOM     88  C   UNL A   1      44.526  23.290  33.476  1.00  0.00     0.173 A 
ATOM     89  C   UNL A   1      46.560  24.535  33.529  1.00  0.00     0.173 A 
ATOM     90  F   UNL A   1      43.300  23.015  33.012  1.00  0.00    -0.203 F 
ATOM     91  C   UNL A   1      45.100  22.339  34.321  1.00  0.00     0.198 A 
ATOM     92  C   UNL A   1      47.152  23.549  34.314  1.00  0.00     0.198 A 
ATOM     93  F   UNL A   1      47.350  25.565  33.192  1.00  0.00    -0.203 F 
ATOM     94  F   UNL A   1      44.375  21.282  34.715  1.00  0.00    -0.200 F 
ATOM     95  C   UNL A   1      46.414  22.461  34.728  1.00  0.00     0.200 A 
ATOM     96  F   UNL A   1      48.447  23.650  34.644  1.00  0.00    -0.200 F 
ATOM     97  F   UNL A   1      46.974  21.520  35.499  1.00  0.00    -0.200 F 
ENDBRANCH  64  87
ENDBRANCH  38  39
ENDBRANCH  30  33
ENDBRANCH  28  29
ENDBRANCH  27  28
ENDBRANCH  26  27
ENDBRANCH   1  26
TORSDOF 15
ENDMDL
MODEL 2
REMARK VINA RESULT:     -13.6      4.345     10.519
REMARK SMILES Cc1ccc(F)cc1NC(=O)c1nn(C)cc1C(=O)NCCCCCCNC(=O)c1ccc(-c2c3nc(c(-c4c(F)c(F)c(F)c(F)c4F)c4ccc([nH]4)c(-c4c(F)c(F)c(F)c(F)c4F)c4nc(c(-c5c(F)c(F)c(F)c(F)c5F)c5ccc2[nH]5)C=C4)C=C3)cc1
REMARK SMILES IDX 23 1 22 2 21 3 20 4 18 5 19 6 17 8 12 9 13 10 14 11 16 12
REMARK SMILES IDX 15 13 10 14 9 15 11 17 8 18 1 19 2 20 3 21 4 22 7 23 5 24
REMARK SMILES IDX 6 25 24 26 25 27 26 28 27 29 28 30 29 32 30 33 31 34 92 35
REMARK SMILES IDX 32 36 91 37 33 38 34 39 35 40 85 41 36 42 90 43 84 44 86 45
REMARK SMILES IDX 37 46 89 47 83 48 82 49 38 51 70 52 50 53 69 54 51 55 54 56
REMARK SMILES IDX 68 57 87 58 52 59 53 60 67 62 88 63 55 64 39 65 40 66 48 67
REMARK SMILES IDX 41 68 42 69 46 70 49 71 43 72 44 73 47 74 45 75 71 76 72 77
REMARK SMILES IDX 80 78 73 79 74 80 78 81 81 82 75 83 76 84 79 85 77 86 56 87
REMARK SMILES IDX 57 88 65 89 58 90 59 91 63 92 66 93 60 94 61 95 64 96 62 97
REMARK H PARENT 20 7 9 16 27 31 86 50 54 61
REMARK Flexibility Score: inf
ROOT
ATOM      1  C   UNL A   1      34.950  22.932  26.434  1.00  0.00     0.002 C 
ENDROOT
BRANCH   1   2
ATOM      2  C   UNL A   1      33.471  23.153  26.122  1.00  0.00     0.021 C 
BRANCH   2   3
ATOM      3  C   UNL A   1      32.973  24.594  26.136  1.00  0.00     0.116 C 
BRANCH   3   4
ATOM      4  N   UNL A   1      31.541  24.729  26.303  1.00  0.00    -0.352 N 
ATOM      5  C   UNL A   1      30.741  25.847  26.257  1.00  0.00     0.255 C 
ATOM      6  O   UNL A   1      29.534  25.703  26.416  1.00  0.00    -0.269 OA
ATOM      7  H   UNL A   1      31.063  23.886  26.477  1.00  0.00     0.163 HD
BRANCH   5   8
ATOM      8  C   UNL A   1      31.342  27.159  26.094  1.00  0.00     0.090 A 
ATOM      9  C   UNL A   1      31.746  27.762  24.860  1.00  0.00     0.163 A 
ATOM     10  N   UNL A   1      32.185  29.022  25.057  1.00  0.00    -0.167 NA
ATOM     11  N   UNL A   1      32.082  29.207  26.379  1.00  0.00    -0.274 N 
ATOM     12  C   UNL A   1      31.677  28.098  27.053  1.00  0.00     0.123 A 
ATOM     13  C   UNL A   1      32.317  30.519  26.931  1.00  0.00     0.173 C 
BRANCH   9  14
ATOM     14  C   UNL A   1      31.706  27.190  23.510  1.00  0.00     0.277 C 
ATOM     15  N   UNL A   1      30.720  27.538  22.606  1.00  0.00    -0.320 N 
ATOM     16  H   UNL A   1      30.733  26.988  21.789  1.00  0.00     0.170 HD
ATOM     17  O   UNL A   1      32.534  26.350  23.143  1.00  0.00    -0.267 OA
BRANCH  15  18
ATOM     18  C   UNL A   1      29.701  28.510  22.606  1.00  0.00     0.047 A 
ATOM     19  C   UNL A   1      28.037  26.829  23.664  1.00  0.00     0.046 C 
ATOM     20  C   UNL A   1      28.444  28.196  23.176  1.00  0.00    -0.027 A 
ATOM     21  C   UNL A   1      27.465  29.207  23.289  1.00  0.00     0.008 A 
ATOM     22  C   UNL A   1      27.703  30.494  22.817  1.00  0.00     0.039 A 
ATOM     23  C   UNL A   1      29.882  29.781  22.053  1.00  0.00     0.065 A 
ATOM     24  C   UNL A   1      28.900  30.759  22.179  1.00  0.00     0.125 A 
ATOM     25  F   UNL A   1      29.127  31.983  21.683  1.00  0.00    -0.207 F 
ENDBRANCH  15  18
ENDBRANCH   9  14
ENDBRANCH   5   8
ENDBRANCH   3   4
ENDBRANCH   2   3
ENDBRANCH   1   2
BRANCH   1  26
ATOM     26  C   UNL A   1      35.826  22.406  25.289  1.00  0.00     0.002 C 
BRANCH  26  27
ATOM     27  C   UNL A   1      37.073  23.226  24.941  1.00  0.00     0.021 C 
BRANCH  27  28
ATOM     28  C   UNL A   1      37.672  23.944  26.131  1.00  0.00     0.116 C 
BRANCH  28  29
ATOM     29  N   UNL A   1      38.867  23.281  26.640  1.00  0.00    -0.352 N 
ATOM     30  C   UNL A   1      40.028  23.876  27.089  1.00  0.00     0.251 C 
ATOM     31  H   UNL A   1      38.843  22.297  26.665  1.00  0.00     0.163 HD
ATOM     32  O   UNL A   1      41.073  23.247  27.178  1.00  0.00    -0.269 OA
BRANCH  30  33
ATOM     33  C   UNL A   1      39.969  25.294  27.486  1.00  0.00     0.039 A 
ATOM     34  C   UNL A   1      40.351  26.329  26.623  1.00  0.00     0.014 A 
ATOM     35  C   UNL A   1      39.540  25.567  28.779  1.00  0.00     0.014 A 
ATOM     36  C   UNL A   1      40.273  27.650  27.069  1.00  0.00     0.010 A 
ATOM     37  C   UNL A   1      39.284  26.853  29.148  1.00  0.00     0.010 A 
ATOM     38  C   UNL A   1      39.741  27.894  28.336  1.00  0.00    -0.014 A 
BRANCH  38  39
ATOM     39  C   UNL A   1      39.736  29.174  29.021  1.00  0.00     0.031 A 
ATOM     40  C   UNL A   1      38.691  30.172  28.784  1.00  0.00     0.074 A 
ATOM     41  C   UNL A   1      40.626  29.276  30.033  1.00  0.00     0.049 A 
ATOM     42  N   UNL A   1      38.830  31.429  29.024  1.00  0.00    -0.248 NA
ATOM     43  C   UNL A   1      37.377  29.826  28.253  1.00  0.00     0.031 C 
ATOM     44  C   UNL A   1      40.683  30.212  31.141  1.00  0.00     0.029 A 
ATOM     45  N   UNL A   1      41.786  28.498  30.185  1.00  0.00    -0.354 N 
ATOM     46  C   UNL A   1      37.571  31.986  29.011  1.00  0.00     0.074 A 
ATOM     47  C   UNL A   1      36.723  30.984  28.407  1.00  0.00     0.031 C 
ATOM     48  C   UNL A   1      41.923  30.173  31.668  1.00  0.00     0.029 A 
ATOM     49  C   UNL A   1      42.733  29.324  30.803  1.00  0.00     0.049 A 
ATOM     50  H   UNL A   1      41.909  27.560  29.912  1.00  0.00     0.167 HD
ATOM     51  C   UNL A   1      37.366  33.152  29.695  1.00  0.00     0.037 A 
ATOM     52  C   UNL A   1      43.819  29.726  30.077  1.00  0.00     0.037 A 
ATOM     53  C   UNL A   1      38.611  33.591  30.329  1.00  0.00     0.049 A 
ATOM     54  C   UNL A   1      43.821  31.217  29.875  1.00  0.00     0.074 A 
ATOM     55  C   UNL A   1      39.088  33.417  31.620  1.00  0.00     0.029 A 
ATOM     56  N   UNL A   1      39.706  33.955  29.551  1.00  0.00    -0.354 N 
ATOM     57  N   UNL A   1      42.738  31.945  29.838  1.00  0.00    -0.248 NA
ATOM     58  C   UNL A   1      45.040  32.002  29.739  1.00  0.00     0.031 C 
ATOM     59  C   UNL A   1      40.490  33.612  31.600  1.00  0.00     0.029 A 
ATOM     60  C   UNL A   1      40.866  33.922  30.304  1.00  0.00     0.049 A 
ATOM     61  H   UNL A   1      39.661  34.201  28.598  1.00  0.00     0.167 HD
ATOM     62  C   UNL A   1      43.086  33.263  29.730  1.00  0.00     0.074 A 
ATOM     63  C   UNL A   1      44.538  33.247  29.660  1.00  0.00     0.031 C 
ATOM     64  C   UNL A   1      42.158  34.263  29.727  1.00  0.00     0.037 A 
BRANCH  51  65
ATOM     65  C   UNL A   1      36.001  33.687  30.085  1.00  0.00     0.064 A 
ATOM     66  C   UNL A   1      35.141  34.254  29.116  1.00  0.00     0.173 A 
ATOM     67  C   UNL A   1      35.493  33.705  31.396  1.00  0.00     0.173 A 
ATOM     68  F   UNL A   1      35.431  34.218  27.809  1.00  0.00    -0.203 F 
ATOM     69  C   UNL A   1      33.939  34.886  29.447  1.00  0.00     0.198 A 
ATOM     70  C   UNL A   1      34.309  34.373  31.736  1.00  0.00     0.198 A 
ATOM     71  F   UNL A   1      36.098  33.032  32.384  1.00  0.00    -0.203 F 
ATOM     72  F   UNL A   1      33.178  35.417  28.479  1.00  0.00    -0.200 F 
ATOM     73  C   UNL A   1      33.537  34.974  30.762  1.00  0.00     0.200 A 
ATOM     74  F   UNL A   1      33.921  34.429  33.018  1.00  0.00    -0.200 F 
ATOM     75  F   UNL A   1      32.404  35.611  31.085  1.00  0.00    -0.200 F 
ENDBRANCH  51  65
BRANCH  52  76
ATOM     76  C   UNL A   1      44.219  28.709  29.050  1.00  0.00     0.064 A 
ATOM     77  C   UNL A   1      44.616  27.434  29.509  1.00  0.00     0.173 A 
ATOM     78  C   UNL A   1      43.804  28.807  27.714  1.00  0.00     0.173 A 
ATOM     79  F   UNL A   1      45.019  27.278  30.781  1.00  0.00    -0.203 F 
ATOM     80  C   UNL A   1      44.462  26.295  28.722  1.00  0.00     0.198 A 
ATOM     81  C   UNL A   1      43.674  27.663  26.919  1.00  0.00     0.198 A 
ATOM     82  F   UNL A   1      43.422  29.986  27.206  1.00  0.00    -0.203 F 
ATOM     83  F   UNL A   1      44.714  25.084  29.241  1.00  0.00    -0.200 F 
ATOM     84  C   UNL A   1      43.964  26.408  27.435  1.00  0.00     0.200 A 
ATOM     85  F   UNL A   1      43.189  27.769  25.672  1.00  0.00    -0.200 F 
ATOM     86  F   UNL A   1      43.736  25.307  26.706  1.00  0.00    -0.200 F 
ENDBRANCH  52  76
BRANCH  64  87
ATOM     87  C   UNL A   1      42.414  35.689  29.312  1.00  0.00     0.064 A 
ATOM     88  C   UNL A   1      43.196  36.584  30.059  1.00  0.00     0.173 A 
ATOM     89  C   UNL A   1      41.996  36.156  28.042  1.00  0.00     0.173 A 
ATOM     90  F   UNL A   1      43.768  36.219  31.214  1.00  0.00    -0.203 F 
ATOM     91  C   UNL A   1      43.472  37.875  29.608  1.00  0.00     0.198 A 
ATOM     92  C   UNL A   1      42.333  37.420  27.566  1.00  0.00     0.198 A 
ATOM     93  F   UNL A   1      41.277  35.389  27.209  1.00  0.00    -0.203 F 
ATOM     94  F   UNL A   1      44.176  38.710  30.385  1.00  0.00    -0.200 F 
ATOM     95  C   UNL A   1      43.053  38.289  28.358  1.00  0.00     0.200 A 
ATOM     96  F   UNL A   1      41.975  37.780  26.325  1.00  0.00    -0.200 F 
ATOM     97  F   UNL A   1      43.361  39.512  27.911  1.00  0.00    -0.200 F 
ENDBRANCH  64  87
ENDBRANCH  38  39
ENDBRANCH  30  33
ENDBRANCH  28  29
ENDBRANCH  27  28
ENDBRANCH  26  27
ENDBRANCH   1  26
TORSDOF 15
ENDMDL
MODEL 3
REMARK VINA RESULT:     -13.6      4.366     10.493
REMARK SMILES Cc1ccc(F)cc1NC(=O)c1nn(C)cc1C(=O)NCCCCCCNC(=O)c1ccc(-c2c3nc(c(-c4c(F)c(F)c(F)c(F)c4F)c4ccc([nH]4)c(-c4c(F)c(F)c(F)c(F)c4F)c4nc(c(-c5c(F)c(F)c(F)c(F)c5F)c5ccc2[nH]5)C=C4)C=C3)cc1
REMARK SMILES IDX 23 1 22 2 21 3 20 4 18 5 19 6 17 8 12 9 13 10 14 11 16 12
REMARK SMILES IDX 15 13 10 14 9 15 11 17 8 18 1 19 2 20 3 21 4 22 7 23 5 24
REMARK SMILES IDX 6 25 24 26 25 27 26 28 27 29 28 30 29 32 30 33 31 34 92 35
REMARK SMILES IDX 32 36 91 37 33 38 34 39 35 40 85 41 36 42 90 43 84 44 86 45
REMARK SMILES IDX 37 46 89 47 83 48 82 49 38 51 70 52 50 53 69 54 51 55 54 56
REMARK SMILES IDX 68 57 87 58 52 59 53 60 67 62 88 63 55 64 39 65 40 66 48 67
REMARK SMILES IDX 41 68 42 69 46 70 49 71 43 72 44 73 47 74 45 75 71 76 72 77
REMARK SMILES IDX 80 78 73 79 74 80 78 81 81 82 75 83 76 84 79 85 77 86 56 87
REMARK SMILES IDX 57 88 65 89 58 90 59 91 63 92 66 93 60 94 61 95 64 96 62 97
REMARK H PARENT 20 7 9 16 27 31 86 50 54 61
REMARK Flexibility Score: inf
ROOT
ATOM      1  C   UNL A   1      34.388  22.881  24.860  1.00  0.00     0.002 C 
ENDROOT
BRANCH   1   2
ATOM      2  C   UNL A   1      33.716  23.344  26.152  1.00  0.00     0.021 C 
BRANCH   2   3
ATOM      3  C   UNL A   1      33.187  24.774  26.177  1.00  0.00     0.116 C 
BRANCH   3   4
ATOM      4  N   UNL A   1      31.756  24.877  26.370  1.00  0.00    -0.352 N 
ATOM      5  C   UNL A   1      30.928  25.975  26.325  1.00  0.00     0.255 C 
ATOM      6  O   UNL A   1      29.728  25.805  26.509  1.00  0.00    -0.269 OA
ATOM      7  H   UNL A   1      31.301  24.025  26.564  1.00  0.00     0.163 HD
BRANCH   5   8
ATOM      8  C   UNL A   1      31.494  27.298  26.134  1.00  0.00     0.090 A 
ATOM      9  C   UNL A   1      31.904  27.876  24.890  1.00  0.00     0.163 A 
ATOM     10  N   UNL A   1      32.303  29.153  25.057  1.00  0.00    -0.167 NA
ATOM     11  N   UNL A   1      32.170  29.374  26.370  1.00  0.00    -0.274 N 
ATOM     12  C   UNL A   1      31.784  28.274  27.070  1.00  0.00     0.123 A 
ATOM     13  C   UNL A   1      32.356  30.709  26.886  1.00  0.00     0.173 C 
BRANCH   9  14
ATOM     14  C   UNL A   1      31.906  27.263  23.556  1.00  0.00     0.277 C 
ATOM     15  N   UNL A   1      30.903  27.521  22.641  1.00  0.00    -0.320 N 
ATOM     16  H   UNL A   1      30.954  26.950  21.840  1.00  0.00     0.170 HD
ATOM     17  O   UNL A   1      32.787  26.468  23.217  1.00  0.00    -0.267 OA
BRANCH  15  18
ATOM     18  C   UNL A   1      29.825  28.426  22.610  1.00  0.00     0.047 A 
ATOM     19  C   UNL A   1      28.260  26.665  23.690  1.00  0.00     0.046 C 
ATOM     20  C   UNL A   1      28.584  28.045  23.175  1.00  0.00    -0.027 A 
ATOM     21  C   UNL A   1      27.542  28.994  23.257  1.00  0.00     0.008 A 
ATOM     22  C   UNL A   1      27.702  30.282  22.758  1.00  0.00     0.039 A 
ATOM     23  C   UNL A   1      29.930  29.694  22.030  1.00  0.00     0.065 A 
ATOM     24  C   UNL A   1      28.887  30.610  22.126  1.00  0.00     0.125 A 
ATOM     25  F   UNL A   1      29.041  31.835  21.605  1.00  0.00    -0.207 F 
ENDBRANCH  15  18
ENDBRANCH   9  14
ENDBRANCH   5   8
ENDBRANCH   3   4
ENDBRANCH   2   3
ENDBRANCH   1   2
BRANCH   1  26
ATOM     26  C   UNL A   1      35.568  23.724  24.356  1.00  0.00     0.002 C 
BRANCH  26  27
ATOM     27  C   UNL A   1      36.970  23.261  24.766  1.00  0.00     0.021 C 
BRANCH  27  28
ATOM     28  C   UNL A   1      37.509  23.982  25.983  1.00  0.00     0.116 C 
BRANCH  28  29
ATOM     29  N   UNL A   1      38.565  23.231  26.655  1.00  0.00    -0.352 N 
ATOM     30  C   UNL A   1      39.703  23.736  27.249  1.00  0.00     0.251 C 
ATOM     31  H   UNL A   1      38.453  22.253  26.686  1.00  0.00     0.163 HD
ATOM     32  O   UNL A   1      40.668  23.024  27.485  1.00  0.00    -0.269 OA
BRANCH  30  33
ATOM     33  C   UNL A   1      39.713  25.161  27.621  1.00  0.00     0.039 A 
ATOM     34  C   UNL A   1      40.258  26.148  26.789  1.00  0.00     0.014 A 
ATOM     35  C   UNL A   1      39.180  25.492  28.861  1.00  0.00     0.014 A 
ATOM     36  C   UNL A   1      40.238  27.479  27.209  1.00  0.00     0.010 A 
ATOM     37  C   UNL A   1      38.988  26.800  29.187  1.00  0.00     0.010 A 
ATOM     38  C   UNL A   1      39.603  27.788  28.413  1.00  0.00    -0.014 A 
BRANCH  38  39
ATOM     39  C   UNL A   1      39.628  29.078  29.078  1.00  0.00     0.031 A 
ATOM     40  C   UNL A   1      38.621  30.107  28.805  1.00  0.00     0.074 A 
ATOM     41  C   UNL A   1      40.502  29.166  30.106  1.00  0.00     0.049 A 
ATOM     42  N   UNL A   1      38.799  31.361  29.029  1.00  0.00    -0.248 NA
ATOM     43  C   UNL A   1      37.307  29.796  28.255  1.00  0.00     0.031 C 
ATOM     44  C   UNL A   1      40.570  30.117  31.200  1.00  0.00     0.029 A 
ATOM     45  N   UNL A   1      41.632  28.352  30.292  1.00  0.00    -0.354 N 
ATOM     46  C   UNL A   1      37.560  31.961  28.983  1.00  0.00     0.074 A 
ATOM     47  C   UNL A   1      36.690  30.978  28.378  1.00  0.00     0.031 C 
ATOM     48  C   UNL A   1      41.798  30.045  31.752  1.00  0.00     0.029 A 
ATOM     49  C   UNL A   1      42.594  29.156  30.915  1.00  0.00     0.049 A 
ATOM     50  H   UNL A   1      41.728  27.407  30.035  1.00  0.00     0.167 HD
ATOM     51  C   UNL A   1      37.382  33.144  29.646  1.00  0.00     0.037 A 
ATOM     52  C   UNL A   1      43.706  29.509  30.205  1.00  0.00     0.037 A 
ATOM     53  C   UNL A   1      38.628  33.550  30.298  1.00  0.00     0.049 A 
ATOM     54  C   UNL A   1      43.763  30.996  29.980  1.00  0.00     0.074 A 
ATOM     55  C   UNL A   1      39.075  33.381  31.600  1.00  0.00     0.029 A 
ATOM     56  N   UNL A   1      39.750  33.865  29.535  1.00  0.00    -0.354 N 
ATOM     57  N   UNL A   1      42.706  31.759  29.911  1.00  0.00    -0.248 NA
ATOM     58  C   UNL A   1      45.010  31.738  29.856  1.00  0.00     0.031 C 
ATOM     59  C   UNL A   1      40.483  33.529  31.604  1.00  0.00     0.029 A 
ATOM     60  C   UNL A   1      40.893  33.805  30.311  1.00  0.00     0.049 A 
ATOM     61  H   UNL A   1      39.731  34.097  28.578  1.00  0.00     0.167 HD
ATOM     62  C   UNL A   1      43.101  33.063  29.790  1.00  0.00     0.074 A 
ATOM     63  C   UNL A   1      44.552  32.997  29.748  1.00  0.00     0.031 C 
ATOM     64  C   UNL A   1      42.207  34.093  29.754  1.00  0.00     0.037 A 
BRANCH  51  65
ATOM     65  C   UNL A   1      36.029  33.730  30.001  1.00  0.00     0.064 A 
ATOM     66  C   UNL A   1      35.187  34.270  29.000  1.00  0.00     0.173 A 
ATOM     67  C   UNL A   1      35.515  33.824  31.307  1.00  0.00     0.173 A 
ATOM     68  F   UNL A   1      35.482  34.162  27.699  1.00  0.00    -0.203 F 
ATOM     69  C   UNL A   1      33.999  34.946  29.293  1.00  0.00     0.198 A 
ATOM     70  C   UNL A   1      34.346  34.537  31.607  1.00  0.00     0.198 A 
ATOM     71  F   UNL A   1      36.098  33.186  32.330  1.00  0.00    -0.203 F 
ATOM     72  F   UNL A   1      33.256  35.448  28.296  1.00  0.00    -0.200 F 
ATOM     73  C   UNL A   1      33.594  35.108  30.600  1.00  0.00     0.200 A 
ATOM     74  F   UNL A   1      33.954  34.665  32.882  1.00  0.00    -0.200 F 
ATOM     75  F   UNL A   1      32.475  35.787  30.884  1.00  0.00    -0.200 F 
ENDBRANCH  51  65
BRANCH  52  76
ATOM     76  C   UNL A   1      44.091  28.464  29.200  1.00  0.00     0.064 A 
ATOM     77  C   UNL A   1      43.738  28.689  27.852  1.00  0.00     0.173 A 
ATOM     78  C   UNL A   1      45.124  27.548  29.447  1.00  0.00     0.173 A 
ATOM     79  F   UNL A   1      42.759  29.559  27.554  1.00  0.00    -0.203 F 
ATOM     80  C   UNL A   1      44.479  28.145  26.804  1.00  0.00     0.198 A 
ATOM     81  C   UNL A   1      45.849  26.985  28.391  1.00  0.00     0.198 A 
ATOM     82  F   UNL A   1      45.506  27.277  30.702  1.00  0.00    -0.203 F 
ATOM     83  F   UNL A   1      44.205  28.496  25.539  1.00  0.00    -0.200 F 
ATOM     84  C   UNL A   1      45.552  27.315  27.076  1.00  0.00     0.200 A 
ATOM     85  F   UNL A   1      46.892  26.182  28.652  1.00  0.00    -0.200 F 
ATOM     86  F   UNL A   1      46.316  26.858  26.075  1.00  0.00    -0.200 F 
ENDBRANCH  52  76
BRANCH  64  87
ATOM     87  C   UNL A   1      42.519  35.503  29.322  1.00  0.00     0.064 A 
ATOM     88  C   UNL A   1      42.015  36.082  28.146  1.00  0.00     0.173 A 
ATOM     89  C   UNL A   1      43.226  36.380  30.180  1.00  0.00     0.173 A 
ATOM     90  F   UNL A   1      41.215  35.400  27.316  1.00  0.00    -0.203 F 
ATOM     91  C   UNL A   1      42.267  37.414  27.814  1.00  0.00     0.198 A 
ATOM     92  C   UNL A   1      43.414  37.726  29.878  1.00  0.00     0.198 A 
ATOM     93  F   UNL A   1      43.726  35.968  31.354  1.00  0.00    -0.203 F 
ATOM     94  F   UNL A   1      41.811  37.902  26.652  1.00  0.00    -0.200 F 
ATOM     95  C   UNL A   1      42.954  38.238  28.684  1.00  0.00     0.200 A 
ATOM     96  F   UNL A   1      44.025  38.526  30.763  1.00  0.00    -0.200 F 
ATOM     97  F   UNL A   1      43.151  39.527  28.382  1.00  0.00    -0.200 F 
ENDBRANCH  64  87
ENDBRANCH  38  39
ENDBRANCH  30  33
ENDBRANCH  28  29
ENDBRANCH  27  28
ENDBRANCH  26  27
ENDBRANCH   1  26
TORSDOF 15
ENDMDL
