MODEL 1
REMARK VINA RESULT:      -9.0      0.000      0.000
REMARK SMILES Cc1nc(CCc2ccc(S(=O)(=O)N3CCCC3)cc2)ncc1C(=O)NCCCCCCNC(=O)c1ccc(-c2c3nc(c(-c4c(F)c(F)c(F)c(F)c4F)c4ccc([nH]4)c(-c4c(F)c(F)c(F)c(F)c4F)c4nc(c(-c5c(F)c(F)c(F)c(F)c5F)c5ccc2[nH]5)C=C4)C=C3)cc1
REMARK SMILES IDX 28 1 27 2 26 3 24 4 25 5 23 7 1 8 2 9 3 10 4 11 22 12 21 13
REMARK SMILES IDX 5 14 6 15 7 16 8 17 20 18 9 19 19 20 10 21 11 22 12 23 13 24
REMARK SMILES IDX 14 25 15 26 18 27 16 28 17 29 29 30 30 31 31 32 32 33 33 34
REMARK SMILES IDX 34 35 35 37 36 38 37 39 98 40 38 41 97 42 39 43 40 44 41 45
REMARK SMILES IDX 91 46 42 47 96 48 90 49 92 50 43 51 95 52 89 53 88 54 44 56
REMARK SMILES IDX 76 57 56 58 75 59 57 60 60 61 74 62 93 63 58 64 59 65 73 67
REMARK SMILES IDX 94 68 61 69 45 70 46 71 54 72 47 73 48 74 52 75 55 76 49 77
REMARK SMILES IDX 50 78 53 79 51 80 77 81 78 82 86 83 79 84 80 85 84 86 87 87
REMARK SMILES IDX 81 88 82 89 85 90 83 91 62 92 63 93 71 94 64 95 65 96 69 97
REMARK SMILES IDX 72 98 66 99 67 100 70 101 68 102
REMARK H PARENT 26 6 33 36 92 55 60 66
REMARK Flexibility Score: inf
ROOT
ATOM      1  C   UNL A   1      37.943  34.534  31.736  1.00  0.00     0.021 C 
ENDROOT
BRANCH   1   2
ATOM      2  C   UNL A   1      38.610  34.561  33.113  1.00  0.00     0.116 C 
BRANCH   2   3
ATOM      3  N   UNL A   1      37.851  34.005  34.220  1.00  0.00    -0.352 N 
ATOM      4  C   UNL A   1      37.801  32.727  34.745  1.00  0.00     0.254 C 
ATOM      5  O   UNL A   1      37.046  32.539  35.701  1.00  0.00    -0.269 OA
ATOM      6  H   UNL A   1      37.268  34.655  34.676  1.00  0.00     0.163 HD
BRANCH   4   7
ATOM      7  C   UNL A   1      38.522  31.544  34.204  1.00  0.00     0.079 A 
ATOM      8  C   UNL A   1      36.715  30.487  32.745  1.00  0.00     0.068 C 
ATOM      9  C   UNL A   1      38.078  30.569  33.331  1.00  0.00     0.054 A 
ATOM     10  N   UNL A   1      38.850  29.519  32.953  1.00  0.00    -0.237 NA
ATOM     11  C   UNL A   1      40.102  29.436  33.421  1.00  0.00     0.128 A 
ATOM     12  C   UNL A   1      39.867  31.422  34.535  1.00  0.00     0.129 A 
ATOM     13  N   UNL A   1      40.667  30.377  34.191  1.00  0.00    -0.241 NA
BRANCH  11  14
ATOM     14  C   UNL A   1      40.839  28.153  33.148  1.00  0.00     0.082 C 
BRANCH  14  15
ATOM     15  C   UNL A   1      42.359  28.314  33.294  1.00  0.00     0.043 C 
BRANCH  15  16
ATOM     16  C   UNL A   1      43.133  27.076  33.717  1.00  0.00    -0.047 A 
ATOM     17  C   UNL A   1      43.004  26.560  35.012  1.00  0.00     0.005 A 
ATOM     18  C   UNL A   1      43.966  26.402  32.809  1.00  0.00     0.005 A 
ATOM     19  C   UNL A   1      43.696  25.403  35.391  1.00  0.00     0.022 A 
ATOM     20  C   UNL A   1      44.638  25.225  33.177  1.00  0.00     0.022 A 
ATOM     21  C   UNL A   1      44.522  24.737  34.478  1.00  0.00     0.082 A 
BRANCH  21  22
ATOM     22  S   UNL A   1      45.355  23.253  35.036  1.00  0.00     0.243 S 
ATOM     23  O   UNL A   1      44.766  22.901  36.306  1.00  0.00    -0.207 OA
ATOM     24  O   UNL A   1      45.350  22.328  33.917  1.00  0.00    -0.207 OA
BRANCH  22  25
ATOM     25  N   UNL A   1      46.955  23.652  35.362  1.00  0.00    -0.198 NA
ATOM     26  C   UNL A   1      47.991  23.503  34.338  1.00  0.00     0.102 C 
ATOM     27  C   UNL A   1      47.536  23.419  36.685  1.00  0.00     0.102 C 
ATOM     28  C   UNL A   1      48.877  22.425  34.923  1.00  0.00     0.018 C 
ATOM     29  C   UNL A   1      48.788  22.602  36.428  1.00  0.00     0.018 C 
ENDBRANCH  22  25
ENDBRANCH  21  22
ENDBRANCH  15  16
ENDBRANCH  14  15
ENDBRANCH  11  14
ENDBRANCH   4   7
ENDBRANCH   2   3
ENDBRANCH   1   2
BRANCH   1  30
ATOM     30  C   UNL A   1      36.619  33.783  31.526  1.00  0.00     0.002 C 
BRANCH  30  31
ATOM     31  C   UNL A   1      36.300  33.138  30.170  1.00  0.00     0.002 C 
BRANCH  31  32
ATOM     32  C   UNL A   1      34.840  32.917  29.765  1.00  0.00     0.021 C 
BRANCH  32  33
ATOM     33  C   UNL A   1      34.507  32.802  28.276  1.00  0.00     0.116 C 
BRANCH  33  34
ATOM     34  N   UNL A   1      33.811  31.590  27.900  1.00  0.00    -0.352 N 
ATOM     35  C   UNL A   1      34.293  30.303  27.790  1.00  0.00     0.251 C 
ATOM     36  H   UNL A   1      32.855  31.701  27.693  1.00  0.00     0.163 HD
ATOM     37  O   UNL A   1      33.556  29.415  27.371  1.00  0.00    -0.269 OA
BRANCH  35  38
ATOM     38  C   UNL A   1      35.701  29.970  28.137  1.00  0.00     0.039 A 
ATOM     39  C   UNL A   1      36.683  30.143  27.155  1.00  0.00     0.014 A 
ATOM     40  C   UNL A   1      36.060  29.443  29.382  1.00  0.00     0.014 A 
ATOM     41  C   UNL A   1      38.021  29.838  27.435  1.00  0.00     0.010 A 
ATOM     42  C   UNL A   1      37.407  29.194  29.678  1.00  0.00     0.010 A 
ATOM     43  C   UNL A   1      38.404  29.385  28.707  1.00  0.00    -0.014 A 
BRANCH  43  44
ATOM     44  C   UNL A   1      39.837  29.109  29.017  1.00  0.00     0.031 A 
ATOM     45  C   UNL A   1      40.667  30.106  29.784  1.00  0.00     0.074 A 
ATOM     46  C   UNL A   1      40.408  27.964  28.591  1.00  0.00     0.049 A 
ATOM     47  N   UNL A   1      41.929  30.043  30.133  1.00  0.00    -0.248 NA
ATOM     48  C   UNL A   1      39.994  31.345  30.201  1.00  0.00     0.031 C 
ATOM     49  C   UNL A   1      39.732  26.924  27.815  1.00  0.00     0.029 A 
ATOM     50  N   UNL A   1      41.687  27.483  28.744  1.00  0.00    -0.354 N 
ATOM     51  C   UNL A   1      42.201  31.231  30.800  1.00  0.00     0.074 A 
ATOM     52  C   UNL A   1      40.987  32.019  30.764  1.00  0.00     0.031 C 
ATOM     53  C   UNL A   1      40.593  25.921  27.579  1.00  0.00     0.029 A 
ATOM     54  C   UNL A   1      41.893  26.261  28.150  1.00  0.00     0.049 A 
ATOM     55  H   UNL A   1      42.390  27.968  29.235  1.00  0.00     0.167 HD
ATOM     56  C   UNL A   1      43.349  31.622  31.407  1.00  0.00     0.037 A 
ATOM     57  C   UNL A   1      43.004  25.503  28.061  1.00  0.00     0.037 A 
ATOM     58  C   UNL A   1      44.556  30.837  31.453  1.00  0.00     0.049 A 
ATOM     59  C   UNL A   1      44.277  25.977  28.715  1.00  0.00     0.074 A 
ATOM     60  C   UNL A   1      45.751  31.128  32.088  1.00  0.00     0.029 A 
ATOM     61  N   UNL A   1      44.725  29.608  30.830  1.00  0.00    -0.354 N 
ATOM     62  N   UNL A   1      44.497  27.069  29.406  1.00  0.00    -0.248 NA
ATOM     63  C   UNL A   1      45.455  25.108  28.580  1.00  0.00     0.031 C 
ATOM     64  C   UNL A   1      46.663  30.108  31.798  1.00  0.00     0.029 A 
ATOM     65  C   UNL A   1      46.015  29.145  31.043  1.00  0.00     0.049 A 
ATOM     66  H   UNL A   1      44.032  29.136  30.315  1.00  0.00     0.167 HD
ATOM     67  C   UNL A   1      45.822  27.001  29.816  1.00  0.00     0.074 A 
ATOM     68  C   UNL A   1      46.353  25.753  29.310  1.00  0.00     0.031 C 
ATOM     69  C   UNL A   1      46.533  27.894  30.547  1.00  0.00     0.037 A 
BRANCH  56  70
ATOM     70  C   UNL A   1      43.362  32.971  32.072  1.00  0.00     0.064 A 
ATOM     71  C   UNL A   1      43.433  34.160  31.330  1.00  0.00     0.173 A 
ATOM     72  C   UNL A   1      43.251  33.079  33.468  1.00  0.00     0.173 A 
ATOM     73  F   UNL A   1      43.547  34.116  29.994  1.00  0.00    -0.203 F 
ATOM     74  C   UNL A   1      43.426  35.402  31.960  1.00  0.00     0.198 A 
ATOM     75  C   UNL A   1      43.208  34.324  34.092  1.00  0.00     0.198 A 
ATOM     76  F   UNL A   1      43.167  31.977  34.228  1.00  0.00    -0.203 F 
ATOM     77  F   UNL A   1      43.547  36.522  31.232  1.00  0.00    -0.200 F 
ATOM     78  C   UNL A   1      43.306  35.484  33.339  1.00  0.00     0.200 A 
ATOM     79  F   UNL A   1      43.073  34.401  35.424  1.00  0.00    -0.200 F 
ATOM     80  F   UNL A   1      43.289  36.680  33.943  1.00  0.00    -0.200 F 
ENDBRANCH  56  70
BRANCH  57  81
ATOM     81  C   UNL A   1      42.966  24.203  27.336  1.00  0.00     0.064 A 
ATOM     82  C   UNL A   1      42.583  23.021  27.987  1.00  0.00     0.173 A 
ATOM     83  C   UNL A   1      43.331  24.112  25.985  1.00  0.00     0.173 A 
ATOM     84  F   UNL A   1      42.245  23.051  29.284  1.00  0.00    -0.203 F 
ATOM     85  C   UNL A   1      42.591  21.797  27.322  1.00  0.00     0.198 A 
ATOM     86  C   UNL A   1      43.306  22.892  25.311  1.00  0.00     0.198 A 
ATOM     87  F   UNL A   1      43.700  25.211  25.312  1.00  0.00    -0.203 F 
ATOM     88  F   UNL A   1      42.273  20.676  27.984  1.00  0.00    -0.200 F 
ATOM     89  C   UNL A   1      42.947  21.734  25.984  1.00  0.00     0.200 A 
ATOM     90  F   UNL A   1      43.631  22.838  24.013  1.00  0.00    -0.200 F 
ATOM     91  F   UNL A   1      42.950  20.557  25.344  1.00  0.00    -0.200 F 
ENDBRANCH  57  81
BRANCH  69  92
ATOM     92  C   UNL A   1      47.953  27.536  30.894  1.00  0.00     0.064 A 
ATOM     93  C   UNL A   1      49.016  27.775  30.010  1.00  0.00     0.173 A 
ATOM     94  C   UNL A   1      48.256  26.984  32.149  1.00  0.00     0.173 A 
ATOM     95  F   UNL A   1      48.780  28.287  28.793  1.00  0.00    -0.203 F 
ATOM     96  C   UNL A   1      50.325  27.447  30.358  1.00  0.00     0.198 A 
ATOM     97  C   UNL A   1      49.569  26.691  32.506  1.00  0.00     0.198 A 
ATOM     98  F   UNL A   1      47.280  26.741  33.035  1.00  0.00    -0.203 F 
ATOM     99  F   UNL A   1      51.317  27.633  29.477  1.00  0.00    -0.200 F 
ATOM    100  C   UNL A   1      50.601  26.913  31.608  1.00  0.00     0.200 A 
ATOM    101  F   UNL A   1      49.836  26.192  33.722  1.00  0.00    -0.200 F 
ATOM    102  F   UNL A   1      51.862  26.608  31.945  1.00  0.00    -0.200 F 
ENDBRANCH  69  92
ENDBRANCH  43  44
ENDBRANCH  35  38
ENDBRANCH  33  34
ENDBRANCH  32  33
ENDBRANCH  31  32
ENDBRANCH  30  31
ENDBRANCH   1  30
TORSDOF 18
ENDMDL
MODEL 2
REMARK VINA RESULT:      -8.8      0.968      2.214
REMARK SMILES Cc1nc(CCc2ccc(S(=O)(=O)N3CCCC3)cc2)ncc1C(=O)NCCCCCCNC(=O)c1ccc(-c2c3nc(c(-c4c(F)c(F)c(F)c(F)c4F)c4ccc([nH]4)c(-c4c(F)c(F)c(F)c(F)c4F)c4nc(c(-c5c(F)c(F)c(F)c(F)c5F)c5ccc2[nH]5)C=C4)C=C3)cc1
REMARK SMILES IDX 28 1 27 2 26 3 24 4 25 5 23 7 1 8 2 9 3 10 4 11 22 12 21 13
REMARK SMILES IDX 5 14 6 15 7 16 8 17 20 18 9 19 19 20 10 21 11 22 12 23 13 24
REMARK SMILES IDX 14 25 15 26 18 27 16 28 17 29 29 30 30 31 31 32 32 33 33 34
REMARK SMILES IDX 34 35 35 37 36 38 37 39 98 40 38 41 97 42 39 43 40 44 41 45
REMARK SMILES IDX 91 46 42 47 96 48 90 49 92 50 43 51 95 52 89 53 88 54 44 56
REMARK SMILES IDX 76 57 56 58 75 59 57 60 60 61 74 62 93 63 58 64 59 65 73 67
REMARK SMILES IDX 94 68 61 69 45 70 46 71 54 72 47 73 48 74 52 75 55 76 49 77
REMARK SMILES IDX 50 78 53 79 51 80 77 81 78 82 86 83 79 84 80 85 84 86 87 87
REMARK SMILES IDX 81 88 82 89 85 90 83 91 62 92 63 93 71 94 64 95 65 96 69 97
REMARK SMILES IDX 72 98 66 99 67 100 70 101 68 102
REMARK H PARENT 26 6 33 36 92 55 60 66
REMARK Flexibility Score: inf
ROOT
ATOM      1  C   UNL A   1      37.717  34.459  31.924  1.00  0.00     0.021 C 
ENDROOT
BRANCH   1   2
ATOM      2  C   UNL A   1      38.646  34.246  33.121  1.00  0.00     0.116 C 
BRANCH   2   3
ATOM      3  N   UNL A   1      38.032  33.779  34.352  1.00  0.00    -0.352 N 
ATOM      4  C   UNL A   1      38.035  32.539  34.965  1.00  0.00     0.254 C 
ATOM      5  O   UNL A   1      37.409  32.430  36.021  1.00  0.00    -0.269 OA
ATOM      6  H   UNL A   1      37.522  34.469  34.836  1.00  0.00     0.163 HD
BRANCH   4   7
ATOM      7  C   UNL A   1      38.664  31.309  34.416  1.00  0.00     0.079 A 
ATOM      8  C   UNL A   1      36.815  30.449  32.881  1.00  0.00     0.068 C 
ATOM      9  C   UNL A   1      38.161  30.396  33.508  1.00  0.00     0.054 A 
ATOM     10  N   UNL A   1      38.849  29.290  33.126  1.00  0.00    -0.237 NA
ATOM     11  C   UNL A   1      40.074  29.085  33.628  1.00  0.00     0.128 A 
ATOM     12  C   UNL A   1      39.982  31.059  34.783  1.00  0.00     0.129 A 
ATOM     13  N   UNL A   1      40.696  29.955  34.436  1.00  0.00    -0.241 NA
BRANCH  11  14
ATOM     14  C   UNL A   1      40.701  27.748  33.345  1.00  0.00     0.082 C 
BRANCH  14  15
ATOM     15  C   UNL A   1      42.230  27.836  33.230  1.00  0.00     0.043 C 
BRANCH  15  16
ATOM     16  C   UNL A   1      43.032  27.079  34.275  1.00  0.00    -0.047 A 
ATOM     17  C   UNL A   1      42.476  25.986  34.951  1.00  0.00     0.005 A 
ATOM     18  C   UNL A   1      44.361  27.434  34.561  1.00  0.00     0.005 A 
ATOM     19  C   UNL A   1      43.226  25.273  35.894  1.00  0.00     0.022 A 
ATOM     20  C   UNL A   1      45.126  26.703  35.483  1.00  0.00     0.022 A 
ATOM     21  C   UNL A   1      44.550  25.633  36.170  1.00  0.00     0.082 A 
BRANCH  21  22
ATOM     22  S   UNL A   1      45.447  24.656  37.373  1.00  0.00     0.243 S 
ATOM     23  O   UNL A   1      46.712  25.318  37.583  1.00  0.00    -0.207 OA
ATOM     24  O   UNL A   1      44.530  24.409  38.473  1.00  0.00    -0.207 OA
BRANCH  22  25
ATOM     25  N   UNL A   1      45.809  23.175  36.668  1.00  0.00    -0.198 NA
ATOM     26  C   UNL A   1      47.198  22.769  36.442  1.00  0.00     0.102 C 
ATOM     27  C   UNL A   1      44.957  22.610  35.621  1.00  0.00     0.102 C 
ATOM     28  C   UNL A   1      47.282  22.714  34.931  1.00  0.00     0.018 C 
ATOM     29  C   UNL A   1      45.894  22.314  34.465  1.00  0.00     0.018 C 
ENDBRANCH  22  25
ENDBRANCH  21  22
ENDBRANCH  15  16
ENDBRANCH  14  15
ENDBRANCH  11  14
ENDBRANCH   4   7
ENDBRANCH   2   3
ENDBRANCH   1   2
BRANCH   1  30
ATOM     30  C   UNL A   1      36.814  33.322  31.425  1.00  0.00     0.002 C 
BRANCH  30  31
ATOM     31  C   UNL A   1      36.380  33.265  29.954  1.00  0.00     0.002 C 
BRANCH  31  32
ATOM     32  C   UNL A   1      34.935  32.893  29.608  1.00  0.00     0.021 C 
BRANCH  32  33
ATOM     33  C   UNL A   1      34.576  32.654  28.141  1.00  0.00     0.116 C 
BRANCH  33  34
ATOM     34  N   UNL A   1      33.883  31.412  27.878  1.00  0.00    -0.352 N 
ATOM     35  C   UNL A   1      34.377  30.126  27.839  1.00  0.00     0.251 C 
ATOM     36  H   UNL A   1      32.918  31.497  27.700  1.00  0.00     0.163 HD
ATOM     37  O   UNL A   1      33.637  29.202  27.512  1.00  0.00    -0.269 OA
BRANCH  35  38
ATOM     38  C   UNL A   1      35.802  29.832  28.154  1.00  0.00     0.039 A 
ATOM     39  C   UNL A   1      36.110  29.343  29.429  1.00  0.00     0.014 A 
ATOM     40  C   UNL A   1      36.836  30.078  27.245  1.00  0.00     0.014 A 
ATOM     41  C   UNL A   1      37.437  29.056  29.772  1.00  0.00     0.010 A 
ATOM     42  C   UNL A   1      38.155  29.736  27.571  1.00  0.00     0.010 A 
ATOM     43  C   UNL A   1      38.473  29.224  28.839  1.00  0.00    -0.014 A 
BRANCH  43  44
ATOM     44  C   UNL A   1      39.879  28.870  29.191  1.00  0.00     0.031 A 
ATOM     45  C   UNL A   1      40.730  29.809  30.007  1.00  0.00     0.074 A 
ATOM     46  C   UNL A   1      40.407  27.706  28.760  1.00  0.00     0.049 A 
ATOM     47  N   UNL A   1      41.974  29.675  30.398  1.00  0.00    -0.248 NA
ATOM     48  C   UNL A   1      40.105  31.072  30.427  1.00  0.00     0.031 C 
ATOM     49  C   UNL A   1      39.707  26.717  27.940  1.00  0.00     0.029 A 
ATOM     50  N   UNL A   1      41.654  27.158  28.946  1.00  0.00    -0.354 N 
ATOM     51  C   UNL A   1      42.281  30.835  31.099  1.00  0.00     0.074 A 
ATOM     52  C   UNL A   1      41.110  31.683  31.038  1.00  0.00     0.031 C 
ATOM     53  C   UNL A   1      40.525  25.677  27.711  1.00  0.00     0.029 A 
ATOM     54  C   UNL A   1      41.820  25.940  28.334  1.00  0.00     0.049 A 
ATOM     55  H   UNL A   1      42.362  27.598  29.471  1.00  0.00     0.167 HD
ATOM     56  C   UNL A   1      43.425  31.156  31.753  1.00  0.00     0.037 A 
ATOM     57  C   UNL A   1      42.895  25.128  28.267  1.00  0.00     0.037 A 
ATOM     58  C   UNL A   1      44.589  30.309  31.823  1.00  0.00     0.049 A 
ATOM     59  C   UNL A   1      44.165  25.525  28.973  1.00  0.00     0.074 A 
ATOM     60  C   UNL A   1      45.775  30.527  32.504  1.00  0.00     0.029 A 
ATOM     61  N   UNL A   1      44.719  29.086  31.180  1.00  0.00    -0.354 N 
ATOM     62  N   UNL A   1      44.415  26.590  29.694  1.00  0.00    -0.248 NA
ATOM     63  C   UNL A   1      45.303  24.601  28.860  1.00  0.00     0.031 C 
ATOM     64  C   UNL A   1      46.644  29.469  32.224  1.00  0.00     0.029 A 
ATOM     65  C   UNL A   1      45.976  28.555  31.427  1.00  0.00     0.049 A 
ATOM     66  H   UNL A   1      44.022  28.660  30.632  1.00  0.00     0.167 HD
ATOM     67  C   UNL A   1      45.721  26.449  30.148  1.00  0.00     0.074 A 
ATOM     68  C   UNL A   1      46.206  25.185  29.634  1.00  0.00     0.031 C 
ATOM     69  C   UNL A   1      46.449  27.289  30.922  1.00  0.00     0.037 A 
BRANCH  56  70
ATOM     70  C   UNL A   1      43.482  32.489  32.447  1.00  0.00     0.064 A 
ATOM     71  C   UNL A   1      43.408  32.598  33.844  1.00  0.00     0.173 A 
ATOM     72  C   UNL A   1      43.666  33.669  31.710  1.00  0.00     0.173 A 
ATOM     73  F   UNL A   1      43.227  31.503  34.598  1.00  0.00    -0.203 F 
ATOM     74  C   UNL A   1      43.482  33.838  34.473  1.00  0.00     0.198 A 
ATOM     75  C   UNL A   1      43.775  34.904  32.344  1.00  0.00     0.198 A 
ATOM     76  F   UNL A   1      43.757  33.625  30.371  1.00  0.00    -0.203 F 
ATOM     77  F   UNL A   1      43.356  33.921  35.805  1.00  0.00    -0.200 F 
ATOM     78  C   UNL A   1      43.673  34.990  33.724  1.00  0.00     0.200 A 
ATOM     79  F   UNL A   1      43.979  36.014  31.619  1.00  0.00    -0.200 F 
ATOM     80  F   UNL A   1      43.754  36.181  34.332  1.00  0.00    -0.200 F 
ENDBRANCH  56  70
BRANCH  57  81
ATOM     81  C   UNL A   1      42.818  23.847  27.512  1.00  0.00     0.064 A 
ATOM     82  C   UNL A   1      43.184  23.780  26.160  1.00  0.00     0.173 A 
ATOM     83  C   UNL A   1      42.358  22.670  28.119  1.00  0.00     0.173 A 
ATOM     84  F   UNL A   1      43.610  24.883  25.526  1.00  0.00    -0.203 F 
ATOM     85  C   UNL A   1      43.069  22.594  25.439  1.00  0.00     0.198 A 
ATOM     86  C   UNL A   1      42.275  21.475  27.407  1.00  0.00     0.198 A 
ATOM     87  F   UNL A   1      41.999  22.676  29.411  1.00  0.00    -0.203 F 
ATOM     88  F   UNL A   1      43.374  22.572  24.135  1.00  0.00    -0.200 F 
ATOM     89  C   UNL A   1      42.619  21.440  26.065  1.00  0.00     0.200 A 
ATOM     90  F   UNL A   1      41.859  20.359  28.020  1.00  0.00    -0.200 F 
ATOM     91  F   UNL A   1      42.513  20.298  25.373  1.00  0.00    -0.200 F 
ENDBRANCH  57  81
BRANCH  69  92
ATOM     92  C   UNL A   1      47.836  26.854  31.309  1.00  0.00     0.064 A 
ATOM     93  C   UNL A   1      48.072  26.019  32.410  1.00  0.00     0.173 A 
ATOM     94  C   UNL A   1      48.941  27.247  30.537  1.00  0.00     0.173 A 
ATOM     95  F   UNL A   1      47.054  25.625  33.190  1.00  0.00    -0.203 F 
ATOM     96  C   UNL A   1      49.364  25.617  32.742  1.00  0.00     0.198 A 
ATOM     97  C   UNL A   1      50.226  26.815  30.851  1.00  0.00     0.198 A 
ATOM     98  F   UNL A   1      48.773  28.040  29.469  1.00  0.00    -0.203 F 
ATOM     99  F   UNL A   1      49.571  24.864  33.831  1.00  0.00    -0.200 F 
ATOM    100  C   UNL A   1      50.438  26.009  31.958  1.00  0.00     0.200 A 
ATOM    101  F   UNL A   1      51.261  27.180  30.080  1.00  0.00    -0.200 F 
ATOM    102  F   UNL A   1      51.680  25.614  32.272  1.00  0.00    -0.200 F 
ENDBRANCH  69  92
ENDBRANCH  43  44
ENDBRANCH  35  38
ENDBRANCH  33  34
ENDBRANCH  32  33
ENDBRANCH  31  32
ENDBRANCH  30  31
ENDBRANCH   1  30
TORSDOF 18
ENDMDL
MODEL 3
REMARK VINA RESULT:      -8.7      3.728      7.683
REMARK SMILES Cc1nc(CCc2ccc(S(=O)(=O)N3CCCC3)cc2)ncc1C(=O)NCCCCCCNC(=O)c1ccc(-c2c3nc(c(-c4c(F)c(F)c(F)c(F)c4F)c4ccc([nH]4)c(-c4c(F)c(F)c(F)c(F)c4F)c4nc(c(-c5c(F)c(F)c(F)c(F)c5F)c5ccc2[nH]5)C=C4)C=C3)cc1
REMARK SMILES IDX 28 1 27 2 26 3 24 4 25 5 23 7 1 8 2 9 3 10 4 11 22 12 21 13
REMARK SMILES IDX 5 14 6 15 7 16 8 17 20 18 9 19 19 20 10 21 11 22 12 23 13 24
REMARK SMILES IDX 14 25 15 26 18 27 16 28 17 29 29 30 30 31 31 32 32 33 33 34
REMARK SMILES IDX 34 35 35 37 36 38 37 39 98 40 38 41 97 42 39 43 40 44 41 45
REMARK SMILES IDX 91 46 42 47 96 48 90 49 92 50 43 51 95 52 89 53 88 54 44 56
REMARK SMILES IDX 76 57 56 58 75 59 57 60 60 61 74 62 93 63 58 64 59 65 73 67
REMARK SMILES IDX 94 68 61 69 45 70 46 71 54 72 47 73 48 74 52 75 55 76 49 77
REMARK SMILES IDX 50 78 53 79 51 80 77 81 78 82 86 83 79 84 80 85 84 86 87 87
REMARK SMILES IDX 81 88 82 89 85 90 83 91 62 92 63 93 71 94 64 95 65 96 69 97
REMARK SMILES IDX 72 98 66 99 67 100 70 101 68 102
REMARK H PARENT 26 6 33 36 92 55 60 66
REMARK Flexibility Score: inf
ROOT
ATOM      1  C   UNL A   1      39.141  31.856  36.609  1.00  0.00     0.021 C 
ENDROOT
BRANCH   1   2
ATOM      2  C   UNL A   1      38.220  32.171  35.428  1.00  0.00     0.116 C 
BRANCH   2   3
ATOM      3  N   UNL A   1      38.762  33.022  34.383  1.00  0.00    -0.352 N 
ATOM      4  C   UNL A   1      39.037  32.773  33.050  1.00  0.00     0.254 C 
ATOM      5  O   UNL A   1      39.510  33.701  32.390  1.00  0.00    -0.269 OA
ATOM      6  H   UNL A   1      38.970  33.938  34.676  1.00  0.00     0.163 HD
BRANCH   4   7
ATOM      7  C   UNL A   1      38.885  31.461  32.369  1.00  0.00     0.079 A 
ATOM      8  C   UNL A   1      36.344  31.225  32.309  1.00  0.00     0.068 C 
ATOM      9  C   UNL A   1      37.733  30.776  32.030  1.00  0.00     0.054 A 
ATOM     10  N   UNL A   1      37.755  29.556  31.436  1.00  0.00    -0.237 NA
ATOM     11  C   UNL A   1      38.939  29.001  31.143  1.00  0.00     0.128 A 
ATOM     12  C   UNL A   1      40.049  30.847  31.918  1.00  0.00     0.129 A 
ATOM     13  N   UNL A   1      40.112  29.620  31.336  1.00  0.00    -0.241 NA
BRANCH  11  14
ATOM     14  C   UNL A   1      38.915  27.568  30.688  1.00  0.00     0.082 C 
BRANCH  14  15
ATOM     15  C   UNL A   1      38.912  27.444  29.157  1.00  0.00     0.043 C 
BRANCH  15  16
ATOM     16  C   UNL A   1      39.691  26.279  28.571  1.00  0.00    -0.047 A 
ATOM     17  C   UNL A   1      41.088  26.237  28.654  1.00  0.00     0.005 A 
ATOM     18  C   UNL A   1      39.026  25.200  27.964  1.00  0.00     0.005 A 
ATOM     19  C   UNL A   1      41.802  25.149  28.138  1.00  0.00     0.022 A 
ATOM     20  C   UNL A   1      39.736  24.094  27.473  1.00  0.00     0.022 A 
ATOM     21  C   UNL A   1      41.130  24.078  27.538  1.00  0.00     0.082 A 
BRANCH  21  22
ATOM     22  S   UNL A   1      42.116  22.715  26.922  1.00  0.00     0.243 S 
ATOM     23  O   UNL A   1      42.653  22.038  28.077  1.00  0.00    -0.207 OA
ATOM     24  O   UNL A   1      41.296  22.017  25.948  1.00  0.00    -0.207 OA
BRANCH  22  25
ATOM     25  N   UNL A   1      43.436  23.362  26.108  1.00  0.00    -0.198 NA
ATOM     26  C   UNL A   1      43.519  23.309  24.647  1.00  0.00     0.102 C 
ATOM     27  C   UNL A   1      44.783  23.290  26.679  1.00  0.00     0.102 C 
ATOM     28  C   UNL A   1      44.713  22.406  24.419  1.00  0.00     0.018 C 
ATOM     29  C   UNL A   1      45.636  22.652  25.599  1.00  0.00     0.018 C 
ENDBRANCH  22  25
ENDBRANCH  21  22
ENDBRANCH  15  16
ENDBRANCH  14  15
ENDBRANCH  11  14
ENDBRANCH   4   7
ENDBRANCH   2   3
ENDBRANCH   1   2
BRANCH   1  30
ATOM     30  C   UNL A   1      39.546  32.960  37.597  1.00  0.00     0.002 C 
BRANCH  30  31
ATOM     31  C   UNL A   1      38.554  34.070  37.969  1.00  0.00     0.002 C 
BRANCH  31  32
ATOM     32  C   UNL A   1      38.765  34.871  39.258  1.00  0.00     0.021 C 
BRANCH  32  33
ATOM     33  C   UNL A   1      40.190  35.034  39.788  1.00  0.00     0.116 C 
BRANCH  33  34
ATOM     34  N   UNL A   1      40.763  36.349  39.600  1.00  0.00    -0.352 N 
ATOM     35  C   UNL A   1      41.523  36.832  38.557  1.00  0.00     0.251 C 
ATOM     36  H   UNL A   1      40.584  36.993  40.323  1.00  0.00     0.163 HD
ATOM     37  O   UNL A   1      41.991  37.964  38.623  1.00  0.00    -0.269 OA
BRANCH  35  38
ATOM     38  C   UNL A   1      41.819  35.997  37.361  1.00  0.00     0.039 A 
ATOM     39  C   UNL A   1      42.997  35.241  37.357  1.00  0.00     0.014 A 
ATOM     40  C   UNL A   1      40.992  35.986  36.233  1.00  0.00     0.014 A 
ATOM     41  C   UNL A   1      43.319  34.443  36.252  1.00  0.00     0.010 A 
ATOM     42  C   UNL A   1      41.287  35.142  35.153  1.00  0.00     0.010 A 
ATOM     43  C   UNL A   1      42.456  34.363  35.148  1.00  0.00    -0.014 A 
BRANCH  43  44
ATOM     44  C   UNL A   1      42.777  33.473  33.994  1.00  0.00     0.031 A 
ATOM     45  C   UNL A   1      43.014  34.046  32.620  1.00  0.00     0.074 A 
ATOM     46  C   UNL A   1      42.838  32.138  34.171  1.00  0.00     0.049 A 
ATOM     47  N   UNL A   1      43.292  33.427  31.499  1.00  0.00    -0.248 NA
ATOM     48  C   UNL A   1      42.911  35.507  32.486  1.00  0.00     0.031 C 
ATOM     49  C   UNL A   1      42.603  31.446  35.439  1.00  0.00     0.029 A 
ATOM     50  N   UNL A   1      43.111  31.122  33.286  1.00  0.00    -0.354 N 
ATOM     51  C   UNL A   1      43.387  34.418  30.529  1.00  0.00     0.074 A 
ATOM     52  C   UNL A   1      43.089  35.674  31.183  1.00  0.00     0.031 C 
ATOM     53  C   UNL A   1      42.762  30.125  35.256  1.00  0.00     0.029 A 
ATOM     54  C   UNL A   1      43.070  29.870  33.852  1.00  0.00     0.049 A 
ATOM     55  H   UNL A   1      43.317  31.277  32.336  1.00  0.00     0.167 HD
ATOM     56  C   UNL A   1      43.715  34.297  29.219  1.00  0.00     0.037 A 
ATOM     57  C   UNL A   1      43.248  28.652  33.302  1.00  0.00     0.037 A 
ATOM     58  C   UNL A   1      44.022  33.049  28.566  1.00  0.00     0.049 A 
ATOM     59  C   UNL A   1      43.577  28.543  31.836  1.00  0.00     0.074 A 
ATOM     60  C   UNL A   1      44.414  32.833  27.256  1.00  0.00     0.029 A 
ATOM     61  N   UNL A   1      43.960  31.803  29.173  1.00  0.00    -0.354 N 
ATOM     62  N   UNL A   1      43.738  29.494  30.949  1.00  0.00    -0.248 NA
ATOM     63  C   UNL A   1      43.755  27.188  31.295  1.00  0.00     0.031 C 
ATOM     64  C   UNL A   1      44.529  31.455  27.052  1.00  0.00     0.029 A 
ATOM     65  C   UNL A   1      44.279  30.814  28.254  1.00  0.00     0.049 A 
ATOM     66  H   UNL A   1      43.725  31.645  30.116  1.00  0.00     0.167 HD
ATOM     67  C   UNL A   1      44.069  28.858  29.759  1.00  0.00     0.074 A 
ATOM     68  C   UNL A   1      44.102  27.438  30.041  1.00  0.00     0.031 C 
ATOM     69  C   UNL A   1      44.323  29.402  28.545  1.00  0.00     0.037 A 
BRANCH  56  70
ATOM     70  C   UNL A   1      43.756  35.552  28.390  1.00  0.00     0.064 A 
ATOM     71  C   UNL A   1      42.593  36.113  27.842  1.00  0.00     0.173 A 
ATOM     72  C   UNL A   1      44.967  36.231  28.184  1.00  0.00     0.173 A 
ATOM     73  F   UNL A   1      41.408  35.503  28.003  1.00  0.00    -0.203 F 
ATOM     74  C   UNL A   1      42.644  37.285  27.093  1.00  0.00     0.198 A 
ATOM     75  C   UNL A   1      45.010  37.423  27.464  1.00  0.00     0.198 A 
ATOM     76  F   UNL A   1      46.111  35.748  28.695  1.00  0.00    -0.203 F 
ATOM     77  F   UNL A   1      41.526  37.774  26.537  1.00  0.00    -0.200 F 
ATOM     78  C   UNL A   1      43.851  37.944  26.910  1.00  0.00     0.200 A 
ATOM     79  F   UNL A   1      46.175  38.067  27.305  1.00  0.00    -0.200 F 
ATOM     80  F   UNL A   1      43.897  39.077  26.198  1.00  0.00    -0.200 F 
ENDBRANCH  56  70
BRANCH  57  81
ATOM     81  C   UNL A   1      43.133  27.429  34.144  1.00  0.00     0.064 A 
ATOM     82  C   UNL A   1      41.884  26.852  34.416  1.00  0.00     0.173 A 
ATOM     83  C   UNL A   1      44.264  26.825  34.711  1.00  0.00     0.173 A 
ATOM     84  F   UNL A   1      40.769  27.403  33.914  1.00  0.00    -0.203 F 
ATOM     85  C   UNL A   1      41.769  25.735  35.241  1.00  0.00     0.198 A 
ATOM     86  C   UNL A   1      44.152  25.688  35.509  1.00  0.00     0.198 A 
ATOM     87  F   UNL A   1      45.484  27.332  34.480  1.00  0.00    -0.203 F 
ATOM     88  F   UNL A   1      40.558  25.238  35.527  1.00  0.00    -0.200 F 
ATOM     89  C   UNL A   1      42.904  25.151  35.783  1.00  0.00     0.200 A 
ATOM     90  F   UNL A   1      45.253  25.115  36.015  1.00  0.00    -0.200 F 
ATOM     91  F   UNL A   1      42.793  24.075  36.573  1.00  0.00    -0.200 F 
ENDBRANCH  57  81
BRANCH  69  92
ATOM     92  C   UNL A   1      44.713  28.469  27.432  1.00  0.00     0.064 A 
ATOM     93  C   UNL A   1      46.033  28.026  27.261  1.00  0.00     0.173 A 
ATOM     94  C   UNL A   1      43.738  27.978  26.548  1.00  0.00     0.173 A 
ATOM     95  F   UNL A   1      47.006  28.475  28.068  1.00  0.00    -0.203 F 
ATOM     96  C   UNL A   1      46.368  27.151  26.230  1.00  0.00     0.198 A 
ATOM     97  C   UNL A   1      44.071  27.076  25.541  1.00  0.00     0.198 A 
ATOM     98  F   UNL A   1      42.460  28.362  26.669  1.00  0.00    -0.203 F 
ATOM     99  F   UNL A   1      47.645  26.785  26.053  1.00  0.00    -0.200 F 
ATOM    100  C   UNL A   1      45.386  26.671  25.377  1.00  0.00     0.200 A 
ATOM    101  F   UNL A   1      43.117  26.599  24.729  1.00  0.00    -0.200 F 
ATOM    102  F   UNL A   1      45.709  25.820  24.392  1.00  0.00    -0.200 F 
ENDBRANCH  69  92
ENDBRANCH  43  44
ENDBRANCH  35  38
ENDBRANCH  33  34
ENDBRANCH  32  33
ENDBRANCH  31  32
ENDBRANCH  30  31
ENDBRANCH   1  30
TORSDOF 18
ENDMDL
