MODEL 1
REMARK VINA RESULT:     -13.1      0.000      0.000
REMARK SMILES Cc1ccc(Nc2c(F)cccc2I)c(CC(=O)NCCCCCCNC(=O)c2ccc(-c3c4nc(c(-c5c(F)c(F)c(F)c(F)c5F)c5ccc([nH]5)c(-c5c(F)c(F)c(F)c(F)c5F)c5nc(c(-c6c(F)c(F)c(F)c(F)c6F)c6ccc3[nH]6)C=C5)C=C4)cc2)c1
REMARK SMILES IDX 22 1 21 2 20 3 19 4 17 5 18 6 16 8 15 9 1 10 2 11 3 12 92 13
REMARK SMILES IDX 4 14 5 15 6 16 7 18 8 19 13 20 9 21 10 22 12 23 14 24 11 25
REMARK SMILES IDX 23 26 24 27 25 28 26 29 27 30 28 32 29 33 30 34 91 35 31 36
REMARK SMILES IDX 90 37 32 38 33 39 34 40 84 41 35 42 89 43 83 44 85 45 36 46
REMARK SMILES IDX 88 47 82 48 81 49 37 51 69 52 49 53 68 54 50 55 53 56 67 57
REMARK SMILES IDX 86 58 51 59 52 60 66 62 87 63 54 64 38 65 39 66 47 67 40 68
REMARK SMILES IDX 41 69 45 70 48 71 42 72 43 73 46 74 44 75 70 76 71 77 79 78
REMARK SMILES IDX 72 79 73 80 77 81 80 82 74 83 75 84 78 85 76 86 55 87 56 88
REMARK SMILES IDX 64 89 57 90 58 91 62 92 65 93 59 94 60 95 63 96 61 97
REMARK H PARENT 19 7 6 17 26 31 85 50 53 61
REMARK Flexibility Score: inf
ROOT
ATOM      1  C   UNL A   1      31.954  28.754  27.253  1.00  0.00     0.002 C 
ENDROOT
BRANCH   1   2
ATOM      2  C   UNL A   1      32.033  27.651  26.186  1.00  0.00     0.021 C 
BRANCH   2   3
ATOM      3  C   UNL A   1      30.814  26.727  26.110  1.00  0.00     0.116 C 
BRANCH   3   4
ATOM      4  N   UNL A   1      31.053  25.458  26.761  1.00  0.00    -0.356 N 
ATOM      5  C   UNL A   1      32.130  24.631  26.653  1.00  0.00     0.224 C 
ATOM      6  O   UNL A   1      32.086  23.533  27.212  1.00  0.00    -0.275 OA
ATOM      7  H   UNL A   1      30.340  25.150  27.366  1.00  0.00     0.163 HD
BRANCH   5   8
ATOM      8  C   UNL A   1      33.350  25.039  25.851  1.00  0.00     0.137 C 
BRANCH   8   9
ATOM      9  C   UNL A   1      33.362  24.529  24.424  1.00  0.00    -0.015 A 
ATOM     10  C   UNL A   1      32.328  25.954  21.024  1.00  0.00     0.044 C 
ATOM     11  C   UNL A   1      32.854  25.025  22.076  1.00  0.00    -0.051 A 
ATOM     12  C   UNL A   1      33.276  23.742  21.736  1.00  0.00     0.005 A 
ATOM     13  C   UNL A   1      32.932  25.418  23.413  1.00  0.00     0.009 A 
ATOM     14  C   UNL A   1      33.743  22.866  22.721  1.00  0.00     0.026 A 
ATOM     15  C   UNL A   1      33.780  23.225  24.079  1.00  0.00     0.042 A 
BRANCH  15  16
ATOM     16  N   UNL A   1      34.244  22.320  25.056  1.00  0.00    -0.352 N 
ATOM     17  H   UNL A   1      33.644  22.201  25.828  1.00  0.00     0.167 HD
BRANCH  16  18
ATOM     18  C   UNL A   1      35.432  21.558  25.106  1.00  0.00     0.088 A 
ATOM     19  C   UNL A   1      36.692  22.159  25.256  1.00  0.00     0.147 A 
ATOM     20  C   UNL A   1      35.404  20.158  24.949  1.00  0.00     0.040 A 
ATOM     21  F   UNL A   1      36.793  23.487  25.426  1.00  0.00    -0.205 F 
ATOM     22  C   UNL A   1      37.870  21.413  25.270  1.00  0.00     0.041 A 
ATOM     23  C   UNL A   1      36.584  19.402  24.956  1.00  0.00     0.017 A 
ATOM     24  I   UNL A   1      33.606  19.113  24.629  1.00  0.00    -0.042 I 
ATOM     25  C   UNL A   1      37.817  20.031  25.119  1.00  0.00     0.004 A 
ENDBRANCH  16  18
ENDBRANCH  15  16
ENDBRANCH   8   9
ENDBRANCH   5   8
ENDBRANCH   3   4
ENDBRANCH   2   3
ENDBRANCH   1   2
BRANCH   1  26
ATOM     26  C   UNL A   1      31.777  30.193  26.741  1.00  0.00     0.002 C 
BRANCH  26  27
ATOM     27  C   UNL A   1      32.932  31.155  27.030  1.00  0.00     0.021 C 
BRANCH  27  28
ATOM     28  C   UNL A   1      34.142  30.507  27.689  1.00  0.00     0.116 C 
BRANCH  28  29
ATOM     29  N   UNL A   1      34.887  31.408  28.556  1.00  0.00    -0.352 N 
ATOM     30  C   UNL A   1      36.056  31.201  29.273  1.00  0.00     0.251 C 
ATOM     31  H   UNL A   1      34.501  32.309  28.647  1.00  0.00     0.163 HD
ATOM     32  O   UNL A   1      36.475  32.072  30.011  1.00  0.00    -0.269 OA
BRANCH  30  33
ATOM     33  C   UNL A   1      36.874  29.984  29.022  1.00  0.00     0.039 A 
ATOM     34  C   UNL A   1      36.999  29.066  30.075  1.00  0.00     0.014 A 
ATOM     35  C   UNL A   1      37.662  29.847  27.885  1.00  0.00     0.014 A 
ATOM     36  C   UNL A   1      38.090  28.202  30.104  1.00  0.00     0.010 A 
ATOM     37  C   UNL A   1      38.797  29.065  27.954  1.00  0.00     0.010 A 
ATOM     38  C   UNL A   1      39.054  28.314  29.106  1.00  0.00    -0.014 A 
BRANCH  38  39
ATOM     39  C   UNL A   1      40.428  27.851  29.255  1.00  0.00     0.031 A 
ATOM     40  C   UNL A   1      40.836  26.513  28.785  1.00  0.00     0.074 A 
ATOM     41  C   UNL A   1      41.359  28.747  29.658  1.00  0.00     0.049 A 
ATOM     42  N   UNL A   1      42.001  26.004  29.003  1.00  0.00    -0.248 NA
ATOM     43  C   UNL A   1      39.936  25.599  28.087  1.00  0.00     0.031 C 
ATOM     44  C   UNL A   1      42.810  28.661  29.505  1.00  0.00     0.029 A 
ATOM     45  N   UNL A   1      41.169  29.853  30.507  1.00  0.00    -0.354 N 
ATOM     46  C   UNL A   1      42.109  24.868  28.242  1.00  0.00     0.074 A 
ATOM     47  C   UNL A   1      40.764  24.586  27.807  1.00  0.00     0.031 C 
ATOM     48  C   UNL A   1      43.389  29.432  30.439  1.00  0.00     0.029 A 
ATOM     49  C   UNL A   1      42.332  29.898  31.316  1.00  0.00     0.049 A 
ATOM     50  H   UNL A   1      40.396  30.462  30.532  1.00  0.00     0.167 HD
ATOM     51  C   UNL A   1      43.354  24.384  27.977  1.00  0.00     0.037 A 
ATOM     52  C   UNL A   1      42.256  29.634  32.654  1.00  0.00     0.037 A 
ATOM     53  C   UNL A   1      44.343  24.953  28.894  1.00  0.00     0.049 A 
ATOM     54  C   UNL A   1      43.051  28.427  33.115  1.00  0.00     0.074 A 
ATOM     55  C   UNL A   1      45.375  25.871  28.799  1.00  0.00     0.029 A 
ATOM     56  N   UNL A   1      44.165  24.720  30.248  1.00  0.00    -0.354 N 
ATOM     57  N   UNL A   1      43.703  27.624  32.321  1.00  0.00    -0.248 NA
ATOM     58  C   UNL A   1      43.079  27.975  34.508  1.00  0.00     0.031 C 
ATOM     59  C   UNL A   1      45.753  26.242  30.129  1.00  0.00     0.029 A 
ATOM     60  C   UNL A   1      44.975  25.526  31.020  1.00  0.00     0.049 A 
ATOM     61  H   UNL A   1      43.536  24.058  30.615  1.00  0.00     0.167 HD
ATOM     62  C   UNL A   1      44.164  26.555  33.038  1.00  0.00     0.074 A 
ATOM     63  C   UNL A   1      43.758  26.819  34.406  1.00  0.00     0.031 C 
ATOM     64  C   UNL A   1      44.806  25.499  32.464  1.00  0.00     0.037 A 
BRANCH  51  65
ATOM     65  C   UNL A   1      43.719  23.481  26.816  1.00  0.00     0.064 A 
ATOM     66  C   UNL A   1      43.274  22.140  26.798  1.00  0.00     0.173 A 
ATOM     67  C   UNL A   1      44.602  23.819  25.766  1.00  0.00     0.173 A 
ATOM     68  F   UNL A   1      42.443  21.670  27.740  1.00  0.00    -0.203 F 
ATOM     69  C   UNL A   1      43.688  21.223  25.824  1.00  0.00     0.198 A 
ATOM     70  C   UNL A   1      44.970  22.916  24.765  1.00  0.00     0.198 A 
ATOM     71  F   UNL A   1      45.203  25.009  25.689  1.00  0.00    -0.203 F 
ATOM     72  F   UNL A   1      43.282  19.948  25.897  1.00  0.00    -0.200 F 
ATOM     73  C   UNL A   1      44.527  21.614  24.801  1.00  0.00     0.200 A 
ATOM     74  F   UNL A   1      45.790  23.318  23.783  1.00  0.00    -0.200 F 
ATOM     75  F   UNL A   1      44.925  20.737  23.869  1.00  0.00    -0.200 F 
ENDBRANCH  51  65
BRANCH  52  76
ATOM     76  C   UNL A   1      40.971  30.083  33.254  1.00  0.00     0.064 A 
ATOM     77  C   UNL A   1      40.783  31.459  33.487  1.00  0.00     0.173 A 
ATOM     78  C   UNL A   1      39.836  29.265  33.248  1.00  0.00     0.173 A 
ATOM     79  F   UNL A   1      41.839  32.288  33.503  1.00  0.00    -0.203 F 
ATOM     80  C   UNL A   1      39.506  32.008  33.584  1.00  0.00     0.198 A 
ATOM     81  C   UNL A   1      38.560  29.817  33.366  1.00  0.00     0.198 A 
ATOM     82  F   UNL A   1      39.946  27.950  33.009  1.00  0.00    -0.203 F 
ATOM     83  F   UNL A   1      39.356  33.336  33.688  1.00  0.00    -0.200 F 
ATOM     84  C   UNL A   1      38.394  31.188  33.497  1.00  0.00     0.200 A 
ATOM     85  F   UNL A   1      37.483  29.026  33.253  1.00  0.00    -0.200 F 
ATOM     86  F   UNL A   1      37.165  31.719  33.496  1.00  0.00    -0.200 F 
ENDBRANCH  52  76
BRANCH  64  87
ATOM     87  C   UNL A   1      45.306  24.333  33.258  1.00  0.00     0.064 A 
ATOM     88  C   UNL A   1      44.498  23.216  33.518  1.00  0.00     0.173 A 
ATOM     89  C   UNL A   1      46.572  24.352  33.874  1.00  0.00     0.173 A 
ATOM     90  F   UNL A   1      43.266  23.128  32.992  1.00  0.00    -0.203 F 
ATOM     91  C   UNL A   1      44.937  22.172  34.334  1.00  0.00     0.198 A 
ATOM     92  C   UNL A   1      46.990  23.333  34.727  1.00  0.00     0.198 A 
ATOM     93  F   UNL A   1      47.441  25.348  33.644  1.00  0.00    -0.203 F 
ATOM     94  F   UNL A   1      44.154  21.102  34.525  1.00  0.00    -0.200 F 
ATOM     95  C   UNL A   1      46.175  22.239  34.950  1.00  0.00     0.200 A 
ATOM     96  F   UNL A   1      48.187  23.414  35.326  1.00  0.00    -0.200 F 
ATOM     97  F   UNL A   1      46.585  21.248  35.753  1.00  0.00    -0.200 F 
ENDBRANCH  64  87
ENDBRANCH  38  39
ENDBRANCH  30  33
ENDBRANCH  28  29
ENDBRANCH  27  28
ENDBRANCH  26  27
ENDBRANCH   1  26
TORSDOF 16
ENDMDL
MODEL 2
REMARK VINA RESULT:     -13.0      4.263     10.456
REMARK SMILES Cc1ccc(Nc2c(F)cccc2I)c(CC(=O)NCCCCCCNC(=O)c2ccc(-c3c4nc(c(-c5c(F)c(F)c(F)c(F)c5F)c5ccc([nH]5)c(-c5c(F)c(F)c(F)c(F)c5F)c5nc(c(-c6c(F)c(F)c(F)c(F)c6F)c6ccc3[nH]6)C=C5)C=C4)cc2)c1
REMARK SMILES IDX 22 1 21 2 20 3 19 4 17 5 18 6 16 8 15 9 1 10 2 11 3 12 92 13
REMARK SMILES IDX 4 14 5 15 6 16 7 18 8 19 13 20 9 21 10 22 12 23 14 24 11 25
REMARK SMILES IDX 23 26 24 27 25 28 26 29 27 30 28 32 29 33 30 34 91 35 31 36
REMARK SMILES IDX 90 37 32 38 33 39 34 40 84 41 35 42 89 43 83 44 85 45 36 46
REMARK SMILES IDX 88 47 82 48 81 49 37 51 69 52 49 53 68 54 50 55 53 56 67 57
REMARK SMILES IDX 86 58 51 59 52 60 66 62 87 63 54 64 38 65 39 66 47 67 40 68
REMARK SMILES IDX 41 69 45 70 48 71 42 72 43 73 46 74 44 75 70 76 71 77 79 78
REMARK SMILES IDX 72 79 73 80 77 81 80 82 74 83 75 84 78 85 76 86 55 87 56 88
REMARK SMILES IDX 64 89 57 90 58 91 62 92 65 93 59 94 60 95 63 96 61 97
REMARK H PARENT 19 7 6 17 26 31 85 50 53 61
REMARK Flexibility Score: inf
ROOT
ATOM      1  C   UNL A   1      36.464  23.328  24.246  1.00  0.00     0.002 C 
ENDROOT
BRANCH   1   2
ATOM      2  C   UNL A   1      34.947  23.537  24.385  1.00  0.00     0.021 C 
BRANCH   2   3
ATOM      3  C   UNL A   1      34.470  24.984  24.236  1.00  0.00     0.116 C 
BRANCH   3   4
ATOM      4  N   UNL A   1      33.552  25.143  23.129  1.00  0.00    -0.356 N 
ATOM      5  C   UNL A   1      33.194  26.281  22.471  1.00  0.00     0.224 C 
ATOM      6  O   UNL A   1      32.304  26.213  21.621  1.00  0.00    -0.275 OA
ATOM      7  H   UNL A   1      33.129  24.314  22.806  1.00  0.00     0.163 HD
BRANCH   5   8
ATOM      8  C   UNL A   1      33.860  27.606  22.786  1.00  0.00     0.137 C 
BRANCH   8   9
ATOM      9  C   UNL A   1      33.309  28.310  24.010  1.00  0.00    -0.015 A 
ATOM     10  C   UNL A   1      34.645  29.113  27.507  1.00  0.00     0.044 C 
ATOM     11  C   UNL A   1      33.743  29.034  26.313  1.00  0.00    -0.051 A 
ATOM     12  C   UNL A   1      32.448  29.545  26.373  1.00  0.00     0.005 A 
ATOM     13  C   UNL A   1      34.173  28.451  25.120  1.00  0.00     0.009 A 
ATOM     14  C   UNL A   1      31.598  29.449  25.268  1.00  0.00     0.026 A 
ATOM     15  C   UNL A   1      31.994  28.818  24.076  1.00  0.00     0.042 A 
BRANCH  15  16
ATOM     16  N   UNL A   1      31.115  28.722  22.978  1.00  0.00    -0.352 N 
ATOM     17  H   UNL A   1      31.554  28.591  22.106  1.00  0.00     0.167 HD
BRANCH  16  18
ATOM     18  C   UNL A   1      29.704  28.785  22.928  1.00  0.00     0.088 A 
ATOM     19  C   UNL A   1      29.030  29.906  22.416  1.00  0.00     0.147 A 
ATOM     20  C   UNL A   1      28.912  27.741  23.446  1.00  0.00     0.040 A 
ATOM     21  F   UNL A   1      29.721  30.932  21.893  1.00  0.00    -0.205 F 
ATOM     22  C   UNL A   1      27.639  29.986  22.398  1.00  0.00     0.041 A 
ATOM     23  C   UNL A   1      27.512  27.818  23.436  1.00  0.00     0.017 A 
ATOM     24  I   UNL A   1      29.765  26.031  24.325  1.00  0.00    -0.042 I 
ATOM     25  C   UNL A   1      26.877  28.941  22.909  1.00  0.00     0.004 A 
ENDBRANCH  16  18
ENDBRANCH  15  16
ENDBRANCH   8   9
ENDBRANCH   5   8
ENDBRANCH   3   4
ENDBRANCH   2   3
ENDBRANCH   1   2
BRANCH   1  26
ATOM     26  C   UNL A   1      36.963  21.874  24.285  1.00  0.00     0.002 C 
BRANCH  26  27
ATOM     27  C   UNL A   1      38.172  21.605  25.184  1.00  0.00     0.021 C 
BRANCH  27  28
ATOM     28  C   UNL A   1      38.553  22.764  26.093  1.00  0.00     0.116 C 
BRANCH  28  29
ATOM     29  N   UNL A   1      39.972  22.813  26.417  1.00  0.00    -0.352 N 
ATOM     30  C   UNL A   1      40.781  23.889  26.745  1.00  0.00     0.251 C 
ATOM     31  H   UNL A   1      40.429  21.940  26.402  1.00  0.00     0.163 HD
ATOM     32  O   UNL A   1      41.975  23.721  26.903  1.00  0.00    -0.269 OA
BRANCH  30  33
ATOM     33  C   UNL A   1      40.169  25.209  27.055  1.00  0.00     0.039 A 
ATOM     34  C   UNL A   1      40.587  26.306  26.287  1.00  0.00     0.014 A 
ATOM     35  C   UNL A   1      39.385  25.412  28.184  1.00  0.00     0.014 A 
ATOM     36  C   UNL A   1      40.459  27.592  26.804  1.00  0.00     0.010 A 
ATOM     37  C   UNL A   1      39.343  26.672  28.747  1.00  0.00     0.010 A 
ATOM     38  C   UNL A   1      39.963  27.743  28.096  1.00  0.00    -0.014 A 
BRANCH  38  39
ATOM     39  C   UNL A   1      40.215  28.916  28.925  1.00  0.00     0.031 A 
ATOM     40  C   UNL A   1      39.210  29.988  29.054  1.00  0.00     0.074 A 
ATOM     41  C   UNL A   1      41.309  28.905  29.723  1.00  0.00     0.049 A 
ATOM     42  N   UNL A   1      39.426  31.100  29.669  1.00  0.00    -0.248 NA
ATOM     43  C   UNL A   1      37.888  29.927  28.435  1.00  0.00     0.031 C 
ATOM     44  C   UNL A   1      41.568  29.733  30.899  1.00  0.00     0.029 A 
ATOM     45  N   UNL A   1      42.537  28.261  29.481  1.00  0.00    -0.354 N 
ATOM     46  C   UNL A   1      38.226  31.752  29.790  1.00  0.00     0.074 A 
ATOM     47  C   UNL A   1      37.338  31.057  28.893  1.00  0.00     0.031 C 
ATOM     48  C   UNL A   1      42.894  29.801  31.096  1.00  0.00     0.029 A 
ATOM     49  C   UNL A   1      43.523  29.160  29.957  1.00  0.00     0.049 A 
ATOM     50  H   UNL A   1      42.678  27.377  29.070  1.00  0.00     0.167 HD
ATOM     51  C   UNL A   1      38.111  32.724  30.738  1.00  0.00     0.037 A 
ATOM     52  C   UNL A   1      44.376  29.778  29.086  1.00  0.00     0.037 A 
ATOM     53  C   UNL A   1      39.429  33.169  31.193  1.00  0.00     0.049 A 
ATOM     54  C   UNL A   1      44.271  31.292  29.053  1.00  0.00     0.074 A 
ATOM     55  C   UNL A   1      40.183  33.027  32.345  1.00  0.00     0.029 A 
ATOM     56  N   UNL A   1      40.281  33.712  30.245  1.00  0.00    -0.354 N 
ATOM     57  N   UNL A   1      43.395  31.988  29.723  1.00  0.00    -0.248 NA
ATOM     58  C   UNL A   1      45.089  32.129  28.172  1.00  0.00     0.031 C 
ATOM     59  C   UNL A   1      41.525  33.420  32.040  1.00  0.00     0.029 A 
ATOM     60  C   UNL A   1      41.571  33.829  30.719  1.00  0.00     0.049 A 
ATOM     61  H   UNL A   1      39.999  33.982  29.342  1.00  0.00     0.167 HD
ATOM     62  C   UNL A   1      43.468  33.297  29.339  1.00  0.00     0.074 A 
ATOM     63  C   UNL A   1      44.548  33.343  28.371  1.00  0.00     0.031 C 
ATOM     64  C   UNL A   1      42.612  34.253  29.798  1.00  0.00     0.037 A 
BRANCH  51  65
ATOM     65  C   UNL A   1      36.813  33.206  31.351  1.00  0.00     0.064 A 
ATOM     66  C   UNL A   1      35.902  33.959  30.575  1.00  0.00     0.173 A 
ATOM     67  C   UNL A   1      36.458  33.083  32.713  1.00  0.00     0.173 A 
ATOM     68  F   UNL A   1      36.113  34.173  29.268  1.00  0.00    -0.203 F 
ATOM     69  C   UNL A   1      34.753  34.545  31.120  1.00  0.00     0.198 A 
ATOM     70  C   UNL A   1      35.283  33.622  33.242  1.00  0.00     0.198 A 
ATOM     71  F   UNL A   1      37.254  32.498  33.611  1.00  0.00    -0.203 F 
ATOM     72  F   UNL A   1      33.962  35.301  30.348  1.00  0.00    -0.200 F 
ATOM     73  C   UNL A   1      34.437  34.367  32.452  1.00  0.00     0.200 A 
ATOM     74  F   UNL A   1      34.998  33.440  34.540  1.00  0.00    -0.200 F 
ATOM     75  F   UNL A   1      33.339  34.927  32.976  1.00  0.00    -0.200 F 
ENDBRANCH  51  65
BRANCH  52  76
ATOM     76  C   UNL A   1      44.715  28.926  27.915  1.00  0.00     0.064 A 
ATOM     77  C   UNL A   1      45.617  27.859  28.100  1.00  0.00     0.173 A 
ATOM     78  C   UNL A   1      43.916  28.909  26.767  1.00  0.00     0.173 A 
ATOM     79  F   UNL A   1      46.406  27.828  29.186  1.00  0.00    -0.203 F 
ATOM     80  C   UNL A   1      45.627  26.765  27.238  1.00  0.00     0.198 A 
ATOM     81  C   UNL A   1      43.945  27.819  25.895  1.00  0.00     0.198 A 
ATOM     82  F   UNL A   1      43.022  29.883  26.545  1.00  0.00    -0.203 F 
ATOM     83  F   UNL A   1      46.413  25.712  27.506  1.00  0.00    -0.200 F 
ATOM     84  C   UNL A   1      44.771  26.735  26.151  1.00  0.00     0.200 A 
ATOM     85  F   UNL A   1      43.096  27.777  24.858  1.00  0.00    -0.200 F 
ATOM     86  F   UNL A   1      44.710  25.646  25.373  1.00  0.00    -0.200 F 
ENDBRANCH  52  76
BRANCH  64  87
ATOM     87  C   UNL A   1      42.700  35.685  29.371  1.00  0.00     0.064 A 
ATOM     88  C   UNL A   1      42.076  36.146  28.202  1.00  0.00     0.173 A 
ATOM     89  C   UNL A   1      43.507  36.610  30.062  1.00  0.00     0.173 A 
ATOM     90  F   UNL A   1      41.310  35.324  27.468  1.00  0.00    -0.203 F 
ATOM     91  C   UNL A   1      42.235  37.460  27.760  1.00  0.00     0.198 A 
ATOM     92  C   UNL A   1      43.704  37.906  29.593  1.00  0.00     0.198 A 
ATOM     93  F   UNL A   1      44.101  36.283  31.219  1.00  0.00    -0.203 F 
ATOM     94  F   UNL A   1      41.589  37.877  26.663  1.00  0.00    -0.200 F 
ATOM     95  C   UNL A   1      43.062  38.334  28.446  1.00  0.00     0.200 A 
ATOM     96  F   UNL A   1      44.514  38.740  30.261  1.00  0.00    -0.200 F 
ATOM     97  F   UNL A   1      43.234  39.588  28.006  1.00  0.00    -0.200 F 
ENDBRANCH  64  87
ENDBRANCH  38  39
ENDBRANCH  30  33
ENDBRANCH  28  29
ENDBRANCH  27  28
ENDBRANCH  26  27
ENDBRANCH   1  26
TORSDOF 16
ENDMDL
MODEL 3
REMARK VINA RESULT:     -12.9      3.819      9.893
REMARK SMILES Cc1ccc(Nc2c(F)cccc2I)c(CC(=O)NCCCCCCNC(=O)c2ccc(-c3c4nc(c(-c5c(F)c(F)c(F)c(F)c5F)c5ccc([nH]5)c(-c5c(F)c(F)c(F)c(F)c5F)c5nc(c(-c6c(F)c(F)c(F)c(F)c6F)c6ccc3[nH]6)C=C5)C=C4)cc2)c1
REMARK SMILES IDX 22 1 21 2 20 3 19 4 17 5 18 6 16 8 15 9 1 10 2 11 3 12 92 13
REMARK SMILES IDX 4 14 5 15 6 16 7 18 8 19 13 20 9 21 10 22 12 23 14 24 11 25
REMARK SMILES IDX 23 26 24 27 25 28 26 29 27 30 28 32 29 33 30 34 91 35 31 36
REMARK SMILES IDX 90 37 32 38 33 39 34 40 84 41 35 42 89 43 83 44 85 45 36 46
REMARK SMILES IDX 88 47 82 48 81 49 37 51 69 52 49 53 68 54 50 55 53 56 67 57
REMARK SMILES IDX 86 58 51 59 52 60 66 62 87 63 54 64 38 65 39 66 47 67 40 68
REMARK SMILES IDX 41 69 45 70 48 71 42 72 43 73 46 74 44 75 70 76 71 77 79 78
REMARK SMILES IDX 72 79 73 80 77 81 80 82 74 83 75 84 78 85 76 86 55 87 56 88
REMARK SMILES IDX 64 89 57 90 58 91 62 92 65 93 59 94 60 95 63 96 61 97
REMARK H PARENT 19 7 6 17 26 31 85 50 53 61
REMARK Flexibility Score: inf
ROOT
ATOM      1  C   UNL A   1      35.706  22.145  26.032  1.00  0.00     0.002 C 
ENDROOT
BRANCH   1   2
ATOM      2  C   UNL A   1      34.349  21.700  26.599  1.00  0.00     0.021 C 
BRANCH   2   3
ATOM      3  C   UNL A   1      33.771  22.601  27.694  1.00  0.00     0.116 C 
BRANCH   3   4
ATOM      4  N   UNL A   1      32.628  23.357  27.228  1.00  0.00    -0.356 N 
ATOM      5  C   UNL A   1      32.604  24.532  26.539  1.00  0.00     0.224 C 
ATOM      6  O   UNL A   1      31.514  25.070  26.334  1.00  0.00    -0.275 OA
ATOM      7  H   UNL A   1      31.748  22.969  27.437  1.00  0.00     0.163 HD
BRANCH   5   8
ATOM      8  C   UNL A   1      33.886  25.176  26.049  1.00  0.00     0.137 C 
BRANCH   8   9
ATOM      9  C   UNL A   1      33.727  26.603  25.567  1.00  0.00    -0.015 A 
ATOM     10  C   UNL A   1      33.381  30.018  27.263  1.00  0.00     0.044 C 
ATOM     11  C   UNL A   1      33.491  28.958  26.209  1.00  0.00    -0.051 A 
ATOM     12  C   UNL A   1      33.393  29.294  24.861  1.00  0.00     0.005 A 
ATOM     13  C   UNL A   1      33.689  27.620  26.548  1.00  0.00     0.009 A 
ATOM     14  C   UNL A   1      33.470  28.303  23.878  1.00  0.00     0.026 A 
ATOM     15  C   UNL A   1      33.618  26.944  24.201  1.00  0.00     0.042 A 
BRANCH  15  16
ATOM     16  N   UNL A   1      33.681  25.960  23.192  1.00  0.00    -0.352 N 
ATOM     17  H   UNL A   1      34.214  26.211  22.403  1.00  0.00     0.167 HD
BRANCH  16  18
ATOM     18  C   UNL A   1      33.101  24.674  23.133  1.00  0.00     0.088 A 
ATOM     19  C   UNL A   1      33.885  23.510  23.066  1.00  0.00     0.147 A 
ATOM     20  C   UNL A   1      31.702  24.509  23.082  1.00  0.00     0.040 A 
ATOM     21  F   UNL A   1      35.224  23.591  23.125  1.00  0.00    -0.205 F 
ATOM     22  C   UNL A   1      33.317  22.241  22.971  1.00  0.00     0.041 A 
ATOM     23  C   UNL A   1      31.124  23.235  22.981  1.00  0.00     0.017 A 
ATOM     24  I   UNL A   1      30.389  26.153  23.086  1.00  0.00    -0.042 I 
ATOM     25  C   UNL A   1      31.933  22.102  22.928  1.00  0.00     0.004 A 
ENDBRANCH  16  18
ENDBRANCH  15  16
ENDBRANCH   8   9
ENDBRANCH   5   8
ENDBRANCH   3   4
ENDBRANCH   2   3
ENDBRANCH   1   2
BRANCH   1  26
ATOM     26  C   UNL A   1      36.525  21.075  25.291  1.00  0.00     0.002 C 
BRANCH  26  27
ATOM     27  C   UNL A   1      38.041  21.282  25.276  1.00  0.00     0.021 C 
BRANCH  27  28
ATOM     28  C   UNL A   1      38.500  22.623  25.832  1.00  0.00     0.116 C 
BRANCH  28  29
ATOM     29  N   UNL A   1      39.893  22.634  26.255  1.00  0.00    -0.352 N 
ATOM     30  C   UNL A   1      40.704  23.689  26.643  1.00  0.00     0.251 C 
ATOM     31  H   UNL A   1      40.328  21.751  26.270  1.00  0.00     0.163 HD
ATOM     32  O   UNL A   1      41.880  23.491  26.885  1.00  0.00    -0.269 OA
BRANCH  30  33
ATOM     33  C   UNL A   1      40.106  25.024  26.913  1.00  0.00     0.039 A 
ATOM     34  C   UNL A   1      40.598  26.109  26.172  1.00  0.00     0.014 A 
ATOM     35  C   UNL A   1      39.258  25.249  27.990  1.00  0.00     0.014 A 
ATOM     36  C   UNL A   1      40.468  27.399  26.678  1.00  0.00     0.010 A 
ATOM     37  C   UNL A   1      39.211  26.510  28.548  1.00  0.00     0.010 A 
ATOM     38  C   UNL A   1      39.896  27.565  27.936  1.00  0.00    -0.014 A 
BRANCH  38  39
ATOM     39  C   UNL A   1      40.123  28.733  28.778  1.00  0.00     0.031 A 
ATOM     40  C   UNL A   1      39.119  29.811  28.873  1.00  0.00     0.074 A 
ATOM     41  C   UNL A   1      41.186  28.715  29.616  1.00  0.00     0.049 A 
ATOM     42  N   UNL A   1      39.318  30.920  29.501  1.00  0.00    -0.248 NA
ATOM     43  C   UNL A   1      37.821  29.759  28.206  1.00  0.00     0.031 C 
ATOM     44  C   UNL A   1      41.406  29.536  30.804  1.00  0.00     0.029 A 
ATOM     45  N   UNL A   1      42.418  28.064  29.417  1.00  0.00    -0.354 N 
ATOM     46  C   UNL A   1      38.117  31.577  29.580  1.00  0.00     0.074 A 
ATOM     47  C   UNL A   1      37.259  30.890  28.648  1.00  0.00     0.031 C 
ATOM     48  C   UNL A   1      42.724  29.597  31.049  1.00  0.00     0.029 A 
ATOM     49  C   UNL A   1      43.392  28.957  29.932  1.00  0.00     0.049 A 
ATOM     50  H   UNL A   1      42.570  27.181  29.008  1.00  0.00     0.167 HD
ATOM     51  C   UNL A   1      37.972  32.546  30.526  1.00  0.00     0.037 A 
ATOM     52  C   UNL A   1      44.279  29.573  29.096  1.00  0.00     0.037 A 
ATOM     53  C   UNL A   1      39.275  32.983  31.031  1.00  0.00     0.049 A 
ATOM     54  C   UNL A   1      44.184  31.087  29.065  1.00  0.00     0.074 A 
ATOM     55  C   UNL A   1      39.985  32.833  32.210  1.00  0.00     0.029 A 
ATOM     56  N   UNL A   1      40.165  33.525  30.118  1.00  0.00    -0.354 N 
ATOM     57  N   UNL A   1      43.287  31.785  29.704  1.00  0.00    -0.248 NA
ATOM     58  C   UNL A   1      45.037  31.923  28.218  1.00  0.00     0.031 C 
ATOM     59  C   UNL A   1      41.340  33.220  31.956  1.00  0.00     0.029 A 
ATOM     60  C   UNL A   1      41.436  33.633  30.639  1.00  0.00     0.049 A 
ATOM     61  H   UNL A   1      39.918  33.800  29.205  1.00  0.00     0.167 HD
ATOM     62  C   UNL A   1      43.381  33.096  29.328  1.00  0.00     0.074 A 
ATOM     63  C   UNL A   1      44.497  33.139  28.401  1.00  0.00     0.031 C 
ATOM     64  C   UNL A   1      42.514  34.054  29.759  1.00  0.00     0.037 A 
BRANCH  51  65
ATOM     65  C   UNL A   1      36.655  33.034  31.092  1.00  0.00     0.064 A 
ATOM     66  C   UNL A   1      35.811  33.855  30.311  1.00  0.00     0.173 A 
ATOM     67  C   UNL A   1      36.221  32.847  32.423  1.00  0.00     0.173 A 
ATOM     68  F   UNL A   1      36.101  34.133  29.031  1.00  0.00    -0.203 F 
ATOM     69  C   UNL A   1      34.648  34.444  30.823  1.00  0.00     0.198 A 
ATOM     70  C   UNL A   1      35.032  33.393  32.916  1.00  0.00     0.198 A 
ATOM     71  F   UNL A   1      36.948  32.191  33.330  1.00  0.00    -0.203 F 
ATOM     72  F   UNL A   1      33.923  35.265  30.051  1.00  0.00    -0.200 F 
ATOM     73  C   UNL A   1      34.253  34.204  32.123  1.00  0.00     0.200 A 
ATOM     74  F   UNL A   1      34.670  33.148  34.184  1.00  0.00    -0.200 F 
ATOM     75  F   UNL A   1      33.142  34.768  32.616  1.00  0.00    -0.200 F 
ENDBRANCH  51  65
BRANCH  52  76
ATOM     76  C   UNL A   1      44.657  28.723  27.936  1.00  0.00     0.064 A 
ATOM     77  C   UNL A   1      45.521  27.632  28.155  1.00  0.00     0.173 A 
ATOM     78  C   UNL A   1      43.918  28.737  26.748  1.00  0.00     0.173 A 
ATOM     79  F   UNL A   1      46.252  27.571  29.280  1.00  0.00    -0.203 F 
ATOM     80  C   UNL A   1      45.549  26.546  27.284  1.00  0.00     0.198 A 
ATOM     81  C   UNL A   1      43.965  27.654  25.868  1.00  0.00     0.198 A 
ATOM     82  F   UNL A   1      43.062  29.735  26.490  1.00  0.00    -0.203 F 
ATOM     83  F   UNL A   1      46.293  25.470  27.581  1.00  0.00    -0.200 F 
ATOM     84  C   UNL A   1      44.750  26.547  26.154  1.00  0.00     0.200 A 
ATOM     85  F   UNL A   1      43.170  27.643  24.788  1.00  0.00    -0.200 F 
ATOM     86  F   UNL A   1      44.702  25.467  25.363  1.00  0.00    -0.200 F 
ENDBRANCH  52  76
BRANCH  64  87
ATOM     87  C   UNL A   1      42.625  35.487  29.340  1.00  0.00     0.064 A 
ATOM     88  C   UNL A   1      42.037  35.958  28.157  1.00  0.00     0.173 A 
ATOM     89  C   UNL A   1      43.420  36.403  30.057  1.00  0.00     0.173 A 
ATOM     90  F   UNL A   1      41.286  35.145  27.398  1.00  0.00    -0.203 F 
ATOM     91  C   UNL A   1      42.219  37.273  27.725  1.00  0.00     0.198 A 
ATOM     92  C   UNL A   1      43.640  37.700  29.600  1.00  0.00     0.198 A 
ATOM     93  F   UNL A   1      43.979  36.067  31.230  1.00  0.00    -0.203 F 
ATOM     94  F   UNL A   1      41.607  37.699  26.612  1.00  0.00    -0.200 F 
ATOM     95  C   UNL A   1      43.033  38.137  28.437  1.00  0.00     0.200 A 
ATOM     96  F   UNL A   1      44.438  38.525  30.293  1.00  0.00    -0.200 F 
ATOM     97  F   UNL A   1      43.227  39.391  28.008  1.00  0.00    -0.200 F 
ENDBRANCH  64  87
ENDBRANCH  38  39
ENDBRANCH  30  33
ENDBRANCH  28  29
ENDBRANCH  27  28
ENDBRANCH  26  27
ENDBRANCH   1  26
TORSDOF 16
ENDMDL
