MODEL 1
REMARK VINA RESULT:     -10.5      0.000      0.000
REMARK SMILES Cc1noc(C)c1C[NH2+][C@H](C)[C@H](C)C(=O)NCCCCCCNC(=O)c1ccc(-c2c3nc(c(-c4c(F)c(F)c(F)c(F)c4F)c4ccc([nH]4)c(-c4c(F)c(F)c(F)c(F)c4F)c4nc(c(-c5c(F)c(F)c(F)c(F)c5F)c5ccc2[nH]5)C=C4)C=C3)cc1
REMARK SMILES IDX 18 1 17 2 16 3 14 4 15 5 12 7 13 8 10 9 11 10 9 11 8 14 7 15
REMARK SMILES IDX 1 16 2 17 3 18 4 19 5 20 6 21 19 22 20 23 21 24 22 25 23 26
REMARK SMILES IDX 24 27 25 29 26 30 27 31 88 32 28 33 87 34 29 35 30 36 31 37
REMARK SMILES IDX 81 38 32 39 86 40 80 41 82 42 33 43 85 44 79 45 78 46 34 48
REMARK SMILES IDX 66 49 46 50 65 51 47 52 50 53 64 54 83 55 48 56 49 57 63 59
REMARK SMILES IDX 84 60 51 61 35 62 36 63 44 64 37 65 38 66 42 67 45 68 39 69
REMARK SMILES IDX 40 70 43 71 41 72 67 73 68 74 76 75 69 76 70 77 74 78 77 79
REMARK SMILES IDX 71 80 72 81 75 82 73 83 52 84 53 85 61 86 54 87 55 88 59 89
REMARK SMILES IDX 62 90 56 91 57 92 60 93 58 94
REMARK H PARENT 16 6 9 12 9 13 23 28 82 47 50 58
REMARK Flexibility Score: inf
ROOT
ATOM      1  C   UNL A   1      40.143  22.646  26.489  1.00  0.00     0.021 C 
ENDROOT
BRANCH   1   2
ATOM      2  C   UNL A   1      38.847  21.856  26.335  1.00  0.00     0.116 C 
BRANCH   2   3
ATOM      3  N   UNL A   1      38.207  22.113  25.062  1.00  0.00    -0.356 N 
ATOM      4  C   UNL A   1      36.991  22.639  24.761  1.00  0.00     0.228 C 
ATOM      5  O   UNL A   1      36.704  22.756  23.567  1.00  0.00    -0.275 OA
ATOM      6  H   UNL A   1      38.747  21.862  24.276  1.00  0.00     0.163 HD
BRANCH   4   7
ATOM      7  C   UNL A   1      36.011  23.092  25.840  1.00  0.00     0.133 C 
ATOM      8  C   UNL A   1      35.068  24.179  25.314  1.00  0.00     0.024 C 
BRANCH   7   9
ATOM      9  C   UNL A   1      35.303  21.890  26.511  1.00  0.00     0.191 C 
ATOM     10  C   UNL A   1      34.089  22.347  27.332  1.00  0.00     0.076 C 
BRANCH   9  11
ATOM     11  N   UNL A   1      34.807  20.905  25.535  1.00  0.00    -0.339 N 
ATOM     12  H   UNL A   1      34.939  21.278  24.595  1.00  0.00     0.346 HD
ATOM     13  H   UNL A   1      35.330  20.040  25.668  1.00  0.00     0.346 HD
BRANCH  11  14
ATOM     14  C   UNL A   1      33.390  20.608  25.727  1.00  0.00     0.303 C 
BRANCH  14  15
ATOM     15  C   UNL A   1      32.863  20.005  24.479  1.00  0.00     0.071 A 
ATOM     16  C   UNL A   1      32.808  17.472  25.112  1.00  0.00     0.071 C 
ATOM     17  C   UNL A   1      32.620  18.630  24.206  1.00  0.00     0.090 A 
ATOM     18  N   UNL A   1      32.171  18.448  22.959  1.00  0.00    -0.085 NA
ATOM     19  O   UNL A   1      32.111  19.707  22.394  1.00  0.00    -0.361 OA
ATOM     20  C   UNL A   1      32.524  20.632  23.299  1.00  0.00     0.142 A 
ATOM     21  C   UNL A   1      32.532  22.034  22.841  1.00  0.00     0.091 C 
ENDBRANCH  14  15
ENDBRANCH  11  14
ENDBRANCH   9  11
ENDBRANCH   7   9
ENDBRANCH   4   7
ENDBRANCH   2   3
ENDBRANCH   1   2
BRANCH   1  22
ATOM     22  C   UNL A   1      41.413  21.876  26.110  1.00  0.00     0.002 C 
BRANCH  22  23
ATOM     23  C   UNL A   1      41.650  20.574  26.882  1.00  0.00     0.002 C 
BRANCH  23  24
ATOM     24  C   UNL A   1      41.883  19.328  26.024  1.00  0.00     0.021 C 
BRANCH  24  25
ATOM     25  C   UNL A   1      43.271  18.706  26.138  1.00  0.00     0.116 C 
BRANCH  25  26
ATOM     26  N   UNL A   1      43.956  18.623  24.862  1.00  0.00    -0.352 N 
ATOM     27  C   UNL A   1      44.566  19.610  24.137  1.00  0.00     0.251 C 
ATOM     28  H   UNL A   1      43.986  17.725  24.458  1.00  0.00     0.163 HD
ATOM     29  O   UNL A   1      44.985  19.364  23.003  1.00  0.00    -0.269 OA
BRANCH  27  30
ATOM     30  C   UNL A   1      44.716  20.976  24.684  1.00  0.00     0.039 A 
ATOM     31  C   UNL A   1      44.351  22.058  23.878  1.00  0.00     0.014 A 
ATOM     32  C   UNL A   1      45.263  21.205  25.952  1.00  0.00     0.014 A 
ATOM     33  C   UNL A   1      44.509  23.363  24.347  1.00  0.00     0.010 A 
ATOM     34  C   UNL A   1      45.361  22.506  26.444  1.00  0.00     0.010 A 
ATOM     35  C   UNL A   1      45.007  23.598  25.638  1.00  0.00    -0.014 A 
BRANCH  35  36
ATOM     36  C   UNL A   1      45.211  24.984  26.126  1.00  0.00     0.031 A 
ATOM     37  C   UNL A   1      46.569  25.625  26.029  1.00  0.00     0.074 A 
ATOM     38  C   UNL A   1      44.185  25.659  26.676  1.00  0.00     0.049 A 
ATOM     39  N   UNL A   1      46.949  26.824  26.398  1.00  0.00    -0.248 NA
ATOM     40  C   UNL A   1      47.651  24.801  25.468  1.00  0.00     0.031 C 
ATOM     41  C   UNL A   1      42.836  25.130  26.874  1.00  0.00     0.029 A 
ATOM     42  N   UNL A   1      44.119  26.938  27.170  1.00  0.00    -0.354 N 
ATOM     43  C   UNL A   1      48.309  26.888  26.127  1.00  0.00     0.074 A 
ATOM     44  C   UNL A   1      48.701  25.594  25.612  1.00  0.00     0.031 C 
ATOM     45  C   UNL A   1      42.067  26.085  27.422  1.00  0.00     0.029 A 
ATOM     46  C   UNL A   1      42.873  27.285  27.631  1.00  0.00     0.049 A 
ATOM     47  H   UNL A   1      44.891  27.549  27.191  1.00  0.00     0.167 HD
ATOM     48  C   UNL A   1      49.152  27.940  26.270  1.00  0.00     0.037 A 
ATOM     49  C   UNL A   1      42.430  28.446  28.149  1.00  0.00     0.037 A 
ATOM     50  C   UNL A   1      48.755  29.237  26.747  1.00  0.00     0.049 A 
ATOM     51  C   UNL A   1      43.374  29.612  28.253  1.00  0.00     0.074 A 
ATOM     52  C   UNL A   1      49.521  30.382  26.883  1.00  0.00     0.029 A 
ATOM     53  N   UNL A   1      47.472  29.564  27.161  1.00  0.00    -0.354 N 
ATOM     54  N   UNL A   1      44.643  29.682  27.933  1.00  0.00    -0.248 NA
ATOM     55  C   UNL A   1      42.816  30.870  28.771  1.00  0.00     0.031 C 
ATOM     56  C   UNL A   1      48.708  31.394  27.406  1.00  0.00     0.029 A 
ATOM     57  C   UNL A   1      47.426  30.890  27.558  1.00  0.00     0.049 A 
ATOM     58  H   UNL A   1      46.707  28.945  27.172  1.00  0.00     0.167 HD
ATOM     59  C   UNL A   1      45.027  30.993  28.181  1.00  0.00     0.074 A 
ATOM     60  C   UNL A   1      43.853  31.688  28.665  1.00  0.00     0.031 C 
ATOM     61  C   UNL A   1      46.244  31.569  28.023  1.00  0.00     0.037 A 
BRANCH  48  62
ATOM     62  C   UNL A   1      50.590  27.727  25.894  1.00  0.00     0.064 A 
ATOM     63  C   UNL A   1      51.556  27.386  26.853  1.00  0.00     0.173 A 
ATOM     64  C   UNL A   1      51.003  27.845  24.558  1.00  0.00     0.173 A 
ATOM     65  F   UNL A   1      51.215  27.276  28.144  1.00  0.00    -0.203 F 
ATOM     66  C   UNL A   1      52.889  27.203  26.492  1.00  0.00     0.198 A 
ATOM     67  C   UNL A   1      52.331  27.632  24.198  1.00  0.00     0.198 A 
ATOM     68  F   UNL A   1      50.118  28.165  23.602  1.00  0.00    -0.203 F 
ATOM     69  F   UNL A   1      53.803  26.929  27.434  1.00  0.00    -0.200 F 
ATOM     70  C   UNL A   1      53.274  27.320  25.166  1.00  0.00     0.200 A 
ATOM     71  F   UNL A   1      52.700  27.737  22.914  1.00  0.00    -0.200 F 
ATOM     72  F   UNL A   1      54.556  27.141  24.821  1.00  0.00    -0.200 F 
ENDBRANCH  48  62
BRANCH  49  73
ATOM     73  C   UNL A   1      41.009  28.578  28.559  1.00  0.00     0.064 A 
ATOM     74  C   UNL A   1      40.608  28.268  29.865  1.00  0.00     0.173 A 
ATOM     75  C   UNL A   1      40.028  29.014  27.659  1.00  0.00     0.173 A 
ATOM     76  F   UNL A   1      41.509  27.828  30.756  1.00  0.00    -0.203 F 
ATOM     77  C   UNL A   1      39.273  28.368  30.251  1.00  0.00     0.198 A 
ATOM     78  C   UNL A   1      38.696  29.138  28.053  1.00  0.00     0.198 A 
ATOM     79  F   UNL A   1      40.364  29.330  26.400  1.00  0.00    -0.203 F 
ATOM     80  F   UNL A   1      38.909  28.024  31.494  1.00  0.00    -0.200 F 
ATOM     81  C   UNL A   1      38.319  28.808  29.346  1.00  0.00     0.200 A 
ATOM     82  F   UNL A   1      37.779  29.575  27.179  1.00  0.00    -0.200 F 
ATOM     83  F   UNL A   1      37.036  28.906  29.717  1.00  0.00    -0.200 F 
ENDBRANCH  49  73
BRANCH  61  84
ATOM     84  C   UNL A   1      46.354  33.031  28.338  1.00  0.00     0.064 A 
ATOM     85  C   UNL A   1      46.699  33.485  29.619  1.00  0.00     0.173 A 
ATOM     86  C   UNL A   1      46.130  33.990  27.338  1.00  0.00     0.173 A 
ATOM     87  F   UNL A   1      46.908  32.606  30.612  1.00  0.00    -0.203 F 
ATOM     88  C   UNL A   1      46.786  34.846  29.896  1.00  0.00     0.198 A 
ATOM     89  C   UNL A   1      46.245  35.350  27.611  1.00  0.00     0.198 A 
ATOM     90  F   UNL A   1      45.804  33.606  26.095  1.00  0.00    -0.203 F 
ATOM     91  F   UNL A   1      47.068  35.258  31.140  1.00  0.00    -0.200 F 
ATOM     92  C   UNL A   1      46.564  35.777  28.892  1.00  0.00     0.200 A 
ATOM     93  F   UNL A   1      46.040  36.247  26.638  1.00  0.00    -0.200 F 
ATOM     94  F   UNL A   1      46.649  37.087  29.160  1.00  0.00    -0.200 F 
ENDBRANCH  61  84
ENDBRANCH  35  36
ENDBRANCH  27  30
ENDBRANCH  25  26
ENDBRANCH  24  25
ENDBRANCH  23  24
ENDBRANCH  22  23
ENDBRANCH   1  22
TORSDOF 17
ENDMDL
MODEL 2
REMARK VINA RESULT:     -10.4      1.602      7.846
REMARK SMILES Cc1noc(C)c1C[NH2+][C@H](C)[C@H](C)C(=O)NCCCCCCNC(=O)c1ccc(-c2c3nc(c(-c4c(F)c(F)c(F)c(F)c4F)c4ccc([nH]4)c(-c4c(F)c(F)c(F)c(F)c4F)c4nc(c(-c5c(F)c(F)c(F)c(F)c5F)c5ccc2[nH]5)C=C4)C=C3)cc1
REMARK SMILES IDX 18 1 17 2 16 3 14 4 15 5 12 7 13 8 10 9 11 10 9 11 8 14 7 15
REMARK SMILES IDX 1 16 2 17 3 18 4 19 5 20 6 21 19 22 20 23 21 24 22 25 23 26
REMARK SMILES IDX 24 27 25 29 26 30 27 31 88 32 28 33 87 34 29 35 30 36 31 37
REMARK SMILES IDX 81 38 32 39 86 40 80 41 82 42 33 43 85 44 79 45 78 46 34 48
REMARK SMILES IDX 66 49 46 50 65 51 47 52 50 53 64 54 83 55 48 56 49 57 63 59
REMARK SMILES IDX 84 60 51 61 35 62 36 63 44 64 37 65 38 66 42 67 45 68 39 69
REMARK SMILES IDX 40 70 43 71 41 72 67 73 68 74 76 75 69 76 70 77 74 78 77 79
REMARK SMILES IDX 71 80 72 81 75 82 73 83 52 84 53 85 61 86 54 87 55 88 59 89
REMARK SMILES IDX 62 90 56 91 57 92 60 93 58 94
REMARK H PARENT 16 6 9 12 9 13 23 28 82 47 50 58
REMARK Flexibility Score: inf
ROOT
ATOM      1  C   UNL A   1      37.533  22.795  25.386  1.00  0.00     0.021 C 
ENDROOT
BRANCH   1   2
ATOM      2  C   UNL A   1      36.429  23.677  25.960  1.00  0.00     0.116 C 
BRANCH   2   3
ATOM      3  N   UNL A   1      35.578  22.949  26.878  1.00  0.00    -0.356 N 
ATOM      4  C   UNL A   1      34.229  22.800  26.921  1.00  0.00     0.228 C 
ATOM      5  O   UNL A   1      33.764  22.100  27.825  1.00  0.00    -0.275 OA
ATOM      6  H   UNL A   1      36.062  22.480  27.597  1.00  0.00     0.163 HD
BRANCH   4   7
ATOM      7  C   UNL A   1      33.306  23.446  25.891  1.00  0.00     0.133 C 
ATOM      8  C   UNL A   1      33.759  24.872  25.556  1.00  0.00     0.024 C 
BRANCH   7   9
ATOM      9  C   UNL A   1      33.091  22.530  24.662  1.00  0.00     0.191 C 
ATOM     10  C   UNL A   1      33.899  23.022  23.453  1.00  0.00     0.076 C 
BRANCH   9  11
ATOM     11  N   UNL A   1      33.506  21.139  24.909  1.00  0.00    -0.339 N 
ATOM     12  H   UNL A   1      34.100  20.831  24.139  1.00  0.00     0.346 HD
ATOM     13  H   UNL A   1      34.007  21.114  25.797  1.00  0.00     0.346 HD
BRANCH  11  14
ATOM     14  C   UNL A   1      32.364  20.235  25.012  1.00  0.00     0.303 C 
BRANCH  14  15
ATOM     15  C   UNL A   1      32.509  19.175  23.986  1.00  0.00     0.071 A 
ATOM     16  C   UNL A   1      31.857  20.467  21.812  1.00  0.00     0.071 C 
ATOM     17  C   UNL A   1      32.274  19.274  22.586  1.00  0.00     0.090 A 
ATOM     18  N   UNL A   1      32.476  18.103  21.970  1.00  0.00    -0.085 NA
ATOM     19  O   UNL A   1      32.850  17.217  22.960  1.00  0.00    -0.361 OA
ATOM     20  C   UNL A   1      32.867  17.854  24.160  1.00  0.00     0.142 A 
ATOM     21  C   UNL A   1      33.234  17.035  25.329  1.00  0.00     0.091 C 
ENDBRANCH  14  15
ENDBRANCH  11  14
ENDBRANCH   9  11
ENDBRANCH   7   9
ENDBRANCH   4   7
ENDBRANCH   2   3
ENDBRANCH   1   2
BRANCH   1  22
ATOM     22  C   UNL A   1      37.048  21.700  24.429  1.00  0.00     0.002 C 
BRANCH  22  23
ATOM     23  C   UNL A   1      37.147  20.268  24.961  1.00  0.00     0.002 C 
BRANCH  23  24
ATOM     24  C   UNL A   1      38.523  19.608  24.840  1.00  0.00     0.021 C 
BRANCH  24  25
ATOM     25  C   UNL A   1      39.445  19.795  26.040  1.00  0.00     0.116 C 
BRANCH  25  26
ATOM     26  N   UNL A   1      40.563  18.869  26.039  1.00  0.00    -0.352 N 
ATOM     27  C   UNL A   1      41.905  19.127  26.097  1.00  0.00     0.251 C 
ATOM     28  H   UNL A   1      40.319  17.916  25.988  1.00  0.00     0.163 HD
ATOM     29  O   UNL A   1      42.710  18.203  25.953  1.00  0.00    -0.269 OA
BRANCH  27  30
ATOM     30  C   UNL A   1      42.409  20.501  26.312  1.00  0.00     0.039 A 
ATOM     31  C   UNL A   1      42.500  20.977  27.623  1.00  0.00     0.014 A 
ATOM     32  C   UNL A   1      42.737  21.341  25.242  1.00  0.00     0.014 A 
ATOM     33  C   UNL A   1      42.938  22.281  27.864  1.00  0.00     0.010 A 
ATOM     34  C   UNL A   1      43.236  22.620  25.485  1.00  0.00     0.010 A 
ATOM     35  C   UNL A   1      43.319  23.110  26.797  1.00  0.00    -0.014 A 
BRANCH  35  36
ATOM     36  C   UNL A   1      43.751  24.507  27.046  1.00  0.00     0.031 A 
ATOM     37  C   UNL A   1      42.772  25.514  27.587  1.00  0.00     0.074 A 
ATOM     38  C   UNL A   1      45.014  24.878  26.767  1.00  0.00     0.049 A 
ATOM     39  N   UNL A   1      42.956  26.779  27.872  1.00  0.00    -0.248 NA
ATOM     40  C   UNL A   1      41.396  25.044  27.811  1.00  0.00     0.031 C 
ATOM     41  C   UNL A   1      46.042  24.010  26.192  1.00  0.00     0.029 A 
ATOM     42  N   UNL A   1      45.648  26.084  26.930  1.00  0.00    -0.354 N 
ATOM     43  C   UNL A   1      41.721  27.254  28.293  1.00  0.00     0.074 A 
ATOM     44  C   UNL A   1      40.783  26.159  28.178  1.00  0.00     0.031 C 
ATOM     45  C   UNL A   1      47.186  24.703  26.076  1.00  0.00     0.029 A 
ATOM     46  C   UNL A   1      46.968  26.067  26.550  1.00  0.00     0.049 A 
ATOM     47  H   UNL A   1      45.201  26.885  27.287  1.00  0.00     0.167 HD
ATOM     48  C   UNL A   1      41.402  28.486  28.759  1.00  0.00     0.037 A 
ATOM     49  C   UNL A   1      47.897  27.039  26.594  1.00  0.00     0.037 A 
ATOM     50  C   UNL A   1      42.342  29.565  28.908  1.00  0.00     0.049 A 
ATOM     51  C   UNL A   1      47.530  28.384  27.159  1.00  0.00     0.074 A 
ATOM     52  C   UNL A   1      42.130  30.835  29.415  1.00  0.00     0.029 A 
ATOM     53  N   UNL A   1      43.681  29.495  28.554  1.00  0.00    -0.354 N 
ATOM     54  N   UNL A   1      46.375  28.803  27.615  1.00  0.00    -0.248 NA
ATOM     55  C   UNL A   1      48.603  29.384  27.235  1.00  0.00     0.031 C 
ATOM     56  C   UNL A   1      43.335  31.543  29.343  1.00  0.00     0.029 A 
ATOM     57  C   UNL A   1      44.307  30.700  28.827  1.00  0.00     0.049 A 
ATOM     58  H   UNL A   1      44.123  28.705  28.167  1.00  0.00     0.167 HD
ATOM     59  C   UNL A   1      46.588  30.100  28.059  1.00  0.00     0.074 A 
ATOM     60  C   UNL A   1      47.987  30.395  27.830  1.00  0.00     0.031 C 
ATOM     61  C   UNL A   1      45.704  30.971  28.606  1.00  0.00     0.037 A 
BRANCH  48  62
ATOM     62  C   UNL A   1      39.973  28.726  29.150  1.00  0.00     0.064 A 
ATOM     63  C   UNL A   1      39.030  29.203  28.227  1.00  0.00     0.173 A 
ATOM     64  C   UNL A   1      39.536  28.458  30.456  1.00  0.00     0.173 A 
ATOM     65  F   UNL A   1      39.400  29.489  26.970  1.00  0.00    -0.203 F 
ATOM     66  C   UNL A   1      37.709  29.433  28.605  1.00  0.00     0.198 A 
ATOM     67  C   UNL A   1      38.207  28.661  30.823  1.00  0.00     0.198 A 
ATOM     68  F   UNL A   1      40.396  27.997  31.376  1.00  0.00    -0.203 F 
ATOM     69  F   UNL A   1      36.839  29.938  27.720  1.00  0.00    -0.200 F 
ATOM     70  C   UNL A   1      37.298  29.156  29.900  1.00  0.00     0.200 A 
ATOM     71  F   UNL A   1      37.809  28.384  32.072  1.00  0.00    -0.200 F 
ATOM     72  F   UNL A   1      36.026  29.375  30.262  1.00  0.00    -0.200 F 
ENDBRANCH  48  62
BRANCH  49  73
ATOM     73  C   UNL A   1      49.282  26.759  26.137  1.00  0.00     0.064 A 
ATOM     74  C   UNL A   1      49.672  27.035  24.819  1.00  0.00     0.173 A 
ATOM     75  C   UNL A   1      50.240  26.213  27.002  1.00  0.00     0.173 A 
ATOM     76  F   UNL A   1      48.784  27.540  23.950  1.00  0.00    -0.203 F 
ATOM     77  C   UNL A   1      50.963  26.754  24.377  1.00  0.00     0.198 A 
ATOM     78  C   UNL A   1      51.538  25.955  26.566  1.00  0.00     0.198 A 
ATOM     79  F   UNL A   1      49.916  25.939  28.274  1.00  0.00    -0.203 F 
ATOM     80  F   UNL A   1      51.298  26.988  23.101  1.00  0.00    -0.200 F 
ATOM     81  C   UNL A   1      51.896  26.219  25.252  1.00  0.00     0.200 A 
ATOM     82  F   UNL A   1      52.441  25.450  27.417  1.00  0.00    -0.200 F 
ATOM     83  F   UNL A   1      53.138  25.951  24.828  1.00  0.00    -0.200 F 
ENDBRANCH  49  73
BRANCH  61  84
ATOM     84  C   UNL A   1      46.235  32.306  29.032  1.00  0.00     0.064 A 
ATOM     85  C   UNL A   1      46.243  33.407  28.164  1.00  0.00     0.173 A 
ATOM     86  C   UNL A   1      46.723  32.493  30.335  1.00  0.00     0.173 A 
ATOM     87  F   UNL A   1      45.800  33.275  26.903  1.00  0.00    -0.203 F 
ATOM     88  C   UNL A   1      46.749  34.638  28.573  1.00  0.00     0.198 A 
ATOM     89  C   UNL A   1      47.204  33.731  30.750  1.00  0.00     0.198 A 
ATOM     90  F   UNL A   1      46.731  31.472  31.206  1.00  0.00    -0.203 F 
ATOM     91  F   UNL A   1      46.794  35.662  27.709  1.00  0.00    -0.200 F 
ATOM     92  C   UNL A   1      47.224  34.800  29.866  1.00  0.00     0.200 A 
ATOM     93  F   UNL A   1      47.653  33.889  32.002  1.00  0.00    -0.200 F 
ATOM     94  F   UNL A   1      47.711  35.985  30.258  1.00  0.00    -0.200 F 
ENDBRANCH  61  84
ENDBRANCH  35  36
ENDBRANCH  27  30
ENDBRANCH  25  26
ENDBRANCH  24  25
ENDBRANCH  23  24
ENDBRANCH  22  23
ENDBRANCH   1  22
TORSDOF 17
ENDMDL
MODEL 3
REMARK VINA RESULT:     -10.3      1.802      3.040
REMARK SMILES Cc1noc(C)c1C[NH2+][C@H](C)[C@H](C)C(=O)NCCCCCCNC(=O)c1ccc(-c2c3nc(c(-c4c(F)c(F)c(F)c(F)c4F)c4ccc([nH]4)c(-c4c(F)c(F)c(F)c(F)c4F)c4nc(c(-c5c(F)c(F)c(F)c(F)c5F)c5ccc2[nH]5)C=C4)C=C3)cc1
REMARK SMILES IDX 18 1 17 2 16 3 14 4 15 5 12 7 13 8 10 9 11 10 9 11 8 14 7 15
REMARK SMILES IDX 1 16 2 17 3 18 4 19 5 20 6 21 19 22 20 23 21 24 22 25 23 26
REMARK SMILES IDX 24 27 25 29 26 30 27 31 88 32 28 33 87 34 29 35 30 36 31 37
REMARK SMILES IDX 81 38 32 39 86 40 80 41 82 42 33 43 85 44 79 45 78 46 34 48
REMARK SMILES IDX 66 49 46 50 65 51 47 52 50 53 64 54 83 55 48 56 49 57 63 59
REMARK SMILES IDX 84 60 51 61 35 62 36 63 44 64 37 65 38 66 42 67 45 68 39 69
REMARK SMILES IDX 40 70 43 71 41 72 67 73 68 74 76 75 69 76 70 77 74 78 77 79
REMARK SMILES IDX 71 80 72 81 75 82 73 83 52 84 53 85 61 86 54 87 55 88 59 89
REMARK SMILES IDX 62 90 56 91 57 92 60 93 58 94
REMARK H PARENT 16 6 9 12 9 13 23 28 82 47 50 58
REMARK Flexibility Score: inf
ROOT
ATOM      1  C   UNL A   1      36.654  23.355  25.567  1.00  0.00     0.021 C 
ENDROOT
BRANCH   1   2
ATOM      2  C   UNL A   1      35.610  23.760  24.531  1.00  0.00     0.116 C 
BRANCH   2   3
ATOM      3  N   UNL A   1      34.370  24.179  25.150  1.00  0.00    -0.356 N 
ATOM      4  C   UNL A   1      33.454  23.487  25.876  1.00  0.00     0.228 C 
ATOM      5  O   UNL A   1      32.478  24.111  26.299  1.00  0.00    -0.275 OA
ATOM      6  H   UNL A   1      34.151  25.130  25.021  1.00  0.00     0.163 HD
BRANCH   4   7
ATOM      7  C   UNL A   1      33.617  22.001  26.187  1.00  0.00     0.133 C 
ATOM      8  C   UNL A   1      33.729  21.758  27.696  1.00  0.00     0.024 C 
BRANCH   7   9
ATOM      9  C   UNL A   1      32.542  21.146  25.471  1.00  0.00     0.191 C 
ATOM     10  C   UNL A   1      32.434  21.519  23.986  1.00  0.00     0.076 C 
BRANCH   9  11
ATOM     11  N   UNL A   1      32.833  19.704  25.525  1.00  0.00    -0.339 N 
ATOM     12  H   UNL A   1      32.899  19.418  26.502  1.00  0.00     0.346 HD
ATOM     13  H   UNL A   1      32.081  19.213  25.044  1.00  0.00     0.346 HD
BRANCH  11  14
ATOM     14  C   UNL A   1      34.087  19.372  24.854  1.00  0.00     0.303 C 
BRANCH  14  15
ATOM     15  C   UNL A   1      33.939  18.044  24.210  1.00  0.00     0.071 A 
ATOM     16  C   UNL A   1      35.620  16.607  25.599  1.00  0.00     0.071 C 
ATOM     17  C   UNL A   1      34.620  16.836  24.529  1.00  0.00     0.090 A 
ATOM     18  N   UNL A   1      34.257  15.838  23.715  1.00  0.00    -0.085 NA
ATOM     19  O   UNL A   1      33.327  16.378  22.850  1.00  0.00    -0.361 OA
ATOM     20  C   UNL A   1      33.140  17.691  23.143  1.00  0.00     0.142 A 
ATOM     21  C   UNL A   1      32.181  18.421  22.293  1.00  0.00     0.091 C 
ENDBRANCH  14  15
ENDBRANCH  11  14
ENDBRANCH   9  11
ENDBRANCH   7   9
ENDBRANCH   4   7
ENDBRANCH   2   3
ENDBRANCH   1   2
BRANCH   1  22
ATOM     22  C   UNL A   1      37.741  22.408  25.047  1.00  0.00     0.002 C 
BRANCH  22  23
ATOM     23  C   UNL A   1      37.245  21.053  24.532  1.00  0.00     0.002 C 
BRANCH  23  24
ATOM     24  C   UNL A   1      38.104  19.844  24.912  1.00  0.00     0.021 C 
BRANCH  24  25
ATOM     25  C   UNL A   1      39.108  20.082  26.035  1.00  0.00     0.116 C 
BRANCH  25  26
ATOM     26  N   UNL A   1      40.253  19.195  25.963  1.00  0.00    -0.352 N 
ATOM     27  C   UNL A   1      41.588  19.489  26.039  1.00  0.00     0.251 C 
ATOM     28  H   UNL A   1      40.039  18.241  25.841  1.00  0.00     0.163 HD
ATOM     29  O   UNL A   1      42.420  18.605  25.824  1.00  0.00    -0.269 OA
BRANCH  27  30
ATOM     30  C   UNL A   1      42.049  20.858  26.356  1.00  0.00     0.039 A 
ATOM     31  C   UNL A   1      42.300  21.181  27.693  1.00  0.00     0.014 A 
ATOM     32  C   UNL A   1      42.182  21.838  25.367  1.00  0.00     0.014 A 
ATOM     33  C   UNL A   1      42.704  22.472  28.036  1.00  0.00     0.010 A 
ATOM     34  C   UNL A   1      42.648  23.109  25.701  1.00  0.00     0.010 A 
ATOM     35  C   UNL A   1      42.890  23.445  27.042  1.00  0.00    -0.014 A 
BRANCH  35  36
ATOM     36  C   UNL A   1      43.285  24.828  27.405  1.00  0.00     0.031 A 
ATOM     37  C   UNL A   1      44.693  25.299  27.161  1.00  0.00     0.074 A 
ATOM     38  C   UNL A   1      42.386  25.654  27.973  1.00  0.00     0.049 A 
ATOM     39  N   UNL A   1      45.231  26.468  27.408  1.00  0.00    -0.248 NA
ATOM     40  C   UNL A   1      45.629  24.318  26.590  1.00  0.00     0.031 C 
ATOM     41  C   UNL A   1      41.007  25.300  28.307  1.00  0.00     0.029 A 
ATOM     42  N   UNL A   1      42.502  26.963  28.369  1.00  0.00    -0.354 N 
ATOM     43  C   UNL A   1      46.564  26.356  27.036  1.00  0.00     0.074 A 
ATOM     44  C   UNL A   1      46.769  24.992  26.597  1.00  0.00     0.031 C 
ATOM     45  C   UNL A   1      40.394  26.374  28.833  1.00  0.00     0.029 A 
ATOM     46  C   UNL A   1      41.342  27.484  28.889  1.00  0.00     0.049 A 
ATOM     47  H   UNL A   1      43.335  27.480  28.287  1.00  0.00     0.167 HD
ATOM     48  C   UNL A   1      47.527  27.309  27.036  1.00  0.00     0.037 A 
ATOM     49  C   UNL A   1      41.073  28.721  29.346  1.00  0.00     0.037 A 
ATOM     50  C   UNL A   1      47.315  28.674  27.438  1.00  0.00     0.049 A 
ATOM     51  C   UNL A   1      42.145  29.774  29.291  1.00  0.00     0.074 A 
ATOM     52  C   UNL A   1      48.211  29.729  27.429  1.00  0.00     0.029 A 
ATOM     53  N   UNL A   1      46.113  29.176  27.916  1.00  0.00    -0.354 N 
ATOM     54  N   UNL A   1      43.385  29.674  28.877  1.00  0.00    -0.248 NA
ATOM     55  C   UNL A   1      41.773  31.121  29.748  1.00  0.00     0.031 C 
ATOM     56  C   UNL A   1      47.559  30.862  27.928  1.00  0.00     0.029 A 
ATOM     57  C   UNL A   1      46.245  30.523  28.211  1.00  0.00     0.049 A 
ATOM     58  H   UNL A   1      45.287  28.652  28.030  1.00  0.00     0.167 HD
ATOM     59  C   UNL A   1      43.930  30.945  28.994  1.00  0.00     0.074 A 
ATOM     60  C   UNL A   1      42.882  31.804  29.506  1.00  0.00     0.031 C 
ATOM     61  C   UNL A   1      45.187  31.364  28.705  1.00  0.00     0.037 A 
BRANCH  48  62
ATOM     62  C   UNL A   1      48.897  26.906  26.576  1.00  0.00     0.064 A 
ATOM     63  C   UNL A   1      49.853  26.404  27.471  1.00  0.00     0.173 A 
ATOM     64  C   UNL A   1      49.252  27.003  25.222  1.00  0.00     0.173 A 
ATOM     65  F   UNL A   1      49.568  26.305  28.778  1.00  0.00    -0.203 F 
ATOM     66  C   UNL A   1      51.125  26.044  27.033  1.00  0.00     0.198 A 
ATOM     67  C   UNL A   1      50.516  26.614  24.784  1.00  0.00     0.198 A 
ATOM     68  F   UNL A   1      48.374  27.473  24.324  1.00  0.00    -0.203 F 
ATOM     69  F   UNL A   1      52.039  25.616  27.916  1.00  0.00    -0.200 F 
ATOM     70  C   UNL A   1      51.453  26.143  25.691  1.00  0.00     0.200 A 
ATOM     71  F   UNL A   1      50.829  26.703  23.484  1.00  0.00    -0.200 F 
ATOM     72  F   UNL A   1      52.677  25.794  25.271  1.00  0.00    -0.200 F 
ENDBRANCH  48  62
BRANCH  49  73
ATOM     73  C   UNL A   1      39.713  29.045  29.845  1.00  0.00     0.064 A 
ATOM     74  C   UNL A   1      38.708  29.466  28.963  1.00  0.00     0.173 A 
ATOM     75  C   UNL A   1      39.390  28.944  31.204  1.00  0.00     0.173 A 
ATOM     76  F   UNL A   1      38.976  29.597  27.655  1.00  0.00    -0.203 F 
ATOM     77  C   UNL A   1      37.435  29.794  29.426  1.00  0.00     0.198 A 
ATOM     78  C   UNL A   1      38.110  29.249  31.663  1.00  0.00     0.198 A 
ATOM     79  F   UNL A   1      40.316  28.539  32.086  1.00  0.00    -0.203 F 
ATOM     80  F   UNL A   1      36.505  30.234  28.568  1.00  0.00    -0.200 F 
ATOM     81  C   UNL A   1      37.136  29.680  30.775  1.00  0.00     0.200 A 
ATOM     82  F   UNL A   1      37.821  29.126  32.966  1.00  0.00    -0.200 F 
ATOM     83  F   UNL A   1      35.912  29.993  31.220  1.00  0.00    -0.200 F 
ENDBRANCH  49  73
BRANCH  61  84
ATOM     84  C   UNL A   1      45.482  32.821  28.896  1.00  0.00     0.064 A 
ATOM     85  C   UNL A   1      45.265  33.757  27.875  1.00  0.00     0.173 A 
ATOM     86  C   UNL A   1      45.969  33.291  30.126  1.00  0.00     0.173 A 
ATOM     87  F   UNL A   1      44.814  33.355  26.676  1.00  0.00    -0.203 F 
ATOM     88  C   UNL A   1      45.554  35.106  28.067  1.00  0.00     0.198 A 
ATOM     89  C   UNL A   1      46.232  34.643  30.324  1.00  0.00     0.198 A 
ATOM     90  F   UNL A   1      46.188  32.436  31.136  1.00  0.00    -0.203 F 
ATOM     91  F   UNL A   1      45.387  35.974  27.060  1.00  0.00    -0.200 F 
ATOM     92  C   UNL A   1      46.032  35.548  29.291  1.00  0.00     0.200 A 
ATOM     93  F   UNL A   1      46.685  35.070  31.510  1.00  0.00    -0.200 F 
ATOM     94  F   UNL A   1      46.310  36.846  29.474  1.00  0.00    -0.200 F 
ENDBRANCH  61  84
ENDBRANCH  35  36
ENDBRANCH  27  30
ENDBRANCH  25  26
ENDBRANCH  24  25
ENDBRANCH  23  24
ENDBRANCH  22  23
ENDBRANCH   1  22
TORSDOF 17
ENDMDL
