MODEL 1
REMARK VINA RESULT:     -12.5      0.000      0.000
REMARK SMILES Cn1cc([C@@H]2CC(NCCCCCCNC(=O)c3ccc(-c4c5nc(c(-c6c(F)c(F)c(F)c(F)c6F)c6ccc([nH]6)c(-c6c(F)c(F)c(F)c(F)c6F)c6nc(c(-c7c(F)c(F)c(F)c(F)c7F)c7ccc4[nH]7)C=C6)C=C5)cc3)=[NH+]c3c2sc(C(=O)[O-])c3-c2ccc(Cl)cc2)cn1
REMARK SMILES IDX 12 1 11 2 10 3 9 4 8 5 5 6 6 7 83 8 7 9 82 10 84 11 81 12
REMARK SMILES IDX 89 13 85 14 4 17 1 18 2 19 3 20 98 21 97 22 90 23 91 24
REMARK SMILES IDX 96 25 92 26 95 27 93 28 94 29 86 30 87 31 88 32 13 33 14 34
REMARK SMILES IDX 15 35 16 36 17 38 18 39 19 40 80 41 20 42 79 43 21 44 22 45
REMARK SMILES IDX 23 46 73 47 24 48 78 49 72 50 74 51 25 52 77 53 71 54 70 55
REMARK SMILES IDX 26 57 58 58 38 59 57 60 39 61 42 62 56 63 75 64 40 65 41 66
REMARK SMILES IDX 55 68 76 69 43 70 27 71 28 72 36 73 29 74 30 75 34 76 37 77
REMARK SMILES IDX 31 78 32 79 35 80 33 81 59 82 60 83 68 84 61 85 62 86 66 87
REMARK SMILES IDX 69 88 63 89 64 90 67 91 65 92 44 93 45 94 53 95 46 96 47 97
REMARK SMILES IDX 51 98 54 99 48 100 49 101 52 102 50 103
REMARK H PARENT 8 15 81 16 15 37 74 56 42 67
REMARK Flexibility Score: inf
ROOT
ATOM      1  C   UNL A   1      35.017  32.503  27.986  1.00  0.00     0.002 C 
ENDROOT
BRANCH   1   2
ATOM      2  C   UNL A   1      34.535  31.067  28.244  1.00  0.00     0.004 C 
BRANCH   2   3
ATOM      3  C   UNL A   1      35.519  29.953  27.871  1.00  0.00     0.046 C 
BRANCH   3   4
ATOM      4  C   UNL A   1      34.874  28.711  27.257  1.00  0.00     0.233 C 
BRANCH   4   5
ATOM      5  N   UNL A   1      33.512  28.999  26.852  1.00  0.00    -0.278 N 
ATOM      6  C   UNL A   1      30.531  27.814  24.745  1.00  0.00     0.079 C 
ATOM      7  C   UNL A   1      31.368  28.686  25.689  1.00  0.00     0.142 C 
ATOM      8  C   UNL A   1      31.247  26.548  24.419  1.00  0.00     0.061 A 
ATOM      9  C   UNL A   1      32.770  28.179  26.030  1.00  0.00     0.248 C 
ATOM     10  C   UNL A   1      32.508  26.233  24.826  1.00  0.00     0.147 A 
ATOM     11  S   UNL A   1      30.573  25.296  23.489  1.00  0.00    -0.133 S 
ATOM     12  N   UNL A   1      33.290  27.058  25.627  1.00  0.00    -0.243 N 
ATOM     13  C   UNL A   1      32.979  24.965  24.365  1.00  0.00     0.049 A 
ATOM     14  C   UNL A   1      32.006  24.329  23.593  1.00  0.00     0.062 A 
ATOM     15  H   UNL A   1      33.093  29.826  27.184  1.00  0.00     0.304 HD
ATOM     16  H   UNL A   1      34.206  26.801  25.878  1.00  0.00     0.312 HD
BRANCH   6  17
ATOM     17  C   UNL A   1      30.123  28.554  23.501  1.00  0.00    -0.001 A 
ATOM     18  C   UNL A   1      28.025  30.440  21.257  1.00  0.00     0.173 C 
ATOM     19  N   UNL A   1      29.033  29.696  21.973  1.00  0.00    -0.276 N 
ATOM     20  C   UNL A   1      28.865  28.985  23.123  1.00  0.00     0.112 A 
ATOM     21  N   UNL A   1      30.302  29.700  21.529  1.00  0.00    -0.182 NA
ATOM     22  C   UNL A   1      30.967  29.026  22.469  1.00  0.00     0.139 A 
ENDBRANCH   6  17
BRANCH  13  23
ATOM     23  C   UNL A   1      34.277  24.384  24.698  1.00  0.00    -0.012 A 
ATOM     24  C   UNL A   1      35.305  24.300  23.751  1.00  0.00     0.010 A 
ATOM     25  C   UNL A   1      34.507  23.922  26.003  1.00  0.00     0.010 A 
ATOM     26  C   UNL A   1      36.522  23.698  24.085  1.00  0.00     0.021 A 
ATOM     27  C   UNL A   1      35.728  23.334  26.341  1.00  0.00     0.021 A 
ATOM     28  C   UNL A   1      36.723  23.210  25.375  1.00  0.00     0.041 A 
ATOM     29  Cl  UNL A   1      38.210  22.445  25.779  1.00  0.00    -0.084 Cl
ENDBRANCH  13  23
BRANCH  14  30
ATOM     30  C   UNL A   1      31.966  23.054  22.913  1.00  0.00     0.082 C 
ATOM     31  O   UNL A   1      31.247  22.085  23.159  1.00  0.00    -0.544 OA
ATOM     32  O   UNL A   1      32.845  22.955  21.898  1.00  0.00    -0.544 OA
ENDBRANCH  14  30
ENDBRANCH   4   5
ENDBRANCH   3   4
ENDBRANCH   2   3
ENDBRANCH   1   2
BRANCH   1  33
ATOM     33  C   UNL A   1      33.988  33.625  28.194  1.00  0.00     0.021 C 
BRANCH  33  34
ATOM     34  C   UNL A   1      34.568  34.903  28.776  1.00  0.00     0.116 C 
BRANCH  34  35
ATOM     35  N   UNL A   1      33.979  35.267  30.070  1.00  0.00    -0.352 N 
ATOM     36  C   UNL A   1      34.069  34.587  31.274  1.00  0.00     0.251 C 
ATOM     37  H   UNL A   1      33.453  36.100  30.084  1.00  0.00     0.163 HD
ATOM     38  O   UNL A   1      33.243  34.750  32.162  1.00  0.00    -0.269 OA
BRANCH  36  39
ATOM     39  C   UNL A   1      35.207  33.674  31.473  1.00  0.00     0.039 A 
ATOM     40  C   UNL A   1      35.061  32.289  31.598  1.00  0.00     0.014 A 
ATOM     41  C   UNL A   1      36.467  34.257  31.483  1.00  0.00     0.014 A 
ATOM     42  C   UNL A   1      36.213  31.508  31.675  1.00  0.00     0.010 A 
ATOM     43  C   UNL A   1      37.568  33.482  31.281  1.00  0.00     0.010 A 
ATOM     44  C   UNL A   1      37.466  32.121  31.502  1.00  0.00    -0.014 A 
BRANCH  44  45
ATOM     45  C   UNL A   1      38.705  31.365  31.417  1.00  0.00     0.031 A 
ATOM     46  C   UNL A   1      39.258  31.044  32.753  1.00  0.00     0.074 A 
ATOM     47  C   UNL A   1      39.143  30.800  30.265  1.00  0.00     0.049 A 
ATOM     48  N   UNL A   1      40.275  31.592  33.325  1.00  0.00    -0.248 NA
ATOM     49  C   UNL A   1      38.478  30.169  33.648  1.00  0.00     0.031 C 
ATOM     50  C   UNL A   1      38.450  30.767  28.967  1.00  0.00     0.029 A 
ATOM     51  N   UNL A   1      40.254  30.041  30.022  1.00  0.00    -0.354 N 
ATOM     52  C   UNL A   1      40.439  30.895  34.519  1.00  0.00     0.074 A 
ATOM     53  C   UNL A   1      39.180  30.257  34.780  1.00  0.00     0.031 C 
ATOM     54  C   UNL A   1      39.020  29.845  28.160  1.00  0.00     0.029 A 
ATOM     55  C   UNL A   1      40.227  29.362  28.800  1.00  0.00     0.049 A 
ATOM     56  H   UNL A   1      41.007  29.978  30.652  1.00  0.00     0.167 HD
ATOM     57  C   UNL A   1      41.700  30.586  34.936  1.00  0.00     0.037 A 
ATOM     58  C   UNL A   1      41.144  28.470  28.348  1.00  0.00     0.037 A 
ATOM     59  C   UNL A   1      42.664  31.347  34.176  1.00  0.00     0.049 A 
ATOM     60  C   UNL A   1      42.397  28.722  29.093  1.00  0.00     0.074 A 
ATOM     61  C   UNL A   1      43.137  32.640  34.147  1.00  0.00     0.029 A 
ATOM     62  N   UNL A   1      42.957  30.781  32.964  1.00  0.00    -0.354 N 
ATOM     63  N   UNL A   1      43.090  29.821  28.969  1.00  0.00    -0.248 NA
ATOM     64  C   UNL A   1      42.696  27.917  30.273  1.00  0.00     0.031 C 
ATOM     65  C   UNL A   1      43.655  32.852  32.831  1.00  0.00     0.029 A 
ATOM     66  C   UNL A   1      43.543  31.669  32.108  1.00  0.00     0.049 A 
ATOM     67  H   UNL A   1      42.767  29.842  32.736  1.00  0.00     0.167 HD
ATOM     68  C   UNL A   1      43.573  30.055  30.239  1.00  0.00     0.074 A 
ATOM     69  C   UNL A   1      43.454  28.786  30.946  1.00  0.00     0.031 C 
ATOM     70  C   UNL A   1      43.682  31.328  30.712  1.00  0.00     0.037 A 
BRANCH  57  71
ATOM     71  C   UNL A   1      42.120  29.265  35.567  1.00  0.00     0.064 A 
ATOM     72  C   UNL A   1      43.057  29.302  36.624  1.00  0.00     0.173 A 
ATOM     73  C   UNL A   1      41.917  27.991  34.995  1.00  0.00     0.173 A 
ATOM     74  F   UNL A   1      43.336  30.455  37.250  1.00  0.00    -0.203 F 
ATOM     75  C   UNL A   1      43.796  28.177  37.004  1.00  0.00     0.198 A 
ATOM     76  C   UNL A   1      42.626  26.862  35.406  1.00  0.00     0.198 A 
ATOM     77  F   UNL A   1      41.111  27.785  33.950  1.00  0.00    -0.203 F 
ATOM     78  F   UNL A   1      44.761  28.294  37.927  1.00  0.00    -0.200 F 
ATOM     79  C   UNL A   1      43.588  26.960  36.387  1.00  0.00     0.200 A 
ATOM     80  F   UNL A   1      42.422  25.694  34.779  1.00  0.00    -0.200 F 
ATOM     81  F   UNL A   1      44.338  25.896  36.700  1.00  0.00    -0.200 F 
ENDBRANCH  57  71
BRANCH  58  82
ATOM     82  C   UNL A   1      40.970  27.256  27.515  1.00  0.00     0.064 A 
ATOM     83  C   UNL A   1      41.731  27.056  26.349  1.00  0.00     0.173 A 
ATOM     84  C   UNL A   1      40.300  26.129  28.026  1.00  0.00     0.173 A 
ATOM     85  F   UNL A   1      42.426  28.071  25.816  1.00  0.00    -0.203 F 
ATOM     86  C   UNL A   1      41.856  25.792  25.761  1.00  0.00     0.198 A 
ATOM     87  C   UNL A   1      40.427  24.868  27.438  1.00  0.00     0.198 A 
ATOM     88  F   UNL A   1      39.597  26.212  29.165  1.00  0.00    -0.203 F 
ATOM     89  F   UNL A   1      42.651  25.626  24.693  1.00  0.00    -0.200 F 
ATOM     90  C   UNL A   1      41.220  24.696  26.317  1.00  0.00     0.200 A 
ATOM     91  F   UNL A   1      39.838  23.807  28.008  1.00  0.00    -0.200 F 
ATOM     92  F   UNL A   1      41.405  23.471  25.804  1.00  0.00    -0.200 F 
ENDBRANCH  58  82
BRANCH  70  93
ATOM     93  C   UNL A   1      43.822  32.431  29.714  1.00  0.00     0.064 A 
ATOM     94  C   UNL A   1      42.795  33.309  29.335  1.00  0.00     0.173 A 
ATOM     95  C   UNL A   1      45.093  32.638  29.164  1.00  0.00     0.173 A 
ATOM     96  F   UNL A   1      41.571  33.210  29.869  1.00  0.00    -0.203 F 
ATOM     97  C   UNL A   1      43.032  34.334  28.418  1.00  0.00     0.198 A 
ATOM     98  C   UNL A   1      45.335  33.679  28.277  1.00  0.00     0.198 A 
ATOM     99  F   UNL A   1      46.115  31.844  29.520  1.00  0.00    -0.203 F 
ATOM    100  F   UNL A   1      42.036  35.155  28.055  1.00  0.00    -0.200 F 
ATOM    101  C   UNL A   1      44.303  34.521  27.895  1.00  0.00     0.200 A 
ATOM    102  F   UNL A   1      46.573  33.875  27.805  1.00  0.00    -0.200 F 
ATOM    103  F   UNL A   1      44.538  35.523  27.037  1.00  0.00    -0.200 F 
ENDBRANCH  70  93
ENDBRANCH  44  45
ENDBRANCH  36  39
ENDBRANCH  34  35
ENDBRANCH  33  34
ENDBRANCH   1  33
TORSDOF 15
ENDMDL
MODEL 2
REMARK VINA RESULT:     -12.3      5.803     10.694
REMARK SMILES Cn1cc([C@@H]2CC(NCCCCCCNC(=O)c3ccc(-c4c5nc(c(-c6c(F)c(F)c(F)c(F)c6F)c6ccc([nH]6)c(-c6c(F)c(F)c(F)c(F)c6F)c6nc(c(-c7c(F)c(F)c(F)c(F)c7F)c7ccc4[nH]7)C=C6)C=C5)cc3)=[NH+]c3c2sc(C(=O)[O-])c3-c2ccc(Cl)cc2)cn1
REMARK SMILES IDX 12 1 11 2 10 3 9 4 8 5 5 6 6 7 83 8 7 9 82 10 84 11 81 12
REMARK SMILES IDX 89 13 85 14 4 17 1 18 2 19 3 20 98 21 97 22 90 23 91 24
REMARK SMILES IDX 96 25 92 26 95 27 93 28 94 29 86 30 87 31 88 32 13 33 14 34
REMARK SMILES IDX 15 35 16 36 17 38 18 39 19 40 80 41 20 42 79 43 21 44 22 45
REMARK SMILES IDX 23 46 73 47 24 48 78 49 72 50 74 51 25 52 77 53 71 54 70 55
REMARK SMILES IDX 26 57 58 58 38 59 57 60 39 61 42 62 56 63 75 64 40 65 41 66
REMARK SMILES IDX 55 68 76 69 43 70 27 71 28 72 36 73 29 74 30 75 34 76 37 77
REMARK SMILES IDX 31 78 32 79 35 80 33 81 59 82 60 83 68 84 61 85 62 86 66 87
REMARK SMILES IDX 69 88 63 89 64 90 67 91 65 92 44 93 45 94 53 95 46 96 47 97
REMARK SMILES IDX 51 98 54 99 48 100 49 101 52 102 50 103
REMARK H PARENT 8 15 81 16 15 37 74 56 42 67
REMARK Flexibility Score: inf
ROOT
ATOM      1  C   UNL A   1      41.546  26.650  34.539  1.00  0.00     0.002 C 
ENDROOT
BRANCH   1   2
ATOM      2  C   UNL A   1      41.777  28.107  34.107  1.00  0.00     0.004 C 
BRANCH   2   3
ATOM      3  C   UNL A   1      41.296  28.474  32.700  1.00  0.00     0.046 C 
BRANCH   3   4
ATOM      4  C   UNL A   1      40.787  29.907  32.553  1.00  0.00     0.233 C 
BRANCH   4   5
ATOM      5  N   UNL A   1      40.654  30.530  33.855  1.00  0.00    -0.278 N 
ATOM      6  C   UNL A   1      38.515  32.856  36.034  1.00  0.00     0.079 C 
ATOM      7  C   UNL A   1      39.664  31.927  35.620  1.00  0.00     0.142 C 
ATOM      8  C   UNL A   1      37.471  32.913  34.973  1.00  0.00     0.061 A 
ATOM      9  C   UNL A   1      39.592  31.333  34.213  1.00  0.00     0.248 C 
ATOM     10  C   UNL A   1      37.551  32.299  33.760  1.00  0.00     0.147 A 
ATOM     11  S   UNL A   1      36.005  33.756  35.136  1.00  0.00    -0.133 S 
ATOM     12  N   UNL A   1      38.626  31.511  33.362  1.00  0.00    -0.243 N 
ATOM     13  C   UNL A   1      36.425  32.522  32.908  1.00  0.00     0.049 A 
ATOM     14  C   UNL A   1      35.482  33.331  33.541  1.00  0.00     0.062 A 
ATOM     15  H   UNL A   1      41.360  30.370  34.522  1.00  0.00     0.304 HD
ATOM     16  H   UNL A   1      38.654  31.105  32.466  1.00  0.00     0.312 HD
BRANCH   6  17
ATOM     17  C   UNL A   1      39.002  34.230  36.404  1.00  0.00    -0.001 A 
ATOM     18  C   UNL A   1      40.269  36.894  38.476  1.00  0.00     0.173 C 
ATOM     19  N   UNL A   1      39.763  35.998  37.465  1.00  0.00    -0.276 N 
ATOM     20  C   UNL A   1      39.225  34.761  37.661  1.00  0.00     0.112 A 
ATOM     21  N   UNL A   1      39.842  36.346  36.169  1.00  0.00    -0.182 NA
ATOM     22  C   UNL A   1      39.401  35.264  35.525  1.00  0.00     0.139 A 
ENDBRANCH   6  17
BRANCH  13  23
ATOM     23  C   UNL A   1      36.255  31.940  31.579  1.00  0.00    -0.012 A 
ATOM     24  C   UNL A   1      36.046  32.742  30.451  1.00  0.00     0.010 A 
ATOM     25  C   UNL A   1      36.324  30.547  31.426  1.00  0.00     0.010 A 
ATOM     26  C   UNL A   1      35.841  32.156  29.199  1.00  0.00     0.021 A 
ATOM     27  C   UNL A   1      36.134  29.961  30.172  1.00  0.00     0.021 A 
ATOM     28  C   UNL A   1      35.876  30.768  29.068  1.00  0.00     0.041 A 
ATOM     29  Cl  UNL A   1      35.596  30.046  27.532  1.00  0.00    -0.084 Cl
ENDBRANCH  13  23
BRANCH  14  30
ATOM     30  C   UNL A   1      34.189  33.838  33.136  1.00  0.00     0.082 C 
ATOM     31  O   UNL A   1      33.098  33.271  33.200  1.00  0.00    -0.544 OA
ATOM     32  O   UNL A   1      34.233  35.084  32.627  1.00  0.00    -0.544 OA
ENDBRANCH  14  30
ENDBRANCH   4   5
ENDBRANCH   3   4
ENDBRANCH   2   3
ENDBRANCH   1   2
BRANCH   1  33
ATOM     33  C   UNL A   1      41.592  26.360  36.047  1.00  0.00     0.021 C 
BRANCH  33  34
ATOM     34  C   UNL A   1      41.903  24.914  36.395  1.00  0.00     0.116 C 
BRANCH  34  35
ATOM     35  N   UNL A   1      43.115  24.764  37.208  1.00  0.00    -0.352 N 
ATOM     36  C   UNL A   1      44.366  24.321  36.807  1.00  0.00     0.251 C 
ATOM     37  H   UNL A   1      43.030  25.008  38.158  1.00  0.00     0.163 HD
ATOM     38  O   UNL A   1      45.169  23.864  37.610  1.00  0.00    -0.269 OA
BRANCH  36  39
ATOM     39  C   UNL A   1      44.719  24.435  35.382  1.00  0.00     0.039 A 
ATOM     40  C   UNL A   1      44.713  23.348  34.504  1.00  0.00     0.014 A 
ATOM     41  C   UNL A   1      45.022  25.711  34.926  1.00  0.00     0.014 A 
ATOM     42  C   UNL A   1      44.960  23.587  33.153  1.00  0.00     0.010 A 
ATOM     43  C   UNL A   1      44.987  25.974  33.590  1.00  0.00     0.010 A 
ATOM     44  C   UNL A   1      45.084  24.914  32.708  1.00  0.00    -0.014 A 
BRANCH  44  45
ATOM     45  C   UNL A   1      45.192  25.263  31.300  1.00  0.00     0.031 A 
ATOM     46  C   UNL A   1      46.272  26.243  31.047  1.00  0.00     0.074 A 
ATOM     47  C   UNL A   1      44.559  24.570  30.321  1.00  0.00     0.049 A 
ATOM     48  N   UNL A   1      46.138  27.497  30.781  1.00  0.00    -0.248 NA
ATOM     49  C   UNL A   1      47.665  25.846  31.325  1.00  0.00     0.031 C 
ATOM     50  C   UNL A   1      43.755  23.347  30.470  1.00  0.00     0.029 A 
ATOM     51  N   UNL A   1      44.579  24.742  28.965  1.00  0.00    -0.354 N 
ATOM     52  C   UNL A   1      47.430  27.960  30.548  1.00  0.00     0.074 A 
ATOM     53  C   UNL A   1      48.308  27.004  31.159  1.00  0.00     0.031 C 
ATOM     54  C   UNL A   1      43.571  22.762  29.266  1.00  0.00     0.029 A 
ATOM     55  C   UNL A   1      44.071  23.659  28.242  1.00  0.00     0.049 A 
ATOM     56  H   UNL A   1      44.921  25.559  28.535  1.00  0.00     0.167 HD
ATOM     57  C   UNL A   1      47.641  28.845  29.532  1.00  0.00     0.037 A 
ATOM     58  C   UNL A   1      44.057  23.519  26.893  1.00  0.00     0.037 A 
ATOM     59  C   UNL A   1      46.378  29.381  29.082  1.00  0.00     0.049 A 
ATOM     60  C   UNL A   1      44.178  24.875  26.316  1.00  0.00     0.074 A 
ATOM     61  C   UNL A   1      45.459  30.310  29.519  1.00  0.00     0.029 A 
ATOM     62  N   UNL A   1      45.734  28.561  28.195  1.00  0.00    -0.354 N 
ATOM     63  N   UNL A   1      43.255  25.788  26.444  1.00  0.00    -0.248 NA
ATOM     64  C   UNL A   1      45.494  25.360  25.913  1.00  0.00     0.031 C 
ATOM     65  C   UNL A   1      44.212  29.960  28.915  1.00  0.00     0.029 A 
ATOM     66  C   UNL A   1      44.408  28.866  28.078  1.00  0.00     0.049 A 
ATOM     67  H   UNL A   1      46.176  27.835  27.698  1.00  0.00     0.167 HD
ATOM     68  C   UNL A   1      43.964  26.964  26.567  1.00  0.00     0.074 A 
ATOM     69  C   UNL A   1      45.301  26.673  26.063  1.00  0.00     0.031 C 
ATOM     70  C   UNL A   1      43.524  27.953  27.395  1.00  0.00     0.037 A 
BRANCH  57  71
ATOM     71  C   UNL A   1      48.826  28.822  28.576  1.00  0.00     0.064 A 
ATOM     72  C   UNL A   1      49.506  30.035  28.329  1.00  0.00     0.173 A 
ATOM     73  C   UNL A   1      49.114  27.782  27.665  1.00  0.00     0.173 A 
ATOM     74  F   UNL A   1      49.316  31.099  29.125  1.00  0.00    -0.203 F 
ATOM     75  C   UNL A   1      50.323  30.217  27.209  1.00  0.00     0.198 A 
ATOM     76  C   UNL A   1      49.965  27.955  26.573  1.00  0.00     0.198 A 
ATOM     77  F   UNL A   1      48.519  26.588  27.716  1.00  0.00    -0.203 F 
ATOM     78  F   UNL A   1      50.844  31.425  26.954  1.00  0.00    -0.200 F 
ATOM     79  C   UNL A   1      50.544  29.180  26.326  1.00  0.00     0.200 A 
ATOM     80  F   UNL A   1      50.150  26.939  25.717  1.00  0.00    -0.200 F 
ATOM     81  F   UNL A   1      51.272  29.366  25.218  1.00  0.00    -0.200 F 
ENDBRANCH  57  71
BRANCH  58  82
ATOM     82  C   UNL A   1      44.203  22.305  26.054  1.00  0.00     0.064 A 
ATOM     83  C   UNL A   1      45.469  21.849  25.644  1.00  0.00     0.173 A 
ATOM     84  C   UNL A   1      43.138  21.394  25.924  1.00  0.00     0.173 A 
ATOM     85  F   UNL A   1      46.543  22.644  25.766  1.00  0.00    -0.203 F 
ATOM     86  C   UNL A   1      45.666  20.543  25.182  1.00  0.00     0.198 A 
ATOM     87  C   UNL A   1      43.337  20.090  25.463  1.00  0.00     0.198 A 
ATOM     88  F   UNL A   1      41.906  21.721  26.341  1.00  0.00    -0.203 F 
ATOM     89  F   UNL A   1      46.901  20.122  24.871  1.00  0.00    -0.200 F 
ATOM     90  C   UNL A   1      44.604  19.659  25.110  1.00  0.00     0.200 A 
ATOM     91  F   UNL A   1      42.307  19.231  25.434  1.00  0.00    -0.200 F 
ATOM     92  F   UNL A   1      44.804  18.385  24.745  1.00  0.00    -0.200 F 
ENDBRANCH  58  82
BRANCH  70  93
ATOM     93  C   UNL A   1      42.063  28.001  27.703  1.00  0.00     0.064 A 
ATOM     94  C   UNL A   1      41.462  27.440  28.841  1.00  0.00     0.173 A 
ATOM     95  C   UNL A   1      41.246  28.715  26.819  1.00  0.00     0.173 A 
ATOM     96  F   UNL A   1      42.192  26.799  29.762  1.00  0.00    -0.203 F 
ATOM     97  C   UNL A   1      40.089  27.567  29.061  1.00  0.00     0.198 A 
ATOM     98  C   UNL A   1      39.886  28.868  27.057  1.00  0.00     0.198 A 
ATOM     99  F   UNL A   1      41.780  29.297  25.733  1.00  0.00    -0.203 F 
ATOM    100  F   UNL A   1      39.528  27.012  30.144  1.00  0.00    -0.200 F 
ATOM    101  C   UNL A   1      39.305  28.287  28.172  1.00  0.00     0.200 A 
ATOM    102  F   UNL A   1      39.142  29.596  26.213  1.00  0.00    -0.200 F 
ATOM    103  F   UNL A   1      37.992  28.435  28.398  1.00  0.00    -0.200 F 
ENDBRANCH  70  93
ENDBRANCH  44  45
ENDBRANCH  36  39
ENDBRANCH  34  35
ENDBRANCH  33  34
ENDBRANCH   1  33
TORSDOF 15
ENDMDL
MODEL 3
REMARK VINA RESULT:     -12.0      1.529      2.211
REMARK SMILES Cn1cc([C@@H]2CC(NCCCCCCNC(=O)c3ccc(-c4c5nc(c(-c6c(F)c(F)c(F)c(F)c6F)c6ccc([nH]6)c(-c6c(F)c(F)c(F)c(F)c6F)c6nc(c(-c7c(F)c(F)c(F)c(F)c7F)c7ccc4[nH]7)C=C6)C=C5)cc3)=[NH+]c3c2sc(C(=O)[O-])c3-c2ccc(Cl)cc2)cn1
REMARK SMILES IDX 12 1 11 2 10 3 9 4 8 5 5 6 6 7 83 8 7 9 82 10 84 11 81 12
REMARK SMILES IDX 89 13 85 14 4 17 1 18 2 19 3 20 98 21 97 22 90 23 91 24
REMARK SMILES IDX 96 25 92 26 95 27 93 28 94 29 86 30 87 31 88 32 13 33 14 34
REMARK SMILES IDX 15 35 16 36 17 38 18 39 19 40 80 41 20 42 79 43 21 44 22 45
REMARK SMILES IDX 23 46 73 47 24 48 78 49 72 50 74 51 25 52 77 53 71 54 70 55
REMARK SMILES IDX 26 57 58 58 38 59 57 60 39 61 42 62 56 63 75 64 40 65 41 66
REMARK SMILES IDX 55 68 76 69 43 70 27 71 28 72 36 73 29 74 30 75 34 76 37 77
REMARK SMILES IDX 31 78 32 79 35 80 33 81 59 82 60 83 68 84 61 85 62 86 66 87
REMARK SMILES IDX 69 88 63 89 64 90 67 91 65 92 44 93 45 94 53 95 46 96 47 97
REMARK SMILES IDX 51 98 54 99 48 100 49 101 52 102 50 103
REMARK H PARENT 8 15 81 16 15 37 74 56 42 67
REMARK Flexibility Score: inf
ROOT
ATOM      1  C   UNL A   1      35.457  32.339  27.651  1.00  0.00     0.002 C 
ENDROOT
BRANCH   1   2
ATOM      2  C   UNL A   1      34.841  30.968  27.969  1.00  0.00     0.004 C 
BRANCH   2   3
ATOM      3  C   UNL A   1      35.770  29.761  27.803  1.00  0.00     0.046 C 
BRANCH   3   4
ATOM      4  C   UNL A   1      35.104  28.520  27.212  1.00  0.00     0.233 C 
BRANCH   4   5
ATOM      5  N   UNL A   1      33.734  28.813  26.837  1.00  0.00    -0.278 N 
ATOM      6  C   UNL A   1      30.703  27.641  24.795  1.00  0.00     0.079 C 
ATOM      7  C   UNL A   1      31.564  28.509  25.721  1.00  0.00     0.142 C 
ATOM      8  C   UNL A   1      31.407  26.373  24.451  1.00  0.00     0.061 A 
ATOM      9  C   UNL A   1      32.971  27.996  26.031  1.00  0.00     0.248 C 
ATOM     10  C   UNL A   1      32.676  26.054  24.830  1.00  0.00     0.147 A 
ATOM     11  S   UNL A   1      30.709  25.125  23.535  1.00  0.00    -0.133 S 
ATOM     12  N   UNL A   1      33.479  26.874  25.614  1.00  0.00    -0.243 N 
ATOM     13  C   UNL A   1      33.132  24.785  24.356  1.00  0.00     0.049 A 
ATOM     14  C   UNL A   1      32.140  24.153  23.605  1.00  0.00     0.062 A 
ATOM     15  H   UNL A   1      33.326  29.641  27.179  1.00  0.00     0.304 HD
ATOM     16  H   UNL A   1      34.399  26.614  25.845  1.00  0.00     0.312 HD
BRANCH   6  17
ATOM     17  C   UNL A   1      30.270  28.384  23.561  1.00  0.00    -0.001 A 
ATOM     18  C   UNL A   1      28.081  30.141  21.300  1.00  0.00     0.173 C 
ATOM     19  N   UNL A   1      29.130  29.472  22.030  1.00  0.00    -0.276 N 
ATOM     20  C   UNL A   1      28.991  28.705  23.147  1.00  0.00     0.112 A 
ATOM     21  N   UNL A   1      30.408  29.617  21.638  1.00  0.00    -0.182 NA
ATOM     22  C   UNL A   1      31.101  28.976  22.581  1.00  0.00     0.139 A 
ENDBRANCH   6  17
BRANCH  13  23
ATOM     23  C   UNL A   1      34.435  24.199  24.660  1.00  0.00    -0.012 A 
ATOM     24  C   UNL A   1      35.422  24.059  23.675  1.00  0.00     0.010 A 
ATOM     25  C   UNL A   1      34.715  23.788  25.973  1.00  0.00     0.010 A 
ATOM     26  C   UNL A   1      36.643  23.453  23.984  1.00  0.00     0.021 A 
ATOM     27  C   UNL A   1      35.940  23.197  26.285  1.00  0.00     0.021 A 
ATOM     28  C   UNL A   1      36.893  23.017  25.285  1.00  0.00     0.041 A 
ATOM     29  Cl  UNL A   1      38.385  22.247  25.658  1.00  0.00    -0.084 Cl
ENDBRANCH  13  23
BRANCH  14  30
ATOM     30  C   UNL A   1      32.082  22.879  22.925  1.00  0.00     0.082 C 
ATOM     31  O   UNL A   1      31.408  21.891  23.221  1.00  0.00    -0.544 OA
ATOM     32  O   UNL A   1      32.883  22.806  21.845  1.00  0.00    -0.544 OA
ENDBRANCH  14  30
ENDBRANCH   4   5
ENDBRANCH   3   4
ENDBRANCH   2   3
ENDBRANCH   1   2
BRANCH   1  33
ATOM     33  C   UNL A   1      34.708  33.573  28.179  1.00  0.00     0.021 C 
BRANCH  33  34
ATOM     34  C   UNL A   1      35.452  34.339  29.259  1.00  0.00     0.116 C 
BRANCH  34  35
ATOM     35  N   UNL A   1      35.063  33.946  30.618  1.00  0.00    -0.352 N 
ATOM     36  C   UNL A   1      35.456  32.824  31.331  1.00  0.00     0.251 C 
ATOM     37  H   UNL A   1      34.443  34.555  31.081  1.00  0.00     0.163 HD
ATOM     38  O   UNL A   1      34.788  32.394  32.262  1.00  0.00    -0.269 OA
BRANCH  36  39
ATOM     39  C   UNL A   1      36.720  32.170  30.955  1.00  0.00     0.039 A 
ATOM     40  C   UNL A   1      37.873  32.880  30.608  1.00  0.00     0.014 A 
ATOM     41  C   UNL A   1      36.732  30.783  31.007  1.00  0.00     0.014 A 
ATOM     42  C   UNL A   1      39.045  32.163  30.373  1.00  0.00     0.010 A 
ATOM     43  C   UNL A   1      37.921  30.121  31.051  1.00  0.00     0.010 A 
ATOM     44  C   UNL A   1      39.056  30.778  30.612  1.00  0.00    -0.014 A 
BRANCH  44  45
ATOM     45  C   UNL A   1      40.269  29.978  30.539  1.00  0.00     0.031 A 
ATOM     46  C   UNL A   1      40.867  29.746  31.873  1.00  0.00     0.074 A 
ATOM     47  C   UNL A   1      40.644  29.312  29.419  1.00  0.00     0.049 A 
ATOM     48  N   UNL A   1      41.922  30.304  32.361  1.00  0.00    -0.248 NA
ATOM     49  C   UNL A   1      40.100  28.968  32.864  1.00  0.00     0.031 C 
ATOM     50  C   UNL A   1      39.897  29.200  28.155  1.00  0.00     0.029 A 
ATOM     51  N   UNL A   1      41.721  28.501  29.194  1.00  0.00    -0.354 N 
ATOM     52  C   UNL A   1      42.115  29.698  33.599  1.00  0.00     0.074 A 
ATOM     53  C   UNL A   1      40.851  29.122  33.958  1.00  0.00     0.031 C 
ATOM     54  C   UNL A   1      40.407  28.200  27.403  1.00  0.00     0.029 A 
ATOM     55  C   UNL A   1      41.626  27.730  28.032  1.00  0.00     0.049 A 
ATOM     56  H   UNL A   1      42.498  28.464  29.798  1.00  0.00     0.167 HD
ATOM     57  C   UNL A   1      43.383  29.383  33.989  1.00  0.00     0.037 A 
ATOM     58  C   UNL A   1      42.498  26.778  27.617  1.00  0.00     0.037 A 
ATOM     59  C   UNL A   1      44.336  30.052  33.135  1.00  0.00     0.049 A 
ATOM     60  C   UNL A   1      43.786  27.048  28.290  1.00  0.00     0.074 A 
ATOM     61  C   UNL A   1      44.844  31.323  32.985  1.00  0.00     0.029 A 
ATOM     62  N   UNL A   1      44.563  29.384  31.961  1.00  0.00    -0.354 N 
ATOM     63  N   UNL A   1      44.505  28.111  28.053  1.00  0.00    -0.248 NA
ATOM     64  C   UNL A   1      44.111  26.328  29.518  1.00  0.00     0.031 C 
ATOM     65  C   UNL A   1      45.313  31.415  31.638  1.00  0.00     0.029 A 
ATOM     66  C   UNL A   1      45.139  30.184  31.015  1.00  0.00     0.049 A 
ATOM     67  H   UNL A   1      44.337  28.437  31.816  1.00  0.00     0.167 HD
ATOM     68  C   UNL A   1      45.045  28.428  29.280  1.00  0.00     0.074 A 
ATOM     69  C   UNL A   1      44.920  27.223  30.090  1.00  0.00     0.031 C 
ATOM     70  C   UNL A   1      45.210  29.730  29.647  1.00  0.00     0.037 A 
BRANCH  57  71
ATOM     71  C   UNL A   1      43.791  28.103  34.707  1.00  0.00     0.064 A 
ATOM     72  C   UNL A   1      43.474  26.869  34.097  1.00  0.00     0.173 A 
ATOM     73  C   UNL A   1      44.163  28.018  36.066  1.00  0.00     0.173 A 
ATOM     74  F   UNL A   1      43.107  26.818  32.808  1.00  0.00    -0.203 F 
ATOM     75  C   UNL A   1      43.438  25.670  34.815  1.00  0.00     0.198 A 
ATOM     76  C   UNL A   1      44.167  26.812  36.769  1.00  0.00     0.198 A 
ATOM     77  F   UNL A   1      44.439  29.091  36.811  1.00  0.00    -0.203 F 
ATOM     78  F   UNL A   1      43.010  24.548  34.220  1.00  0.00    -0.200 F 
ATOM     79  C   UNL A   1      43.774  25.644  36.154  1.00  0.00     0.200 A 
ATOM     80  F   UNL A   1      44.478  26.814  38.073  1.00  0.00    -0.200 F 
ATOM     81  F   UNL A   1      43.678  24.512  36.863  1.00  0.00    -0.200 F 
ENDBRANCH  57  71
BRANCH  58  82
ATOM     82  C   UNL A   1      42.255  25.508  26.889  1.00  0.00     0.064 A 
ATOM     83  C   UNL A   1      42.985  25.178  25.734  1.00  0.00     0.173 A 
ATOM     84  C   UNL A   1      41.545  24.458  27.502  1.00  0.00     0.173 A 
ATOM     85  F   UNL A   1      43.715  26.114  25.109  1.00  0.00    -0.203 F 
ATOM     86  C   UNL A   1      43.044  23.866  25.251  1.00  0.00     0.198 A 
ATOM     87  C   UNL A   1      41.606  23.149  27.019  1.00  0.00     0.198 A 
ATOM     88  F   UNL A   1      40.867  24.667  28.640  1.00  0.00    -0.203 F 
ATOM     89  F   UNL A   1      43.812  23.577  24.189  1.00  0.00    -0.200 F 
ATOM     90  C   UNL A   1      42.371  22.850  25.905  1.00  0.00     0.200 A 
ATOM     91  F   UNL A   1      40.981  22.166  27.683  1.00  0.00    -0.200 F 
ATOM     92  F   UNL A   1      42.491  21.580  25.493  1.00  0.00    -0.200 F 
ENDBRANCH  58  82
BRANCH  70  93
ATOM     93  C   UNL A   1      45.340  30.747  28.560  1.00  0.00     0.064 A 
ATOM     94  C   UNL A   1      44.293  31.547  28.077  1.00  0.00     0.173 A 
ATOM     95  C   UNL A   1      46.619  30.956  28.030  1.00  0.00     0.173 A 
ATOM     96  F   UNL A   1      43.058  31.446  28.582  1.00  0.00    -0.203 F 
ATOM     97  C   UNL A   1      44.520  32.497  27.079  1.00  0.00     0.198 A 
ATOM     98  C   UNL A   1      46.849  31.925  27.061  1.00  0.00     0.198 A 
ATOM     99  F   UNL A   1      47.659  30.238  28.482  1.00  0.00    -0.203 F 
ATOM    100  F   UNL A   1      43.507  33.242  26.617  1.00  0.00    -0.200 F 
ATOM    101  C   UNL A   1      45.799  32.688  26.578  1.00  0.00     0.200 A 
ATOM    102  F   UNL A   1      48.094  32.129  26.609  1.00  0.00    -0.200 F 
ATOM    103  F   UNL A   1      46.024  33.621  25.642  1.00  0.00    -0.200 F 
ENDBRANCH  70  93
ENDBRANCH  44  45
ENDBRANCH  36  39
ENDBRANCH  34  35
ENDBRANCH  33  34
ENDBRANCH   1  33
TORSDOF 15
ENDMDL
