MODEL 1
REMARK VINA RESULT:     -12.8      0.000      0.000
REMARK SMILES CCCc1cc2c(cc1Cl)C=C(C(=O)NCCCCCCNC(=O)c1ccc(-c3c4nc(c(-c5c(F)c(F)c(F)c(F)c5F)c5ccc([nH]5)c(-c5c(F)c(F)c(F)c(F)c5F)c5nc(c(-c6c(F)c(F)c(F)c(F)c6F)c6ccc3[nH]6)C=C5)C=C4)cc1)[C@@H](C(F)(F)F)O2
REMARK SMILES IDX 18 1 17 2 16 3 15 4 13 5 14 6 12 8 4 9 5 10 9 11 6 12 8 13
REMARK SMILES IDX 10 14 7 15 93 16 11 17 88 18 3 19 2 20 1 21 89 22 90 23
REMARK SMILES IDX 91 24 92 25 19 26 20 27 21 28 22 29 23 30 24 32 25 33 26 34
REMARK SMILES IDX 87 35 27 36 86 37 28 38 29 39 30 40 80 41 31 42 85 43 79 44
REMARK SMILES IDX 81 45 32 46 84 47 78 48 77 49 33 51 65 52 45 53 64 54 46 55
REMARK SMILES IDX 49 56 63 57 82 58 47 59 48 60 62 62 83 63 50 64 34 65 35 66
REMARK SMILES IDX 43 67 36 68 37 69 41 70 44 71 38 72 39 73 42 74 40 75 66 76
REMARK SMILES IDX 67 77 75 78 68 79 69 80 73 81 76 82 70 83 71 84 74 85 72 86
REMARK SMILES IDX 51 87 52 88 60 89 53 90 54 91 58 92 61 93 55 94 56 95 59 96
REMARK SMILES IDX 57 97
REMARK H PARENT 15 7 22 31 81 50 49 61
REMARK Flexibility Score: inf
ROOT
ATOM      1  C   UNL A   1      32.381  29.643  27.212  1.00  0.00     0.002 C 
ENDROOT
BRANCH   1   2
ATOM      2  C   UNL A   1      33.789  29.107  26.935  1.00  0.00     0.021 C 
BRANCH   2   3
ATOM      3  C   UNL A   1      33.847  27.703  26.344  1.00  0.00     0.116 C 
BRANCH   3   4
ATOM      4  N   UNL A   1      33.901  27.704  24.896  1.00  0.00    -0.352 N 
ATOM      5  C   UNL A   1      33.642  26.809  23.914  1.00  0.00     0.251 C 
ATOM      6  O   UNL A   1      33.769  27.232  22.760  1.00  0.00    -0.270 OA
ATOM      7  H   UNL A   1      34.200  28.572  24.538  1.00  0.00     0.163 HD
BRANCH   5   8
ATOM      8  C   UNL A   1      33.248  25.384  24.135  1.00  0.00     0.067 C 
ATOM      9  C   UNL A   1      33.530  20.380  24.902  1.00  0.00    -0.026 A 
ATOM     10  C   UNL A   1      32.480  21.311  24.809  1.00  0.00     0.052 A 
ATOM     11  C   UNL A   1      34.841  20.846  24.725  1.00  0.00     0.045 A 
ATOM     12  C   UNL A   1      32.732  22.663  24.565  1.00  0.00     0.128 A 
ATOM     13  C   UNL A   1      35.088  22.198  24.446  1.00  0.00     0.032 A 
ATOM     14  Cl  UNL A   1      36.219  19.816  24.886  1.00  0.00    -0.084 Cl
ATOM     15  C   UNL A   1      34.033  23.111  24.376  1.00  0.00     0.019 A 
ATOM     16  O   UNL A   1      31.644  23.478  24.548  1.00  0.00    -0.475 OA
ATOM     17  C   UNL A   1      34.283  24.525  24.148  1.00  0.00     0.025 C 
ATOM     18  C   UNL A   1      31.829  24.900  24.297  1.00  0.00     0.314 C 
BRANCH   9  19
ATOM     19  C   UNL A   1      33.182  18.939  25.204  1.00  0.00     0.037 C 
BRANCH  19  20
ATOM     20  C   UNL A   1      32.764  18.118  23.979  1.00  0.00     0.001 C 
ATOM     21  C   UNL A   1      33.881  17.259  23.406  1.00  0.00     0.004 C 
ENDBRANCH  19  20
ENDBRANCH   9  19
BRANCH  18  22
ATOM     22  C   UNL A   1      30.902  25.270  23.127  1.00  0.00     0.429 C 
ATOM     23  F   UNL A   1      31.587  25.210  21.954  1.00  0.00    -0.167 F 
ATOM     24  F   UNL A   1      29.851  24.434  22.989  1.00  0.00    -0.167 F 
ATOM     25  F   UNL A   1      30.404  26.521  23.241  1.00  0.00    -0.167 F 
ENDBRANCH  18  22
ENDBRANCH   5   8
ENDBRANCH   3   4
ENDBRANCH   2   3
ENDBRANCH   1   2
BRANCH   1  26
ATOM     26  C   UNL A   1      31.827  30.645  26.192  1.00  0.00     0.002 C 
BRANCH  26  27
ATOM     27  C   UNL A   1      31.515  32.045  26.724  1.00  0.00     0.021 C 
BRANCH  27  28
ATOM     28  C   UNL A   1      32.692  32.788  27.343  1.00  0.00     0.116 C 
BRANCH  28  29
ATOM     29  N   UNL A   1      32.386  34.173  27.655  1.00  0.00    -0.352 N 
ATOM     30  C   UNL A   1      32.966  34.999  28.592  1.00  0.00     0.251 C 
ATOM     31  H   UNL A   1      31.664  34.578  27.124  1.00  0.00     0.163 HD
ATOM     32  O   UNL A   1      32.499  36.107  28.818  1.00  0.00    -0.269 OA
BRANCH  30  33
ATOM     33  C   UNL A   1      34.139  34.521  29.355  1.00  0.00     0.039 A 
ATOM     34  C   UNL A   1      35.413  34.519  28.782  1.00  0.00     0.014 A 
ATOM     35  C   UNL A   1      33.949  34.042  30.653  1.00  0.00     0.014 A 
ATOM     36  C   UNL A   1      36.465  33.897  29.446  1.00  0.00     0.010 A 
ATOM     37  C   UNL A   1      35.024  33.483  31.349  1.00  0.00     0.010 A 
ATOM     38  C   UNL A   1      36.280  33.366  30.732  1.00  0.00    -0.014 A 
BRANCH  38  39
ATOM     39  C   UNL A   1      37.404  32.679  31.419  1.00  0.00     0.031 A 
ATOM     40  C   UNL A   1      38.145  31.561  30.739  1.00  0.00     0.074 A 
ATOM     41  C   UNL A   1      37.777  33.086  32.647  1.00  0.00     0.049 A 
ATOM     42  N   UNL A   1      39.115  30.812  31.199  1.00  0.00    -0.248 NA
ATOM     43  C   UNL A   1      37.744  31.240  29.360  1.00  0.00     0.031 C 
ATOM     44  C   UNL A   1      37.150  34.174  33.398  1.00  0.00     0.029 A 
ATOM     45  N   UNL A   1      38.779  32.644  33.471  1.00  0.00    -0.354 N 
ATOM     46  C   UNL A   1      39.423  29.919  30.181  1.00  0.00     0.074 A 
ATOM     47  C   UNL A   1      38.524  30.205  29.083  1.00  0.00     0.031 C 
ATOM     48  C   UNL A   1      37.806  34.341  34.556  1.00  0.00     0.029 A 
ATOM     49  C   UNL A   1      38.854  33.331  34.657  1.00  0.00     0.049 A 
ATOM     50  H   UNL A   1      39.385  31.905  33.236  1.00  0.00     0.167 HD
ATOM     51  C   UNL A   1      40.377  28.957  30.161  1.00  0.00     0.037 A 
ATOM     52  C   UNL A   1      39.663  33.153  35.718  1.00  0.00     0.037 A 
ATOM     53  C   UNL A   1      41.284  28.690  31.248  1.00  0.00     0.049 A 
ATOM     54  C   UNL A   1      40.680  32.049  35.689  1.00  0.00     0.074 A 
ATOM     55  C   UNL A   1      42.294  27.745  31.318  1.00  0.00     0.029 A 
ATOM     56  N   UNL A   1      41.295  29.375  32.454  1.00  0.00    -0.354 N 
ATOM     57  N   UNL A   1      40.950  31.200  34.728  1.00  0.00    -0.248 NA
ATOM     58  C   UNL A   1      41.497  31.872  36.896  1.00  0.00     0.031 C 
ATOM     59  C   UNL A   1      42.889  27.831  32.580  1.00  0.00     0.029 A 
ATOM     60  C   UNL A   1      42.282  28.861  33.282  1.00  0.00     0.049 A 
ATOM     61  H   UNL A   1      40.691  30.116  32.688  1.00  0.00     0.167 HD
ATOM     62  C   UNL A   1      41.968  30.390  35.210  1.00  0.00     0.074 A 
ATOM     63  C   UNL A   1      42.287  30.868  36.540  1.00  0.00     0.031 C 
ATOM     64  C   UNL A   1      42.577  29.340  34.608  1.00  0.00     0.037 A 
BRANCH  51  65
ATOM     65  C   UNL A   1      40.485  28.105  28.930  1.00  0.00     0.064 A 
ATOM     66  C   UNL A   1      39.780  26.898  28.807  1.00  0.00     0.173 A 
ATOM     67  C   UNL A   1      41.256  28.529  27.837  1.00  0.00     0.173 A 
ATOM     68  F   UNL A   1      39.040  26.441  29.827  1.00  0.00    -0.203 F 
ATOM     69  C   UNL A   1      39.857  26.141  27.640  1.00  0.00     0.198 A 
ATOM     70  C   UNL A   1      41.310  27.782  26.664  1.00  0.00     0.198 A 
ATOM     71  F   UNL A   1      41.945  29.679  27.903  1.00  0.00    -0.203 F 
ATOM     72  F   UNL A   1      39.203  24.973  27.557  1.00  0.00    -0.200 F 
ATOM     73  C   UNL A   1      40.614  26.587  26.567  1.00  0.00     0.200 A 
ATOM     74  F   UNL A   1      42.033  28.222  25.624  1.00  0.00    -0.200 F 
ATOM     75  F   UNL A   1      40.676  25.863  25.441  1.00  0.00    -0.200 F 
ENDBRANCH  51  65
BRANCH  52  76
ATOM     76  C   UNL A   1      39.529  34.046  36.896  1.00  0.00     0.064 A 
ATOM     77  C   UNL A   1      38.757  33.666  38.002  1.00  0.00     0.173 A 
ATOM     78  C   UNL A   1      40.197  35.278  36.957  1.00  0.00     0.173 A 
ATOM     79  F   UNL A   1      38.083  32.507  37.981  1.00  0.00    -0.203 F 
ATOM     80  C   UNL A   1      38.655  34.487  39.123  1.00  0.00     0.198 A 
ATOM     81  C   UNL A   1      40.118  36.085  38.089  1.00  0.00     0.198 A 
ATOM     82  F   UNL A   1      40.951  35.684  35.924  1.00  0.00    -0.203 F 
ATOM     83  F   UNL A   1      37.888  34.114  40.156  1.00  0.00    -0.200 F 
ATOM     84  C   UNL A   1      39.344  35.691  39.170  1.00  0.00     0.200 A 
ATOM     85  F   UNL A   1      40.796  37.239  38.136  1.00  0.00    -0.200 F 
ATOM     86  F   UNL A   1      39.259  36.471  40.256  1.00  0.00    -0.200 F 
ENDBRANCH  52  76
BRANCH  64  87
ATOM     87  C   UNL A   1      43.653  28.639  35.382  1.00  0.00     0.064 A 
ATOM     88  C   UNL A   1      43.349  27.617  36.295  1.00  0.00     0.173 A 
ATOM     89  C   UNL A   1      45.003  28.968  35.189  1.00  0.00     0.173 A 
ATOM     90  F   UNL A   1      42.071  27.278  36.526  1.00  0.00    -0.203 F 
ATOM     91  C   UNL A   1      44.355  26.966  37.002  1.00  0.00     0.198 A 
ATOM     92  C   UNL A   1      46.009  28.297  35.877  1.00  0.00     0.198 A 
ATOM     93  F   UNL A   1      45.346  29.934  34.324  1.00  0.00    -0.203 F 
ATOM     94  F   UNL A   1      44.039  26.025  37.902  1.00  0.00    -0.200 F 
ATOM     95  C   UNL A   1      45.685  27.301  36.788  1.00  0.00     0.200 A 
ATOM     96  F   UNL A   1      47.293  28.613  35.661  1.00  0.00    -0.200 F 
ATOM     97  F   UNL A   1      46.653  26.671  37.467  1.00  0.00    -0.200 F 
ENDBRANCH  64  87
ENDBRANCH  38  39
ENDBRANCH  30  33
ENDBRANCH  28  29
ENDBRANCH  27  28
ENDBRANCH  26  27
ENDBRANCH   1  26
TORSDOF 16
ENDMDL
MODEL 2
REMARK VINA RESULT:     -12.8      0.260      1.630
REMARK SMILES CCCc1cc2c(cc1Cl)C=C(C(=O)NCCCCCCNC(=O)c1ccc(-c3c4nc(c(-c5c(F)c(F)c(F)c(F)c5F)c5ccc([nH]5)c(-c5c(F)c(F)c(F)c(F)c5F)c5nc(c(-c6c(F)c(F)c(F)c(F)c6F)c6ccc3[nH]6)C=C5)C=C4)cc1)[C@@H](C(F)(F)F)O2
REMARK SMILES IDX 18 1 17 2 16 3 15 4 13 5 14 6 12 8 4 9 5 10 9 11 6 12 8 13
REMARK SMILES IDX 10 14 7 15 93 16 11 17 88 18 3 19 2 20 1 21 89 22 90 23
REMARK SMILES IDX 91 24 92 25 19 26 20 27 21 28 22 29 23 30 24 32 25 33 26 34
REMARK SMILES IDX 87 35 27 36 86 37 28 38 29 39 30 40 80 41 31 42 85 43 79 44
REMARK SMILES IDX 81 45 32 46 84 47 78 48 77 49 33 51 65 52 45 53 64 54 46 55
REMARK SMILES IDX 49 56 63 57 82 58 47 59 48 60 62 62 83 63 50 64 34 65 35 66
REMARK SMILES IDX 43 67 36 68 37 69 41 70 44 71 38 72 39 73 42 74 40 75 66 76
REMARK SMILES IDX 67 77 75 78 68 79 69 80 73 81 76 82 70 83 71 84 74 85 72 86
REMARK SMILES IDX 51 87 52 88 60 89 53 90 54 91 58 92 61 93 55 94 56 95 59 96
REMARK SMILES IDX 57 97
REMARK H PARENT 15 7 22 31 81 50 49 61
REMARK Flexibility Score: inf
ROOT
ATOM      1  C   UNL A   1      31.830  29.535  27.272  1.00  0.00     0.002 C 
ENDROOT
BRANCH   1   2
ATOM      2  C   UNL A   1      31.990  28.094  26.778  1.00  0.00     0.021 C 
BRANCH   2   3
ATOM      3  C   UNL A   1      33.417  27.671  26.450  1.00  0.00     0.116 C 
BRANCH   3   4
ATOM      4  N   UNL A   1      33.687  27.663  25.026  1.00  0.00    -0.352 N 
ATOM      5  C   UNL A   1      33.617  26.748  24.030  1.00  0.00     0.251 C 
ATOM      6  O   UNL A   1      33.896  27.167  22.902  1.00  0.00    -0.270 OA
ATOM      7  H   UNL A   1      33.997  28.540  24.703  1.00  0.00     0.163 HD
BRANCH   5   8
ATOM      8  C   UNL A   1      33.259  25.308  24.212  1.00  0.00     0.067 C 
ATOM      9  C   UNL A   1      33.664  20.300  24.887  1.00  0.00    -0.026 A 
ATOM     10  C   UNL A   1      32.590  21.202  24.784  1.00  0.00     0.052 A 
ATOM     11  C   UNL A   1      34.966  20.806  24.756  1.00  0.00     0.045 A 
ATOM     12  C   UNL A   1      32.810  22.565  24.574  1.00  0.00     0.128 A 
ATOM     13  C   UNL A   1      35.180  22.169  24.510  1.00  0.00     0.032 A 
ATOM     14  Cl  UNL A   1      36.368  19.812  24.934  1.00  0.00    -0.084 Cl
ATOM     15  C   UNL A   1      34.102  23.054  24.429  1.00  0.00     0.019 A 
ATOM     16  O   UNL A   1      31.700  23.349  24.544  1.00  0.00    -0.475 OA
ATOM     17  C   UNL A   1      34.317  24.479  24.237  1.00  0.00     0.025 C 
ATOM     18  C   UNL A   1      31.851  24.781  24.326  1.00  0.00     0.314 C 
BRANCH   9  19
ATOM     19  C   UNL A   1      33.350  18.844  25.152  1.00  0.00     0.037 C 
BRANCH  19  20
ATOM     20  C   UNL A   1      32.519  18.166  24.056  1.00  0.00     0.001 C 
ATOM     21  C   UNL A   1      33.349  17.375  23.057  1.00  0.00     0.004 C 
ENDBRANCH  19  20
ENDBRANCH   9  19
BRANCH  18  22
ATOM     22  C   UNL A   1      30.945  25.148  23.138  1.00  0.00     0.429 C 
ATOM     23  F   UNL A   1      29.943  24.238  23.019  1.00  0.00    -0.167 F 
ATOM     24  F   UNL A   1      30.344  26.350  23.272  1.00  0.00    -0.167 F 
ATOM     25  F   UNL A   1      31.617  25.167  21.966  1.00  0.00    -0.167 F 
ENDBRANCH  18  22
ENDBRANCH   5   8
ENDBRANCH   3   4
ENDBRANCH   2   3
ENDBRANCH   1   2
BRANCH   1  26
ATOM     26  C   UNL A   1      31.792  30.620  26.190  1.00  0.00     0.002 C 
BRANCH  26  27
ATOM     27  C   UNL A   1      31.497  32.042  26.671  1.00  0.00     0.021 C 
BRANCH  27  28
ATOM     28  C   UNL A   1      32.668  32.769  27.319  1.00  0.00     0.116 C 
BRANCH  28  29
ATOM     29  N   UNL A   1      32.367  34.153  27.641  1.00  0.00    -0.352 N 
ATOM     30  C   UNL A   1      32.952  34.973  28.579  1.00  0.00     0.251 C 
ATOM     31  H   UNL A   1      31.645  34.563  27.113  1.00  0.00     0.163 HD
ATOM     32  O   UNL A   1      32.488  36.080  28.813  1.00  0.00    -0.269 OA
BRANCH  30  33
ATOM     33  C   UNL A   1      34.126  34.487  29.337  1.00  0.00     0.039 A 
ATOM     34  C   UNL A   1      35.413  34.588  28.803  1.00  0.00     0.014 A 
ATOM     35  C   UNL A   1      33.926  33.896  30.586  1.00  0.00     0.014 A 
ATOM     36  C   UNL A   1      36.476  33.962  29.446  1.00  0.00     0.010 A 
ATOM     37  C   UNL A   1      35.007  33.332  31.266  1.00  0.00     0.010 A 
ATOM     38  C   UNL A   1      36.283  33.321  30.680  1.00  0.00    -0.014 A 
BRANCH  38  39
ATOM     39  C   UNL A   1      37.419  32.632  31.343  1.00  0.00     0.031 A 
ATOM     40  C   UNL A   1      38.156  31.524  30.639  1.00  0.00     0.074 A 
ATOM     41  C   UNL A   1      37.809  33.028  32.569  1.00  0.00     0.049 A 
ATOM     42  N   UNL A   1      39.135  30.774  31.077  1.00  0.00    -0.248 NA
ATOM     43  C   UNL A   1      37.735  31.216  29.264  1.00  0.00     0.031 C 
ATOM     44  C   UNL A   1      37.190  34.105  33.341  1.00  0.00     0.029 A 
ATOM     45  N   UNL A   1      38.825  32.581  33.373  1.00  0.00    -0.354 N 
ATOM     46  C   UNL A   1      39.432  29.894  30.044  1.00  0.00     0.074 A 
ATOM     47  C   UNL A   1      38.515  30.187  28.963  1.00  0.00     0.031 C 
ATOM     48  C   UNL A   1      37.862  34.262  34.491  1.00  0.00     0.029 A 
ATOM     49  C   UNL A   1      38.916  33.255  34.566  1.00  0.00     0.049 A 
ATOM     50  H   UNL A   1      39.431  31.847  33.121  1.00  0.00     0.167 HD
ATOM     51  C   UNL A   1      40.389  28.936  30.001  1.00  0.00     0.037 A 
ATOM     52  C   UNL A   1      39.741  33.070  35.612  1.00  0.00     0.037 A 
ATOM     53  C   UNL A   1      41.314  28.662  31.071  1.00  0.00     0.049 A 
ATOM     54  C   UNL A   1      40.761  31.971  35.556  1.00  0.00     0.074 A 
ATOM     55  C   UNL A   1      42.328  27.720  31.115  1.00  0.00     0.029 A 
ATOM     56  N   UNL A   1      41.340  29.334  32.284  1.00  0.00    -0.354 N 
ATOM     57  N   UNL A   1      41.021  31.133  34.582  1.00  0.00    -0.248 NA
ATOM     58  C   UNL A   1      41.597  31.784  36.749  1.00  0.00     0.031 C 
ATOM     59  C   UNL A   1      42.942  27.796  32.370  1.00  0.00     0.029 A 
ATOM     60  C   UNL A   1      42.341  28.815  33.091  1.00  0.00     0.049 A 
ATOM     61  H   UNL A   1      40.736  30.070  32.535  1.00  0.00     0.167 HD
ATOM     62  C   UNL A   1      42.049  30.322  35.040  1.00  0.00     0.074 A 
ATOM     63  C   UNL A   1      42.386  30.788  36.370  1.00  0.00     0.031 C 
ATOM     64  C   UNL A   1      42.654  29.281  34.418  1.00  0.00     0.037 A 
BRANCH  51  65
ATOM     65  C   UNL A   1      40.482  28.098  28.759  1.00  0.00     0.064 A 
ATOM     66  C   UNL A   1      41.276  28.484  27.669  1.00  0.00     0.173 A 
ATOM     67  C   UNL A   1      39.817  26.865  28.682  1.00  0.00     0.173 A 
ATOM     68  F   UNL A   1      41.922  29.659  27.686  1.00  0.00    -0.203 F 
ATOM     69  C   UNL A   1      41.387  27.673  26.541  1.00  0.00     0.198 A 
ATOM     70  C   UNL A   1      39.950  26.046  27.564  1.00  0.00     0.198 A 
ATOM     71  F   UNL A   1      39.049  26.447  29.700  1.00  0.00    -0.203 F 
ATOM     72  F   UNL A   1      42.123  28.078  25.497  1.00  0.00    -0.200 F 
ATOM     73  C   UNL A   1      40.732  26.452  26.494  1.00  0.00     0.200 A 
ATOM     74  F   UNL A   1      39.326  24.860  27.525  1.00  0.00    -0.200 F 
ATOM     75  F   UNL A   1      40.849  25.668  25.413  1.00  0.00    -0.200 F 
ENDBRANCH  51  65
BRANCH  52  76
ATOM     76  C   UNL A   1      39.621  33.949  36.802  1.00  0.00     0.064 A 
ATOM     77  C   UNL A   1      38.863  33.556  37.913  1.00  0.00     0.173 A 
ATOM     78  C   UNL A   1      40.287  35.182  36.867  1.00  0.00     0.173 A 
ATOM     79  F   UNL A   1      38.191  32.396  37.888  1.00  0.00    -0.203 F 
ATOM     80  C   UNL A   1      38.775  34.364  39.045  1.00  0.00     0.198 A 
ATOM     81  C   UNL A   1      40.221  35.977  38.009  1.00  0.00     0.198 A 
ATOM     82  F   UNL A   1      41.026  35.601  35.829  1.00  0.00    -0.203 F 
ATOM     83  F   UNL A   1      38.023  33.978  40.083  1.00  0.00    -0.200 F 
ATOM     84  C   UNL A   1      39.462  35.569  39.095  1.00  0.00     0.200 A 
ATOM     85  F   UNL A   1      40.898  37.131  38.059  1.00  0.00    -0.200 F 
ATOM     86  F   UNL A   1      39.391  36.337  40.191  1.00  0.00    -0.200 F 
ENDBRANCH  52  76
BRANCH  64  87
ATOM     87  C   UNL A   1      43.744  28.576  35.169  1.00  0.00     0.064 A 
ATOM     88  C   UNL A   1      45.085  28.975  35.056  1.00  0.00     0.173 A 
ATOM     89  C   UNL A   1      43.445  27.514  36.034  1.00  0.00     0.173 A 
ATOM     90  F   UNL A   1      45.423  29.977  34.230  1.00  0.00    -0.203 F 
ATOM     91  C   UNL A   1      46.088  28.321  35.765  1.00  0.00     0.198 A 
ATOM     92  C   UNL A   1      44.446  26.879  36.762  1.00  0.00     0.198 A 
ATOM     93  F   UNL A   1      42.177  27.098  36.180  1.00  0.00    -0.203 F 
ATOM     94  F   UNL A   1      47.366  28.689  35.607  1.00  0.00    -0.200 F 
ATOM     95  C   UNL A   1      45.768  27.278  36.622  1.00  0.00     0.200 A 
ATOM     96  F   UNL A   1      44.134  25.880  37.599  1.00  0.00    -0.200 F 
ATOM     97  F   UNL A   1      46.733  26.651  37.307  1.00  0.00    -0.200 F 
ENDBRANCH  64  87
ENDBRANCH  38  39
ENDBRANCH  30  33
ENDBRANCH  28  29
ENDBRANCH  27  28
ENDBRANCH  26  27
ENDBRANCH   1  26
TORSDOF 16
ENDMDL
MODEL 3
REMARK VINA RESULT:     -12.8      0.593      7.349
REMARK SMILES CCCc1cc2c(cc1Cl)C=C(C(=O)NCCCCCCNC(=O)c1ccc(-c3c4nc(c(-c5c(F)c(F)c(F)c(F)c5F)c5ccc([nH]5)c(-c5c(F)c(F)c(F)c(F)c5F)c5nc(c(-c6c(F)c(F)c(F)c(F)c6F)c6ccc3[nH]6)C=C5)C=C4)cc1)[C@@H](C(F)(F)F)O2
REMARK SMILES IDX 18 1 17 2 16 3 15 4 13 5 14 6 12 8 4 9 5 10 9 11 6 12 8 13
REMARK SMILES IDX 10 14 7 15 93 16 11 17 88 18 3 19 2 20 1 21 89 22 90 23
REMARK SMILES IDX 91 24 92 25 19 26 20 27 21 28 22 29 23 30 24 32 25 33 26 34
REMARK SMILES IDX 87 35 27 36 86 37 28 38 29 39 30 40 80 41 31 42 85 43 79 44
REMARK SMILES IDX 81 45 32 46 84 47 78 48 77 49 33 51 65 52 45 53 64 54 46 55
REMARK SMILES IDX 49 56 63 57 82 58 47 59 48 60 62 62 83 63 50 64 34 65 35 66
REMARK SMILES IDX 43 67 36 68 37 69 41 70 44 71 38 72 39 73 42 74 40 75 66 76
REMARK SMILES IDX 67 77 75 78 68 79 69 80 73 81 76 82 70 83 71 84 74 85 72 86
REMARK SMILES IDX 51 87 52 88 60 89 53 90 54 91 58 92 61 93 55 94 56 95 59 96
REMARK SMILES IDX 57 97
REMARK H PARENT 15 7 22 31 81 50 49 61
REMARK Flexibility Score: inf
ROOT
ATOM      1  C   UNL A   1      31.804  29.666  27.235  1.00  0.00     0.002 C 
ENDROOT
BRANCH   1   2
ATOM      2  C   UNL A   1      31.959  28.219  26.758  1.00  0.00     0.021 C 
BRANCH   2   3
ATOM      3  C   UNL A   1      33.387  27.780  26.459  1.00  0.00     0.116 C 
BRANCH   3   4
ATOM      4  N   UNL A   1      33.682  27.757  25.040  1.00  0.00    -0.352 N 
ATOM      5  C   UNL A   1      33.611  26.837  24.048  1.00  0.00     0.251 C 
ATOM      6  O   UNL A   1      33.917  27.243  22.923  1.00  0.00    -0.270 OA
ATOM      7  H   UNL A   1      34.015  28.625  24.717  1.00  0.00     0.163 HD
BRANCH   5   8
ATOM      8  C   UNL A   1      33.219  25.407  24.233  1.00  0.00     0.067 C 
ATOM      9  C   UNL A   1      33.509  20.386  24.880  1.00  0.00    -0.026 A 
ATOM     10  C   UNL A   1      32.457  21.316  24.804  1.00  0.00     0.052 A 
ATOM     11  C   UNL A   1      34.821  20.860  24.722  1.00  0.00     0.045 A 
ATOM     12  C   UNL A   1      32.708  22.674  24.594  1.00  0.00     0.128 A 
ATOM     13  C   UNL A   1      35.065  22.218  24.477  1.00  0.00     0.032 A 
ATOM     14  Cl  UNL A   1      36.200  19.829  24.866  1.00  0.00    -0.084 Cl
ATOM     15  C   UNL A   1      34.008  23.130  24.423  1.00  0.00     0.019 A 
ATOM     16  O   UNL A   1      31.618  23.486  24.591  1.00  0.00    -0.475 OA
ATOM     17  C   UNL A   1      34.256  24.550  24.231  1.00  0.00     0.025 C 
ATOM     18  C   UNL A   1      31.801  24.915  24.375  1.00  0.00     0.314 C 
BRANCH   9  19
ATOM     19  C   UNL A   1      33.164  18.938  25.146  1.00  0.00     0.037 C 
BRANCH  19  20
ATOM     20  C   UNL A   1      32.752  18.146  23.900  1.00  0.00     0.001 C 
ATOM     21  C   UNL A   1      33.843  17.230  23.367  1.00  0.00     0.004 C 
ENDBRANCH  19  20
ENDBRANCH   9  19
BRANCH  18  22
ATOM     22  C   UNL A   1      30.879  25.311  23.210  1.00  0.00     0.429 C 
ATOM     23  F   UNL A   1      30.398  26.567  23.403  1.00  0.00    -0.167 F 
ATOM     24  F   UNL A   1      31.504  25.329  22.013  1.00  0.00    -0.167 F 
ATOM     25  F   UNL A   1      29.816  24.485  23.091  1.00  0.00    -0.167 F 
ENDBRANCH  18  22
ENDBRANCH   5   8
ENDBRANCH   3   4
ENDBRANCH   2   3
ENDBRANCH   1   2
BRANCH   1  26
ATOM     26  C   UNL A   1      31.666  30.728  26.137  1.00  0.00     0.002 C 
BRANCH  26  27
ATOM     27  C   UNL A   1      31.422  32.162  26.613  1.00  0.00     0.021 C 
BRANCH  27  28
ATOM     28  C   UNL A   1      32.623  32.854  27.244  1.00  0.00     0.116 C 
BRANCH  28  29
ATOM     29  N   UNL A   1      32.345  34.224  27.638  1.00  0.00    -0.352 N 
ATOM     30  C   UNL A   1      32.964  34.995  28.595  1.00  0.00     0.251 C 
ATOM     31  H   UNL A   1      31.610  34.663  27.152  1.00  0.00     0.163 HD
ATOM     32  O   UNL A   1      32.518  36.093  28.893  1.00  0.00    -0.269 OA
BRANCH  30  33
ATOM     33  C   UNL A   1      34.157  34.466  29.293  1.00  0.00     0.039 A 
ATOM     34  C   UNL A   1      35.422  34.543  28.706  1.00  0.00     0.014 A 
ATOM     35  C   UNL A   1      33.994  33.859  30.540  1.00  0.00     0.014 A 
ATOM     36  C   UNL A   1      36.495  33.879  29.292  1.00  0.00     0.010 A 
ATOM     37  C   UNL A   1      35.088  33.255  31.164  1.00  0.00     0.010 A 
ATOM     38  C   UNL A   1      36.337  33.221  30.523  1.00  0.00    -0.014 A 
BRANCH  38  39
ATOM     39  C   UNL A   1      37.482  32.491  31.124  1.00  0.00     0.031 A 
ATOM     40  C   UNL A   1      37.964  32.834  32.508  1.00  0.00     0.074 A 
ATOM     41  C   UNL A   1      38.068  31.495  30.434  1.00  0.00     0.049 A 
ATOM     42  N   UNL A   1      38.977  32.342  33.176  1.00  0.00    -0.248 NA
ATOM     43  C   UNL A   1      37.211  33.865  33.237  1.00  0.00     0.031 C 
ATOM     44  C   UNL A   1      37.674  31.055  29.095  1.00  0.00     0.029 A 
ATOM     45  N   UNL A   1      39.107  30.665  30.767  1.00  0.00    -0.354 N 
ATOM     46  C   UNL A   1      38.997  33.018  34.389  1.00  0.00     0.074 A 
ATOM     47  C   UNL A   1      37.907  33.970  34.360  1.00  0.00     0.031 C 
ATOM     48  C   UNL A   1      38.436  30.012  28.736  1.00  0.00     0.029 A 
ATOM     49  C   UNL A   1      39.412  29.752  29.789  1.00  0.00     0.049 A 
ATOM     50  H   UNL A   1      39.588  30.718  31.624  1.00  0.00     0.167 HD
ATOM     51  C   UNL A   1      39.842  32.851  35.435  1.00  0.00     0.037 A 
ATOM     52  C   UNL A   1      40.384  28.822  29.735  1.00  0.00     0.037 A 
ATOM     53  C   UNL A   1      40.912  31.887  35.468  1.00  0.00     0.049 A 
ATOM     54  C   UNL A   1      41.335  28.690  30.889  1.00  0.00     0.074 A 
ATOM     55  C   UNL A   1      41.814  31.633  36.488  1.00  0.00     0.029 A 
ATOM     56  N   UNL A   1      41.222  31.014  34.436  1.00  0.00    -0.354 N 
ATOM     57  N   UNL A   1      41.357  29.346  32.023  1.00  0.00    -0.248 NA
ATOM     58  C   UNL A   1      42.407  27.694  30.750  1.00  0.00     0.031 C 
ATOM     59  C   UNL A   1      42.693  30.634  36.057  1.00  0.00     0.029 A 
ATOM     60  C   UNL A   1      42.313  30.233  34.787  1.00  0.00     0.049 A 
ATOM     61  H   UNL A   1      40.739  30.957  33.579  1.00  0.00     0.167 HD
ATOM     62  C   UNL A   1      42.436  28.844  32.735  1.00  0.00     0.074 A 
ATOM     63  C   UNL A   1      43.030  27.806  31.915  1.00  0.00     0.031 C 
ATOM     64  C   UNL A   1      42.899  29.214  33.954  1.00  0.00     0.037 A 
BRANCH  51  65
ATOM     65  C   UNL A   1      39.658  33.737  36.632  1.00  0.00     0.064 A 
ATOM     66  C   UNL A   1      40.224  35.019  36.691  1.00  0.00     0.173 A 
ATOM     67  C   UNL A   1      38.855  33.324  37.706  1.00  0.00     0.173 A 
ATOM     68  F   UNL A   1      41.010  35.457  35.697  1.00  0.00    -0.203 F 
ATOM     69  C   UNL A   1      40.007  35.847  37.791  1.00  0.00     0.198 A 
ATOM     70  C   UNL A   1      38.620  34.163  38.791  1.00  0.00     0.198 A 
ATOM     71  F   UNL A   1      38.286  32.108  37.695  1.00  0.00    -0.203 F 
ATOM     72  F   UNL A   1      40.587  37.055  37.843  1.00  0.00    -0.200 F 
ATOM     73  C   UNL A   1      39.199  35.422  38.834  1.00  0.00     0.200 A 
ATOM     74  F   UNL A   1      37.829  33.755  39.793  1.00  0.00    -0.200 F 
ATOM     75  F   UNL A   1      38.981  36.225  39.885  1.00  0.00    -0.200 F 
ENDBRANCH  51  65
BRANCH  52  76
ATOM     76  C   UNL A   1      40.500  27.954  28.538  1.00  0.00     0.064 A 
ATOM     77  C   UNL A   1      41.252  28.357  27.427  1.00  0.00     0.173 A 
ATOM     78  C   UNL A   1      39.891  26.691  28.492  1.00  0.00     0.173 A 
ATOM     79  F   UNL A   1      41.834  29.565  27.416  1.00  0.00    -0.203 F 
ATOM     80  C   UNL A   1      41.390  27.531  26.314  1.00  0.00     0.198 A 
ATOM     81  C   UNL A   1      40.052  25.853  27.390  1.00  0.00     0.198 A 
ATOM     82  F   UNL A   1      39.163  26.259  29.532  1.00  0.00    -0.203 F 
ATOM     83  F   UNL A   1      42.092  27.951  25.254  1.00  0.00    -0.200 F 
ATOM     84  C   UNL A   1      40.798  26.276  26.301  1.00  0.00     0.200 A 
ATOM     85  F   UNL A   1      39.492  24.637  27.389  1.00  0.00    -0.200 F 
ATOM     86  F   UNL A   1      40.946  25.475  25.237  1.00  0.00    -0.200 F 
ENDBRANCH  52  76
BRANCH  64  87
ATOM     87  C   UNL A   1      44.105  28.491  34.475  1.00  0.00     0.064 A 
ATOM     88  C   UNL A   1      45.399  28.995  34.281  1.00  0.00     0.173 A 
ATOM     89  C   UNL A   1      43.964  27.300  35.202  1.00  0.00     0.173 A 
ATOM     90  F   UNL A   1      45.586  30.122  33.578  1.00  0.00    -0.203 F 
ATOM     91  C   UNL A   1      46.511  28.320  34.777  1.00  0.00     0.198 A 
ATOM     92  C   UNL A   1      45.075  26.642  35.721  1.00  0.00     0.198 A 
ATOM     93  F   UNL A   1      42.746  26.780  35.420  1.00  0.00    -0.203 F 
ATOM     94  F   UNL A   1      47.742  28.796  34.541  1.00  0.00    -0.200 F 
ATOM     95  C   UNL A   1      46.349  27.149  35.502  1.00  0.00     0.200 A 
ATOM     96  F   UNL A   1      44.916  25.517  36.431  1.00  0.00    -0.200 F 
ATOM     97  F   UNL A   1      47.419  26.503  35.983  1.00  0.00    -0.200 F 
ENDBRANCH  64  87
ENDBRANCH  38  39
ENDBRANCH  30  33
ENDBRANCH  28  29
ENDBRANCH  27  28
ENDBRANCH  26  27
ENDBRANCH   1  26
TORSDOF 16
ENDMDL
