MODEL 1
REMARK VINA RESULT:     -12.0      0.000      0.000
REMARK SMILES CCn1nc(C)c(Br)c1C[C@H](C(=O)NCCCCCCNC(=O)c1ccc(-c2c3nc(c(-c4c(F)c(F)c(F)c(F)c4F)c4ccc([nH]4)c(-c4c(F)c(F)c(F)c(F)c4F)c4nc(c(-c5c(F)c(F)c(F)c(F)c5F)c5ccc2[nH]5)C=C4)C=C3)cc1)c1ccc(F)cc1
REMARK SMILES IDX 17 1 16 2 15 3 14 4 12 5 13 6 11 8 10 9 9 10 3 11 4 12 5 13
REMARK SMILES IDX 7 14 6 15 8 16 2 17 1 18 87 19 88 20 93 21 89 22 92 23 90 24
REMARK SMILES IDX 91 25 18 26 19 27 20 28 21 29 22 30 23 32 24 33 25 34 86 35
REMARK SMILES IDX 26 36 85 37 27 38 28 39 29 40 79 41 30 42 84 43 78 44 80 45
REMARK SMILES IDX 31 46 83 47 77 48 76 49 32 51 64 52 44 53 63 54 45 55 48 56
REMARK SMILES IDX 62 57 81 58 46 59 47 60 61 62 82 63 49 64 33 65 34 66 42 67
REMARK SMILES IDX 35 68 36 69 40 70 43 71 37 72 38 73 41 74 39 75 65 76 66 77
REMARK SMILES IDX 74 78 67 79 68 80 72 81 75 82 69 83 70 84 73 85 71 86 50 87
REMARK SMILES IDX 51 88 59 89 52 90 53 91 57 92 60 93 54 94 55 95 58 96 56 97
REMARK H PARENT 14 7 21 31 80 50 48 61
REMARK Flexibility Score: inf
ROOT
ATOM      1  C   UNL A   1      33.363  28.377  25.447  1.00  0.00     0.002 C 
ENDROOT
BRANCH   1   2
ATOM      2  C   UNL A   1      33.953  28.217  24.048  1.00  0.00     0.021 C 
BRANCH   2   3
ATOM      3  C   UNL A   1      32.941  28.222  22.894  1.00  0.00     0.116 C 
BRANCH   3   4
ATOM      4  N   UNL A   1      33.245  27.179  21.949  1.00  0.00    -0.356 N 
ATOM      5  C   UNL A   1      33.381  25.837  22.050  1.00  0.00     0.227 C 
ATOM      6  O   UNL A   1      33.324  25.291  20.938  1.00  0.00    -0.274 OA
ATOM      7  H   UNL A   1      33.383  27.515  21.035  1.00  0.00     0.163 HD
BRANCH   5   8
ATOM      8  C   UNL A   1      33.423  24.999  23.366  1.00  0.00     0.114 C 
BRANCH   8   9
ATOM      9  C   UNL A   1      32.163  24.035  23.282  1.00  0.00     0.075 C 
BRANCH   9  10
ATOM     10  C   UNL A   1      31.669  23.429  24.590  1.00  0.00     0.054 A 
ATOM     11  N   UNL A   1      31.809  22.080  24.881  1.00  0.00    -0.268 N 
ATOM     12  N   UNL A   1      30.973  21.657  25.851  1.00  0.00    -0.177 NA
ATOM     13  C   UNL A   1      30.385  22.773  26.294  1.00  0.00     0.074 A 
ATOM     14  C   UNL A   1      30.895  23.910  25.634  1.00  0.00     0.062 A 
ATOM     15  C   UNL A   1      29.275  22.673  27.276  1.00  0.00     0.070 C 
ATOM     16  Br  UNL A   1      30.316  25.647  26.050  1.00  0.00    -0.047 Br
BRANCH  11  17
ATOM     17  C   UNL A   1      32.606  21.073  24.197  1.00  0.00     0.141 C 
ATOM     18  C   UNL A   1      33.837  20.624  24.977  1.00  0.00     0.029 C 
ENDBRANCH  11  17
ENDBRANCH   9  10
ENDBRANCH   8   9
BRANCH   8  19
ATOM     19  C   UNL A   1      34.730  24.281  23.818  1.00  0.00    -0.035 A 
ATOM     20  C   UNL A   1      35.487  23.439  23.009  1.00  0.00     0.007 A 
ATOM     21  C   UNL A   1      35.313  24.502  25.077  1.00  0.00     0.007 A 
ATOM     22  C   UNL A   1      36.543  22.649  23.492  1.00  0.00     0.039 A 
ATOM     23  C   UNL A   1      36.348  23.720  25.603  1.00  0.00     0.039 A 
ATOM     24  C   UNL A   1      36.927  22.756  24.811  1.00  0.00     0.123 A 
ATOM     25  F   UNL A   1      37.896  21.975  25.298  1.00  0.00    -0.207 F 
ENDBRANCH   8  19
ENDBRANCH   5   8
ENDBRANCH   3   4
ENDBRANCH   2   3
ENDBRANCH   1   2
BRANCH   1  26
ATOM     26  C   UNL A   1      33.008  29.808  25.853  1.00  0.00     0.002 C 
BRANCH  26  27
ATOM     27  C   UNL A   1      33.285  30.183  27.315  1.00  0.00     0.021 C 
BRANCH  27  28
ATOM     28  C   UNL A   1      34.584  30.947  27.523  1.00  0.00     0.116 C 
BRANCH  28  29
ATOM     29  N   UNL A   1      34.555  31.760  28.732  1.00  0.00    -0.352 N 
ATOM     30  C   UNL A   1      35.329  31.636  29.867  1.00  0.00     0.251 C 
ATOM     31  H   UNL A   1      33.898  32.492  28.740  1.00  0.00     0.163 HD
ATOM     32  O   UNL A   1      34.971  32.124  30.925  1.00  0.00    -0.269 OA
BRANCH  30  33
ATOM     33  C   UNL A   1      36.597  30.888  29.785  1.00  0.00     0.039 A 
ATOM     34  C   UNL A   1      37.801  31.569  29.602  1.00  0.00     0.014 A 
ATOM     35  C   UNL A   1      36.576  29.499  29.899  1.00  0.00     0.014 A 
ATOM     36  C   UNL A   1      38.989  30.846  29.617  1.00  0.00     0.010 A 
ATOM     37  C   UNL A   1      37.753  28.802  30.046  1.00  0.00     0.010 A 
ATOM     38  C   UNL A   1      38.964  29.462  29.872  1.00  0.00    -0.014 A 
BRANCH  38  39
ATOM     39  C   UNL A   1      40.220  28.752  30.108  1.00  0.00     0.031 A 
ATOM     40  C   UNL A   1      40.640  28.756  31.536  1.00  0.00     0.074 A 
ATOM     41  C   UNL A   1      40.866  28.002  29.187  1.00  0.00     0.049 A 
ATOM     42  N   UNL A   1      41.662  29.357  32.046  1.00  0.00    -0.248 NA
ATOM     43  C   UNL A   1      39.748  28.146  32.537  1.00  0.00     0.031 C 
ATOM     44  C   UNL A   1      40.402  27.647  27.840  1.00  0.00     0.029 A 
ATOM     45  N   UNL A   1      42.040  27.309  29.290  1.00  0.00    -0.354 N 
ATOM     46  C   UNL A   1      41.669  29.015  33.394  1.00  0.00     0.074 A 
ATOM     47  C   UNL A   1      40.385  28.431  33.677  1.00  0.00     0.031 C 
ATOM     48  C   UNL A   1      41.148  26.631  27.355  1.00  0.00     0.029 A 
ATOM     49  C   UNL A   1      42.251  26.392  28.265  1.00  0.00     0.049 A 
ATOM     50  H   UNL A   1      42.680  27.446  30.026  1.00  0.00     0.167 HD
ATOM     51  C   UNL A   1      42.848  28.956  34.074  1.00  0.00     0.037 A 
ATOM     52  C   UNL A   1      43.264  25.497  28.159  1.00  0.00     0.037 A 
ATOM     53  C   UNL A   1      43.893  29.620  33.338  1.00  0.00     0.049 A 
ATOM     54  C   UNL A   1      44.383  25.985  28.991  1.00  0.00     0.074 A 
ATOM     55  C   UNL A   1      44.258  30.918  33.061  1.00  0.00     0.029 A 
ATOM     56  N   UNL A   1      44.492  28.820  32.404  1.00  0.00    -0.354 N 
ATOM     57  N   UNL A   1      45.073  27.055  28.712  1.00  0.00    -0.248 NA
ATOM     58  C   UNL A   1      44.556  25.461  30.341  1.00  0.00     0.031 C 
ATOM     59  C   UNL A   1      44.973  30.878  31.824  1.00  0.00     0.029 A 
ATOM     60  C   UNL A   1      45.067  29.555  31.403  1.00  0.00     0.049 A 
ATOM     61  H   UNL A   1      44.508  27.836  32.447  1.00  0.00     0.167 HD
ATOM     62  C   UNL A   1      45.387  27.579  29.948  1.00  0.00     0.074 A 
ATOM     63  C   UNL A   1      45.232  26.476  30.886  1.00  0.00     0.031 C 
ATOM     64  C   UNL A   1      45.400  28.929  30.143  1.00  0.00     0.037 A 
BRANCH  51  65
ATOM     65  C   UNL A   1      43.183  27.887  35.093  1.00  0.00     0.064 A 
ATOM     66  C   UNL A   1      43.619  28.272  36.378  1.00  0.00     0.173 A 
ATOM     67  C   UNL A   1      43.406  26.533  34.759  1.00  0.00     0.173 A 
ATOM     68  F   UNL A   1      43.504  29.545  36.784  1.00  0.00    -0.203 F 
ATOM     69  C   UNL A   1      44.260  27.376  37.241  1.00  0.00     0.198 A 
ATOM     70  C   UNL A   1      43.998  25.631  35.641  1.00  0.00     0.198 A 
ATOM     71  F   UNL A   1      43.176  26.057  33.531  1.00  0.00    -0.203 F 
ATOM     72  F   UNL A   1      44.755  27.811  38.408  1.00  0.00    -0.200 F 
ATOM     73  C   UNL A   1      44.448  26.056  36.873  1.00  0.00     0.200 A 
ATOM     74  F   UNL A   1      44.201  24.365  35.249  1.00  0.00    -0.200 F 
ATOM     75  F   UNL A   1      45.104  25.208  37.675  1.00  0.00    -0.200 F 
ENDBRANCH  51  65
BRANCH  52  76
ATOM     76  C   UNL A   1      43.286  24.156  27.532  1.00  0.00     0.064 A 
ATOM     77  C   UNL A   1      42.706  23.048  28.174  1.00  0.00     0.173 A 
ATOM     78  C   UNL A   1      43.591  24.002  26.167  1.00  0.00     0.173 A 
ATOM     79  F   UNL A   1      42.359  23.123  29.468  1.00  0.00    -0.203 F 
ATOM     80  C   UNL A   1      42.399  21.876  27.478  1.00  0.00     0.198 A 
ATOM     81  C   UNL A   1      43.288  22.829  25.475  1.00  0.00     0.198 A 
ATOM     82  F   UNL A   1      44.092  25.026  25.460  1.00  0.00    -0.203 F 
ATOM     83  F   UNL A   1      41.772  20.871  28.107  1.00  0.00    -0.200 F 
ATOM     84  C   UNL A   1      42.674  21.774  26.125  1.00  0.00     0.200 A 
ATOM     85  F   UNL A   1      43.526  22.753  24.158  1.00  0.00    -0.200 F 
ATOM     86  F   UNL A   1      42.306  20.681  25.441  1.00  0.00    -0.200 F 
ENDBRANCH  52  76
BRANCH  64  87
ATOM     87  C   UNL A   1      45.634  29.790  28.940  1.00  0.00     0.064 A 
ATOM     88  C   UNL A   1      46.894  30.088  28.395  1.00  0.00     0.173 A 
ATOM     89  C   UNL A   1      44.510  30.326  28.295  1.00  0.00     0.173 A 
ATOM     90  F   UNL A   1      48.011  29.547  28.899  1.00  0.00    -0.203 F 
ATOM     91  C   UNL A   1      47.021  30.935  27.295  1.00  0.00     0.198 A 
ATOM     92  C   UNL A   1      44.637  31.137  27.173  1.00  0.00     0.198 A 
ATOM     93  F   UNL A   1      43.278  30.045  28.747  1.00  0.00    -0.203 F 
ATOM     94  F   UNL A   1      48.237  31.238  26.818  1.00  0.00    -0.200 F 
ATOM     95  C   UNL A   1      45.893  31.457  26.684  1.00  0.00     0.200 A 
ATOM     96  F   UNL A   1      43.539  31.604  26.563  1.00  0.00    -0.200 F 
ATOM     97  F   UNL A   1      46.013  32.255  25.614  1.00  0.00    -0.200 F 
ENDBRANCH  64  87
ENDBRANCH  38  39
ENDBRANCH  30  33
ENDBRANCH  28  29
ENDBRANCH  27  28
ENDBRANCH  26  27
ENDBRANCH   1  26
TORSDOF 17
ENDMDL
MODEL 2
REMARK VINA RESULT:     -11.8      1.295      2.292
REMARK SMILES CCn1nc(C)c(Br)c1C[C@H](C(=O)NCCCCCCNC(=O)c1ccc(-c2c3nc(c(-c4c(F)c(F)c(F)c(F)c4F)c4ccc([nH]4)c(-c4c(F)c(F)c(F)c(F)c4F)c4nc(c(-c5c(F)c(F)c(F)c(F)c5F)c5ccc2[nH]5)C=C4)C=C3)cc1)c1ccc(F)cc1
REMARK SMILES IDX 17 1 16 2 15 3 14 4 12 5 13 6 11 8 10 9 9 10 3 11 4 12 5 13
REMARK SMILES IDX 7 14 6 15 8 16 2 17 1 18 87 19 88 20 93 21 89 22 92 23 90 24
REMARK SMILES IDX 91 25 18 26 19 27 20 28 21 29 22 30 23 32 24 33 25 34 86 35
REMARK SMILES IDX 26 36 85 37 27 38 28 39 29 40 79 41 30 42 84 43 78 44 80 45
REMARK SMILES IDX 31 46 83 47 77 48 76 49 32 51 64 52 44 53 63 54 45 55 48 56
REMARK SMILES IDX 62 57 81 58 46 59 47 60 61 62 82 63 49 64 33 65 34 66 42 67
REMARK SMILES IDX 35 68 36 69 40 70 43 71 37 72 38 73 41 74 39 75 65 76 66 77
REMARK SMILES IDX 74 78 67 79 68 80 72 81 75 82 69 83 70 84 73 85 71 86 50 87
REMARK SMILES IDX 51 88 59 89 52 90 53 91 57 92 60 93 54 94 55 95 58 96 56 97
REMARK H PARENT 14 7 21 31 80 50 48 61
REMARK Flexibility Score: inf
ROOT
ATOM      1  C   UNL A   1      33.675  28.480  25.251  1.00  0.00     0.002 C 
ENDROOT
BRANCH   1   2
ATOM      2  C   UNL A   1      33.952  28.705  23.766  1.00  0.00     0.021 C 
BRANCH   2   3
ATOM      3  C   UNL A   1      32.796  28.366  22.815  1.00  0.00     0.116 C 
BRANCH   3   4
ATOM      4  N   UNL A   1      33.162  27.284  21.940  1.00  0.00    -0.356 N 
ATOM      5  C   UNL A   1      33.299  25.949  22.111  1.00  0.00     0.227 C 
ATOM      6  O   UNL A   1      33.312  25.352  21.023  1.00  0.00    -0.274 OA
ATOM      7  H   UNL A   1      33.352  27.578  21.021  1.00  0.00     0.163 HD
BRANCH   5   8
ATOM      8  C   UNL A   1      33.267  25.173  23.464  1.00  0.00     0.114 C 
BRANCH   8   9
ATOM      9  C   UNL A   1      31.890  24.380  23.453  1.00  0.00     0.075 C 
BRANCH   9  10
ATOM     10  C   UNL A   1      31.890  22.987  24.070  1.00  0.00     0.054 A 
ATOM     11  N   UNL A   1      31.900  22.784  25.442  1.00  0.00    -0.268 N 
ATOM     12  N   UNL A   1      32.313  21.549  25.793  1.00  0.00    -0.177 NA
ATOM     13  C   UNL A   1      32.434  20.896  24.633  1.00  0.00     0.074 A 
ATOM     14  C   UNL A   1      32.045  21.712  23.550  1.00  0.00     0.062 A 
ATOM     15  C   UNL A   1      33.022  19.532  24.620  1.00  0.00     0.070 C 
ATOM     16  Br  UNL A   1      32.052  21.088  21.779  1.00  0.00    -0.047 Br
BRANCH  11  17
ATOM     17  C   UNL A   1      31.674  23.744  26.512  1.00  0.00     0.141 C 
ATOM     18  C   UNL A   1      30.201  24.005  26.807  1.00  0.00     0.029 C 
ENDBRANCH  11  17
ENDBRANCH   9  10
ENDBRANCH   8   9
BRANCH   8  19
ATOM     19  C   UNL A   1      34.480  24.311  23.923  1.00  0.00    -0.035 A 
ATOM     20  C   UNL A   1      35.019  24.328  25.207  1.00  0.00     0.007 A 
ATOM     21  C   UNL A   1      35.085  23.357  23.088  1.00  0.00     0.007 A 
ATOM     22  C   UNL A   1      36.228  23.697  25.545  1.00  0.00     0.039 A 
ATOM     23  C   UNL A   1      36.301  22.727  23.377  1.00  0.00     0.039 A 
ATOM     24  C   UNL A   1      36.892  22.946  24.600  1.00  0.00     0.123 A 
ATOM     25  F   UNL A   1      38.069  22.382  24.892  1.00  0.00    -0.207 F 
ENDBRANCH   8  19
ENDBRANCH   5   8
ENDBRANCH   3   4
ENDBRANCH   2   3
ENDBRANCH   1   2
BRANCH   1  26
ATOM     26  C   UNL A   1      32.354  29.054  25.769  1.00  0.00     0.002 C 
BRANCH  26  27
ATOM     27  C   UNL A   1      32.470  30.202  26.782  1.00  0.00     0.021 C 
BRANCH  27  28
ATOM     28  C   UNL A   1      33.898  30.517  27.201  1.00  0.00     0.116 C 
BRANCH  28  29
ATOM     29  N   UNL A   1      33.959  31.599  28.174  1.00  0.00    -0.352 N 
ATOM     30  C   UNL A   1      34.894  31.809  29.167  1.00  0.00     0.251 C 
ATOM     31  H   UNL A   1      33.240  32.268  28.116  1.00  0.00     0.163 HD
ATOM     32  O   UNL A   1      34.641  32.519  30.124  1.00  0.00    -0.269 OA
BRANCH  30  33
ATOM     33  C   UNL A   1      36.206  31.144  29.060  1.00  0.00     0.039 A 
ATOM     34  C   UNL A   1      37.377  31.864  29.299  1.00  0.00     0.014 A 
ATOM     35  C   UNL A   1      36.258  29.792  28.725  1.00  0.00     0.014 A 
ATOM     36  C   UNL A   1      38.594  31.192  29.278  1.00  0.00     0.010 A 
ATOM     37  C   UNL A   1      37.443  29.101  28.833  1.00  0.00     0.010 A 
ATOM     38  C   UNL A   1      38.621  29.799  29.075  1.00  0.00    -0.014 A 
BRANCH  38  39
ATOM     39  C   UNL A   1      39.871  29.068  29.276  1.00  0.00     0.031 A 
ATOM     40  C   UNL A   1      40.174  28.799  30.708  1.00  0.00     0.074 A 
ATOM     41  C   UNL A   1      40.608  28.517  28.286  1.00  0.00     0.049 A 
ATOM     42  N   UNL A   1      41.135  29.300  31.409  1.00  0.00    -0.248 NA
ATOM     43  C   UNL A   1      39.219  27.999  31.495  1.00  0.00     0.031 C 
ATOM     44  C   UNL A   1      40.265  28.425  26.861  1.00  0.00     0.029 A 
ATOM     45  N   UNL A   1      41.788  27.827  28.353  1.00  0.00    -0.354 N 
ATOM     46  C   UNL A   1      41.041  28.702  32.662  1.00  0.00     0.074 A 
ATOM     47  C   UNL A   1      39.753  28.063  32.717  1.00  0.00     0.031 C 
ATOM     48  C   UNL A   1      41.073  27.530  26.255  1.00  0.00     0.029 A 
ATOM     49  C   UNL A   1      42.105  27.129  27.192  1.00  0.00     0.049 A 
ATOM     50  H   UNL A   1      42.362  27.825  29.153  1.00  0.00     0.167 HD
ATOM     51  C   UNL A   1      42.162  28.524  33.415  1.00  0.00     0.037 A 
ATOM     52  C   UNL A   1      43.145  26.281  27.002  1.00  0.00     0.037 A 
ATOM     53  C   UNL A   1      43.246  29.327  32.912  1.00  0.00     0.049 A 
ATOM     54  C   UNL A   1      44.180  26.608  28.004  1.00  0.00     0.074 A 
ATOM     55  C   UNL A   1      43.599  30.658  32.922  1.00  0.00     0.029 A 
ATOM     56  N   UNL A   1      43.939  28.729  31.895  1.00  0.00    -0.354 N 
ATOM     57  N   UNL A   1      44.863  27.718  27.996  1.00  0.00    -0.248 NA
ATOM     58  C   UNL A   1      44.256  25.834  29.238  1.00  0.00     0.031 C 
ATOM     59  C   UNL A   1      44.413  30.865  31.765  1.00  0.00     0.029 A 
ATOM     60  C   UNL A   1      44.575  29.649  31.107  1.00  0.00     0.049 A 
ATOM     61  H   UNL A   1      43.976  27.756  31.750  1.00  0.00     0.167 HD
ATOM     62  C   UNL A   1      45.062  27.995  29.331  1.00  0.00     0.074 A 
ATOM     63  C   UNL A   1      44.859  26.730  30.023  1.00  0.00     0.031 C 
ATOM     64  C   UNL A   1      45.025  29.282  29.783  1.00  0.00     0.037 A 
BRANCH  51  65
ATOM     65  C   UNL A   1      42.440  27.281  34.234  1.00  0.00     0.064 A 
ATOM     66  C   UNL A   1      42.211  27.306  35.626  1.00  0.00     0.173 A 
ATOM     67  C   UNL A   1      43.218  26.197  33.769  1.00  0.00     0.173 A 
ATOM     68  F   UNL A   1      41.528  28.315  36.186  1.00  0.00    -0.203 F 
ATOM     69  C   UNL A   1      42.753  26.340  36.483  1.00  0.00     0.198 A 
ATOM     70  C   UNL A   1      43.711  25.209  34.618  1.00  0.00     0.198 A 
ATOM     71  F   UNL A   1      43.634  26.115  32.501  1.00  0.00    -0.203 F 
ATOM     72  F   UNL A   1      42.602  26.464  37.808  1.00  0.00    -0.200 F 
ATOM     73  C   UNL A   1      43.501  25.293  35.978  1.00  0.00     0.200 A 
ATOM     74  F   UNL A   1      44.464  24.222  34.112  1.00  0.00    -0.200 F 
ATOM     75  F   UNL A   1      44.062  24.395  36.799  1.00  0.00    -0.200 F 
ENDBRANCH  51  65
BRANCH  52  76
ATOM     76  C   UNL A   1      43.251  25.087  26.133  1.00  0.00     0.064 A 
ATOM     77  C   UNL A   1      44.332  24.931  25.247  1.00  0.00     0.173 A 
ATOM     78  C   UNL A   1      42.472  23.942  26.381  1.00  0.00     0.173 A 
ATOM     79  F   UNL A   1      45.140  25.967  24.979  1.00  0.00    -0.203 F 
ATOM     80  C   UNL A   1      44.648  23.690  24.688  1.00  0.00     0.198 A 
ATOM     81  C   UNL A   1      42.786  22.704  25.818  1.00  0.00     0.198 A 
ATOM     82  F   UNL A   1      41.457  23.983  27.257  1.00  0.00    -0.203 F 
ATOM     83  F   UNL A   1      45.734  23.564  23.913  1.00  0.00    -0.200 F 
ATOM     84  C   UNL A   1      43.885  22.574  24.988  1.00  0.00     0.200 A 
ATOM     85  F   UNL A   1      42.063  21.623  26.142  1.00  0.00    -0.200 F 
ATOM     86  F   UNL A   1      44.235  21.369  24.516  1.00  0.00    -0.200 F 
ENDBRANCH  52  76
BRANCH  64  87
ATOM     87  C   UNL A   1      45.334  30.362  28.792  1.00  0.00     0.064 A 
ATOM     88  C   UNL A   1      44.384  31.009  27.985  1.00  0.00     0.173 A 
ATOM     89  C   UNL A   1      46.668  30.773  28.671  1.00  0.00     0.173 A 
ATOM     90  F   UNL A   1      43.077  30.736  28.098  1.00  0.00    -0.203 F 
ATOM     91  C   UNL A   1      44.766  31.977  27.056  1.00  0.00     0.198 A 
ATOM     92  C   UNL A   1      47.042  31.767  27.775  1.00  0.00     0.198 A 
ATOM     93  F   UNL A   1      47.615  30.218  29.445  1.00  0.00    -0.203 F 
ATOM     94  F   UNL A   1      43.848  32.552  26.267  1.00  0.00    -0.200 F 
ATOM     95  C   UNL A   1      46.095  32.356  26.954  1.00  0.00     0.200 A 
ATOM     96  F   UNL A   1      48.323  32.158  27.712  1.00  0.00    -0.200 F 
ATOM     97  F   UNL A   1      46.462  33.300  26.076  1.00  0.00    -0.200 F 
ENDBRANCH  64  87
ENDBRANCH  38  39
ENDBRANCH  30  33
ENDBRANCH  28  29
ENDBRANCH  27  28
ENDBRANCH  26  27
ENDBRANCH   1  26
TORSDOF 17
ENDMDL
MODEL 3
REMARK VINA RESULT:     -11.7      5.489     10.176
REMARK SMILES CCn1nc(C)c(Br)c1C[C@H](C(=O)NCCCCCCNC(=O)c1ccc(-c2c3nc(c(-c4c(F)c(F)c(F)c(F)c4F)c4ccc([nH]4)c(-c4c(F)c(F)c(F)c(F)c4F)c4nc(c(-c5c(F)c(F)c(F)c(F)c5F)c5ccc2[nH]5)C=C4)C=C3)cc1)c1ccc(F)cc1
REMARK SMILES IDX 17 1 16 2 15 3 14 4 12 5 13 6 11 8 10 9 9 10 3 11 4 12 5 13
REMARK SMILES IDX 7 14 6 15 8 16 2 17 1 18 87 19 88 20 93 21 89 22 92 23 90 24
REMARK SMILES IDX 91 25 18 26 19 27 20 28 21 29 22 30 23 32 24 33 25 34 86 35
REMARK SMILES IDX 26 36 85 37 27 38 28 39 29 40 79 41 30 42 84 43 78 44 80 45
REMARK SMILES IDX 31 46 83 47 77 48 76 49 32 51 64 52 44 53 63 54 45 55 48 56
REMARK SMILES IDX 62 57 81 58 46 59 47 60 61 62 82 63 49 64 33 65 34 66 42 67
REMARK SMILES IDX 35 68 36 69 40 70 43 71 37 72 38 73 41 74 39 75 65 76 66 77
REMARK SMILES IDX 74 78 67 79 68 80 72 81 75 82 69 83 70 84 73 85 71 86 50 87
REMARK SMILES IDX 51 88 59 89 52 90 53 91 57 92 60 93 54 94 55 95 58 96 56 97
REMARK H PARENT 14 7 21 31 80 50 48 61
REMARK Flexibility Score: inf
ROOT
ATOM      1  C   UNL A   1      43.987  31.900  27.799  1.00  0.00     0.002 C 
ENDROOT
BRANCH   1   2
ATOM      2  C   UNL A   1      43.389  30.500  27.926  1.00  0.00     0.021 C 
BRANCH   2   3
ATOM      3  C   UNL A   1      44.162  29.380  27.218  1.00  0.00     0.116 C 
BRANCH   3   4
ATOM      4  N   UNL A   1      43.470  28.961  26.028  1.00  0.00    -0.356 N 
ATOM      5  C   UNL A   1      43.193  27.754  25.484  1.00  0.00     0.227 C 
ATOM      6  O   UNL A   1      42.298  27.836  24.629  1.00  0.00    -0.274 OA
ATOM      7  H   UNL A   1      43.123  29.713  25.497  1.00  0.00     0.163 HD
BRANCH   5   8
ATOM      8  C   UNL A   1      43.750  26.372  25.946  1.00  0.00     0.114 C 
BRANCH   8   9
ATOM      9  C   UNL A   1      42.966  25.298  25.075  1.00  0.00     0.075 C 
BRANCH   9  10
ATOM     10  C   UNL A   1      42.977  23.860  25.577  1.00  0.00     0.054 A 
ATOM     11  N   UNL A   1      43.634  22.843  24.901  1.00  0.00    -0.268 N 
ATOM     12  N   UNL A   1      43.203  21.612  25.242  1.00  0.00    -0.177 NA
ATOM     13  C   UNL A   1      42.357  21.825  26.256  1.00  0.00     0.074 A 
ATOM     14  C   UNL A   1      42.298  23.195  26.586  1.00  0.00     0.062 A 
ATOM     15  C   UNL A   1      41.563  20.692  26.795  1.00  0.00     0.070 C 
ATOM     16  Br  UNL A   1      41.237  23.835  27.997  1.00  0.00    -0.047 Br
BRANCH  11  17
ATOM     17  C   UNL A   1      44.589  22.939  23.806  1.00  0.00     0.141 C 
ATOM     18  C   UNL A   1      46.047  22.905  24.251  1.00  0.00     0.029 C 
ENDBRANCH  11  17
ENDBRANCH   9  10
ENDBRANCH   8   9
BRANCH   8  19
ATOM     19  C   UNL A   1      45.284  26.111  26.025  1.00  0.00    -0.035 A 
ATOM     20  C   UNL A   1      45.913  25.418  27.055  1.00  0.00     0.007 A 
ATOM     21  C   UNL A   1      46.165  26.482  24.996  1.00  0.00     0.007 A 
ATOM     22  C   UNL A   1      47.308  25.365  27.210  1.00  0.00     0.039 A 
ATOM     23  C   UNL A   1      47.559  26.469  25.121  1.00  0.00     0.039 A 
ATOM     24  C   UNL A   1      48.122  25.948  26.264  1.00  0.00     0.123 A 
ATOM     25  F   UNL A   1      49.449  25.951  26.423  1.00  0.00    -0.207 F 
ENDBRANCH   8  19
ENDBRANCH   5   8
ENDBRANCH   3   4
ENDBRANCH   2   3
ENDBRANCH   1   2
BRANCH   1  26
ATOM     26  C   UNL A   1      44.258  32.373  26.370  1.00  0.00     0.002 C 
BRANCH  26  27
ATOM     27  C   UNL A   1      45.079  33.663  26.232  1.00  0.00     0.021 C 
BRANCH  27  28
ATOM     28  C   UNL A   1      46.061  33.897  27.369  1.00  0.00     0.116 C 
BRANCH  28  29
ATOM     29  N   UNL A   1      46.320  35.314  27.588  1.00  0.00    -0.352 N 
ATOM     30  C   UNL A   1      45.476  36.269  28.114  1.00  0.00     0.251 C 
ATOM     31  H   UNL A   1      47.215  35.631  27.326  1.00  0.00     0.163 HD
ATOM     32  O   UNL A   1      45.669  37.455  27.909  1.00  0.00    -0.269 OA
BRANCH  30  33
ATOM     33  C   UNL A   1      44.321  35.832  28.920  1.00  0.00     0.039 A 
ATOM     34  C   UNL A   1      43.023  36.079  28.474  1.00  0.00     0.014 A 
ATOM     35  C   UNL A   1      44.545  35.166  30.124  1.00  0.00     0.014 A 
ATOM     36  C   UNL A   1      41.954  35.578  29.209  1.00  0.00     0.010 A 
ATOM     37  C   UNL A   1      43.498  34.558  30.779  1.00  0.00     0.010 A 
ATOM     38  C   UNL A   1      42.197  34.788  30.348  1.00  0.00    -0.014 A 
BRANCH  38  39
ATOM     39  C   UNL A   1      41.085  34.082  30.983  1.00  0.00     0.031 A 
ATOM     40  C   UNL A   1      41.308  33.811  32.429  1.00  0.00     0.074 A 
ATOM     41  C   UNL A   1      39.889  33.847  30.400  1.00  0.00     0.049 A 
ATOM     42  N   UNL A   1      41.480  32.660  32.989  1.00  0.00    -0.248 NA
ATOM     43  C   UNL A   1      41.511  34.951  33.340  1.00  0.00     0.031 C 
ATOM     44  C   UNL A   1      39.416  34.339  29.100  1.00  0.00     0.029 A 
ATOM     45  N   UNL A   1      38.790  33.195  30.888  1.00  0.00    -0.354 N 
ATOM     46  C   UNL A   1      41.585  32.914  34.353  1.00  0.00     0.074 A 
ATOM     47  C   UNL A   1      41.782  34.333  34.493  1.00  0.00     0.031 C 
ATOM     48  C   UNL A   1      38.078  34.180  29.011  1.00  0.00     0.029 A 
ATOM     49  C   UNL A   1      37.627  33.411  30.156  1.00  0.00     0.049 A 
ATOM     50  H   UNL A   1      38.820  32.623  31.689  1.00  0.00     0.167 HD
ATOM     51  C   UNL A   1      41.182  31.974  35.252  1.00  0.00     0.037 A 
ATOM     52  C   UNL A   1      36.376  32.986  30.455  1.00  0.00     0.037 A 
ATOM     53  C   UNL A   1      41.030  30.691  34.614  1.00  0.00     0.049 A 
ATOM     54  C   UNL A   1      36.500  31.831  31.367  1.00  0.00     0.074 A 
ATOM     55  C   UNL A   1      41.861  29.703  34.136  1.00  0.00     0.029 A 
ATOM     56  N   UNL A   1      39.810  30.521  34.019  1.00  0.00    -0.354 N 
ATOM     57  N   UNL A   1      36.988  30.677  31.004  1.00  0.00    -0.248 NA
ATOM     58  C   UNL A   1      36.377  32.034  32.807  1.00  0.00     0.031 C 
ATOM     59  C   UNL A   1      41.131  29.029  33.108  1.00  0.00     0.029 A 
ATOM     60  C   UNL A   1      39.861  29.591  33.018  1.00  0.00     0.049 A 
ATOM     61  H   UNL A   1      38.995  31.008  34.281  1.00  0.00     0.167 HD
ATOM     62  C   UNL A   1      37.638  30.222  32.131  1.00  0.00     0.074 A 
ATOM     63  C   UNL A   1      37.065  30.974  33.238  1.00  0.00     0.031 C 
ATOM     64  C   UNL A   1      38.815  29.540  32.021  1.00  0.00     0.037 A 
BRANCH  51  65
ATOM     65  C   UNL A   1      40.431  32.292  36.528  1.00  0.00     0.064 A 
ATOM     66  C   UNL A   1      39.101  32.755  36.449  1.00  0.00     0.173 A 
ATOM     67  C   UNL A   1      41.060  32.471  37.780  1.00  0.00     0.173 A 
ATOM     68  F   UNL A   1      38.422  32.683  35.295  1.00  0.00    -0.203 F 
ATOM     69  C   UNL A   1      38.471  33.382  37.531  1.00  0.00     0.198 A 
ATOM     70  C   UNL A   1      40.412  33.047  38.870  1.00  0.00     0.198 A 
ATOM     71  F   UNL A   1      42.359  32.210  37.965  1.00  0.00    -0.203 F 
ATOM     72  F   UNL A   1      37.246  33.905  37.378  1.00  0.00    -0.200 F 
ATOM     73  C   UNL A   1      39.126  33.526  38.740  1.00  0.00     0.200 A 
ATOM     74  F   UNL A   1      41.079  33.209  40.022  1.00  0.00    -0.200 F 
ATOM     75  F   UNL A   1      38.544  34.168  39.761  1.00  0.00    -0.200 F 
ENDBRANCH  51  65
BRANCH  52  76
ATOM     76  C   UNL A   1      35.064  33.606  30.158  1.00  0.00     0.064 A 
ATOM     77  C   UNL A   1      34.590  34.692  30.914  1.00  0.00     0.173 A 
ATOM     78  C   UNL A   1      34.405  33.351  28.942  1.00  0.00     0.173 A 
ATOM     79  F   UNL A   1      35.182  35.019  32.072  1.00  0.00    -0.203 F 
ATOM     80  C   UNL A   1      33.554  35.509  30.453  1.00  0.00     0.198 A 
ATOM     81  C   UNL A   1      33.367  34.165  28.485  1.00  0.00     0.198 A 
ATOM     82  F   UNL A   1      34.827  32.372  28.128  1.00  0.00    -0.203 F 
ATOM     83  F   UNL A   1      33.184  36.584  31.163  1.00  0.00    -0.200 F 
ATOM     84  C   UNL A   1      32.956  35.255  29.230  1.00  0.00     0.200 A 
ATOM     85  F   UNL A   1      32.818  33.932  27.284  1.00  0.00    -0.200 F 
ATOM     86  F   UNL A   1      32.018  36.085  28.751  1.00  0.00    -0.200 F 
ENDBRANCH  52  76
BRANCH  64  87
ATOM     87  C   UNL A   1      39.072  28.826  30.729  1.00  0.00     0.064 A 
ATOM     88  C   UNL A   1      39.634  29.412  29.584  1.00  0.00     0.173 A 
ATOM     89  C   UNL A   1      38.744  27.465  30.662  1.00  0.00     0.173 A 
ATOM     90  F   UNL A   1      40.054  30.684  29.591  1.00  0.00    -0.203 F 
ATOM     91  C   UNL A   1      39.799  28.682  28.407  1.00  0.00     0.198 A 
ATOM     92  C   UNL A   1      38.947  26.728  29.501  1.00  0.00     0.198 A 
ATOM     93  F   UNL A   1      38.239  26.841  31.738  1.00  0.00    -0.203 F 
ATOM     94  F   UNL A   1      40.299  29.273  27.313  1.00  0.00    -0.200 F 
ATOM     95  C   UNL A   1      39.458  27.339  28.368  1.00  0.00     0.200 A 
ATOM     96  F   UNL A   1      38.654  25.420  29.484  1.00  0.00    -0.200 F 
ATOM     97  F   UNL A   1      39.633  26.630  27.245  1.00  0.00    -0.200 F 
ENDBRANCH  64  87
ENDBRANCH  38  39
ENDBRANCH  30  33
ENDBRANCH  28  29
ENDBRANCH  27  28
ENDBRANCH  26  27
ENDBRANCH   1  26
TORSDOF 17
ENDMDL
