MODEL 1
REMARK VINA RESULT:     -13.1      0.000      0.000
REMARK SMILES O=C(NCCCCCCNC(=O)c1ccc(-c2c3nc(c(-c4c(F)c(F)c(F)c(F)c4F)c4ccc([nH]4)c(-c4c(F)c(F)c(F)c(F)c4F)c4nc(c(-c5c(F)c(F)c(F)c(F)c5F)c5ccc2[nH]5)C=C4)C=C3)cc1)c1ccc(NC(=O)[C@@H]2CC=CC[C@@H]2C(=O)Nc2ccc(Br)cc2)cc1
REMARK SMILES IDX 5 1 4 2 3 3 1 4 2 5 76 7 77 8 100 9 78 10 99 11 79 12 80 13
REMARK SMILES IDX 81 14 82 16 83 17 84 18 88 19 85 20 87 21 86 22 89 23 90 24
REMARK SMILES IDX 91 25 92 27 93 28 98 29 94 30 97 31 95 32 96 33 6 34 7 35
REMARK SMILES IDX 8 36 9 37 10 38 11 39 12 41 13 42 14 43 75 44 15 45 74 46
REMARK SMILES IDX 16 47 17 48 18 49 68 50 19 51 73 52 67 53 69 54 20 55 72 56
REMARK SMILES IDX 66 57 65 58 21 60 53 61 33 62 52 63 34 64 37 65 51 66 70 67
REMARK SMILES IDX 35 68 36 69 50 71 71 72 38 73 22 74 23 75 31 76 24 77 25 78
REMARK SMILES IDX 29 79 32 80 26 81 27 82 30 83 28 84 54 85 55 86 63 87 56 88
REMARK SMILES IDX 57 89 61 90 64 91 58 92 59 93 62 94 60 95 39 96 40 97 48 98
REMARK SMILES IDX 41 99 42 100 46 101 49 102 43 103 44 104 47 105 45 106
REMARK H PARENT 3 6 80 15 91 26 10 40 69 59 37 70
REMARK Flexibility Score: inf
ROOT
ATOM      1  C   UNL A   1      35.532  31.739  28.095  1.00  0.00     0.021 C 
ENDROOT
BRANCH   1   2
ATOM      2  C   UNL A   1      34.438  30.778  27.647  1.00  0.00     0.116 C 
BRANCH   2   3
ATOM      3  N   UNL A   1      33.184  31.422  27.290  1.00  0.00    -0.352 N 
ATOM      4  O   UNL A   1      31.093  31.503  26.395  1.00  0.00    -0.269 OA
ATOM      5  C   UNL A   1      32.088  30.845  26.687  1.00  0.00     0.251 C 
ATOM      6  H   UNL A   1      33.110  32.380  27.504  1.00  0.00     0.163 HD
BRANCH   5   7
ATOM      7  C   UNL A   1      32.161  29.413  26.335  1.00  0.00     0.039 A 
ATOM      8  C   UNL A   1      32.300  29.022  25.002  1.00  0.00     0.016 A 
ATOM      9  C   UNL A   1      31.908  28.466  27.324  1.00  0.00     0.016 A 
ATOM     10  C   UNL A   1      32.012  27.706  24.632  1.00  0.00     0.027 A 
ATOM     11  C   UNL A   1      31.672  27.142  26.949  1.00  0.00     0.027 A 
ATOM     12  C   UNL A   1      31.665  26.761  25.595  1.00  0.00     0.041 A 
BRANCH  12  13
ATOM     13  N   UNL A   1      31.179  25.473  25.330  1.00  0.00    -0.326 N 
ATOM     14  C   UNL A   1      31.715  24.231  25.222  1.00  0.00     0.228 C 
ATOM     15  H   UNL A   1      30.205  25.469  25.187  1.00  0.00     0.169 HD
ATOM     16  O   UNL A   1      31.038  23.426  24.570  1.00  0.00    -0.274 OA
BRANCH  14  17
ATOM     17  C   UNL A   1      33.073  23.820  25.770  1.00  0.00     0.095 C 
ATOM     18  C   UNL A   1      34.183  24.669  25.108  1.00  0.00     0.041 C 
ATOM     19  C   UNL A   1      33.446  22.316  25.740  1.00  0.00     0.095 C 
ATOM     20  C   UNL A   1      35.559  24.284  25.563  1.00  0.00    -0.030 C 
ATOM     21  C   UNL A   1      34.745  22.142  26.565  1.00  0.00     0.041 C 
ATOM     22  C   UNL A   1      35.808  23.158  26.246  1.00  0.00    -0.030 C 
BRANCH  19  23
ATOM     23  C   UNL A   1      33.604  21.654  24.353  1.00  0.00     0.228 C 
ATOM     24  O   UNL A   1      33.274  22.195  23.300  1.00  0.00    -0.274 OA
ATOM     25  N   UNL A   1      34.410  20.536  24.346  1.00  0.00    -0.326 N 
ATOM     26  H   UNL A   1      35.378  20.673  24.226  1.00  0.00     0.169 HD
BRANCH  25  27
ATOM     27  C   UNL A   1      33.955  19.221  24.497  1.00  0.00     0.041 A 
ATOM     28  C   UNL A   1      34.903  18.192  24.506  1.00  0.00     0.027 A 
ATOM     29  C   UNL A   1      32.607  18.923  24.702  1.00  0.00     0.027 A 
ATOM     30  C   UNL A   1      34.514  16.887  24.811  1.00  0.00     0.018 A 
ATOM     31  C   UNL A   1      32.215  17.616  25.000  1.00  0.00     0.018 A 
ATOM     32  C   UNL A   1      33.173  16.608  25.074  1.00  0.00     0.018 A 
ATOM     33  Br  UNL A   1      32.654  14.856  25.557  1.00  0.00    -0.051 Br
ENDBRANCH  25  27
ENDBRANCH  19  23
ENDBRANCH  14  17
ENDBRANCH  12  13
ENDBRANCH   5   7
ENDBRANCH   2   3
ENDBRANCH   1   2
BRANCH   1  34
ATOM     34  C   UNL A   1      35.204  33.226  27.982  1.00  0.00     0.002 C 
BRANCH  34  35
ATOM     35  C   UNL A   1      34.650  33.897  29.240  1.00  0.00     0.002 C 
BRANCH  35  36
ATOM     36  C   UNL A   1      33.335  34.668  29.088  1.00  0.00     0.021 C 
BRANCH  36  37
ATOM     37  C   UNL A   1      33.311  36.083  29.655  1.00  0.00     0.116 C 
BRANCH  37  38
ATOM     38  N   UNL A   1      32.426  36.229  30.794  1.00  0.00    -0.352 N 
ATOM     39  C   UNL A   1      32.563  35.771  32.080  1.00  0.00     0.251 C 
ATOM     40  H   UNL A   1      31.600  36.735  30.618  1.00  0.00     0.163 HD
ATOM     41  O   UNL A   1      31.644  35.918  32.881  1.00  0.00    -0.269 OA
BRANCH  39  42
ATOM     42  C   UNL A   1      33.794  35.069  32.509  1.00  0.00     0.039 A 
ATOM     43  C   UNL A   1      33.688  33.743  32.941  1.00  0.00     0.014 A 
ATOM     44  C   UNL A   1      35.038  35.707  32.525  1.00  0.00     0.014 A 
ATOM     45  C   UNL A   1      34.829  33.038  33.329  1.00  0.00     0.010 A 
ATOM     46  C   UNL A   1      36.186  34.988  32.860  1.00  0.00     0.010 A 
ATOM     47  C   UNL A   1      36.093  33.647  33.263  1.00  0.00    -0.014 A 
BRANCH  47  48
ATOM     48  C   UNL A   1      37.324  32.893  33.611  1.00  0.00     0.031 A 
ATOM     49  C   UNL A   1      38.048  33.174  34.896  1.00  0.00     0.074 A 
ATOM     50  C   UNL A   1      37.825  31.999  32.737  1.00  0.00     0.049 A 
ATOM     51  N   UNL A   1      39.176  32.674  35.337  1.00  0.00    -0.248 NA
ATOM     52  C   UNL A   1      37.437  34.165  35.794  1.00  0.00     0.031 C 
ATOM     53  C   UNL A   1      37.236  31.662  31.441  1.00  0.00     0.029 A 
ATOM     54  N   UNL A   1      38.952  31.218  32.806  1.00  0.00    -0.354 N 
ATOM     55  C   UNL A   1      39.421  33.305  36.549  1.00  0.00     0.074 A 
ATOM     56  C   UNL A   1      38.340  34.246  36.761  1.00  0.00     0.031 C 
ATOM     57  C   UNL A   1      37.997  30.730  30.843  1.00  0.00     0.029 A 
ATOM     58  C   UNL A   1      39.141  30.428  31.699  1.00  0.00     0.049 A 
ATOM     59  H   UNL A   1      39.566  31.224  33.575  1.00  0.00     0.167 HD
ATOM     60  C   UNL A   1      40.446  33.109  37.411  1.00  0.00     0.037 A 
ATOM     61  C   UNL A   1      40.128  29.560  31.406  1.00  0.00     0.037 A 
ATOM     62  C   UNL A   1      41.496  32.144  37.224  1.00  0.00     0.049 A 
ATOM     63  C   UNL A   1      41.245  29.350  32.389  1.00  0.00     0.074 A 
ATOM     64  C   UNL A   1      42.531  31.815  38.082  1.00  0.00     0.029 A 
ATOM     65  N   UNL A   1      41.644  31.349  36.097  1.00  0.00    -0.354 N 
ATOM     66  N   UNL A   1      41.433  29.909  33.559  1.00  0.00    -0.248 NA
ATOM     67  C   UNL A   1      42.288  28.385  32.009  1.00  0.00     0.031 C 
ATOM     68  C   UNL A   1      43.323  30.842  37.462  1.00  0.00     0.029 A 
ATOM     69  C   UNL A   1      42.763  30.544  36.231  1.00  0.00     0.049 A 
ATOM     70  H   UNL A   1      41.043  31.356  35.318  1.00  0.00     0.167 HD
ATOM     71  C   UNL A   1      42.597  29.349  34.065  1.00  0.00     0.074 A 
ATOM     72  C   UNL A   1      43.071  28.401  33.079  1.00  0.00     0.031 C 
ATOM     73  C   UNL A   1      43.216  29.599  35.244  1.00  0.00     0.037 A 
BRANCH  60  74
ATOM     74  C   UNL A   1      40.483  33.961  38.644  1.00  0.00     0.064 A 
ATOM     75  C   UNL A   1      41.225  35.149  38.693  1.00  0.00     0.173 A 
ATOM     76  C   UNL A   1      39.738  33.601  39.777  1.00  0.00     0.173 A 
ATOM     77  F   UNL A   1      41.963  35.528  37.639  1.00  0.00    -0.203 F 
ATOM     78  C   UNL A   1      41.240  35.936  39.841  1.00  0.00     0.198 A 
ATOM     79  C   UNL A   1      39.737  34.402  40.916  1.00  0.00     0.198 A 
ATOM     80  F   UNL A   1      39.009  32.476  39.777  1.00  0.00    -0.203 F 
ATOM     81  F   UNL A   1      41.987  37.048  39.881  1.00  0.00    -0.200 F 
ATOM     82  C   UNL A   1      40.492  35.565  40.950  1.00  0.00     0.200 A 
ATOM     83  F   UNL A   1      39.008  34.047  41.983  1.00  0.00    -0.200 F 
ATOM     84  F   UNL A   1      40.505  36.325  42.053  1.00  0.00    -0.200 F 
ENDBRANCH  60  74
BRANCH  61  85
ATOM     85  C   UNL A   1      40.085  28.798  30.134  1.00  0.00     0.064 A 
ATOM     86  C   UNL A   1      40.676  29.314  28.972  1.00  0.00     0.173 A 
ATOM     87  C   UNL A   1      39.460  27.546  30.052  1.00  0.00     0.173 A 
ATOM     88  F   UNL A   1      41.266  30.518  29.001  1.00  0.00    -0.203 F 
ATOM     89  C   UNL A   1      40.635  28.610  27.773  1.00  0.00     0.198 A 
ATOM     90  C   UNL A   1      39.437  26.834  28.856  1.00  0.00     0.198 A 
ATOM     91  F   UNL A   1      38.883  27.012  31.138  1.00  0.00    -0.203 F 
ATOM     92  F   UNL A   1      41.180  29.138  26.668  1.00  0.00    -0.200 F 
ATOM     93  C   UNL A   1      40.020  27.368  27.716  1.00  0.00     0.200 A 
ATOM     94  F   UNL A   1      38.850  25.629  28.806  1.00  0.00    -0.200 F 
ATOM     95  F   UNL A   1      39.984  26.688  26.561  1.00  0.00    -0.200 F 
ENDBRANCH  61  85
BRANCH  73  96
ATOM     96  C   UNL A   1      44.456  28.814  35.546  1.00  0.00     0.064 A 
ATOM     97  C   UNL A   1      44.397  27.581  36.212  1.00  0.00     0.173 A 
ATOM     98  C   UNL A   1      45.712  29.283  35.133  1.00  0.00     0.173 A 
ATOM     99  F   UNL A   1      43.220  27.103  36.642  1.00  0.00    -0.203 F 
ATOM    100  C   UNL A   1      45.555  26.853  36.468  1.00  0.00     0.198 A 
ATOM    101  C   UNL A   1      46.865  28.542  35.372  1.00  0.00     0.198 A 
ATOM    102  F   UNL A   1      45.817  30.455  34.489  1.00  0.00    -0.203 F 
ATOM    103  F   UNL A   1      45.482  25.694  37.137  1.00  0.00    -0.200 F 
ATOM    104  C   UNL A   1      46.788  27.330  36.043  1.00  0.00     0.200 A 
ATOM    105  F   UNL A   1      48.053  29.001  34.954  1.00  0.00    -0.200 F 
ATOM    106  F   UNL A   1      47.900  26.626  36.287  1.00  0.00    -0.200 F 
ENDBRANCH  73  96
ENDBRANCH  47  48
ENDBRANCH  39  42
ENDBRANCH  37  38
ENDBRANCH  36  37
ENDBRANCH  35  36
ENDBRANCH  34  35
ENDBRANCH   1  34
TORSDOF 17
ENDMDL
MODEL 2
REMARK VINA RESULT:     -13.0      3.614      5.578
REMARK SMILES O=C(NCCCCCCNC(=O)c1ccc(-c2c3nc(c(-c4c(F)c(F)c(F)c(F)c4F)c4ccc([nH]4)c(-c4c(F)c(F)c(F)c(F)c4F)c4nc(c(-c5c(F)c(F)c(F)c(F)c5F)c5ccc2[nH]5)C=C4)C=C3)cc1)c1ccc(NC(=O)[C@@H]2CC=CC[C@@H]2C(=O)Nc2ccc(Br)cc2)cc1
REMARK SMILES IDX 5 1 4 2 3 3 1 4 2 5 76 7 77 8 100 9 78 10 99 11 79 12 80 13
REMARK SMILES IDX 81 14 82 16 83 17 84 18 88 19 85 20 87 21 86 22 89 23 90 24
REMARK SMILES IDX 91 25 92 27 93 28 98 29 94 30 97 31 95 32 96 33 6 34 7 35
REMARK SMILES IDX 8 36 9 37 10 38 11 39 12 41 13 42 14 43 75 44 15 45 74 46
REMARK SMILES IDX 16 47 17 48 18 49 68 50 19 51 73 52 67 53 69 54 20 55 72 56
REMARK SMILES IDX 66 57 65 58 21 60 53 61 33 62 52 63 34 64 37 65 51 66 70 67
REMARK SMILES IDX 35 68 36 69 50 71 71 72 38 73 22 74 23 75 31 76 24 77 25 78
REMARK SMILES IDX 29 79 32 80 26 81 27 82 30 83 28 84 54 85 55 86 63 87 56 88
REMARK SMILES IDX 57 89 61 90 64 91 58 92 59 93 62 94 60 95 39 96 40 97 48 98
REMARK SMILES IDX 41 99 42 100 46 101 49 102 43 103 44 104 47 105 45 106
REMARK H PARENT 3 6 80 15 91 26 10 40 69 59 37 70
REMARK Flexibility Score: inf
ROOT
ATOM      1  C   UNL A   1      31.721  29.118  23.298  1.00  0.00     0.021 C 
ENDROOT
BRANCH   1   2
ATOM      2  C   UNL A   1      31.018  28.114  22.394  1.00  0.00     0.116 C 
BRANCH   2   3
ATOM      3  N   UNL A   1      29.623  27.880  22.729  1.00  0.00    -0.352 N 
ATOM      4  O   UNL A   1      27.914  26.862  23.836  1.00  0.00    -0.269 OA
ATOM      5  C   UNL A   1      29.122  27.004  23.668  1.00  0.00     0.251 C 
ATOM      6  H   UNL A   1      28.959  28.408  22.229  1.00  0.00     0.163 HD
BRANCH   5   7
ATOM      7  C   UNL A   1      30.080  26.180  24.432  1.00  0.00     0.039 A 
ATOM      8  C   UNL A   1      30.368  24.877  24.025  1.00  0.00     0.016 A 
ATOM      9  C   UNL A   1      30.547  26.657  25.654  1.00  0.00     0.016 A 
ATOM     10  C   UNL A   1      30.974  23.990  24.918  1.00  0.00     0.027 A 
ATOM     11  C   UNL A   1      31.198  25.776  26.519  1.00  0.00     0.027 A 
ATOM     12  C   UNL A   1      31.367  24.420  26.183  1.00  0.00     0.041 A 
BRANCH  12  13
ATOM     13  N   UNL A   1      31.810  23.589  27.222  1.00  0.00    -0.326 N 
ATOM     14  C   UNL A   1      32.932  22.873  27.488  1.00  0.00     0.228 C 
ATOM     15  H   UNL A   1      31.139  23.504  27.937  1.00  0.00     0.169 HD
ATOM     16  O   UNL A   1      32.780  21.944  28.291  1.00  0.00    -0.274 OA
BRANCH  14  17
ATOM     17  C   UNL A   1      34.283  23.096  26.825  1.00  0.00     0.095 C 
ATOM     18  C   UNL A   1      34.206  24.315  25.877  1.00  0.00     0.041 C 
ATOM     19  C   UNL A   1      34.952  21.894  26.114  1.00  0.00     0.095 C 
ATOM     20  C   UNL A   1      35.491  24.566  25.148  1.00  0.00    -0.030 C 
ATOM     21  C   UNL A   1      36.398  22.314  25.749  1.00  0.00     0.041 C 
ATOM     22  C   UNL A   1      36.492  23.676  25.114  1.00  0.00    -0.030 C 
BRANCH  19  23
ATOM     23  C   UNL A   1      34.236  21.319  24.870  1.00  0.00     0.228 C 
ATOM     24  O   UNL A   1      33.445  21.962  24.185  1.00  0.00    -0.274 OA
ATOM     25  N   UNL A   1      34.764  20.133  24.409  1.00  0.00    -0.326 N 
ATOM     26  H   UNL A   1      35.511  20.185  23.770  1.00  0.00     0.169 HD
BRANCH  25  27
ATOM     27  C   UNL A   1      34.317  18.860  24.781  1.00  0.00     0.041 A 
ATOM     28  C   UNL A   1      33.032  18.744  25.323  1.00  0.00     0.027 A 
ATOM     29  C   UNL A   1      35.085  17.715  24.568  1.00  0.00     0.027 A 
ATOM     30  C   UNL A   1      32.486  17.481  25.561  1.00  0.00     0.018 A 
ATOM     31  C   UNL A   1      34.542  16.451  24.814  1.00  0.00     0.018 A 
ATOM     32  C   UNL A   1      33.239  16.340  25.288  1.00  0.00     0.018 A 
ATOM     33  Br  UNL A   1      32.476  14.629  25.542  1.00  0.00    -0.051 Br
ENDBRANCH  25  27
ENDBRANCH  19  23
ENDBRANCH  14  17
ENDBRANCH  12  13
ENDBRANCH   5   7
ENDBRANCH   2   3
ENDBRANCH   1   2
BRANCH   1  34
ATOM     34  C   UNL A   1      33.219  28.901  23.501  1.00  0.00     0.002 C 
BRANCH  34  35
ATOM     35  C   UNL A   1      33.620  27.765  24.444  1.00  0.00     0.002 C 
BRANCH  35  36
ATOM     36  C   UNL A   1      34.364  28.162  25.723  1.00  0.00     0.021 C 
BRANCH  36  37
ATOM     37  C   UNL A   1      33.497  28.564  26.912  1.00  0.00     0.116 C 
BRANCH  37  38
ATOM     38  N   UNL A   1      33.470  29.995  27.144  1.00  0.00    -0.352 N 
ATOM     39  C   UNL A   1      34.400  30.808  27.743  1.00  0.00     0.251 C 
ATOM     40  H   UNL A   1      32.661  30.455  26.822  1.00  0.00     0.163 HD
ATOM     41  O   UNL A   1      34.142  31.994  27.931  1.00  0.00    -0.269 OA
BRANCH  39  42
ATOM     42  C   UNL A   1      35.702  30.266  28.197  1.00  0.00     0.039 A 
ATOM     43  C   UNL A   1      36.790  30.329  27.320  1.00  0.00     0.014 A 
ATOM     44  C   UNL A   1      35.854  29.671  29.452  1.00  0.00     0.014 A 
ATOM     45  C   UNL A   1      38.040  29.853  27.719  1.00  0.00     0.010 A 
ATOM     46  C   UNL A   1      37.115  29.246  29.873  1.00  0.00     0.010 A 
ATOM     47  C   UNL A   1      38.220  29.334  29.011  1.00  0.00    -0.014 A 
BRANCH  47  48
ATOM     48  C   UNL A   1      39.556  28.882  29.477  1.00  0.00     0.031 A 
ATOM     49  C   UNL A   1      40.350  29.722  30.435  1.00  0.00     0.074 A 
ATOM     50  C   UNL A   1      40.080  27.742  28.985  1.00  0.00     0.049 A 
ATOM     51  N   UNL A   1      41.561  29.531  30.895  1.00  0.00    -0.248 NA
ATOM     52  C   UNL A   1      39.707  30.951  30.923  1.00  0.00     0.031 C 
ATOM     53  C   UNL A   1      39.425  26.857  28.023  1.00  0.00     0.029 A 
ATOM     54  N   UNL A   1      41.291  27.142  29.222  1.00  0.00    -0.354 N 
ATOM     55  C   UNL A   1      41.834  30.624  31.706  1.00  0.00     0.074 A 
ATOM     56  C   UNL A   1      40.674  31.490  31.653  1.00  0.00     0.031 C 
ATOM     57  C   UNL A   1      40.235  25.817  27.763  1.00  0.00     0.029 A 
ATOM     58  C   UNL A   1      41.475  25.978  28.517  1.00  0.00     0.049 A 
ATOM     59  H   UNL A   1      41.964  27.510  29.839  1.00  0.00     0.167 HD
ATOM     60  C   UNL A   1      42.945  30.876  32.437  1.00  0.00     0.037 A 
ATOM     61  C   UNL A   1      42.527  25.139  28.479  1.00  0.00     0.037 A 
ATOM     62  C   UNL A   1      44.080  29.997  32.526  1.00  0.00     0.049 A 
ATOM     63  C   UNL A   1      43.741  25.435  29.314  1.00  0.00     0.074 A 
ATOM     64  C   UNL A   1      45.215  30.128  33.307  1.00  0.00     0.029 A 
ATOM     65  N   UNL A   1      44.222  28.818  31.811  1.00  0.00    -0.354 N 
ATOM     66  N   UNL A   1      43.962  26.442  30.122  1.00  0.00    -0.248 NA
ATOM     67  C   UNL A   1      44.851  24.475  29.230  1.00  0.00     0.031 C 
ATOM     68  C   UNL A   1      46.059  29.044  33.041  1.00  0.00     0.029 A 
ATOM     69  C   UNL A   1      45.434  28.222  32.117  1.00  0.00     0.049 A 
ATOM     70  H   UNL A   1      43.559  28.458  31.178  1.00  0.00     0.167 HD
ATOM     71  C   UNL A   1      45.223  26.226  30.662  1.00  0.00     0.074 A 
ATOM     72  C   UNL A   1      45.717  24.989  30.094  1.00  0.00     0.031 C 
ATOM     73  C   UNL A   1      45.907  26.986  31.550  1.00  0.00     0.037 A 
BRANCH  60  74
ATOM     74  C   UNL A   1      42.989  32.164  33.204  1.00  0.00     0.064 A 
ATOM     75  C   UNL A   1      43.480  33.344  32.627  1.00  0.00     0.173 A 
ATOM     76  C   UNL A   1      42.501  32.224  34.517  1.00  0.00     0.173 A 
ATOM     77  F   UNL A   1      43.969  33.333  31.379  1.00  0.00    -0.203 F 
ATOM     78  C   UNL A   1      43.502  34.535  33.348  1.00  0.00     0.198 A 
ATOM     79  C   UNL A   1      42.504  33.422  35.227  1.00  0.00     0.198 A 
ATOM     80  F   UNL A   1      42.017  31.123  35.109  1.00  0.00    -0.203 F 
ATOM     81  F   UNL A   1      44.013  35.643  32.793  1.00  0.00    -0.200 F 
ATOM     82  C   UNL A   1      43.011  34.575  34.645  1.00  0.00     0.200 A 
ATOM     83  F   UNL A   1      42.021  33.460  36.476  1.00  0.00    -0.200 F 
ATOM     84  F   UNL A   1      43.031  35.722  35.336  1.00  0.00    -0.200 F 
ENDBRANCH  60  74
BRANCH  61  85
ATOM     85  C   UNL A   1      42.463  23.916  27.642  1.00  0.00     0.064 A 
ATOM     86  C   UNL A   1      41.996  22.708  28.177  1.00  0.00     0.173 A 
ATOM     87  C   UNL A   1      42.863  23.928  26.298  1.00  0.00     0.173 A 
ATOM     88  F   UNL A   1      41.624  22.646  29.463  1.00  0.00    -0.203 F 
ATOM     89  C   UNL A   1      41.939  21.554  27.401  1.00  0.00     0.198 A 
ATOM     90  C   UNL A   1      42.788  22.777  25.518  1.00  0.00     0.198 A 
ATOM     91  F   UNL A   1      43.316  25.061  25.743  1.00  0.00    -0.203 F 
ATOM     92  F   UNL A   1      41.518  20.403  27.944  1.00  0.00    -0.200 F 
ATOM     93  C   UNL A   1      42.331  21.590  26.071  1.00  0.00     0.200 A 
ATOM     94  F   UNL A   1      43.158  22.817  24.230  1.00  0.00    -0.200 F 
ATOM     95  F   UNL A   1      42.273  20.479  25.323  1.00  0.00    -0.200 F 
ENDBRANCH  61  85
BRANCH  73  96
ATOM     96  C   UNL A   1      47.251  26.486  31.986  1.00  0.00     0.064 A 
ATOM     97  C   UNL A   1      47.392  25.636  33.091  1.00  0.00     0.173 A 
ATOM     98  C   UNL A   1      48.404  26.834  31.267  1.00  0.00     0.173 A 
ATOM     99  F   UNL A   1      46.318  25.293  33.819  1.00  0.00    -0.203 F 
ATOM    100  C   UNL A   1      48.644  25.163  33.473  1.00  0.00     0.198 A 
ATOM    101  C   UNL A   1      49.653  26.342  31.639  1.00  0.00     0.198 A 
ATOM    102  F   UNL A   1      48.319  27.642  30.200  1.00  0.00    -0.203 F 
ATOM    103  F   UNL A   1      48.762  24.380  34.554  1.00  0.00    -0.200 F 
ATOM    104  C   UNL A   1      49.772  25.512  32.744  1.00  0.00     0.200 A 
ATOM    105  F   UNL A   1      50.740  26.674  30.930  1.00  0.00    -0.200 F 
ATOM    106  F   UNL A   1      50.976  25.052  33.110  1.00  0.00    -0.200 F 
ENDBRANCH  73  96
ENDBRANCH  47  48
ENDBRANCH  39  42
ENDBRANCH  37  38
ENDBRANCH  36  37
ENDBRANCH  35  36
ENDBRANCH  34  35
ENDBRANCH   1  34
TORSDOF 17
ENDMDL
MODEL 3
REMARK VINA RESULT:     -12.9      2.281      4.051
REMARK SMILES O=C(NCCCCCCNC(=O)c1ccc(-c2c3nc(c(-c4c(F)c(F)c(F)c(F)c4F)c4ccc([nH]4)c(-c4c(F)c(F)c(F)c(F)c4F)c4nc(c(-c5c(F)c(F)c(F)c(F)c5F)c5ccc2[nH]5)C=C4)C=C3)cc1)c1ccc(NC(=O)[C@@H]2CC=CC[C@@H]2C(=O)Nc2ccc(Br)cc2)cc1
REMARK SMILES IDX 5 1 4 2 3 3 1 4 2 5 76 7 77 8 100 9 78 10 99 11 79 12 80 13
REMARK SMILES IDX 81 14 82 16 83 17 84 18 88 19 85 20 87 21 86 22 89 23 90 24
REMARK SMILES IDX 91 25 92 27 93 28 98 29 94 30 97 31 95 32 96 33 6 34 7 35
REMARK SMILES IDX 8 36 9 37 10 38 11 39 12 41 13 42 14 43 75 44 15 45 74 46
REMARK SMILES IDX 16 47 17 48 18 49 68 50 19 51 73 52 67 53 69 54 20 55 72 56
REMARK SMILES IDX 66 57 65 58 21 60 53 61 33 62 52 63 34 64 37 65 51 66 70 67
REMARK SMILES IDX 35 68 36 69 50 71 71 72 38 73 22 74 23 75 31 76 24 77 25 78
REMARK SMILES IDX 29 79 32 80 26 81 27 82 30 83 28 84 54 85 55 86 63 87 56 88
REMARK SMILES IDX 57 89 61 90 64 91 58 92 59 93 62 94 60 95 39 96 40 97 48 98
REMARK SMILES IDX 41 99 42 100 46 101 49 102 43 103 44 104 47 105 45 106
REMARK H PARENT 3 6 80 15 91 26 10 40 69 59 37 70
REMARK Flexibility Score: inf
ROOT
ATOM      1  C   UNL A   1      34.533  32.303  29.100  1.00  0.00     0.021 C 
ENDROOT
BRANCH   1   2
ATOM      2  C   UNL A   1      34.092  31.647  27.798  1.00  0.00     0.116 C 
BRANCH   2   3
ATOM      3  N   UNL A   1      32.807  32.109  27.300  1.00  0.00    -0.352 N 
ATOM      4  O   UNL A   1      30.837  31.898  26.180  1.00  0.00    -0.269 OA
ATOM      5  C   UNL A   1      31.876  31.387  26.585  1.00  0.00     0.251 C 
ATOM      6  H   UNL A   1      32.573  33.046  27.496  1.00  0.00     0.163 HD
BRANCH   5   7
ATOM      7  C   UNL A   1      32.190  29.982  26.255  1.00  0.00     0.039 A 
ATOM      8  C   UNL A   1      32.168  29.004  27.251  1.00  0.00     0.016 A 
ATOM      9  C   UNL A   1      32.679  29.685  24.986  1.00  0.00     0.016 A 
ATOM     10  C   UNL A   1      32.799  27.777  27.031  1.00  0.00     0.027 A 
ATOM     11  C   UNL A   1      33.262  28.436  24.760  1.00  0.00     0.027 A 
ATOM     12  C   UNL A   1      33.379  27.492  25.797  1.00  0.00     0.041 A 
BRANCH  12  13
ATOM     13  N   UNL A   1      34.192  26.384  25.519  1.00  0.00    -0.326 N 
ATOM     14  C   UNL A   1      34.134  25.049  25.749  1.00  0.00     0.228 C 
ATOM     15  H   UNL A   1      35.011  26.641  25.034  1.00  0.00     0.169 HD
ATOM     16  O   UNL A   1      35.226  24.467  25.726  1.00  0.00    -0.274 OA
BRANCH  14  17
ATOM     17  C   UNL A   1      32.868  24.280  26.092  1.00  0.00     0.095 C 
ATOM     18  C   UNL A   1      33.002  22.813  25.622  1.00  0.00     0.041 C 
ATOM     19  C   UNL A   1      31.510  24.874  25.641  1.00  0.00     0.095 C 
ATOM     20  C   UNL A   1      31.768  22.003  25.882  1.00  0.00    -0.030 C 
ATOM     21  C   UNL A   1      30.390  24.045  26.318  1.00  0.00     0.041 C 
ATOM     22  C   UNL A   1      30.596  22.556  26.225  1.00  0.00    -0.030 C 
BRANCH  19  23
ATOM     23  C   UNL A   1      31.251  24.974  24.121  1.00  0.00     0.228 C 
ATOM     24  O   UNL A   1      32.043  24.578  23.269  1.00  0.00    -0.274 OA
ATOM     25  N   UNL A   1      29.948  25.271  23.785  1.00  0.00    -0.326 N 
ATOM     26  H   UNL A   1      29.320  24.518  23.691  1.00  0.00     0.169 HD
BRANCH  25  27
ATOM     27  C   UNL A   1      29.451  26.561  23.567  1.00  0.00     0.041 A 
ATOM     28  C   UNL A   1      30.328  27.529  23.063  1.00  0.00     0.027 A 
ATOM     29  C   UNL A   1      28.110  26.882  23.777  1.00  0.00     0.027 A 
ATOM     30  C   UNL A   1      29.840  28.781  22.683  1.00  0.00     0.018 A 
ATOM     31  C   UNL A   1      27.623  28.138  23.404  1.00  0.00     0.018 A 
ATOM     32  C   UNL A   1      28.486  29.072  22.839  1.00  0.00     0.018 A 
ATOM     33  Br  UNL A   1      27.811  30.740  22.260  1.00  0.00    -0.051 Br
ENDBRANCH  25  27
ENDBRANCH  19  23
ENDBRANCH  14  17
ENDBRANCH  12  13
ENDBRANCH   5   7
ENDBRANCH   2   3
ENDBRANCH   1   2
BRANCH   1  34
ATOM     34  C   UNL A   1      35.360  33.579  28.961  1.00  0.00     0.002 C 
BRANCH  34  35
ATOM     35  C   UNL A   1      34.737  34.706  28.134  1.00  0.00     0.002 C 
BRANCH  35  36
ATOM     36  C   UNL A   1      33.919  35.750  28.899  1.00  0.00     0.021 C 
BRANCH  36  37
ATOM     37  C   UNL A   1      32.680  35.238  29.626  1.00  0.00     0.116 C 
BRANCH  37  38
ATOM     38  N   UNL A   1      32.341  36.019  30.800  1.00  0.00    -0.352 N 
ATOM     39  C   UNL A   1      32.895  36.008  32.056  1.00  0.00     0.251 C 
ATOM     40  H   UNL A   1      31.600  36.656  30.677  1.00  0.00     0.163 HD
ATOM     41  O   UNL A   1      32.394  36.685  32.949  1.00  0.00    -0.269 OA
BRANCH  39  42
ATOM     42  C   UNL A   1      34.072  35.162  32.359  1.00  0.00     0.039 A 
ATOM     43  C   UNL A   1      35.347  35.699  32.155  1.00  0.00     0.014 A 
ATOM     44  C   UNL A   1      33.936  33.844  32.804  1.00  0.00     0.014 A 
ATOM     45  C   UNL A   1      36.483  34.943  32.454  1.00  0.00     0.010 A 
ATOM     46  C   UNL A   1      35.068  33.107  33.154  1.00  0.00     0.010 A 
ATOM     47  C   UNL A   1      36.352  33.650  32.984  1.00  0.00    -0.014 A 
BRANCH  47  48
ATOM     48  C   UNL A   1      37.546  32.855  33.367  1.00  0.00     0.031 A 
ATOM     49  C   UNL A   1      38.261  33.133  34.658  1.00  0.00     0.074 A 
ATOM     50  C   UNL A   1      38.023  31.922  32.520  1.00  0.00     0.049 A 
ATOM     51  N   UNL A   1      39.360  32.597  35.127  1.00  0.00    -0.248 NA
ATOM     52  C   UNL A   1      37.677  34.167  35.525  1.00  0.00     0.031 C 
ATOM     53  C   UNL A   1      37.440  31.582  31.222  1.00  0.00     0.029 A 
ATOM     54  N   UNL A   1      39.115  31.097  32.623  1.00  0.00    -0.354 N 
ATOM     55  C   UNL A   1      39.612  33.243  36.330  1.00  0.00     0.074 A 
ATOM     56  C   UNL A   1      38.568  34.231  36.505  1.00  0.00     0.031 C 
ATOM     57  C   UNL A   1      38.172  30.608  30.656  1.00  0.00     0.029 A 
ATOM     58  C   UNL A   1      39.288  30.277  31.536  1.00  0.00     0.049 A 
ATOM     59  H   UNL A   1      39.717  31.095  33.402  1.00  0.00     0.167 HD
ATOM     60  C   UNL A   1      40.615  33.023  37.212  1.00  0.00     0.037 A 
ATOM     61  C   UNL A   1      40.243  29.364  31.277  1.00  0.00     0.037 A 
ATOM     62  C   UNL A   1      41.627  32.013  37.061  1.00  0.00     0.049 A 
ATOM     63  C   UNL A   1      41.336  29.129  32.282  1.00  0.00     0.074 A 
ATOM     64  C   UNL A   1      42.634  31.660  37.943  1.00  0.00     0.029 A 
ATOM     65  N   UNL A   1      41.760  31.189  35.955  1.00  0.00    -0.354 N 
ATOM     66  N   UNL A   1      41.528  29.705  33.443  1.00  0.00    -0.248 NA
ATOM     67  C   UNL A   1      42.343  28.114  31.939  1.00  0.00     0.031 C 
ATOM     68  C   UNL A   1      43.395  30.643  37.356  1.00  0.00     0.029 A 
ATOM     69  C   UNL A   1      42.843  30.341  36.122  1.00  0.00     0.049 A 
ATOM     70  H   UNL A   1      41.171  31.204  35.165  1.00  0.00     0.167 HD
ATOM     71  C   UNL A   1      42.661  29.108  33.980  1.00  0.00     0.074 A 
ATOM     72  C   UNL A   1      43.110  28.121  33.021  1.00  0.00     0.031 C 
ATOM     73  C   UNL A   1      43.271  29.358  35.163  1.00  0.00     0.037 A 
BRANCH  60  74
ATOM     74  C   UNL A   1      40.668  33.899  38.428  1.00  0.00     0.064 A 
ATOM     75  C   UNL A   1      39.981  33.563  39.603  1.00  0.00     0.173 A 
ATOM     76  C   UNL A   1      41.444  35.067  38.428  1.00  0.00     0.173 A 
ATOM     77  F   UNL A   1      39.216  32.463  39.647  1.00  0.00    -0.203 F 
ATOM     78  C   UNL A   1      40.050  34.380  40.729  1.00  0.00     0.198 A 
ATOM     79  C   UNL A   1      41.529  35.870  39.562  1.00  0.00     0.198 A 
ATOM     80  F   UNL A   1      42.124  35.427  37.329  1.00  0.00    -0.203 F 
ATOM     81  F   UNL A   1      39.353  34.063  41.829  1.00  0.00    -0.200 F 
ATOM     82  C   UNL A   1      40.827  35.530  40.710  1.00  0.00     0.200 A 
ATOM     83  F   UNL A   1      42.286  36.975  39.545  1.00  0.00    -0.200 F 
ATOM     84  F   UNL A   1      40.894  36.313  41.794  1.00  0.00    -0.200 F 
ENDBRANCH  60  74
BRANCH  61  85
ATOM     85  C   UNL A   1      40.189  28.577  30.020  1.00  0.00     0.064 A 
ATOM     86  C   UNL A   1      39.513  27.350  29.975  1.00  0.00     0.173 A 
ATOM     87  C   UNL A   1      40.804  29.032  28.845  1.00  0.00     0.173 A 
ATOM     88  F   UNL A   1      38.929  26.867  31.081  1.00  0.00    -0.203 F 
ATOM     89  C   UNL A   1      39.462  26.602  28.802  1.00  0.00     0.198 A 
ATOM     90  C   UNL A   1      40.736  28.292  27.668  1.00  0.00     0.198 A 
ATOM     91  F   UNL A   1      41.461  30.201  28.841  1.00  0.00    -0.203 F 
ATOM     92  F   UNL A   1      38.836  25.417  28.792  1.00  0.00    -0.200 F 
ATOM     93  C   UNL A   1      40.069  27.075  27.649  1.00  0.00     0.200 A 
ATOM     94  F   UNL A   1      41.315  28.756  26.552  1.00  0.00    -0.200 F 
ATOM     95  F   UNL A   1      40.017  26.356  26.518  1.00  0.00    -0.200 F 
ENDBRANCH  61  85
BRANCH  73  96
ATOM     96  C   UNL A   1      44.473  28.529  35.501  1.00  0.00     0.064 A 
ATOM     97  C   UNL A   1      45.767  28.943  35.155  1.00  0.00     0.173 A 
ATOM     98  C   UNL A   1      44.330  27.327  36.209  1.00  0.00     0.173 A 
ATOM     99  F   UNL A   1      45.950  30.076  34.462  1.00  0.00    -0.203 F 
ATOM    100  C   UNL A   1      46.876  28.173  35.494  1.00  0.00     0.198 A 
ATOM    101  C   UNL A   1      45.443  26.570  36.564  1.00  0.00     0.198 A 
ATOM    102  F   UNL A   1      43.112  26.892  36.564  1.00  0.00    -0.203 F 
ATOM    103  F   UNL A   1      48.102  28.568  35.123  1.00  0.00    -0.200 F 
ATOM    104  C   UNL A   1      46.714  26.990  36.202  1.00  0.00     0.200 A 
ATOM    105  F   UNL A   1      45.285  25.432  37.254  1.00  0.00    -0.200 F 
ATOM    106  F   UNL A   1      47.784  26.253  36.530  1.00  0.00    -0.200 F 
ENDBRANCH  73  96
ENDBRANCH  47  48
ENDBRANCH  39  42
ENDBRANCH  37  38
ENDBRANCH  36  37
ENDBRANCH  35  36
ENDBRANCH  34  35
ENDBRANCH   1  34
TORSDOF 17
ENDMDL
