MODEL 1
REMARK VINA RESULT:     -11.5      0.000      0.000
REMARK SMILES O=C(NCCCCCCNC(=O)[C@]1(NC(=O)c2nc(C3CC3)n[nH]2)CCSC1)c1ccc(-c2c3nc(c(-c4c(F)c(F)c(F)c(F)c4F)c4ccc([nH]4)c(-c4c(F)c(F)c(F)c(F)c4F)c4nc(c(-c5c(F)c(F)c(F)c(F)c5F)c5ccc2[nH]5)C=C4)C=C3)cc1
REMARK SMILES IDX 7 1 6 2 5 3 4 4 3 5 1 6 2 7 29 9 30 10 91 11 31 12 90 13
REMARK SMILES IDX 32 14 33 15 34 16 84 17 35 18 89 19 83 20 85 21 36 22 88 23
REMARK SMILES IDX 82 24 81 25 37 27 69 28 49 29 68 30 50 31 53 32 67 33 86 34
REMARK SMILES IDX 51 35 52 36 66 38 87 39 54 40 38 41 39 42 47 43 40 44 41 45
REMARK SMILES IDX 45 46 48 47 42 48 43 49 46 50 44 51 70 52 71 53 79 54 72 55
REMARK SMILES IDX 73 56 77 57 80 58 74 59 75 60 78 61 76 62 55 63 56 64 64 65
REMARK SMILES IDX 57 66 58 67 62 68 65 69 59 70 60 71 63 72 61 73 8 74 9 75
REMARK SMILES IDX 10 76 11 77 12 79 13 80 25 81 28 82 26 83 27 84 14 85 15 86
REMARK SMILES IDX 16 88 17 89 18 90 24 91 19 92 23 93 20 95 21 96 22 97
REMARK H PARENT 3 8 85 26 53 37 10 78 14 87 24 94
REMARK Flexibility Score: inf
ROOT
ATOM      1  C   UNL A   1      32.775  29.854  26.019  1.00  0.00     0.002 C 
ENDROOT
BRANCH   1   2
ATOM      2  C   UNL A   1      31.410  30.540  25.917  1.00  0.00     0.002 C 
BRANCH   2   3
ATOM      3  C   UNL A   1      31.302  31.935  26.535  1.00  0.00     0.021 C 
BRANCH   3   4
ATOM      4  C   UNL A   1      32.623  32.598  26.912  1.00  0.00     0.116 C 
BRANCH   4   5
ATOM      5  N   UNL A   1      32.454  33.911  27.507  1.00  0.00    -0.352 N 
ATOM      6  O   UNL A   1      32.788  35.607  28.946  1.00  0.00    -0.269 OA
ATOM      7  C   UNL A   1      33.159  34.519  28.517  1.00  0.00     0.251 C 
ATOM      8  H   UNL A   1      31.721  34.448  27.129  1.00  0.00     0.163 HD
BRANCH   7   9
ATOM      9  C   UNL A   1      34.347  33.868  29.117  1.00  0.00     0.039 A 
ATOM     10  C   UNL A   1      35.646  34.315  28.857  1.00  0.00     0.014 A 
ATOM     11  C   UNL A   1      34.145  32.812  30.013  1.00  0.00     0.014 A 
ATOM     12  C   UNL A   1      36.739  33.643  29.407  1.00  0.00     0.010 A 
ATOM     13  C   UNL A   1      35.238  32.175  30.610  1.00  0.00     0.010 A 
ATOM     14  C   UNL A   1      36.545  32.572  30.294  1.00  0.00    -0.014 A 
BRANCH  14  15
ATOM     15  C   UNL A   1      37.713  31.911  30.925  1.00  0.00     0.031 A 
ATOM     16  C   UNL A   1      38.132  32.254  32.324  1.00  0.00     0.074 A 
ATOM     17  C   UNL A   1      38.401  30.992  30.222  1.00  0.00     0.049 A 
ATOM     18  N   UNL A   1      39.140  31.791  33.021  1.00  0.00    -0.248 NA
ATOM     19  C   UNL A   1      37.318  33.251  33.034  1.00  0.00     0.031 C 
ATOM     20  C   UNL A   1      38.101  30.586  28.848  1.00  0.00     0.029 A 
ATOM     21  N   UNL A   1      39.488  30.229  30.566  1.00  0.00    -0.354 N 
ATOM     22  C   UNL A   1      39.099  32.457  34.238  1.00  0.00     0.074 A 
ATOM     23  C   UNL A   1      37.970  33.362  34.185  1.00  0.00     0.031 C 
ATOM     24  C   UNL A   1      38.962  29.628  28.476  1.00  0.00     0.029 A 
ATOM     25  C   UNL A   1      39.900  29.383  29.567  1.00  0.00     0.049 A 
ATOM     26  H   UNL A   1      39.930  30.284  31.444  1.00  0.00     0.167 HD
ATOM     27  C   UNL A   1      39.925  32.322  35.302  1.00  0.00     0.037 A 
ATOM     28  C   UNL A   1      40.926  28.512  29.530  1.00  0.00     0.037 A 
ATOM     29  C   UNL A   1      41.035  31.407  35.365  1.00  0.00     0.049 A 
ATOM     30  C   UNL A   1      41.817  28.369  30.728  1.00  0.00     0.074 A 
ATOM     31  C   UNL A   1      41.911  31.179  36.413  1.00  0.00     0.029 A 
ATOM     32  N   UNL A   1      41.419  30.563  34.333  1.00  0.00    -0.354 N 
ATOM     33  N   UNL A   1      41.756  28.993  31.878  1.00  0.00    -0.248 NA
ATOM     34  C   UNL A   1      42.922  27.408  30.621  1.00  0.00     0.031 C 
ATOM     35  C   UNL A   1      42.840  30.214  36.006  1.00  0.00     0.029 A 
ATOM     36  C   UNL A   1      42.526  29.822  34.715  1.00  0.00     0.049 A 
ATOM     37  H   UNL A   1      40.972  30.501  33.458  1.00  0.00     0.167 HD
ATOM     38  C   UNL A   1      42.809  28.502  32.634  1.00  0.00     0.074 A 
ATOM     39  C   UNL A   1      43.484  27.512  31.819  1.00  0.00     0.031 C 
ATOM     40  C   UNL A   1      43.186  28.845  33.888  1.00  0.00     0.037 A 
BRANCH  27  41
ATOM     41  C   UNL A   1      39.672  33.202  36.488  1.00  0.00     0.064 A 
ATOM     42  C   UNL A   1      40.330  34.430  36.643  1.00  0.00     0.173 A 
ATOM     43  C   UNL A   1      38.733  32.829  37.460  1.00  0.00     0.173 A 
ATOM     44  F   UNL A   1      41.245  34.824  35.746  1.00  0.00    -0.203 F 
ATOM     45  C   UNL A   1      40.068  35.247  37.741  1.00  0.00     0.198 A 
ATOM     46  C   UNL A   1      38.461  33.655  38.548  1.00  0.00     0.198 A 
ATOM     47  F   UNL A   1      38.076  31.664  37.354  1.00  0.00    -0.203 F 
ATOM     48  F   UNL A   1      40.732  36.402  37.888  1.00  0.00    -0.200 F 
ATOM     49  C   UNL A   1      39.132  34.860  38.689  1.00  0.00     0.200 A 
ATOM     50  F   UNL A   1      37.552  33.284  39.460  1.00  0.00    -0.200 F 
ATOM     51  F   UNL A   1      38.880  35.649  39.744  1.00  0.00    -0.200 F 
ENDBRANCH  27  41
BRANCH  28  52
ATOM     52  C   UNL A   1      41.145  27.704  28.306  1.00  0.00     0.064 A 
ATOM     53  C   UNL A   1      42.023  28.140  27.307  1.00  0.00     0.173 A 
ATOM     54  C   UNL A   1      40.523  26.459  28.139  1.00  0.00     0.173 A 
ATOM     55  F   UNL A   1      42.626  29.333  27.419  1.00  0.00    -0.203 F 
ATOM     56  C   UNL A   1      42.274  27.357  26.183  1.00  0.00     0.198 A 
ATOM     57  C   UNL A   1      40.789  25.668  27.024  1.00  0.00     0.198 A 
ATOM     58  F   UNL A   1      39.677  26.000  29.074  1.00  0.00    -0.203 F 
ATOM     59  F   UNL A   1      43.107  27.802  25.232  1.00  0.00    -0.200 F 
ATOM     60  C   UNL A   1      41.664  26.119  26.046  1.00  0.00     0.200 A 
ATOM     61  F   UNL A   1      40.209  24.467  26.903  1.00  0.00    -0.200 F 
ATOM     62  F   UNL A   1      41.920  25.358  24.974  1.00  0.00    -0.200 F 
ENDBRANCH  28  52
BRANCH  40  63
ATOM     63  C   UNL A   1      44.378  28.140  34.457  1.00  0.00     0.064 A 
ATOM     64  C   UNL A   1      44.242  26.923  35.139  1.00  0.00     0.173 A 
ATOM     65  C   UNL A   1      45.665  28.668  34.292  1.00  0.00     0.173 A 
ATOM     66  F   UNL A   1      43.027  26.390  35.333  1.00  0.00    -0.203 F 
ATOM     67  C   UNL A   1      45.357  26.263  35.647  1.00  0.00     0.198 A 
ATOM     68  C   UNL A   1      46.779  27.998  34.788  1.00  0.00     0.198 A 
ATOM     69  F   UNL A   1      45.842  29.830  33.647  1.00  0.00    -0.203 F 
ATOM     70  F   UNL A   1      45.206  25.114  36.321  1.00  0.00    -0.200 F 
ATOM     71  C   UNL A   1      46.626  26.798  35.468  1.00  0.00     0.200 A 
ATOM     72  F   UNL A   1      48.004  28.515  34.612  1.00  0.00    -0.200 F 
ATOM     73  F   UNL A   1      47.698  26.161  35.956  1.00  0.00    -0.200 F 
ENDBRANCH  40  63
ENDBRANCH  14  15
ENDBRANCH   7   9
ENDBRANCH   4   5
ENDBRANCH   3   4
ENDBRANCH   2   3
ENDBRANCH   1   2
BRANCH   1  74
ATOM     74  C   UNL A   1      32.811  28.483  26.708  1.00  0.00     0.021 C 
BRANCH  74  75
ATOM     75  C   UNL A   1      33.720  27.430  26.073  1.00  0.00     0.116 C 
BRANCH  75  76
ATOM     76  N   UNL A   1      33.651  27.414  24.629  1.00  0.00    -0.354 N 
ATOM     77  C   UNL A   1      33.141  26.484  23.768  1.00  0.00     0.246 C 
ATOM     78  H   UNL A   1      34.036  28.207  24.192  1.00  0.00     0.163 HD
ATOM     79  O   UNL A   1      33.247  26.761  22.568  1.00  0.00    -0.272 OA
BRANCH  77  80
ATOM     80  C   UNL A   1      32.697  25.056  24.242  1.00  0.00     0.129 C 
ATOM     81  C   UNL A   1      34.003  24.320  24.658  1.00  0.00     0.050 C 
ATOM     82  C   UNL A   1      32.104  24.237  23.070  1.00  0.00     0.108 C 
ATOM     83  C   UNL A   1      34.726  23.856  23.405  1.00  0.00     0.072 C 
ATOM     84  S   UNL A   1      33.408  23.145  22.407  1.00  0.00    -0.159 SA
BRANCH  80  85
ATOM     85  N   UNL A   1      31.791  25.021  25.419  1.00  0.00    -0.334 N 
ATOM     86  C   UNL A   1      30.514  25.501  25.588  1.00  0.00     0.289 C 
ATOM     87  H   UNL A   1      32.169  24.579  26.214  1.00  0.00     0.165 HD
ATOM     88  O   UNL A   1      29.955  25.241  26.655  1.00  0.00    -0.266 OA
BRANCH  86  89
ATOM     89  C   UNL A   1      29.938  26.410  24.635  1.00  0.00     0.214 A 
ATOM     90  N   UNL A   1      30.338  27.620  24.305  1.00  0.00    -0.207 NA
ATOM     91  N   UNL A   1      28.764  26.150  23.993  1.00  0.00    -0.255 N 
ATOM     92  C   UNL A   1      29.271  28.119  23.599  1.00  0.00     0.154 A 
ATOM     93  N   UNL A   1      28.259  27.260  23.434  1.00  0.00    -0.158 NA
ATOM     94  H   UNL A   1      28.341  25.263  23.945  1.00  0.00     0.192 HD
BRANCH  92  95
ATOM     95  C   UNL A   1      29.186  29.553  23.113  1.00  0.00     0.060 C 
ATOM     96  C   UNL A   1      29.854  29.935  21.812  1.00  0.00     0.012 C 
ATOM     97  C   UNL A   1      28.364  29.872  21.889  1.00  0.00     0.012 C 
ENDBRANCH  92  95
ENDBRANCH  86  89
ENDBRANCH  80  85
ENDBRANCH  77  80
ENDBRANCH  75  76
ENDBRANCH  74  75
ENDBRANCH   1  74
TORSDOF 16
ENDMDL
MODEL 2
REMARK VINA RESULT:     -11.5      0.740      7.348
REMARK SMILES O=C(NCCCCCCNC(=O)[C@]1(NC(=O)c2nc(C3CC3)n[nH]2)CCSC1)c1ccc(-c2c3nc(c(-c4c(F)c(F)c(F)c(F)c4F)c4ccc([nH]4)c(-c4c(F)c(F)c(F)c(F)c4F)c4nc(c(-c5c(F)c(F)c(F)c(F)c5F)c5ccc2[nH]5)C=C4)C=C3)cc1
REMARK SMILES IDX 7 1 6 2 5 3 4 4 3 5 1 6 2 7 29 9 30 10 91 11 31 12 90 13
REMARK SMILES IDX 32 14 33 15 34 16 84 17 35 18 89 19 83 20 85 21 36 22 88 23
REMARK SMILES IDX 82 24 81 25 37 27 69 28 49 29 68 30 50 31 53 32 67 33 86 34
REMARK SMILES IDX 51 35 52 36 66 38 87 39 54 40 38 41 39 42 47 43 40 44 41 45
REMARK SMILES IDX 45 46 48 47 42 48 43 49 46 50 44 51 70 52 71 53 79 54 72 55
REMARK SMILES IDX 73 56 77 57 80 58 74 59 75 60 78 61 76 62 55 63 56 64 64 65
REMARK SMILES IDX 57 66 58 67 62 68 65 69 59 70 60 71 63 72 61 73 8 74 9 75
REMARK SMILES IDX 10 76 11 77 12 79 13 80 25 81 28 82 26 83 27 84 14 85 15 86
REMARK SMILES IDX 16 88 17 89 18 90 24 91 19 92 23 93 20 95 21 96 22 97
REMARK H PARENT 3 8 85 26 53 37 10 78 14 87 24 94
REMARK Flexibility Score: inf
ROOT
ATOM      1  C   UNL A   1      32.778  30.050  26.173  1.00  0.00     0.002 C 
ENDROOT
BRANCH   1   2
ATOM      2  C   UNL A   1      31.458  30.808  26.002  1.00  0.00     0.002 C 
BRANCH   2   3
ATOM      3  C   UNL A   1      31.367  32.177  26.678  1.00  0.00     0.021 C 
BRANCH   3   4
ATOM      4  C   UNL A   1      32.674  32.731  27.236  1.00  0.00     0.116 C 
BRANCH   4   5
ATOM      5  N   UNL A   1      32.571  34.112  27.669  1.00  0.00    -0.352 N 
ATOM      6  O   UNL A   1      32.964  35.941  28.916  1.00  0.00    -0.269 OA
ATOM      7  C   UNL A   1      33.277  34.790  28.632  1.00  0.00     0.251 C 
ATOM      8  H   UNL A   1      31.890  34.645  27.198  1.00  0.00     0.163 HD
BRANCH   7   9
ATOM      9  C   UNL A   1      34.396  34.141  29.356  1.00  0.00     0.039 A 
ATOM     10  C   UNL A   1      34.177  33.268  30.425  1.00  0.00     0.014 A 
ATOM     11  C   UNL A   1      35.702  34.376  28.910  1.00  0.00     0.014 A 
ATOM     12  C   UNL A   1      35.261  32.716  31.109  1.00  0.00     0.010 A 
ATOM     13  C   UNL A   1      36.786  33.778  29.558  1.00  0.00     0.010 A 
ATOM     14  C   UNL A   1      36.575  32.959  30.678  1.00  0.00    -0.014 A 
BRANCH  14  15
ATOM     15  C   UNL A   1      37.716  32.312  31.371  1.00  0.00     0.031 A 
ATOM     16  C   UNL A   1      38.493  31.209  30.714  1.00  0.00     0.074 A 
ATOM     17  C   UNL A   1      38.048  32.726  32.608  1.00  0.00     0.049 A 
ATOM     18  N   UNL A   1      39.502  30.518  31.183  1.00  0.00    -0.248 NA
ATOM     19  C   UNL A   1      38.083  30.828  29.355  1.00  0.00     0.031 C 
ATOM     20  C   UNL A   1      37.357  33.777  33.356  1.00  0.00     0.029 A 
ATOM     21  N   UNL A   1      39.052  32.320  33.449  1.00  0.00    -0.354 N 
ATOM     22  C   UNL A   1      39.830  29.604  30.192  1.00  0.00     0.074 A 
ATOM     23  C   UNL A   1      38.910  29.823  29.095  1.00  0.00     0.031 C 
ATOM     24  C   UNL A   1      37.975  33.954  34.533  1.00  0.00     0.029 A 
ATOM     25  C   UNL A   1      39.076  33.003  34.640  1.00  0.00     0.049 A 
ATOM     26  H   UNL A   1      39.692  31.608  33.222  1.00  0.00     0.167 HD
ATOM     27  C   UNL A   1      40.811  28.671  30.196  1.00  0.00     0.037 A 
ATOM     28  C   UNL A   1      39.889  32.871  35.704  1.00  0.00     0.037 A 
ATOM     29  C   UNL A   1      41.742  28.467  31.276  1.00  0.00     0.049 A 
ATOM     30  C   UNL A   1      40.980  31.841  35.677  1.00  0.00     0.074 A 
ATOM     31  C   UNL A   1      42.789  27.565  31.358  1.00  0.00     0.029 A 
ATOM     32  N   UNL A   1      41.736  29.181  32.465  1.00  0.00    -0.354 N 
ATOM     33  N   UNL A   1      41.289  30.995  34.726  1.00  0.00    -0.248 NA
ATOM     34  C   UNL A   1      41.828  31.743  36.872  1.00  0.00     0.031 C 
ATOM     35  C   UNL A   1      43.403  27.717  32.607  1.00  0.00     0.029 A 
ATOM     36  C   UNL A   1      42.754  28.732  33.291  1.00  0.00     0.049 A 
ATOM     37  H   UNL A   1      41.102  29.900  32.690  1.00  0.00     0.167 HD
ATOM     38  C   UNL A   1      42.367  30.265  35.203  1.00  0.00     0.074 A 
ATOM     39  C   UNL A   1      42.673  30.781  36.522  1.00  0.00     0.031 C 
ATOM     40  C   UNL A   1      43.039  29.254  34.603  1.00  0.00     0.037 A 
BRANCH  27  41
ATOM     41  C   UNL A   1      40.921  27.780  28.996  1.00  0.00     0.064 A 
ATOM     42  C   UNL A   1      40.093  26.661  28.836  1.00  0.00     0.173 A 
ATOM     43  C   UNL A   1      41.841  28.072  27.978  1.00  0.00     0.173 A 
ATOM     44  F   UNL A   1      39.208  26.334  29.788  1.00  0.00    -0.203 F 
ATOM     45  C   UNL A   1      40.194  25.854  27.705  1.00  0.00     0.198 A 
ATOM     46  C   UNL A   1      41.927  27.273  26.840  1.00  0.00     0.198 A 
ATOM     47  F   UNL A   1      42.653  29.135  28.084  1.00  0.00    -0.203 F 
ATOM     48  F   UNL A   1      39.415  24.769  27.586  1.00  0.00    -0.200 F 
ATOM     49  C   UNL A   1      41.107  26.164  26.707  1.00  0.00     0.200 A 
ATOM     50  F   UNL A   1      42.805  27.577  25.874  1.00  0.00    -0.200 F 
ATOM     51  F   UNL A   1      41.200  25.387  25.618  1.00  0.00    -0.200 F 
ENDBRANCH  27  41
BRANCH  28  52
ATOM     52  C   UNL A   1      39.695  33.757  36.877  1.00  0.00     0.064 A 
ATOM     53  C   UNL A   1      40.274  35.031  36.915  1.00  0.00     0.173 A 
ATOM     54  C   UNL A   1      38.885  33.369  37.953  1.00  0.00     0.173 A 
ATOM     55  F   UNL A   1      41.069  35.436  35.915  1.00  0.00    -0.203 F 
ATOM     56  C   UNL A   1      40.047  35.888  37.990  1.00  0.00     0.198 A 
ATOM     57  C   UNL A   1      38.643  34.234  39.017  1.00  0.00     0.198 A 
ATOM     58  F   UNL A   1      38.307  32.158  37.955  1.00  0.00    -0.203 F 
ATOM     59  F   UNL A   1      40.623  37.098  38.012  1.00  0.00    -0.200 F 
ATOM     60  C   UNL A   1      39.225  35.492  39.035  1.00  0.00     0.200 A 
ATOM     61  F   UNL A   1      37.838  33.853  40.017  1.00  0.00    -0.200 F 
ATOM     62  F   UNL A   1      38.993  36.324  40.059  1.00  0.00    -0.200 F 
ENDBRANCH  28  52
BRANCH  40  63
ATOM     63  C   UNL A   1      44.174  28.645  35.365  1.00  0.00     0.064 A 
ATOM     64  C   UNL A   1      45.482  29.132  35.230  1.00  0.00     0.173 A 
ATOM     65  C   UNL A   1      43.949  27.591  36.260  1.00  0.00     0.173 A 
ATOM     66  F   UNL A   1      45.746  30.129  34.373  1.00  0.00    -0.203 F 
ATOM     67  C   UNL A   1      46.528  28.573  35.957  1.00  0.00     0.198 A 
ATOM     68  C   UNL A   1      44.995  27.045  36.997  1.00  0.00     0.198 A 
ATOM     69  F   UNL A   1      42.713  27.094  36.421  1.00  0.00    -0.203 F 
ATOM     70  F   UNL A   1      47.777  29.032  35.794  1.00  0.00    -0.200 F 
ATOM     71  C   UNL A   1      46.284  27.534  36.844  1.00  0.00     0.200 A 
ATOM     72  F   UNL A   1      44.757  26.042  37.855  1.00  0.00    -0.200 F 
ATOM     73  F   UNL A   1      47.293  26.999  37.545  1.00  0.00    -0.200 F 
ENDBRANCH  40  63
ENDBRANCH  14  15
ENDBRANCH   7   9
ENDBRANCH   4   5
ENDBRANCH   3   4
ENDBRANCH   2   3
ENDBRANCH   1   2
BRANCH   1  74
ATOM     74  C   UNL A   1      32.704  28.681  26.862  1.00  0.00     0.021 C 
BRANCH  74  75
ATOM     75  C   UNL A   1      33.644  27.601  26.323  1.00  0.00     0.116 C 
BRANCH  75  76
ATOM     76  N   UNL A   1      33.655  27.524  24.879  1.00  0.00    -0.354 N 
ATOM     77  C   UNL A   1      33.237  26.536  24.033  1.00  0.00     0.246 C 
ATOM     78  H   UNL A   1      34.025  28.317  24.430  1.00  0.00     0.163 HD
ATOM     79  O   UNL A   1      33.395  26.770  22.830  1.00  0.00    -0.272 OA
BRANCH  77  80
ATOM     80  C   UNL A   1      32.837  25.108  24.544  1.00  0.00     0.129 C 
ATOM     81  C   UNL A   1      34.145  24.469  25.093  1.00  0.00     0.050 C 
ATOM     82  C   UNL A   1      32.383  24.202  23.373  1.00  0.00     0.108 C 
ATOM     83  C   UNL A   1      34.987  23.992  23.923  1.00  0.00     0.072 C 
ATOM     84  S   UNL A   1      33.792  23.160  22.866  1.00  0.00    -0.159 SA
BRANCH  80  85
ATOM     85  N   UNL A   1      31.845  25.074  25.650  1.00  0.00    -0.334 N 
ATOM     86  C   UNL A   1      30.552  25.537  25.715  1.00  0.00     0.289 C 
ATOM     87  H   UNL A   1      32.168  24.647  26.477  1.00  0.00     0.165 HD
ATOM     88  O   UNL A   1      29.918  25.282  26.741  1.00  0.00    -0.266 OA
BRANCH  86  89
ATOM     89  C   UNL A   1      30.038  26.426  24.710  1.00  0.00     0.214 A 
ATOM     90  N   UNL A   1      30.411  27.657  24.429  1.00  0.00    -0.207 NA
ATOM     91  N   UNL A   1      28.953  26.116  23.945  1.00  0.00    -0.255 N 
ATOM     92  C   UNL A   1      29.402  28.111  23.616  1.00  0.00     0.154 A 
ATOM     93  N   UNL A   1      28.457  27.205  23.339  1.00  0.00    -0.158 NA
ATOM     94  H   UNL A   1      28.581  25.210  23.849  1.00  0.00     0.192 HD
BRANCH  92  95
ATOM     95  C   UNL A   1      29.299  29.543  23.129  1.00  0.00     0.060 C 
ATOM     96  C   UNL A   1      29.844  29.903  21.766  1.00  0.00     0.012 C 
ATOM     97  C   UNL A   1      28.368  29.873  21.989  1.00  0.00     0.012 C 
ENDBRANCH  92  95
ENDBRANCH  86  89
ENDBRANCH  80  85
ENDBRANCH  77  80
ENDBRANCH  75  76
ENDBRANCH  74  75
ENDBRANCH   1  74
TORSDOF 16
ENDMDL
MODEL 3
REMARK VINA RESULT:     -11.4      5.337     10.599
REMARK SMILES O=C(NCCCCCCNC(=O)[C@]1(NC(=O)c2nc(C3CC3)n[nH]2)CCSC1)c1ccc(-c2c3nc(c(-c4c(F)c(F)c(F)c(F)c4F)c4ccc([nH]4)c(-c4c(F)c(F)c(F)c(F)c4F)c4nc(c(-c5c(F)c(F)c(F)c(F)c5F)c5ccc2[nH]5)C=C4)C=C3)cc1
REMARK SMILES IDX 7 1 6 2 5 3 4 4 3 5 1 6 2 7 29 9 30 10 91 11 31 12 90 13
REMARK SMILES IDX 32 14 33 15 34 16 84 17 35 18 89 19 83 20 85 21 36 22 88 23
REMARK SMILES IDX 82 24 81 25 37 27 69 28 49 29 68 30 50 31 53 32 67 33 86 34
REMARK SMILES IDX 51 35 52 36 66 38 87 39 54 40 38 41 39 42 47 43 40 44 41 45
REMARK SMILES IDX 45 46 48 47 42 48 43 49 46 50 44 51 70 52 71 53 79 54 72 55
REMARK SMILES IDX 73 56 77 57 80 58 74 59 75 60 78 61 76 62 55 63 56 64 64 65
REMARK SMILES IDX 57 66 58 67 62 68 65 69 59 70 60 71 63 72 61 73 8 74 9 75
REMARK SMILES IDX 10 76 11 77 12 79 13 80 25 81 28 82 26 83 27 84 14 85 15 86
REMARK SMILES IDX 16 88 17 89 18 90 24 91 19 92 23 93 20 95 21 96 22 97
REMARK H PARENT 3 8 85 26 53 37 10 78 14 87 24 94
REMARK Flexibility Score: inf
ROOT
ATOM      1  C   UNL A   1      37.546  21.719  24.776  1.00  0.00     0.002 C 
ENDROOT
BRANCH   1   2
ATOM      2  C   UNL A   1      37.122  20.255  24.635  1.00  0.00     0.002 C 
BRANCH   2   3
ATOM      3  C   UNL A   1      38.173  19.204  25.001  1.00  0.00     0.021 C 
BRANCH   3   4
ATOM      4  C   UNL A   1      39.272  19.668  25.952  1.00  0.00     0.116 C 
BRANCH   4   5
ATOM      5  N   UNL A   1      40.461  18.839  25.897  1.00  0.00    -0.352 N 
ATOM      6  O   UNL A   1      42.653  18.337  25.850  1.00  0.00    -0.269 OA
ATOM      7  C   UNL A   1      41.784  19.184  26.031  1.00  0.00     0.251 C 
ATOM      8  H   UNL A   1      40.294  17.881  25.741  1.00  0.00     0.163 HD
BRANCH   7   9
ATOM      9  C   UNL A   1      42.181  20.573  26.361  1.00  0.00     0.039 A 
ATOM     10  C   UNL A   1      42.401  21.534  25.370  1.00  0.00     0.014 A 
ATOM     11  C   UNL A   1      42.280  20.934  27.710  1.00  0.00     0.014 A 
ATOM     12  C   UNL A   1      42.819  22.818  25.724  1.00  0.00     0.010 A 
ATOM     13  C   UNL A   1      42.643  22.236  28.066  1.00  0.00     0.010 A 
ATOM     14  C   UNL A   1      42.937  23.183  27.074  1.00  0.00    -0.014 A 
BRANCH  14  15
ATOM     15  C   UNL A   1      43.315  24.571  27.438  1.00  0.00     0.031 A 
ATOM     16  C   UNL A   1      44.750  25.010  27.416  1.00  0.00     0.074 A 
ATOM     17  C   UNL A   1      42.349  25.438  27.792  1.00  0.00     0.049 A 
ATOM     18  N   UNL A   1      45.260  26.177  27.726  1.00  0.00    -0.248 NA
ATOM     19  C   UNL A   1      45.743  24.011  26.998  1.00  0.00     0.031 C 
ATOM     20  C   UNL A   1      40.922  25.124  27.867  1.00  0.00     0.029 A 
ATOM     21  N   UNL A   1      42.420  26.761  28.149  1.00  0.00    -0.354 N 
ATOM     22  C   UNL A   1      46.632  26.045  27.567  1.00  0.00     0.074 A 
ATOM     23  C   UNL A   1      46.878  24.684  27.139  1.00  0.00     0.031 C 
ATOM     24  C   UNL A   1      40.248  26.229  28.217  1.00  0.00     0.029 A 
ATOM     25  C   UNL A   1      41.196  27.317  28.432  1.00  0.00     0.049 A 
ATOM     26  H   UNL A   1      43.265  27.263  28.198  1.00  0.00     0.167 HD
ATOM     27  C   UNL A   1      47.597  26.976  27.758  1.00  0.00     0.037 A 
ATOM     28  C   UNL A   1      40.875  28.562  28.829  1.00  0.00     0.037 A 
ATOM     29  C   UNL A   1      47.352  28.336  28.162  1.00  0.00     0.049 A 
ATOM     30  C   UNL A   1      41.961  29.580  29.017  1.00  0.00     0.074 A 
ATOM     31  C   UNL A   1      48.264  29.360  28.352  1.00  0.00     0.029 A 
ATOM     32  N   UNL A   1      46.098  28.863  28.436  1.00  0.00    -0.354 N 
ATOM     33  N   UNL A   1      43.253  29.446  28.847  1.00  0.00    -0.248 NA
ATOM     34  C   UNL A   1      41.545  30.917  29.459  1.00  0.00     0.031 C 
ATOM     35  C   UNL A   1      47.564  30.501  28.765  1.00  0.00     0.029 A 
ATOM     36  C   UNL A   1      46.214  30.194  28.805  1.00  0.00     0.049 A 
ATOM     37  H   UNL A   1      45.251  28.364  28.378  1.00  0.00     0.167 HD
ATOM     38  C   UNL A   1      43.807  30.679  29.157  1.00  0.00     0.074 A 
ATOM     39  C   UNL A   1      42.708  31.556  29.507  1.00  0.00     0.031 C 
ATOM     40  C   UNL A   1      45.109  31.049  29.156  1.00  0.00     0.037 A 
BRANCH  27  41
ATOM     41  C   UNL A   1      49.018  26.550  27.547  1.00  0.00     0.064 A 
ATOM     42  C   UNL A   1      49.579  26.479  26.265  1.00  0.00     0.173 A 
ATOM     43  C   UNL A   1      49.836  26.245  28.645  1.00  0.00     0.173 A 
ATOM     44  F   UNL A   1      48.832  26.749  25.185  1.00  0.00    -0.203 F 
ATOM     45  C   UNL A   1      50.908  26.101  26.088  1.00  0.00     0.198 A 
ATOM     46  C   UNL A   1      51.169  25.884  28.465  1.00  0.00     0.198 A 
ATOM     47  F   UNL A   1      49.345  26.302  29.892  1.00  0.00    -0.203 F 
ATOM     48  F   UNL A   1      51.417  26.007  24.851  1.00  0.00    -0.200 F 
ATOM     49  C   UNL A   1      51.702  25.808  27.187  1.00  0.00     0.200 A 
ATOM     50  F   UNL A   1      51.938  25.608  29.528  1.00  0.00    -0.200 F 
ATOM     51  F   UNL A   1      52.981  25.446  27.014  1.00  0.00    -0.200 F 
ENDBRANCH  27  41
BRANCH  28  52
ATOM     52  C   UNL A   1      39.451  28.902  29.061  1.00  0.00     0.064 A 
ATOM     53  C   UNL A   1      38.881  28.769  30.333  1.00  0.00     0.173 A 
ATOM     54  C   UNL A   1      38.652  29.416  28.031  1.00  0.00     0.173 A 
ATOM     55  F   UNL A   1      39.606  28.266  31.343  1.00  0.00    -0.203 F 
ATOM     56  C   UNL A   1      37.559  29.141  30.567  1.00  0.00     0.198 A 
ATOM     57  C   UNL A   1      37.337  29.806  28.271  1.00  0.00     0.198 A 
ATOM     58  F   UNL A   1      39.159  29.564  26.798  1.00  0.00    -0.203 F 
ATOM     59  F   UNL A   1      37.030  28.992  31.789  1.00  0.00    -0.200 F 
ATOM     60  C   UNL A   1      36.791  29.667  29.539  1.00  0.00     0.200 A 
ATOM     61  F   UNL A   1      36.603  30.326  27.279  1.00  0.00    -0.200 F 
ATOM     62  F   UNL A   1      35.526  30.042  29.769  1.00  0.00    -0.200 F 
ENDBRANCH  28  52
BRANCH  40  63
ATOM     63  C   UNL A   1      45.416  32.462  29.540  1.00  0.00     0.064 A 
ATOM     64  C   UNL A   1      45.423  33.487  28.584  1.00  0.00     0.173 A 
ATOM     65  C   UNL A   1      45.671  32.800  30.876  1.00  0.00     0.173 A 
ATOM     66  F   UNL A   1      45.200  33.207  27.291  1.00  0.00    -0.203 F 
ATOM     67  C   UNL A   1      45.689  34.803  28.952  1.00  0.00     0.198 A 
ATOM     68  C   UNL A   1      45.921  34.119  31.242  1.00  0.00     0.198 A 
ATOM     69  F   UNL A   1      45.673  31.851  31.824  1.00  0.00    -0.203 F 
ATOM     70  F   UNL A   1      45.721  35.765  28.020  1.00  0.00    -0.200 F 
ATOM     71  C   UNL A   1      45.933  35.119  30.281  1.00  0.00     0.200 A 
ATOM     72  F   UNL A   1      46.154  34.423  32.528  1.00  0.00    -0.200 F 
ATOM     73  F   UNL A   1      46.187  36.386  30.634  1.00  0.00    -0.200 F 
ENDBRANCH  40  63
ENDBRANCH  14  15
ENDBRANCH   7   9
ENDBRANCH   4   5
ENDBRANCH   3   4
ENDBRANCH   2   3
ENDBRANCH   1   2
BRANCH   1  74
ATOM     74  C   UNL A   1      36.610  22.771  24.166  1.00  0.00     0.021 C 
BRANCH  74  75
ATOM     75  C   UNL A   1      36.227  23.943  25.072  1.00  0.00     0.116 C 
BRANCH  75  76
ATOM     76  N   UNL A   1      35.214  23.603  26.046  1.00  0.00    -0.354 N 
ATOM     77  C   UNL A   1      33.860  23.787  26.029  1.00  0.00     0.246 C 
ATOM     78  H   UNL A   1      35.557  23.165  26.857  1.00  0.00     0.163 HD
ATOM     79  O   UNL A   1      33.262  23.393  27.036  1.00  0.00    -0.272 OA
BRANCH  77  80
ATOM     80  C   UNL A   1      33.146  24.668  24.946  1.00  0.00     0.129 C 
ATOM     81  C   UNL A   1      33.904  26.027  24.934  1.00  0.00     0.050 C 
ATOM     82  C   UNL A   1      31.692  24.997  25.362  1.00  0.00     0.108 C 
ATOM     83  C   UNL A   1      33.456  26.849  26.130  1.00  0.00     0.072 C 
ATOM     84  S   UNL A   1      31.666  26.659  26.115  1.00  0.00    -0.159 SA
BRANCH  80  85
ATOM     85  N   UNL A   1      33.189  24.140  23.557  1.00  0.00    -0.334 N 
ATOM     86  C   UNL A   1      32.944  22.881  23.064  1.00  0.00     0.289 C 
ATOM     87  H   UNL A   1      33.434  24.806  22.873  1.00  0.00     0.165 HD
ATOM     88  O   UNL A   1      32.956  22.748  21.838  1.00  0.00    -0.266 OA
BRANCH  86  89
ATOM     89  C   UNL A   1      32.858  21.749  23.946  1.00  0.00     0.214 A 
ATOM     90  N   UNL A   1      33.625  20.680  23.992  1.00  0.00    -0.207 NA
ATOM     91  N   UNL A   1      31.834  21.588  24.831  1.00  0.00    -0.255 N 
ATOM     92  C   UNL A   1      32.915  19.821  24.794  1.00  0.00     0.154 A 
ATOM     93  N   UNL A   1      31.778  20.327  25.286  1.00  0.00    -0.158 NA
ATOM     94  H   UNL A   1      31.215  22.303  25.102  1.00  0.00     0.192 HD
BRANCH  92  95
ATOM     95  C   UNL A   1      33.320  18.382  25.046  1.00  0.00     0.060 C 
ATOM     96  C   UNL A   1      33.052  17.340  23.984  1.00  0.00     0.012 C 
ATOM     97  C   UNL A   1      34.454  17.782  24.251  1.00  0.00     0.012 C 
ENDBRANCH  92  95
ENDBRANCH  86  89
ENDBRANCH  80  85
ENDBRANCH  77  80
ENDBRANCH  75  76
ENDBRANCH  74  75
ENDBRANCH   1  74
TORSDOF 16
ENDMDL
