MODEL 1
REMARK VINA RESULT:     -11.5      0.000      0.000
REMARK SMILES O=C(COC1(Cc2ccccc2)CCCCC1)NCCCCCCNC(=O)c1ccc(-c2c3nc(c(-c4c(F)c(F)c(F)c(F)c4F)c4ccc([nH]4)c(-c4c(F)c(F)c(F)c(F)c4F)c4nc(c(-c5c(F)c(F)c(F)c(F)c5F)c5ccc2[nH]5)C=C4)C=C3)cc1
REMARK SMILES IDX 20 1 19 2 18 3 1 4 2 5 3 7 4 8 5 9 13 10 17 11 14 12 16 13
REMARK SMILES IDX 15 14 6 15 7 16 8 17 12 18 9 19 11 20 10 21 21 22 22 23
REMARK SMILES IDX 23 24 24 25 25 26 26 27 27 29 28 30 29 31 90 32 30 33 89 34
REMARK SMILES IDX 31 35 32 36 33 37 83 38 34 39 88 40 82 41 84 42 35 43 87 44
REMARK SMILES IDX 81 45 80 46 36 48 68 49 48 50 67 51 49 52 52 53 66 54 85 55
REMARK SMILES IDX 50 56 51 57 65 59 86 60 53 61 37 62 38 63 46 64 39 65 40 66
REMARK SMILES IDX 44 67 47 68 41 69 42 70 45 71 43 72 69 73 70 74 78 75 71 76
REMARK SMILES IDX 72 77 76 78 79 79 73 80 74 81 77 82 75 83 54 84 55 85 63 86
REMARK SMILES IDX 56 87 57 88 61 89 64 90 58 91 59 92 62 93 60 94
REMARK H PARENT 18 6 25 28 84 47 52 58
REMARK Flexibility Score: inf
ROOT
ATOM      1  C   UNL A   1      39.667  23.089  26.974  1.00  0.00     0.021 C 
ENDROOT
BRANCH   1   2
ATOM      2  C   UNL A   1      38.450  23.790  26.377  1.00  0.00     0.116 C 
BRANCH   2   3
ATOM      3  N   UNL A   1      37.244  23.002  26.481  1.00  0.00    -0.354 N 
ATOM      4  O   UNL A   1      36.653  23.200  24.275  1.00  0.00    -0.272 OA
ATOM      5  C   UNL A   1      36.469  22.707  25.384  1.00  0.00     0.246 C 
ATOM      6  H   UNL A   1      36.968  22.666  27.365  1.00  0.00     0.163 HD
BRANCH   5   7
ATOM      7  C   UNL A   1      35.330  21.722  25.672  1.00  0.00     0.260 C 
BRANCH   7   8
ATOM      8  O   UNL A   1      34.685  21.042  24.628  1.00  0.00    -0.365 OA
BRANCH   8   9
ATOM      9  C   UNL A   1      33.299  21.188  24.263  1.00  0.00     0.073 C 
ATOM     10  C   UNL A   1      32.713  21.583  25.660  1.00  0.00     0.036 C 
ATOM     11  C   UNL A   1      33.193  22.426  23.340  1.00  0.00     0.036 C 
ATOM     12  C   UNL A   1      31.349  22.258  25.654  1.00  0.00     0.003 C 
ATOM     13  C   UNL A   1      31.794  23.047  23.305  1.00  0.00     0.003 C 
ATOM     14  C   UNL A   1      31.318  23.441  24.699  1.00  0.00     0.000 C 
BRANCH   9  15
ATOM     15  C   UNL A   1      32.484  19.970  23.694  1.00  0.00     0.071 C 
BRANCH  15  16
ATOM     16  C   UNL A   1      32.816  18.521  24.030  1.00  0.00    -0.045 A 
ATOM     17  C   UNL A   1      32.607  18.050  25.339  1.00  0.00     0.004 A 
ATOM     18  C   UNL A   1      33.475  17.659  23.147  1.00  0.00     0.004 A 
ATOM     19  C   UNL A   1      33.045  16.780  25.736  1.00  0.00     0.000 A 
ATOM     20  C   UNL A   1      33.907  16.388  23.535  1.00  0.00     0.000 A 
ATOM     21  C   UNL A   1      33.697  15.949  24.834  1.00  0.00     0.000 A 
ENDBRANCH  15  16
ENDBRANCH   9  15
ENDBRANCH   8   9
ENDBRANCH   7   8
ENDBRANCH   5   7
ENDBRANCH   2   3
ENDBRANCH   1   2
BRANCH   1  22
ATOM     22  C   UNL A   1      39.872  21.662  26.456  1.00  0.00     0.002 C 
BRANCH  22  23
ATOM     23  C   UNL A   1      41.335  21.269  26.228  1.00  0.00     0.002 C 
BRANCH  23  24
ATOM     24  C   UNL A   1      41.547  19.800  25.866  1.00  0.00     0.021 C 
BRANCH  24  25
ATOM     25  C   UNL A   1      42.878  19.227  26.335  1.00  0.00     0.116 C 
BRANCH  25  26
ATOM     26  N   UNL A   1      43.700  18.774  25.223  1.00  0.00    -0.352 N 
ATOM     27  C   UNL A   1      44.524  19.510  24.411  1.00  0.00     0.251 C 
ATOM     28  H   UNL A   1      43.661  17.810  25.028  1.00  0.00     0.163 HD
ATOM     29  O   UNL A   1      45.009  19.021  23.396  1.00  0.00    -0.269 OA
BRANCH  27  30
ATOM     30  C   UNL A   1      44.805  20.917  24.761  1.00  0.00     0.039 A 
ATOM     31  C   UNL A   1      44.465  21.924  23.856  1.00  0.00     0.014 A 
ATOM     32  C   UNL A   1      45.377  21.236  25.996  1.00  0.00     0.014 A 
ATOM     33  C   UNL A   1      44.642  23.261  24.217  1.00  0.00     0.010 A 
ATOM     34  C   UNL A   1      45.483  22.567  26.382  1.00  0.00     0.010 A 
ATOM     35  C   UNL A   1      45.120  23.593  25.495  1.00  0.00    -0.014 A 
BRANCH  35  36
ATOM     36  C   UNL A   1      45.259  25.005  25.930  1.00  0.00     0.031 A 
ATOM     37  C   UNL A   1      46.607  25.671  25.881  1.00  0.00     0.074 A 
ATOM     38  C   UNL A   1      44.197  25.657  26.441  1.00  0.00     0.049 A 
ATOM     39  N   UNL A   1      46.963  26.853  26.317  1.00  0.00    -0.248 NA
ATOM     40  C   UNL A   1      47.710  24.893  25.292  1.00  0.00     0.031 C 
ATOM     41  C   UNL A   1      42.848  25.104  26.576  1.00  0.00     0.029 A 
ATOM     42  N   UNL A   1      44.088  26.923  26.961  1.00  0.00    -0.354 N 
ATOM     43  C   UNL A   1      48.328  26.946  26.080  1.00  0.00     0.074 A 
ATOM     44  C   UNL A   1      48.748  25.691  25.499  1.00  0.00     0.031 C 
ATOM     45  C   UNL A   1      42.045  26.030  27.127  1.00  0.00     0.029 A 
ATOM     46  C   UNL A   1      42.830  27.224  27.427  1.00  0.00     0.049 A 
ATOM     47  H   UNL A   1      44.840  27.556  26.997  1.00  0.00     0.167 HD
ATOM     48  C   UNL A   1      49.152  27.995  26.312  1.00  0.00     0.037 A 
ATOM     49  C   UNL A   1      42.370  28.330  28.040  1.00  0.00     0.037 A 
ATOM     50  C   UNL A   1      48.720  29.259  26.846  1.00  0.00     0.049 A 
ATOM     51  C   UNL A   1      43.316  29.477  28.289  1.00  0.00     0.074 A 
ATOM     52  C   UNL A   1      49.461  30.412  27.034  1.00  0.00     0.029 A 
ATOM     53  N   UNL A   1      47.432  29.534  27.281  1.00  0.00    -0.354 N 
ATOM     54  N   UNL A   1      44.585  29.587  27.981  1.00  0.00    -0.248 NA
ATOM     55  C   UNL A   1      42.762  30.658  28.968  1.00  0.00     0.031 C 
ATOM     56  C   UNL A   1      48.637  31.367  27.636  1.00  0.00     0.029 A 
ATOM     57  C   UNL A   1      47.367  30.829  27.766  1.00  0.00     0.049 A 
ATOM     58  H   UNL A   1      46.678  28.903  27.249  1.00  0.00     0.167 HD
ATOM     59  C   UNL A   1      44.968  30.857  28.389  1.00  0.00     0.074 A 
ATOM     60  C   UNL A   1      43.796  31.486  28.958  1.00  0.00     0.031 C 
ATOM     61  C   UNL A   1      46.183  31.451  28.301  1.00  0.00     0.037 A 
BRANCH  48  62
ATOM     62  C   UNL A   1      50.608  27.834  25.992  1.00  0.00     0.064 A 
ATOM     63  C   UNL A   1      51.107  28.037  24.697  1.00  0.00     0.173 A 
ATOM     64  C   UNL A   1      51.528  27.553  27.014  1.00  0.00     0.173 A 
ATOM     65  F   UNL A   1      50.268  28.299  23.683  1.00  0.00    -0.203 F 
ATOM     66  C   UNL A   1      52.472  27.951  24.434  1.00  0.00     0.198 A 
ATOM     67  C   UNL A   1      52.895  27.497  26.753  1.00  0.00     0.198 A 
ATOM     68  F   UNL A   1      51.104  27.356  28.271  1.00  0.00    -0.203 F 
ATOM     69  F   UNL A   1      52.923  28.118  23.183  1.00  0.00    -0.200 F 
ATOM     70  C   UNL A   1      53.365  27.693  25.463  1.00  0.00     0.200 A 
ATOM     71  F   UNL A   1      53.757  27.262  27.751  1.00  0.00    -0.200 F 
ATOM     72  F   UNL A   1      54.680  27.632  25.211  1.00  0.00    -0.200 F 
ENDBRANCH  48  62
BRANCH  49  73
ATOM     73  C   UNL A   1      40.946  28.424  28.465  1.00  0.00     0.064 A 
ATOM     74  C   UNL A   1      39.969  28.936  27.599  1.00  0.00     0.173 A 
ATOM     75  C   UNL A   1      40.542  28.055  29.756  1.00  0.00     0.173 A 
ATOM     76  F   UNL A   1      40.309  29.322  26.360  1.00  0.00    -0.203 F 
ATOM     77  C   UNL A   1      38.652  29.113  28.021  1.00  0.00     0.198 A 
ATOM     78  C   UNL A   1      39.217  28.201  30.165  1.00  0.00     0.198 A 
ATOM     79  F   UNL A   1      41.433  27.556  30.624  1.00  0.00    -0.203 F 
ATOM     80  F   UNL A   1      37.756  29.669  27.194  1.00  0.00    -0.200 F 
ATOM     81  C   UNL A   1      38.277  28.743  29.303  1.00  0.00     0.200 A 
ATOM     82  F   UNL A   1      38.856  27.828  31.401  1.00  0.00    -0.200 F 
ATOM     83  F   UNL A   1      37.014  28.922  29.710  1.00  0.00    -0.200 F 
ENDBRANCH  49  73
BRANCH  61  84
ATOM     84  C   UNL A   1      46.298  32.871  28.772  1.00  0.00     0.064 A 
ATOM     85  C   UNL A   1      46.056  33.956  27.916  1.00  0.00     0.173 A 
ATOM     86  C   UNL A   1      46.602  33.147  30.114  1.00  0.00     0.173 A 
ATOM     87  F   UNL A   1      45.776  33.745  26.621  1.00  0.00    -0.203 F 
ATOM     88  C   UNL A   1      46.136  35.265  28.383  1.00  0.00     0.198 A 
ATOM     89  C   UNL A   1      46.647  34.456  30.585  1.00  0.00     0.198 A 
ATOM     90  F   UNL A   1      46.834  32.145  30.975  1.00  0.00    -0.203 F 
ATOM     91  F   UNL A   1      45.946  36.288  27.538  1.00  0.00    -0.200 F 
ATOM     92  C   UNL A   1      46.421  35.514  29.718  1.00  0.00     0.200 A 
ATOM     93  F   UNL A   1      46.906  34.693  31.878  1.00  0.00    -0.200 F 
ATOM     94  F   UNL A   1      46.483  36.774  30.168  1.00  0.00    -0.200 F 
ENDBRANCH  61  84
ENDBRANCH  35  36
ENDBRANCH  27  30
ENDBRANCH  25  26
ENDBRANCH  24  25
ENDBRANCH  23  24
ENDBRANCH  22  23
ENDBRANCH   1  22
TORSDOF 17
ENDMDL
MODEL 2
REMARK VINA RESULT:     -11.3      4.265      6.748
REMARK SMILES O=C(COC1(Cc2ccccc2)CCCCC1)NCCCCCCNC(=O)c1ccc(-c2c3nc(c(-c4c(F)c(F)c(F)c(F)c4F)c4ccc([nH]4)c(-c4c(F)c(F)c(F)c(F)c4F)c4nc(c(-c5c(F)c(F)c(F)c(F)c5F)c5ccc2[nH]5)C=C4)C=C3)cc1
REMARK SMILES IDX 20 1 19 2 18 3 1 4 2 5 3 7 4 8 5 9 13 10 17 11 14 12 16 13
REMARK SMILES IDX 15 14 6 15 7 16 8 17 12 18 9 19 11 20 10 21 21 22 22 23
REMARK SMILES IDX 23 24 24 25 25 26 26 27 27 29 28 30 29 31 90 32 30 33 89 34
REMARK SMILES IDX 31 35 32 36 33 37 83 38 34 39 88 40 82 41 84 42 35 43 87 44
REMARK SMILES IDX 81 45 80 46 36 48 68 49 48 50 67 51 49 52 52 53 66 54 85 55
REMARK SMILES IDX 50 56 51 57 65 59 86 60 53 61 37 62 38 63 46 64 39 65 40 66
REMARK SMILES IDX 44 67 47 68 41 69 42 70 45 71 43 72 69 73 70 74 78 75 71 76
REMARK SMILES IDX 72 77 76 78 79 79 73 80 74 81 77 82 75 83 54 84 55 85 63 86
REMARK SMILES IDX 56 87 57 88 61 89 64 90 58 91 59 92 62 93 60 94
REMARK H PARENT 18 6 25 28 84 47 52 58
REMARK Flexibility Score: inf
ROOT
ATOM      1  C   UNL A   1      34.424  23.012  23.047  1.00  0.00     0.021 C 
ENDROOT
BRANCH   1   2
ATOM      2  C   UNL A   1      33.257  23.964  22.798  1.00  0.00     0.116 C 
BRANCH   2   3
ATOM      3  N   UNL A   1      33.475  25.275  23.365  1.00  0.00    -0.354 N 
ATOM      4  O   UNL A   1      33.624  26.369  21.355  1.00  0.00    -0.272 OA
ATOM      5  C   UNL A   1      33.570  26.402  22.581  1.00  0.00     0.246 C 
ATOM      6  H   UNL A   1      33.559  25.365  24.342  1.00  0.00     0.163 HD
BRANCH   5   7
ATOM      7  C   UNL A   1      33.630  27.711  23.377  1.00  0.00     0.260 C 
BRANCH   7   8
ATOM      8  O   UNL A   1      32.527  28.148  24.127  1.00  0.00    -0.365 OA
BRANCH   8   9
ATOM      9  C   UNL A   1      32.525  28.395  25.546  1.00  0.00     0.073 C 
ATOM     10  C   UNL A   1      34.068  28.371  25.807  1.00  0.00     0.036 C 
ATOM     11  C   UNL A   1      32.033  29.846  25.762  1.00  0.00     0.036 C 
ATOM     12  C   UNL A   1      34.546  29.021  27.097  1.00  0.00     0.003 C 
ATOM     13  C   UNL A   1      32.474  30.453  27.096  1.00  0.00     0.003 C 
ATOM     14  C   UNL A   1      33.991  30.429  27.249  1.00  0.00     0.000 C 
BRANCH   9  15
ATOM     15  C   UNL A   1      31.826  27.393  26.536  1.00  0.00     0.071 C 
BRANCH  15  16
ATOM     16  C   UNL A   1      31.644  25.912  26.226  1.00  0.00    -0.045 A 
ATOM     17  C   UNL A   1      30.617  25.510  25.351  1.00  0.00     0.004 A 
ATOM     18  C   UNL A   1      32.339  24.896  26.890  1.00  0.00     0.004 A 
ATOM     19  C   UNL A   1      30.308  24.157  25.160  1.00  0.00     0.000 A 
ATOM     20  C   UNL A   1      32.039  23.545  26.699  1.00  0.00     0.000 A 
ATOM     21  C   UNL A   1      31.018  23.173  25.838  1.00  0.00     0.000 A 
ENDBRANCH  15  16
ENDBRANCH   9  15
ENDBRANCH   8   9
ENDBRANCH   7   8
ENDBRANCH   5   7
ENDBRANCH   2   3
ENDBRANCH   1   2
BRANCH   1  22
ATOM     22  C   UNL A   1      34.165  22.003  24.170  1.00  0.00     0.002 C 
BRANCH  22  23
ATOM     23  C   UNL A   1      35.205  22.015  25.294  1.00  0.00     0.002 C 
BRANCH  23  24
ATOM     24  C   UNL A   1      35.726  23.404  25.660  1.00  0.00     0.021 C 
BRANCH  24  25
ATOM     25  C   UNL A   1      37.108  23.721  25.102  1.00  0.00     0.116 C 
BRANCH  25  26
ATOM     26  N   UNL A   1      38.100  22.737  25.509  1.00  0.00    -0.352 N 
ATOM     27  C   UNL A   1      39.265  22.933  26.207  1.00  0.00     0.251 C 
ATOM     28  H   UNL A   1      37.910  21.807  25.250  1.00  0.00     0.163 HD
ATOM     29  O   UNL A   1      40.093  22.035  26.312  1.00  0.00    -0.269 OA
BRANCH  27  30
ATOM     30  C   UNL A   1      39.523  24.253  26.814  1.00  0.00     0.039 A 
ATOM     31  C   UNL A   1      39.089  24.499  28.118  1.00  0.00     0.014 A 
ATOM     32  C   UNL A   1      40.219  25.234  26.102  1.00  0.00     0.014 A 
ATOM     33  C   UNL A   1      39.409  25.711  28.733  1.00  0.00     0.010 A 
ATOM     34  C   UNL A   1      40.601  26.408  26.741  1.00  0.00     0.010 A 
ATOM     35  C   UNL A   1      40.197  26.659  28.061  1.00  0.00    -0.014 A 
BRANCH  35  36
ATOM     36  C   UNL A   1      40.606  27.930  28.712  1.00  0.00     0.031 A 
ATOM     37  C   UNL A   1      42.002  28.074  29.254  1.00  0.00     0.074 A 
ATOM     38  C   UNL A   1      39.703  28.914  28.885  1.00  0.00     0.049 A 
ATOM     39  N   UNL A   1      42.522  29.052  29.951  1.00  0.00    -0.248 NA
ATOM     40  C   UNL A   1      42.929  26.958  29.005  1.00  0.00     0.031 C 
ATOM     41  C   UNL A   1      38.310  28.875  28.439  1.00  0.00     0.029 A 
ATOM     42  N   UNL A   1      39.818  30.135  29.503  1.00  0.00    -0.354 N 
ATOM     43  C   UNL A   1      43.820  28.657  30.246  1.00  0.00     0.074 A 
ATOM     44  C   UNL A   1      44.001  27.336  29.687  1.00  0.00     0.031 C 
ATOM     45  C   UNL A   1      37.704  30.024  28.783  1.00  0.00     0.029 A 
ATOM     46  C   UNL A   1      38.650  30.861  29.513  1.00  0.00     0.049 A 
ATOM     47  H   UNL A   1      40.657  30.461  29.900  1.00  0.00     0.167 HD
ATOM     48  C   UNL A   1      44.779  29.345  30.908  1.00  0.00     0.037 A 
ATOM     49  C   UNL A   1      38.373  32.057  30.066  1.00  0.00     0.037 A 
ATOM     50  C   UNL A   1      44.608  30.679  31.420  1.00  0.00     0.049 A 
ATOM     51  C   UNL A   1      39.463  32.794  30.802  1.00  0.00     0.074 A 
ATOM     52  C   UNL A   1      45.548  31.493  32.027  1.00  0.00     0.029 A 
ATOM     53  N   UNL A   1      43.419  31.390  31.388  1.00  0.00    -0.354 N 
ATOM     54  N   UNL A   1      40.711  32.448  30.999  1.00  0.00    -0.248 NA
ATOM     55  C   UNL A   1      39.103  34.093  31.392  1.00  0.00     0.031 C 
ATOM     56  C   UNL A   1      44.913  32.677  32.414  1.00  0.00     0.029 A 
ATOM     57  C   UNL A   1      43.594  32.624  31.993  1.00  0.00     0.049 A 
ATOM     58  H   UNL A   1      42.577  31.068  30.994  1.00  0.00     0.167 HD
ATOM     59  C   UNL A   1      41.295  33.498  31.693  1.00  0.00     0.074 A 
ATOM     60  C   UNL A   1      40.267  34.501  31.877  1.00  0.00     0.031 C 
ATOM     61  C   UNL A   1      42.567  33.623  32.141  1.00  0.00     0.037 A 
BRANCH  48  62
ATOM     62  C   UNL A   1      46.105  28.679  31.123  1.00  0.00     0.064 A 
ATOM     63  C   UNL A   1      47.156  28.810  30.203  1.00  0.00     0.173 A 
ATOM     64  C   UNL A   1      46.354  27.969  32.308  1.00  0.00     0.173 A 
ATOM     65  F   UNL A   1      46.967  29.471  29.051  1.00  0.00    -0.203 F 
ATOM     66  C   UNL A   1      48.403  28.241  30.454  1.00  0.00     0.198 A 
ATOM     67  C   UNL A   1      47.611  27.427  32.569  1.00  0.00     0.198 A 
ATOM     68  F   UNL A   1      45.386  27.819  33.223  1.00  0.00    -0.203 F 
ATOM     69  F   UNL A   1      49.381  28.352  29.546  1.00  0.00    -0.200 F 
ATOM     70  C   UNL A   1      48.632  27.562  31.640  1.00  0.00     0.200 A 
ATOM     71  F   UNL A   1      47.834  26.784  33.723  1.00  0.00    -0.200 F 
ATOM     72  F   UNL A   1      49.839  27.034  31.890  1.00  0.00    -0.200 F 
ENDBRANCH  48  62
BRANCH  49  73
ATOM     73  C   UNL A   1      37.012  32.648  29.950  1.00  0.00     0.064 A 
ATOM     74  C   UNL A   1      36.071  32.495  30.978  1.00  0.00     0.173 A 
ATOM     75  C   UNL A   1      36.606  33.331  28.794  1.00  0.00     0.173 A 
ATOM     76  F   UNL A   1      36.403  31.832  32.096  1.00  0.00    -0.203 F 
ATOM     77  C   UNL A   1      34.766  32.967  30.839  1.00  0.00     0.198 A 
ATOM     78  C   UNL A   1      35.311  33.832  28.670  1.00  0.00     0.198 A 
ATOM     79  F   UNL A   1      37.467  33.510  27.781  1.00  0.00    -0.203 F 
ATOM     80  F   UNL A   1      33.870  32.744  31.810  1.00  0.00    -0.200 F 
ATOM     81  C   UNL A   1      34.389  33.636  29.686  1.00  0.00     0.200 A 
ATOM     82  F   UNL A   1      34.955  34.492  27.560  1.00  0.00    -0.200 F 
ATOM     83  F   UNL A   1      33.132  34.080  29.549  1.00  0.00    -0.200 F 
ENDBRANCH  49  73
BRANCH  61  84
ATOM     84  C   UNL A   1      42.944  34.909  32.816  1.00  0.00     0.064 A 
ATOM     85  C   UNL A   1      42.851  35.070  34.206  1.00  0.00     0.173 A 
ATOM     86  C   UNL A   1      43.456  35.977  32.064  1.00  0.00     0.173 A 
ATOM     87  F   UNL A   1      42.355  34.083  34.968  1.00  0.00    -0.203 F 
ATOM     88  C   UNL A   1      43.238  36.260  34.815  1.00  0.00     0.198 A 
ATOM     89  C   UNL A   1      43.874  37.154  32.679  1.00  0.00     0.198 A 
ATOM     90  F   UNL A   1      43.572  35.872  30.731  1.00  0.00    -0.203 F 
ATOM     91  F   UNL A   1      43.099  36.409  36.140  1.00  0.00    -0.200 F 
ATOM     92  C   UNL A   1      43.758  37.297  34.053  1.00  0.00     0.200 A 
ATOM     93  F   UNL A   1      44.391  38.146  31.943  1.00  0.00    -0.200 F 
ATOM     94  F   UNL A   1      44.142  38.437  34.643  1.00  0.00    -0.200 F 
ENDBRANCH  61  84
ENDBRANCH  35  36
ENDBRANCH  27  30
ENDBRANCH  25  26
ENDBRANCH  24  25
ENDBRANCH  23  24
ENDBRANCH  22  23
ENDBRANCH   1  22
TORSDOF 17
ENDMDL
MODEL 3
REMARK VINA RESULT:     -11.3      6.356     10.839
REMARK SMILES O=C(COC1(Cc2ccccc2)CCCCC1)NCCCCCCNC(=O)c1ccc(-c2c3nc(c(-c4c(F)c(F)c(F)c(F)c4F)c4ccc([nH]4)c(-c4c(F)c(F)c(F)c(F)c4F)c4nc(c(-c5c(F)c(F)c(F)c(F)c5F)c5ccc2[nH]5)C=C4)C=C3)cc1
REMARK SMILES IDX 20 1 19 2 18 3 1 4 2 5 3 7 4 8 5 9 13 10 17 11 14 12 16 13
REMARK SMILES IDX 15 14 6 15 7 16 8 17 12 18 9 19 11 20 10 21 21 22 22 23
REMARK SMILES IDX 23 24 24 25 25 26 26 27 27 29 28 30 29 31 90 32 30 33 89 34
REMARK SMILES IDX 31 35 32 36 33 37 83 38 34 39 88 40 82 41 84 42 35 43 87 44
REMARK SMILES IDX 81 45 80 46 36 48 68 49 48 50 67 51 49 52 52 53 66 54 85 55
REMARK SMILES IDX 50 56 51 57 65 59 86 60 53 61 37 62 38 63 46 64 39 65 40 66
REMARK SMILES IDX 44 67 47 68 41 69 42 70 45 71 43 72 69 73 70 74 78 75 71 76
REMARK SMILES IDX 72 77 76 78 79 79 73 80 74 81 77 82 75 83 54 84 55 85 63 86
REMARK SMILES IDX 56 87 57 88 61 89 64 90 58 91 59 92 62 93 60 94
REMARK H PARENT 18 6 25 28 84 47 52 58
REMARK Flexibility Score: inf
ROOT
ATOM      1  C   UNL A   1      33.755  29.170  26.421  1.00  0.00     0.021 C 
ENDROOT
BRANCH   1   2
ATOM      2  C   UNL A   1      33.391  29.100  24.941  1.00  0.00     0.116 C 
BRANCH   2   3
ATOM      3  N   UNL A   1      33.178  27.747  24.481  1.00  0.00    -0.354 N 
ATOM      4  O   UNL A   1      33.932  28.112  22.347  1.00  0.00    -0.272 OA
ATOM      5  C   UNL A   1      33.541  27.341  23.218  1.00  0.00     0.246 C 
ATOM      6  H   UNL A   1      32.759  27.096  25.090  1.00  0.00     0.163 HD
BRANCH   5   7
ATOM      7  C   UNL A   1      33.389  25.834  22.980  1.00  0.00     0.260 C 
BRANCH   7   8
ATOM      8  O   UNL A   1      32.296  25.130  23.508  1.00  0.00    -0.365 OA
BRANCH   8   9
ATOM      9  C   UNL A   1      32.370  23.876  24.214  1.00  0.00     0.073 C 
ATOM     10  C   UNL A   1      33.245  24.326  25.432  1.00  0.00     0.036 C 
ATOM     11  C   UNL A   1      30.951  23.561  24.744  1.00  0.00     0.036 C 
ATOM     12  C   UNL A   1      33.208  23.427  26.659  1.00  0.00     0.003 C 
ATOM     13  C   UNL A   1      30.940  22.604  25.939  1.00  0.00     0.003 C 
ATOM     14  C   UNL A   1      31.780  23.138  27.095  1.00  0.00     0.000 C 
BRANCH   9  15
ATOM     15  C   UNL A   1      33.033  22.615  23.549  1.00  0.00     0.071 C 
BRANCH  15  16
ATOM     16  C   UNL A   1      34.468  22.187  23.832  1.00  0.00    -0.045 A 
ATOM     17  C   UNL A   1      34.706  21.060  24.641  1.00  0.00     0.004 A 
ATOM     18  C   UNL A   1      35.584  22.947  23.466  1.00  0.00     0.004 A 
ATOM     19  C   UNL A   1      35.999  20.722  25.061  1.00  0.00     0.000 A 
ATOM     20  C   UNL A   1      36.877  22.611  23.876  1.00  0.00     0.000 A 
ATOM     21  C   UNL A   1      37.086  21.500  24.680  1.00  0.00     0.000 A 
ENDBRANCH  15  16
ENDBRANCH   9  15
ENDBRANCH   8   9
ENDBRANCH   7   8
ENDBRANCH   5   7
ENDBRANCH   2   3
ENDBRANCH   1   2
BRANCH   1  22
ATOM     22  C   UNL A   1      32.798  30.033  27.251  1.00  0.00     0.002 C 
BRANCH  22  23
ATOM     23  C   UNL A   1      31.638  30.643  26.459  1.00  0.00     0.002 C 
BRANCH  23  24
ATOM     24  C   UNL A   1      31.477  32.152  26.632  1.00  0.00     0.021 C 
BRANCH  24  25
ATOM     25  C   UNL A   1      32.654  32.831  27.321  1.00  0.00     0.116 C 
BRANCH  25  26
ATOM     26  N   UNL A   1      32.370  34.221  27.645  1.00  0.00    -0.352 N 
ATOM     27  C   UNL A   1      32.947  35.012  28.605  1.00  0.00     0.251 C 
ATOM     28  H   UNL A   1      31.671  34.652  27.101  1.00  0.00     0.163 HD
ATOM     29  O   UNL A   1      32.472  36.108  28.886  1.00  0.00    -0.269 OA
BRANCH  27  30
ATOM     30  C   UNL A   1      34.140  34.518  29.319  1.00  0.00     0.039 A 
ATOM     31  C   UNL A   1      33.997  34.008  30.611  1.00  0.00     0.014 A 
ATOM     32  C   UNL A   1      35.391  34.533  28.697  1.00  0.00     0.014 A 
ATOM     33  C   UNL A   1      35.103  33.454  31.258  1.00  0.00     0.010 A 
ATOM     34  C   UNL A   1      36.473  33.914  29.312  1.00  0.00     0.010 A 
ATOM     35  C   UNL A   1      36.341  33.371  30.600  1.00  0.00    -0.014 A 
BRANCH  35  36
ATOM     36  C   UNL A   1      37.519  32.732  31.238  1.00  0.00     0.031 A 
ATOM     37  C   UNL A   1      38.203  31.580  30.555  1.00  0.00     0.074 A 
ATOM     38  C   UNL A   1      37.917  33.132  32.461  1.00  0.00     0.049 A 
ATOM     39  N   UNL A   1      39.172  30.815  30.991  1.00  0.00    -0.248 NA
ATOM     40  C   UNL A   1      37.715  31.219  29.213  1.00  0.00     0.031 C 
ATOM     41  C   UNL A   1      37.308  34.210  33.241  1.00  0.00     0.029 A 
ATOM     42  N   UNL A   1      38.920  32.663  33.274  1.00  0.00    -0.354 N 
ATOM     43  C   UNL A   1      39.386  29.872  29.996  1.00  0.00     0.074 A 
ATOM     44  C   UNL A   1      38.425  30.132  28.947  1.00  0.00     0.031 C 
ATOM     45  C   UNL A   1      37.959  34.331  34.410  1.00  0.00     0.029 A 
ATOM     46  C   UNL A   1      39.000  33.311  34.484  1.00  0.00     0.049 A 
ATOM     47  H   UNL A   1      39.526  31.932  33.014  1.00  0.00     0.167 HD
ATOM     48  C   UNL A   1      40.316  28.889  29.953  1.00  0.00     0.037 A 
ATOM     49  C   UNL A   1      39.808  33.092  35.537  1.00  0.00     0.037 A 
ATOM     50  C   UNL A   1      41.301  28.665  30.978  1.00  0.00     0.049 A 
ATOM     51  C   UNL A   1      40.828  31.984  35.461  1.00  0.00     0.074 A 
ATOM     52  C   UNL A   1      42.340  27.752  30.986  1.00  0.00     0.029 A 
ATOM     53  N   UNL A   1      41.365  29.359  32.177  1.00  0.00    -0.354 N 
ATOM     54  N   UNL A   1      41.079  31.155  34.477  1.00  0.00    -0.248 NA
ATOM     55  C   UNL A   1      41.681  31.785  36.642  1.00  0.00     0.031 C 
ATOM     56  C   UNL A   1      43.000  27.854  32.215  1.00  0.00     0.029 A 
ATOM     57  C   UNL A   1      42.409  28.871  32.945  1.00  0.00     0.049 A 
ATOM     58  H   UNL A   1      40.760  30.088  32.441  1.00  0.00     0.167 HD
ATOM     59  C   UNL A   1      42.141  30.368  34.902  1.00  0.00     0.074 A 
ATOM     60  C   UNL A   1      42.495  30.824  36.230  1.00  0.00     0.031 C 
ATOM     61  C   UNL A   1      42.767  29.358  34.253  1.00  0.00     0.037 A 
BRANCH  48  62
ATOM     62  C   UNL A   1      40.324  27.974  28.766  1.00  0.00     0.064 A 
ATOM     63  C   UNL A   1      41.046  28.278  27.603  1.00  0.00     0.173 A 
ATOM     64  C   UNL A   1      39.665  26.735  28.825  1.00  0.00     0.173 A 
ATOM     65  F   UNL A   1      41.684  29.453  27.492  1.00  0.00    -0.203 F 
ATOM     66  C   UNL A   1      41.097  27.383  26.537  1.00  0.00     0.198 A 
ATOM     67  C   UNL A   1      39.743  25.830  27.769  1.00  0.00     0.198 A 
ATOM     68  F   UNL A   1      38.966  26.393  29.917  1.00  0.00    -0.203 F 
ATOM     69  F   UNL A   1      41.766  27.709  25.423  1.00  0.00    -0.200 F 
ATOM     70  C   UNL A   1      40.456  26.157  26.626  1.00  0.00     0.200 A 
ATOM     71  F   UNL A   1      39.136  24.640  27.864  1.00  0.00    -0.200 F 
ATOM     72  F   UNL A   1      40.525  25.288  25.608  1.00  0.00    -0.200 F 
ENDBRANCH  48  62
BRANCH  49  73
ATOM     73  C   UNL A   1      39.702  33.932  36.761  1.00  0.00     0.064 A 
ATOM     74  C   UNL A   1      38.900  33.533  37.841  1.00  0.00     0.173 A 
ATOM     75  C   UNL A   1      40.355  35.169  36.859  1.00  0.00     0.173 A 
ATOM     76  F   UNL A   1      38.239  32.368  37.789  1.00  0.00    -0.203 F 
ATOM     77  C   UNL A   1      38.724  34.357  38.952  1.00  0.00     0.198 A 
ATOM     78  C   UNL A   1      40.204  35.977  37.985  1.00  0.00     0.198 A 
ATOM     79  F   UNL A   1      41.138  35.598  35.858  1.00  0.00    -0.203 F 
ATOM     80  F   UNL A   1      37.897  33.980  39.936  1.00  0.00    -0.200 F 
ATOM     81  C   UNL A   1      39.378  35.577  39.023  1.00  0.00     0.200 A 
ATOM     82  F   UNL A   1      40.851  37.149  38.057  1.00  0.00    -0.200 F 
ATOM     83  F   UNL A   1      39.200  36.372  40.087  1.00  0.00    -0.200 F 
ENDBRANCH  49  73
BRANCH  61  84
ATOM     84  C   UNL A   1      43.939  28.714  34.935  1.00  0.00     0.064 A 
ATOM     85  C   UNL A   1      43.794  27.569  35.732  1.00  0.00     0.173 A 
ATOM     86  C   UNL A   1      45.233  29.221  34.741  1.00  0.00     0.173 A 
ATOM     87  F   UNL A   1      42.576  27.054  35.958  1.00  0.00    -0.203 F 
ATOM     88  C   UNL A   1      44.900  26.969  36.327  1.00  0.00     0.198 A 
ATOM     89  C   UNL A   1      46.341  28.599  35.311  1.00  0.00     0.198 A 
ATOM     90  F   UNL A   1      45.427  30.310  33.982  1.00  0.00    -0.203 F 
ATOM     91  F   UNL A   1      44.734  25.902  37.122  1.00  0.00    -0.200 F 
ATOM     92  C   UNL A   1      46.173  27.477  36.108  1.00  0.00     0.200 A 
ATOM     93  F   UNL A   1      47.569  29.082  35.084  1.00  0.00    -0.200 F 
ATOM     94  F   UNL A   1      47.237  26.890  36.672  1.00  0.00    -0.200 F 
ENDBRANCH  61  84
ENDBRANCH  35  36
ENDBRANCH  27  30
ENDBRANCH  25  26
ENDBRANCH  24  25
ENDBRANCH  23  24
ENDBRANCH  22  23
ENDBRANCH   1  22
TORSDOF 17
ENDMDL
