MODEL 1
REMARK VINA RESULT:     -12.2      0.000      0.000
REMARK SMILES CC1(C)C[C@@H]([C@H](CCNC(=O)c2ccccc2C(=O)NCCCCCCNC(=O)c2ccc(-c3c4nc(c(-c5c(F)c(F)c(F)c(F)c5F)c5ccc([nH]5)c(-c5c(F)c(F)c(F)c(F)c5F)c5nc(c(-c6c(F)c(F)c(F)c(F)c6F)c6ccc3[nH]6)C=C5)C=C4)cc2)c2ccccc2)CCO1
REMARK SMILES IDX 22 1 21 2 20 3 18 4 19 5 17 7 12 8 13 9 14 10 16 11 15 12
REMARK SMILES IDX 10 13 9 14 11 16 8 17 7 18 6 19 5 20 1 21 2 22 3 23 4 24
REMARK SMILES IDX 101 25 100 26 99 27 93 28 94 29 98 30 95 31 97 32 96 33
REMARK SMILES IDX 23 34 24 35 25 36 26 37 27 38 28 39 29 41 30 42 31 43 92 44
REMARK SMILES IDX 32 45 91 46 33 47 34 48 35 49 85 50 36 51 90 52 84 53 86 54
REMARK SMILES IDX 37 55 89 56 83 57 82 58 38 60 70 61 50 62 69 63 51 64 54 65
REMARK SMILES IDX 68 66 87 67 52 68 53 69 67 71 88 72 55 73 39 74 40 75 48 76
REMARK SMILES IDX 41 77 42 78 46 79 49 80 43 81 44 82 47 83 45 84 71 85 72 86
REMARK SMILES IDX 80 87 73 88 74 89 78 90 81 91 75 92 76 93 79 94 77 95 56 96
REMARK SMILES IDX 57 97 65 98 58 99 59 100 63 101 66 102 60 103 61 104 64 105
REMARK SMILES IDX 62 106
REMARK H PARENT 20 6 9 15 27 40 86 59 54 70
REMARK Flexibility Score: inf
ROOT
ATOM      1  C   UNL A   1      37.015  23.982  25.363  1.00  0.00     0.021 C 
ENDROOT
BRANCH   1   2
ATOM      2  C   UNL A   1      36.143  23.292  24.315  1.00  0.00     0.116 C 
BRANCH   2   3
ATOM      3  N   UNL A   1      35.913  21.873  24.496  1.00  0.00    -0.352 N 
ATOM      4  C   UNL A   1      34.749  21.216  24.837  1.00  0.00     0.252 C 
ATOM      5  O   UNL A   1      34.750  19.985  24.853  1.00  0.00    -0.269 OA
ATOM      6  H   UNL A   1      36.699  21.296  24.357  1.00  0.00     0.163 HD
BRANCH   4   7
ATOM      7  C   UNL A   1      33.497  21.916  25.248  1.00  0.00     0.052 A 
ATOM      8  C   UNL A   1      32.423  22.285  24.428  1.00  0.00     0.052 A 
ATOM      9  C   UNL A   1      31.389  23.088  24.952  1.00  0.00     0.014 A 
ATOM     10  C   UNL A   1      31.356  23.428  26.302  1.00  0.00     0.001 A 
ATOM     11  C   UNL A   1      33.413  22.215  26.626  1.00  0.00     0.014 A 
ATOM     12  C   UNL A   1      32.351  22.957  27.149  1.00  0.00     0.001 A 
BRANCH   8  13
ATOM     13  C   UNL A   1      32.269  21.950  22.999  1.00  0.00     0.252 C 
ATOM     14  N   UNL A   1      32.639  22.807  22.001  1.00  0.00    -0.352 N 
ATOM     15  H   UNL A   1      32.461  22.479  21.089  1.00  0.00     0.163 HD
ATOM     16  O   UNL A   1      31.790  20.857  22.696  1.00  0.00    -0.269 OA
BRANCH  14  17
ATOM     17  C   UNL A   1      33.248  24.115  22.066  1.00  0.00     0.117 C 
BRANCH  17  18
ATOM     18  C   UNL A   1      32.242  25.273  22.032  1.00  0.00     0.030 C 
BRANCH  18  19
ATOM     19  C   UNL A   1      31.893  26.036  23.367  1.00  0.00     0.024 C 
BRANCH  19  20
ATOM     20  C   UNL A   1      33.231  26.511  24.099  1.00  0.00     0.002 C 
ATOM     21  C   UNL A   1      31.467  27.896  26.868  1.00  0.00     0.042 C 
ATOM     22  C   UNL A   1      32.837  28.049  26.171  1.00  0.00     0.063 C 
ATOM     23  C   UNL A   1      33.793  28.579  27.250  1.00  0.00     0.042 C 
ATOM     24  C   UNL A   1      33.256  26.667  25.628  1.00  0.00     0.039 C 
ATOM     25  O   UNL A   1      32.741  29.088  25.191  1.00  0.00    -0.376 OA
ATOM     26  C   UNL A   1      33.417  29.008  23.942  1.00  0.00     0.161 C 
ATOM     27  C   UNL A   1      34.029  27.687  23.564  1.00  0.00     0.033 C 
ENDBRANCH  19  20
BRANCH  19  28
ATOM     28  C   UNL A   1      30.530  26.738  23.292  1.00  0.00    -0.045 A 
ATOM     29  C   UNL A   1      30.284  27.984  22.732  1.00  0.00     0.004 A 
ATOM     30  C   UNL A   1      29.400  26.115  23.866  1.00  0.00     0.004 A 
ATOM     31  C   UNL A   1      29.036  28.626  22.800  1.00  0.00     0.000 A 
ATOM     32  C   UNL A   1      28.127  26.712  23.876  1.00  0.00     0.000 A 
ATOM     33  C   UNL A   1      27.948  27.984  23.358  1.00  0.00     0.000 A 
ENDBRANCH  19  28
ENDBRANCH  18  19
ENDBRANCH  17  18
ENDBRANCH  14  17
ENDBRANCH   8  13
ENDBRANCH   4   7
ENDBRANCH   2   3
ENDBRANCH   1   2
BRANCH   1  34
ATOM     34  C   UNL A   1      37.564  23.109  26.499  1.00  0.00     0.002 C 
BRANCH  34  35
ATOM     35  C   UNL A   1      39.035  22.714  26.391  1.00  0.00     0.002 C 
BRANCH  35  36
ATOM     36  C   UNL A   1      39.363  21.473  25.580  1.00  0.00     0.021 C 
BRANCH  36  37
ATOM     37  C   UNL A   1      39.255  20.182  26.374  1.00  0.00     0.116 C 
BRANCH  37  38
ATOM     38  N   UNL A   1      40.344  19.226  26.124  1.00  0.00    -0.352 N 
ATOM     39  C   UNL A   1      41.715  19.338  26.079  1.00  0.00     0.251 C 
ATOM     40  H   UNL A   1      40.024  18.310  25.952  1.00  0.00     0.163 HD
ATOM     41  O   UNL A   1      42.391  18.360  25.752  1.00  0.00    -0.269 OA
BRANCH  39  42
ATOM     42  C   UNL A   1      42.397  20.613  26.390  1.00  0.00     0.039 A 
ATOM     43  C   UNL A   1      42.972  21.380  25.370  1.00  0.00     0.014 A 
ATOM     44  C   UNL A   1      42.474  21.068  27.697  1.00  0.00     0.014 A 
ATOM     45  C   UNL A   1      43.513  22.639  25.663  1.00  0.00     0.010 A 
ATOM     46  C   UNL A   1      42.805  22.386  27.950  1.00  0.00     0.010 A 
ATOM     47  C   UNL A   1      43.375  23.182  26.949  1.00  0.00    -0.014 A 
BRANCH  47  48
ATOM     48  C   UNL A   1      43.867  24.532  27.340  1.00  0.00     0.031 A 
ATOM     49  C   UNL A   1      42.867  25.566  27.808  1.00  0.00     0.074 A 
ATOM     50  C   UNL A   1      45.157  24.874  27.154  1.00  0.00     0.049 A 
ATOM     51  N   UNL A   1      43.004  26.862  27.934  1.00  0.00    -0.248 NA
ATOM     52  C   UNL A   1      41.502  25.086  28.095  1.00  0.00     0.031 C 
ATOM     53  C   UNL A   1      46.211  23.995  26.647  1.00  0.00     0.029 A 
ATOM     54  N   UNL A   1      45.796  26.074  27.351  1.00  0.00    -0.354 N 
ATOM     55  C   UNL A   1      41.737  27.342  28.250  1.00  0.00     0.074 A 
ATOM     56  C   UNL A   1      40.830  26.220  28.202  1.00  0.00     0.031 C 
ATOM     57  C   UNL A   1      47.370  24.672  26.603  1.00  0.00     0.029 A 
ATOM     58  C   UNL A   1      47.131  26.049  27.022  1.00  0.00     0.049 A 
ATOM     59  H   UNL A   1      45.342  26.876  27.696  1.00  0.00     0.167 HD
ATOM     60  C   UNL A   1      41.369  28.596  28.602  1.00  0.00     0.037 A 
ATOM     61  C   UNL A   1      48.050  27.034  27.040  1.00  0.00     0.037 A 
ATOM     62  C   UNL A   1      42.294  29.685  28.738  1.00  0.00     0.049 A 
ATOM     63  C   UNL A   1      47.627  28.411  27.484  1.00  0.00     0.074 A 
ATOM     64  C   UNL A   1      42.051  30.979  29.160  1.00  0.00     0.029 A 
ATOM     65  N   UNL A   1      43.655  29.593  28.480  1.00  0.00    -0.354 N 
ATOM     66  N   UNL A   1      46.437  28.843  27.827  1.00  0.00    -0.248 NA
ATOM     67  C   UNL A   1      48.677  29.437  27.553  1.00  0.00     0.031 C 
ATOM     68  C   UNL A   1      43.259  31.680  29.127  1.00  0.00     0.029 A 
ATOM     69  C   UNL A   1      44.263  30.808  28.736  1.00  0.00     0.049 A 
ATOM     70  H   UNL A   1      44.117  28.784  28.163  1.00  0.00     0.167 HD
ATOM     71  C   UNL A   1      46.602  30.172  28.190  1.00  0.00     0.074 A 
ATOM     72  C   UNL A   1      48.009  30.475  28.037  1.00  0.00     0.031 C 
ATOM     73  C   UNL A   1      45.674  31.067  28.611  1.00  0.00     0.037 A 
BRANCH  60  74
ATOM     74  C   UNL A   1      39.917  28.842  28.907  1.00  0.00     0.064 A 
ATOM     75  C   UNL A   1      39.018  29.267  27.916  1.00  0.00     0.173 A 
ATOM     76  C   UNL A   1      39.409  28.622  30.197  1.00  0.00     0.173 A 
ATOM     77  F   UNL A   1      39.451  29.504  26.668  1.00  0.00    -0.203 F 
ATOM     78  C   UNL A   1      37.678  29.499  28.211  1.00  0.00     0.198 A 
ATOM     79  C   UNL A   1      38.058  28.816  30.478  1.00  0.00     0.198 A 
ATOM     80  F   UNL A   1      40.219  28.210  31.183  1.00  0.00    -0.203 F 
ATOM     81  F   UNL A   1      36.856  29.964  27.259  1.00  0.00    -0.200 F 
ATOM     82  C   UNL A   1      37.197  29.264  29.488  1.00  0.00     0.200 A 
ATOM     83  F   UNL A   1      37.591  28.574  31.711  1.00  0.00    -0.200 F 
ATOM     84  F   UNL A   1      35.904  29.475  29.769  1.00  0.00    -0.200 F 
ENDBRANCH  60  74
BRANCH  61  85
ATOM     85  C   UNL A   1      49.461  26.755  26.656  1.00  0.00     0.064 A 
ATOM     86  C   UNL A   1      50.416  26.416  27.626  1.00  0.00     0.173 A 
ATOM     87  C   UNL A   1      49.891  26.843  25.324  1.00  0.00     0.173 A 
ATOM     88  F   UNL A   1      50.059  26.332  28.916  1.00  0.00    -0.203 F 
ATOM     89  C   UNL A   1      51.751  26.213  27.284  1.00  0.00     0.198 A 
ATOM     90  C   UNL A   1      51.220  26.605  24.979  1.00  0.00     0.198 A 
ATOM     91  F   UNL A   1      49.018  27.152  24.355  1.00  0.00    -0.203 F 
ATOM     92  F   UNL A   1      52.652  25.951  28.241  1.00  0.00    -0.200 F 
ATOM     93  C   UNL A   1      52.152  26.304  25.960  1.00  0.00     0.200 A 
ATOM     94  F   UNL A   1      51.600  26.676  23.696  1.00  0.00    -0.200 F 
ATOM     95  F   UNL A   1      53.437  26.111  25.633  1.00  0.00    -0.200 F 
ENDBRANCH  61  85
BRANCH  73  96
ATOM     96  C   UNL A   1      46.155  32.432  29.003  1.00  0.00     0.064 A 
ATOM     97  C   UNL A   1      46.210  33.489  28.085  1.00  0.00     0.173 A 
ATOM     98  C   UNL A   1      46.501  32.697  30.338  1.00  0.00     0.173 A 
ATOM     99  F   UNL A   1      45.901  33.282  26.796  1.00  0.00    -0.203 F 
ATOM    100  C   UNL A   1      46.615  34.759  28.486  1.00  0.00     0.198 A 
ATOM    101  C   UNL A   1      46.872  33.975  30.740  1.00  0.00     0.198 A 
ATOM    102  F   UNL A   1      46.454  31.719  31.256  1.00  0.00    -0.203 F 
ATOM    103  F   UNL A   1      46.701  35.747  27.583  1.00  0.00    -0.200 F 
ATOM    104  C   UNL A   1      46.935  35.004  29.813  1.00  0.00     0.200 A 
ATOM    105  F   UNL A   1      47.162  34.213  32.027  1.00  0.00    -0.200 F 
ATOM    106  F   UNL A   1      47.307  36.231  30.198  1.00  0.00    -0.200 F 
ENDBRANCH  73  96
ENDBRANCH  47  48
ENDBRANCH  39  42
ENDBRANCH  37  38
ENDBRANCH  36  37
ENDBRANCH  35  36
ENDBRANCH  34  35
ENDBRANCH   1  34
TORSDOF 19
ENDMDL
MODEL 2
REMARK VINA RESULT:     -12.1      1.304      7.119
REMARK SMILES CC1(C)C[C@@H]([C@H](CCNC(=O)c2ccccc2C(=O)NCCCCCCNC(=O)c2ccc(-c3c4nc(c(-c5c(F)c(F)c(F)c(F)c5F)c5ccc([nH]5)c(-c5c(F)c(F)c(F)c(F)c5F)c5nc(c(-c6c(F)c(F)c(F)c(F)c6F)c6ccc3[nH]6)C=C5)C=C4)cc2)c2ccccc2)CCO1
REMARK SMILES IDX 22 1 21 2 20 3 18 4 19 5 17 7 12 8 13 9 14 10 16 11 15 12
REMARK SMILES IDX 10 13 9 14 11 16 8 17 7 18 6 19 5 20 1 21 2 22 3 23 4 24
REMARK SMILES IDX 101 25 100 26 99 27 93 28 94 29 98 30 95 31 97 32 96 33
REMARK SMILES IDX 23 34 24 35 25 36 26 37 27 38 28 39 29 41 30 42 31 43 92 44
REMARK SMILES IDX 32 45 91 46 33 47 34 48 35 49 85 50 36 51 90 52 84 53 86 54
REMARK SMILES IDX 37 55 89 56 83 57 82 58 38 60 70 61 50 62 69 63 51 64 54 65
REMARK SMILES IDX 68 66 87 67 52 68 53 69 67 71 88 72 55 73 39 74 40 75 48 76
REMARK SMILES IDX 41 77 42 78 46 79 49 80 43 81 44 82 47 83 45 84 71 85 72 86
REMARK SMILES IDX 80 87 73 88 74 89 78 90 81 91 75 92 76 93 79 94 77 95 56 96
REMARK SMILES IDX 57 97 65 98 58 99 59 100 63 101 66 102 60 103 61 104 64 105
REMARK SMILES IDX 62 106
REMARK H PARENT 20 6 9 15 27 40 86 59 54 70
REMARK Flexibility Score: inf
ROOT
ATOM      1  C   UNL A   1      38.779  21.222  25.736  1.00  0.00     0.021 C 
ENDROOT
BRANCH   1   2
ATOM      2  C   UNL A   1      37.457  21.978  25.599  1.00  0.00     0.116 C 
BRANCH   2   3
ATOM      3  N   UNL A   1      37.087  22.399  24.263  1.00  0.00    -0.352 N 
ATOM      4  C   UNL A   1      35.906  22.959  23.822  1.00  0.00     0.252 C 
ATOM      5  O   UNL A   1      35.830  23.328  22.649  1.00  0.00    -0.269 OA
ATOM      6  H   UNL A   1      37.776  22.266  23.572  1.00  0.00     0.163 HD
BRANCH   4   7
ATOM      7  C   UNL A   1      34.688  23.089  24.673  1.00  0.00     0.052 A 
ATOM      8  C   UNL A   1      33.356  22.901  24.282  1.00  0.00     0.052 A 
ATOM      9  C   UNL A   1      32.314  23.227  25.175  1.00  0.00     0.014 A 
ATOM     10  C   UNL A   1      32.585  23.625  26.482  1.00  0.00     0.001 A 
ATOM     11  C   UNL A   1      34.943  23.431  26.019  1.00  0.00     0.014 A 
ATOM     12  C   UNL A   1      33.903  23.690  26.917  1.00  0.00     0.001 A 
BRANCH   8  13
ATOM     13  C   UNL A   1      32.899  22.423  22.963  1.00  0.00     0.252 C 
ATOM     14  N   UNL A   1      32.741  23.259  21.893  1.00  0.00    -0.352 N 
ATOM     15  H   UNL A   1      32.406  22.824  21.076  1.00  0.00     0.163 HD
ATOM     16  O   UNL A   1      32.653  21.224  22.821  1.00  0.00    -0.269 OA
BRANCH  14  17
ATOM     17  C   UNL A   1      32.985  24.677  21.768  1.00  0.00     0.117 C 
BRANCH  17  18
ATOM     18  C   UNL A   1      31.731  25.543  21.939  1.00  0.00     0.030 C 
BRANCH  18  19
ATOM     19  C   UNL A   1      31.627  26.523  23.169  1.00  0.00     0.024 C 
BRANCH  19  20
ATOM     20  C   UNL A   1      33.077  26.795  23.784  1.00  0.00     0.002 C 
ATOM     21  C   UNL A   1      31.778  28.543  26.604  1.00  0.00     0.042 C 
ATOM     22  C   UNL A   1      33.097  28.445  25.806  1.00  0.00     0.063 C 
ATOM     23  C   UNL A   1      34.207  28.845  26.791  1.00  0.00     0.042 C 
ATOM     24  C   UNL A   1      33.244  26.995  25.299  1.00  0.00     0.039 C 
ATOM     25  O   UNL A   1      33.097  29.452  24.790  1.00  0.00    -0.376 OA
ATOM     26  C   UNL A   1      33.653  29.221  23.501  1.00  0.00     0.161 C 
ATOM     27  C   UNL A   1      34.012  27.804  23.141  1.00  0.00     0.033 C 
ENDBRANCH  19  20
BRANCH  19  28
ATOM     28  C   UNL A   1      30.434  27.481  23.047  1.00  0.00    -0.045 A 
ATOM     29  C   UNL A   1      30.469  28.765  22.520  1.00  0.00     0.004 A 
ATOM     30  C   UNL A   1      29.172  27.078  23.537  1.00  0.00     0.004 A 
ATOM     31  C   UNL A   1      29.368  29.637  22.545  1.00  0.00     0.000 A 
ATOM     32  C   UNL A   1      28.042  27.913  23.501  1.00  0.00     0.000 A 
ATOM     33  C   UNL A   1      28.145  29.208  23.020  1.00  0.00     0.000 A 
ENDBRANCH  19  28
ENDBRANCH  18  19
ENDBRANCH  17  18
ENDBRANCH  14  17
ENDBRANCH   8  13
ENDBRANCH   4   7
ENDBRANCH   2   3
ENDBRANCH   1   2
BRANCH   1  34
ATOM     34  C   UNL A   1      39.911  21.927  26.493  1.00  0.00     0.002 C 
BRANCH  34  35
ATOM     35  C   UNL A   1      41.269  21.227  26.475  1.00  0.00     0.002 C 
BRANCH  35  36
ATOM     36  C   UNL A   1      41.283  19.749  26.126  1.00  0.00     0.021 C 
BRANCH  36  37
ATOM     37  C   UNL A   1      42.514  19.017  26.635  1.00  0.00     0.116 C 
BRANCH  37  38
ATOM     38  N   UNL A   1      43.450  18.604  25.579  1.00  0.00    -0.352 N 
ATOM     39  C   UNL A   1      44.356  19.281  24.794  1.00  0.00     0.251 C 
ATOM     40  H   UNL A   1      43.425  17.636  25.395  1.00  0.00     0.163 HD
ATOM     41  O   UNL A   1      44.960  18.674  23.906  1.00  0.00    -0.269 OA
BRANCH  39  42
ATOM     42  C   UNL A   1      44.604  20.728  24.972  1.00  0.00     0.039 A 
ATOM     43  C   UNL A   1      44.159  21.650  24.017  1.00  0.00     0.014 A 
ATOM     44  C   UNL A   1      45.278  21.193  26.090  1.00  0.00     0.014 A 
ATOM     45  C   UNL A   1      44.298  23.024  24.254  1.00  0.00     0.010 A 
ATOM     46  C   UNL A   1      45.219  22.534  26.423  1.00  0.00     0.010 A 
ATOM     47  C   UNL A   1      44.773  23.479  25.493  1.00  0.00    -0.014 A 
BRANCH  47  48
ATOM     48  C   UNL A   1      44.904  24.918  25.856  1.00  0.00     0.031 A 
ATOM     49  C   UNL A   1      46.258  25.580  25.738  1.00  0.00     0.074 A 
ATOM     50  C   UNL A   1      43.871  25.585  26.406  1.00  0.00     0.049 A 
ATOM     51  N   UNL A   1      46.680  26.712  26.242  1.00  0.00    -0.248 NA
ATOM     52  C   UNL A   1      47.305  24.825  25.022  1.00  0.00     0.031 C 
ATOM     53  C   UNL A   1      42.530  25.046  26.639  1.00  0.00     0.029 A 
ATOM     54  N   UNL A   1      43.798  26.866  26.897  1.00  0.00    -0.354 N 
ATOM     55  C   UNL A   1      48.041  26.763  25.956  1.00  0.00     0.074 A 
ATOM     56  C   UNL A   1      48.393  25.514  25.324  1.00  0.00     0.031 C 
ATOM     57  C   UNL A   1      41.761  25.995  27.195  1.00  0.00     0.029 A 
ATOM     58  C   UNL A   1      42.567  27.191  27.413  1.00  0.00     0.049 A 
ATOM     59  H   UNL A   1      44.557  27.493  26.879  1.00  0.00     0.167 HD
ATOM     60  C   UNL A   1      48.911  27.781  26.154  1.00  0.00     0.037 A 
ATOM     61  C   UNL A   1      42.146  28.323  28.011  1.00  0.00     0.037 A 
ATOM     62  C   UNL A   1      48.532  29.055  26.698  1.00  0.00     0.049 A 
ATOM     63  C   UNL A   1      43.120  29.461  28.175  1.00  0.00     0.074 A 
ATOM     64  C   UNL A   1      49.307  30.185  26.876  1.00  0.00     0.029 A 
ATOM     65  N   UNL A   1      47.250  29.371  27.127  1.00  0.00    -0.354 N 
ATOM     66  N   UNL A   1      44.391  29.517  27.857  1.00  0.00    -0.248 NA
ATOM     67  C   UNL A   1      42.599  30.699  28.771  1.00  0.00     0.031 C 
ATOM     68  C   UNL A   1      48.503  31.178  27.441  1.00  0.00     0.029 A 
ATOM     69  C   UNL A   1      47.215  30.682  27.566  1.00  0.00     0.049 A 
ATOM     70  H   UNL A   1      46.483  28.756  27.118  1.00  0.00     0.167 HD
ATOM     71  C   UNL A   1      44.810  30.802  28.176  1.00  0.00     0.074 A 
ATOM     72  C   UNL A   1      43.654  31.498  28.701  1.00  0.00     0.031 C 
ATOM     73  C   UNL A   1      46.039  31.359  28.048  1.00  0.00     0.037 A 
BRANCH  60  74
ATOM     74  C   UNL A   1      50.341  27.574  25.737  1.00  0.00     0.064 A 
ATOM     75  C   UNL A   1      51.344  27.274  26.673  1.00  0.00     0.173 A 
ATOM     76  C   UNL A   1      50.711  27.644  24.385  1.00  0.00     0.173 A 
ATOM     77  F   UNL A   1      51.050  27.206  27.981  1.00  0.00    -0.203 F 
ATOM     78  C   UNL A   1      52.666  27.091  26.278  1.00  0.00     0.198 A 
ATOM     79  C   UNL A   1      52.028  27.419  23.989  1.00  0.00     0.198 A 
ATOM     80  F   UNL A   1      49.795  27.921  23.446  1.00  0.00    -0.203 F 
ATOM     81  F   UNL A   1      53.614  26.868  27.200  1.00  0.00    -0.200 F 
ATOM     82  C   UNL A   1      53.005  27.154  24.936  1.00  0.00     0.200 A 
ATOM     83  F   UNL A   1      52.352  27.465  22.689  1.00  0.00    -0.200 F 
ATOM     84  F   UNL A   1      54.276  26.964  24.555  1.00  0.00    -0.200 F 
ENDBRANCH  60  74
BRANCH  61  85
ATOM     85  C   UNL A   1      40.737  28.450  28.474  1.00  0.00     0.064 A 
ATOM     86  C   UNL A   1      39.744  28.958  27.624  1.00  0.00     0.173 A 
ATOM     87  C   UNL A   1      40.355  28.093  29.776  1.00  0.00     0.173 A 
ATOM     88  F   UNL A   1      40.060  29.329  26.374  1.00  0.00    -0.203 F 
ATOM     89  C   UNL A   1      38.435  29.139  28.067  1.00  0.00     0.198 A 
ATOM     90  C   UNL A   1      39.038  28.241  30.206  1.00  0.00     0.198 A 
ATOM     91  F   UNL A   1      41.260  27.591  30.628  1.00  0.00    -0.203 F 
ATOM     92  F   UNL A   1      37.524  29.685  27.251  1.00  0.00    -0.200 F 
ATOM     93  C   UNL A   1      38.083  28.776  29.357  1.00  0.00     0.200 A 
ATOM     94  F   UNL A   1      38.697  27.872  31.449  1.00  0.00    -0.200 F 
ATOM     95  F   UNL A   1      36.825  28.953  29.784  1.00  0.00    -0.200 F 
ENDBRANCH  61  85
BRANCH  73  96
ATOM     96  C   UNL A   1      46.185  32.805  28.415  1.00  0.00     0.064 A 
ATOM     97  C   UNL A   1      45.966  33.830  27.485  1.00  0.00     0.173 A 
ATOM     98  C   UNL A   1      46.484  33.167  29.739  1.00  0.00     0.173 A 
ATOM     99  F   UNL A   1      45.690  33.535  26.205  1.00  0.00    -0.203 F 
ATOM    100  C   UNL A   1      46.061  35.167  27.862  1.00  0.00     0.198 A 
ATOM    101  C   UNL A   1      46.544  34.503  30.118  1.00  0.00     0.198 A 
ATOM    102  F   UNL A   1      46.692  32.221  30.668  1.00  0.00    -0.203 F 
ATOM    103  F   UNL A   1      45.890  36.132  26.947  1.00  0.00    -0.200 F 
ATOM    104  C   UNL A   1      46.339  35.502  29.179  1.00  0.00     0.200 A 
ATOM    105  F   UNL A   1      46.794  34.824  31.396  1.00  0.00    -0.200 F 
ATOM    106  F   UNL A   1      46.413  36.789  29.542  1.00  0.00    -0.200 F 
ENDBRANCH  73  96
ENDBRANCH  47  48
ENDBRANCH  39  42
ENDBRANCH  37  38
ENDBRANCH  36  37
ENDBRANCH  35  36
ENDBRANCH  34  35
ENDBRANCH   1  34
TORSDOF 19
ENDMDL
MODEL 3
REMARK VINA RESULT:     -11.9      5.337     10.660
REMARK SMILES CC1(C)C[C@@H]([C@H](CCNC(=O)c2ccccc2C(=O)NCCCCCCNC(=O)c2ccc(-c3c4nc(c(-c5c(F)c(F)c(F)c(F)c5F)c5ccc([nH]5)c(-c5c(F)c(F)c(F)c(F)c5F)c5nc(c(-c6c(F)c(F)c(F)c(F)c6F)c6ccc3[nH]6)C=C5)C=C4)cc2)c2ccccc2)CCO1
REMARK SMILES IDX 22 1 21 2 20 3 18 4 19 5 17 7 12 8 13 9 14 10 16 11 15 12
REMARK SMILES IDX 10 13 9 14 11 16 8 17 7 18 6 19 5 20 1 21 2 22 3 23 4 24
REMARK SMILES IDX 101 25 100 26 99 27 93 28 94 29 98 30 95 31 97 32 96 33
REMARK SMILES IDX 23 34 24 35 25 36 26 37 27 38 28 39 29 41 30 42 31 43 92 44
REMARK SMILES IDX 32 45 91 46 33 47 34 48 35 49 85 50 36 51 90 52 84 53 86 54
REMARK SMILES IDX 37 55 89 56 83 57 82 58 38 60 70 61 50 62 69 63 51 64 54 65
REMARK SMILES IDX 68 66 87 67 52 68 53 69 67 71 88 72 55 73 39 74 40 75 48 76
REMARK SMILES IDX 41 77 42 78 46 79 49 80 43 81 44 82 47 83 45 84 71 85 72 86
REMARK SMILES IDX 80 87 73 88 74 89 78 90 81 91 75 92 76 93 79 94 77 95 56 96
REMARK SMILES IDX 57 97 65 98 58 99 59 100 63 101 66 102 60 103 61 104 64 105
REMARK SMILES IDX 62 106
REMARK H PARENT 20 6 9 15 27 40 86 59 54 70
REMARK Flexibility Score: inf
ROOT
ATOM      1  C   UNL A   1      33.631  29.061  27.061  1.00  0.00     0.021 C 
ENDROOT
BRANCH   1   2
ATOM      2  C   UNL A   1      33.422  29.166  25.550  1.00  0.00     0.116 C 
BRANCH   2   3
ATOM      3  N   UNL A   1      33.768  27.999  24.766  1.00  0.00    -0.352 N 
ATOM      4  C   UNL A   1      32.979  27.261  23.908  1.00  0.00     0.252 C 
ATOM      5  O   UNL A   1      33.500  26.348  23.266  1.00  0.00    -0.269 OA
ATOM      6  H   UNL A   1      34.698  27.688  24.858  1.00  0.00     0.163 HD
BRANCH   4   7
ATOM      7  C   UNL A   1      31.509  27.467  23.757  1.00  0.00     0.052 A 
ATOM      8  C   UNL A   1      30.490  26.922  24.548  1.00  0.00     0.052 A 
ATOM      9  C   UNL A   1      29.144  27.089  24.164  1.00  0.00     0.014 A 
ATOM     10  C   UNL A   1      28.800  27.884  23.073  1.00  0.00     0.001 A 
ATOM     11  C   UNL A   1      31.140  28.322  22.695  1.00  0.00     0.014 A 
ATOM     12  C   UNL A   1      29.799  28.534  22.360  1.00  0.00     0.001 A 
BRANCH   8  13
ATOM     13  C   UNL A   1      30.679  26.115  25.769  1.00  0.00     0.252 C 
ATOM     14  N   UNL A   1      30.863  24.761  25.734  1.00  0.00    -0.352 N 
ATOM     15  H   UNL A   1      30.951  24.334  26.616  1.00  0.00     0.163 HD
ATOM     16  O   UNL A   1      30.671  26.685  26.861  1.00  0.00    -0.269 OA
BRANCH  14  17
ATOM     17  C   UNL A   1      30.949  23.856  24.611  1.00  0.00     0.117 C 
BRANCH  17  18
ATOM     18  C   UNL A   1      31.453  22.455  24.978  1.00  0.00     0.030 C 
BRANCH  18  19
ATOM     19  C   UNL A   1      32.722  21.871  24.245  1.00  0.00     0.024 C 
BRANCH  19  20
ATOM     20  C   UNL A   1      33.961  22.866  24.408  1.00  0.00     0.002 C 
ATOM     21  C   UNL A   1      36.293  20.211  24.865  1.00  0.00     0.042 C 
ATOM     22  C   UNL A   1      36.169  21.715  25.192  1.00  0.00     0.063 C 
ATOM     23  C   UNL A   1      37.611  22.235  25.306  1.00  0.00     0.042 C 
ATOM     24  C   UNL A   1      35.379  22.390  24.052  1.00  0.00     0.039 C 
ATOM     25  O   UNL A   1      35.601  21.857  26.498  1.00  0.00    -0.376 OA
ATOM     26  C   UNL A   1      34.684  22.899  26.811  1.00  0.00     0.161 C 
ATOM     27  C   UNL A   1      34.123  23.700  25.666  1.00  0.00     0.033 C 
ENDBRANCH  19  20
BRANCH  19  28
ATOM     28  C   UNL A   1      32.711  20.336  24.207  1.00  0.00    -0.045 A 
ATOM     29  C   UNL A   1      32.530  19.550  23.077  1.00  0.00     0.004 A 
ATOM     30  C   UNL A   1      32.856  19.614  25.412  1.00  0.00     0.004 A 
ATOM     31  C   UNL A   1      32.411  18.151  23.124  1.00  0.00     0.000 A 
ATOM     32  C   UNL A   1      32.814  18.210  25.464  1.00  0.00     0.000 A 
ATOM     33  C   UNL A   1      32.570  17.474  24.317  1.00  0.00     0.000 A 
ENDBRANCH  19  28
ENDBRANCH  18  19
ENDBRANCH  17  18
ENDBRANCH  14  17
ENDBRANCH   8  13
ENDBRANCH   4   7
ENDBRANCH   2   3
ENDBRANCH   1   2
BRANCH   1  34
ATOM     34  C   UNL A   1      34.871  29.751  27.644  1.00  0.00     0.002 C 
BRANCH  34  35
ATOM     35  C   UNL A   1      34.826  31.277  27.698  1.00  0.00     0.002 C 
BRANCH  35  36
ATOM     36  C   UNL A   1      33.542  31.917  28.197  1.00  0.00     0.021 C 
BRANCH  36  37
ATOM     37  C   UNL A   1      32.874  32.818  27.172  1.00  0.00     0.116 C 
BRANCH  37  38
ATOM     38  N   UNL A   1      32.556  34.165  27.667  1.00  0.00    -0.352 N 
ATOM     39  C   UNL A   1      33.069  34.953  28.672  1.00  0.00     0.251 C 
ATOM     40  H   UNL A   1      31.819  34.595  27.175  1.00  0.00     0.163 HD
ATOM     41  O   UNL A   1      32.533  36.035  28.926  1.00  0.00    -0.269 OA
BRANCH  39  42
ATOM     42  C   UNL A   1      34.234  34.523  29.475  1.00  0.00     0.039 A 
ATOM     43  C   UNL A   1      34.056  33.963  30.746  1.00  0.00     0.014 A 
ATOM     44  C   UNL A   1      35.520  34.663  28.977  1.00  0.00     0.014 A 
ATOM     45  C   UNL A   1      35.158  33.454  31.446  1.00  0.00     0.010 A 
ATOM     46  C   UNL A   1      36.565  33.973  29.563  1.00  0.00     0.010 A 
ATOM     47  C   UNL A   1      36.417  33.397  30.830  1.00  0.00    -0.014 A 
BRANCH  47  48
ATOM     48  C   UNL A   1      37.632  32.824  31.473  1.00  0.00     0.031 A 
ATOM     49  C   UNL A   1      38.340  31.671  30.797  1.00  0.00     0.074 A 
ATOM     50  C   UNL A   1      38.019  33.231  32.697  1.00  0.00     0.049 A 
ATOM     51  N   UNL A   1      39.229  30.840  31.279  1.00  0.00    -0.248 NA
ATOM     52  C   UNL A   1      37.931  31.360  29.414  1.00  0.00     0.031 C 
ATOM     53  C   UNL A   1      37.385  34.287  33.488  1.00  0.00     0.029 A 
ATOM     54  N   UNL A   1      39.035  32.781  33.505  1.00  0.00    -0.354 N 
ATOM     55  C   UNL A   1      39.428  29.888  30.285  1.00  0.00     0.074 A 
ATOM     56  C   UNL A   1      38.503  30.185  29.217  1.00  0.00     0.031 C 
ATOM     57  C   UNL A   1      38.043  34.425  34.650  1.00  0.00     0.029 A 
ATOM     58  C   UNL A   1      39.108  33.430  34.714  1.00  0.00     0.049 A 
ATOM     59  H   UNL A   1      39.653  32.061  33.242  1.00  0.00     0.167 HD
ATOM     60  C   UNL A   1      40.337  28.886  30.240  1.00  0.00     0.037 A 
ATOM     61  C   UNL A   1      39.933  33.230  35.760  1.00  0.00     0.037 A 
ATOM     62  C   UNL A   1      41.315  28.655  31.265  1.00  0.00     0.049 A 
ATOM     63  C   UNL A   1      40.971  32.141  35.666  1.00  0.00     0.074 A 
ATOM     64  C   UNL A   1      42.333  27.720  31.296  1.00  0.00     0.029 A 
ATOM     65  N   UNL A   1      41.410  29.396  32.435  1.00  0.00    -0.354 N 
ATOM     66  N   UNL A   1      41.182  31.278  34.701  1.00  0.00    -0.248 NA
ATOM     67  C   UNL A   1      41.892  32.003  36.803  1.00  0.00     0.031 C 
ATOM     68  C   UNL A   1      43.026  27.874  32.499  1.00  0.00     0.029 A 
ATOM     69  C   UNL A   1      42.473  28.939  33.193  1.00  0.00     0.049 A 
ATOM     70  H   UNL A   1      40.812  30.135  32.687  1.00  0.00     0.167 HD
ATOM     71  C   UNL A   1      42.280  30.525  35.095  1.00  0.00     0.074 A 
ATOM     72  C   UNL A   1      42.699  31.040  36.381  1.00  0.00     0.031 C 
ATOM     73  C   UNL A   1      42.889  29.498  34.453  1.00  0.00     0.037 A 
BRANCH  60  74
ATOM     74  C   UNL A   1      40.344  27.998  29.026  1.00  0.00     0.064 A 
ATOM     75  C   UNL A   1      41.080  28.328  27.877  1.00  0.00     0.173 A 
ATOM     76  C   UNL A   1      39.634  26.787  29.019  1.00  0.00     0.173 A 
ATOM     77  F   UNL A   1      41.768  29.479  27.822  1.00  0.00    -0.203 F 
ATOM     78  C   UNL A   1      41.075  27.502  26.756  1.00  0.00     0.198 A 
ATOM     79  C   UNL A   1      39.664  25.943  27.912  1.00  0.00     0.198 A 
ATOM     80  F   UNL A   1      38.918  26.416  30.091  1.00  0.00    -0.203 F 
ATOM     81  F   UNL A   1      41.735  27.873  25.650  1.00  0.00    -0.200 F 
ATOM     82  C   UNL A   1      40.375  26.307  26.778  1.00  0.00     0.200 A 
ATOM     83  F   UNL A   1      39.000  24.780  27.939  1.00  0.00    -0.200 F 
ATOM     84  F   UNL A   1      40.381  25.506  25.704  1.00  0.00    -0.200 F 
ENDBRANCH  60  74
BRANCH  61  85
ATOM     85  C   UNL A   1      39.836  34.090  36.971  1.00  0.00     0.064 A 
ATOM     86  C   UNL A   1      40.545  35.297  37.055  1.00  0.00     0.173 A 
ATOM     87  C   UNL A   1      39.056  33.718  38.076  1.00  0.00     0.173 A 
ATOM     88  F   UNL A   1      41.318  35.691  36.031  1.00  0.00    -0.203 F 
ATOM     89  C   UNL A   1      40.509  36.078  38.208  1.00  0.00     0.198 A 
ATOM     90  C   UNL A   1      38.992  34.518  39.215  1.00  0.00     0.198 A 
ATOM     91  F   UNL A   1      38.348  32.580  38.047  1.00  0.00    -0.203 F 
ATOM     92  F   UNL A   1      41.247  37.194  38.281  1.00  0.00    -0.200 F 
ATOM     93  C   UNL A   1      39.729  35.690  39.286  1.00  0.00     0.200 A 
ATOM     94  F   UNL A   1      38.223  34.149  40.249  1.00  0.00    -0.200 F 
ATOM     95  F   UNL A   1      39.697  36.441  40.396  1.00  0.00    -0.200 F 
ENDBRANCH  61  85
BRANCH  73  96
ATOM     96  C   UNL A   1      44.111  28.909  35.091  1.00  0.00     0.064 A 
ATOM     97  C   UNL A   1      45.397  29.396  34.818  1.00  0.00     0.173 A 
ATOM     98  C   UNL A   1      43.981  27.885  36.044  1.00  0.00     0.173 A 
ATOM     99  F   UNL A   1      45.573  30.364  33.907  1.00  0.00    -0.203 F 
ATOM    100  C   UNL A   1      46.511  28.864  35.461  1.00  0.00     0.198 A 
ATOM    101  C   UNL A   1      45.094  27.381  36.708  1.00  0.00     0.198 A 
ATOM    102  F   UNL A   1      42.770  27.393  36.347  1.00  0.00    -0.203 F 
ATOM    103  F   UNL A   1      47.736  29.314  35.154  1.00  0.00    -0.200 F 
ATOM    104  C   UNL A   1      46.358  27.865  36.412  1.00  0.00     0.200 A 
ATOM    105  F   UNL A   1      44.941  26.430  37.640  1.00  0.00    -0.200 F 
ATOM    106  F   UNL A   1      47.431  27.368  37.040  1.00  0.00    -0.200 F 
ENDBRANCH  73  96
ENDBRANCH  47  48
ENDBRANCH  39  42
ENDBRANCH  37  38
ENDBRANCH  36  37
ENDBRANCH  35  36
ENDBRANCH  34  35
ENDBRANCH   1  34
TORSDOF 19
ENDMDL
