MODEL 1
REMARK VINA RESULT:     -11.4      0.000      0.000
REMARK SMILES Cc1cc(CNC(=O)C[C@H](C)CC(=O)NCCCCCCNC(=O)c2ccc(-c3c4nc(c(-c5c(F)c(F)c(F)c(F)c5F)c5ccc([nH]5)c(-c5c(F)c(F)c(F)c(F)c5F)c5nc(c(-c6c(F)c(F)c(F)c(F)c6F)c6ccc3[nH]6)C=C5)C=C4)cc2)cc(C)c1F
REMARK SMILES IDX 17 1 16 2 15 3 13 4 14 5 12 7 10 8 11 9 9 10 7 11 6 12 8 14
REMARK SMILES IDX 5 15 4 16 1 17 2 18 3 19 91 20 89 21 92 22 88 23 90 24 18 25
REMARK SMILES IDX 19 26 20 27 21 28 22 29 23 30 24 32 25 33 26 34 87 35 27 36
REMARK SMILES IDX 86 37 28 38 29 39 30 40 80 41 31 42 85 43 79 44 81 45 32 46
REMARK SMILES IDX 84 47 78 48 77 49 33 51 65 52 45 53 64 54 46 55 49 56 63 57
REMARK SMILES IDX 82 58 47 59 48 60 62 62 83 63 50 64 34 65 35 66 43 67 36 68
REMARK SMILES IDX 37 69 41 70 44 71 38 72 39 73 42 74 40 75 66 76 67 77 75 78
REMARK SMILES IDX 68 79 69 80 73 81 76 82 70 83 71 84 74 85 72 86 51 87 52 88
REMARK SMILES IDX 60 89 53 90 54 91 58 92 61 93 55 94 56 95 59 96 57 97
REMARK H PARENT 15 6 6 13 22 31 81 50 49 61
REMARK Flexibility Score: inf
ROOT
ATOM      1  C   UNL A   1      34.978  31.239  28.029  1.00  0.00     0.021 C 
ENDROOT
BRANCH   1   2
ATOM      2  C   UNL A   1      34.599  29.888  27.415  1.00  0.00     0.116 C 
BRANCH   2   3
ATOM      3  N   UNL A   1      33.910  30.068  26.148  1.00  0.00    -0.356 N 
ATOM      4  C   UNL A   1      33.255  29.164  25.367  1.00  0.00     0.220 C 
ATOM      5  O   UNL A   1      32.825  29.539  24.275  1.00  0.00    -0.275 OA
ATOM      6  H   UNL A   1      33.917  30.988  25.799  1.00  0.00     0.163 HD
BRANCH   4   7
ATOM      7  C   UNL A   1      33.085  27.719  25.813  1.00  0.00     0.103 C 
BRANCH   7   8
ATOM      8  C   UNL A   1      33.576  26.714  24.754  1.00  0.00     0.004 C 
ATOM      9  C   UNL A   1      34.334  25.541  25.388  1.00  0.00     0.009 C 
BRANCH   8  10
ATOM     10  C   UNL A   1      32.440  26.199  23.847  1.00  0.00     0.103 C 
BRANCH  10  11
ATOM     11  C   UNL A   1      33.013  25.332  22.733  1.00  0.00     0.220 C 
ATOM     12  N   UNL A   1      32.482  24.095  22.496  1.00  0.00    -0.352 N 
ATOM     13  H   UNL A   1      32.546  23.760  21.573  1.00  0.00     0.163 HD
ATOM     14  O   UNL A   1      33.893  25.761  21.985  1.00  0.00    -0.275 OA
BRANCH  12  15
ATOM     15  C   UNL A   1      31.835  23.223  23.454  1.00  0.00     0.151 C 
BRANCH  15  16
ATOM     16  C   UNL A   1      32.692  22.079  23.951  1.00  0.00    -0.028 A 
ATOM     17  C   UNL A   1      36.363  21.430  24.795  1.00  0.00     0.047 C 
ATOM     18  C   UNL A   1      34.901  21.215  24.557  1.00  0.00    -0.015 A 
ATOM     19  C   UNL A   1      34.050  22.281  24.244  1.00  0.00     0.012 A 
ATOM     20  C   UNL A   1      34.379  19.926  24.575  1.00  0.00     0.129 A 
ATOM     21  C   UNL A   1      33.034  19.684  24.289  1.00  0.00    -0.015 A 
ATOM     22  F   UNL A   1      35.202  18.897  24.827  1.00  0.00    -0.206 F 
ATOM     23  C   UNL A   1      32.190  20.770  23.996  1.00  0.00     0.012 A 
ATOM     24  C   UNL A   1      32.538  18.275  24.162  1.00  0.00     0.047 C 
ENDBRANCH  15  16
ENDBRANCH  12  15
ENDBRANCH  10  11
ENDBRANCH   8  10
ENDBRANCH   7   8
ENDBRANCH   4   7
ENDBRANCH   2   3
ENDBRANCH   1   2
BRANCH   1  25
ATOM     25  C   UNL A   1      33.832  32.256  28.032  1.00  0.00     0.002 C 
BRANCH  25  26
ATOM     26  C   UNL A   1      34.111  33.530  28.837  1.00  0.00     0.002 C 
BRANCH  26  27
ATOM     27  C   UNL A   1      32.979  34.565  28.839  1.00  0.00     0.021 C 
BRANCH  27  28
ATOM     28  C   UNL A   1      33.381  35.953  29.335  1.00  0.00     0.116 C 
BRANCH  28  29
ATOM     29  N   UNL A   1      32.574  36.379  30.468  1.00  0.00    -0.352 N 
ATOM     30  C   UNL A   1      32.631  35.943  31.769  1.00  0.00     0.251 C 
ATOM     31  H   UNL A   1      31.897  37.069  30.276  1.00  0.00     0.163 HD
ATOM     32  O   UNL A   1      31.748  36.219  32.574  1.00  0.00    -0.269 OA
BRANCH  30  33
ATOM     33  C   UNL A   1      33.780  35.121  32.186  1.00  0.00     0.039 A 
ATOM     34  C   UNL A   1      33.573  33.799  32.586  1.00  0.00     0.014 A 
ATOM     35  C   UNL A   1      35.064  35.671  32.165  1.00  0.00     0.014 A 
ATOM     36  C   UNL A   1      34.670  33.004  32.919  1.00  0.00     0.010 A 
ATOM     37  C   UNL A   1      36.160  34.862  32.437  1.00  0.00     0.010 A 
ATOM     38  C   UNL A   1      35.970  33.527  32.830  1.00  0.00    -0.014 A 
BRANCH  38  39
ATOM     39  C   UNL A   1      37.155  32.735  33.229  1.00  0.00     0.031 A 
ATOM     40  C   UNL A   1      37.829  33.050  34.534  1.00  0.00     0.074 A 
ATOM     41  C   UNL A   1      37.663  31.802  32.404  1.00  0.00     0.049 A 
ATOM     42  N   UNL A   1      38.951  32.590  35.023  1.00  0.00    -0.248 NA
ATOM     43  C   UNL A   1      37.156  34.039  35.394  1.00  0.00     0.031 C 
ATOM     44  C   UNL A   1      37.101  31.422  31.108  1.00  0.00     0.029 A 
ATOM     45  N   UNL A   1      38.780  31.016  32.530  1.00  0.00    -0.354 N 
ATOM     46  C   UNL A   1      39.125  33.242  36.235  1.00  0.00     0.074 A 
ATOM     47  C   UNL A   1      38.023  34.168  36.385  1.00  0.00     0.031 C 
ATOM     48  C   UNL A   1      37.875  30.469  30.560  1.00  0.00     0.029 A 
ATOM     49  C   UNL A   1      39.003  30.200  31.448  1.00  0.00     0.049 A 
ATOM     50  H   UNL A   1      39.367  31.036  33.319  1.00  0.00     0.167 HD
ATOM     51  C   UNL A   1      40.104  33.067  37.153  1.00  0.00     0.037 A 
ATOM     52  C   UNL A   1      40.012  29.344  31.203  1.00  0.00     0.037 A 
ATOM     53  C   UNL A   1      41.186  32.132  37.005  1.00  0.00     0.049 A 
ATOM     54  C   UNL A   1      41.108  29.189  32.225  1.00  0.00     0.074 A 
ATOM     55  C   UNL A   1      42.211  31.851  37.890  1.00  0.00     0.029 A 
ATOM     56  N   UNL A   1      41.380  31.322  35.895  1.00  0.00    -0.354 N 
ATOM     57  N   UNL A   1      41.251  29.788  33.383  1.00  0.00    -0.248 NA
ATOM     58  C   UNL A   1      42.182  28.239  31.904  1.00  0.00     0.031 C 
ATOM     59  C   UNL A   1      43.048  30.899  37.298  1.00  0.00     0.029 A 
ATOM     60  C   UNL A   1      42.519  30.552  36.065  1.00  0.00     0.049 A 
ATOM     61  H   UNL A   1      40.795  31.296  35.104  1.00  0.00     0.167 HD
ATOM     62  C   UNL A   1      42.418  29.279  33.936  1.00  0.00     0.074 A 
ATOM     63  C   UNL A   1      42.931  28.301  32.996  1.00  0.00     0.031 C 
ATOM     64  C   UNL A   1      43.017  29.593  35.112  1.00  0.00     0.037 A 
BRANCH  51  65
ATOM     65  C   UNL A   1      40.041  33.900  38.398  1.00  0.00     0.064 A 
ATOM     66  C   UNL A   1      40.715  35.127  38.493  1.00  0.00     0.173 A 
ATOM     67  C   UNL A   1      39.279  33.483  39.499  1.00  0.00     0.173 A 
ATOM     68  F   UNL A   1      41.473  35.562  37.474  1.00  0.00    -0.203 F 
ATOM     69  C   UNL A   1      40.647  35.895  39.652  1.00  0.00     0.198 A 
ATOM     70  C   UNL A   1      39.188  34.268  40.645  1.00  0.00     0.198 A 
ATOM     71  F   UNL A   1      38.616  32.317  39.460  1.00  0.00    -0.203 F 
ATOM     72  F   UNL A   1      41.336  37.041  39.736  1.00  0.00    -0.200 F 
ATOM     73  C   UNL A   1      39.877  35.469  40.724  1.00  0.00     0.200 A 
ATOM     74  F   UNL A   1      38.436  33.860  41.677  1.00  0.00    -0.200 F 
ATOM     75  F   UNL A   1      39.804  36.214  41.835  1.00  0.00    -0.200 F 
ENDBRANCH  51  65
BRANCH  52  76
ATOM     76  C   UNL A   1      40.022  28.549  29.947  1.00  0.00     0.064 A 
ATOM     77  C   UNL A   1      40.622  29.055  28.785  1.00  0.00     0.173 A 
ATOM     78  C   UNL A   1      39.443  27.274  29.880  1.00  0.00     0.173 A 
ATOM     79  F   UNL A   1      41.168  30.281  28.793  1.00  0.00    -0.203 F 
ATOM     80  C   UNL A   1      40.631  28.322  27.601  1.00  0.00     0.198 A 
ATOM     81  C   UNL A   1      39.476  26.530  28.701  1.00  0.00     0.198 A 
ATOM     82  F   UNL A   1      38.858  26.743  30.964  1.00  0.00    -0.203 F 
ATOM     83  F   UNL A   1      41.179  28.845  26.495  1.00  0.00    -0.200 F 
ATOM     84  C   UNL A   1      40.065  27.057  27.561  1.00  0.00     0.200 A 
ATOM     85  F   UNL A   1      38.939  25.303  28.671  1.00  0.00    -0.200 F 
ATOM     86  F   UNL A   1      40.082  26.348  26.424  1.00  0.00    -0.200 F 
ENDBRANCH  52  76
BRANCH  64  87
ATOM     87  C   UNL A   1      44.287  28.869  35.451  1.00  0.00     0.064 A 
ATOM     88  C   UNL A   1      45.541  29.385  35.091  1.00  0.00     0.173 A 
ATOM     89  C   UNL A   1      44.254  27.670  36.179  1.00  0.00     0.173 A 
ATOM     90  F   UNL A   1      45.626  30.521  34.383  1.00  0.00    -0.203 F 
ATOM     91  C   UNL A   1      46.714  28.713  35.425  1.00  0.00     0.198 A 
ATOM     92  C   UNL A   1      45.429  27.018  36.540  1.00  0.00     0.198 A 
ATOM     93  F   UNL A   1      43.081  27.140  36.555  1.00  0.00    -0.203 F 
ATOM     94  F   UNL A   1      47.898  29.199  35.029  1.00  0.00    -0.200 F 
ATOM     95  C   UNL A   1      46.658  27.535  36.156  1.00  0.00     0.200 A 
ATOM     96  F   UNL A   1      45.373  25.889  37.258  1.00  0.00    -0.200 F 
ATOM     97  F   UNL A   1      47.787  26.893  36.483  1.00  0.00    -0.200 F 
ENDBRANCH  64  87
ENDBRANCH  38  39
ENDBRANCH  30  33
ENDBRANCH  28  29
ENDBRANCH  27  28
ENDBRANCH  26  27
ENDBRANCH  25  26
ENDBRANCH   1  25
TORSDOF 18
ENDMDL
MODEL 2
REMARK VINA RESULT:     -11.3      0.947      2.062
REMARK SMILES Cc1cc(CNC(=O)C[C@H](C)CC(=O)NCCCCCCNC(=O)c2ccc(-c3c4nc(c(-c5c(F)c(F)c(F)c(F)c5F)c5ccc([nH]5)c(-c5c(F)c(F)c(F)c(F)c5F)c5nc(c(-c6c(F)c(F)c(F)c(F)c6F)c6ccc3[nH]6)C=C5)C=C4)cc2)cc(C)c1F
REMARK SMILES IDX 17 1 16 2 15 3 13 4 14 5 12 7 10 8 11 9 9 10 7 11 6 12 8 14
REMARK SMILES IDX 5 15 4 16 1 17 2 18 3 19 91 20 89 21 92 22 88 23 90 24 18 25
REMARK SMILES IDX 19 26 20 27 21 28 22 29 23 30 24 32 25 33 26 34 87 35 27 36
REMARK SMILES IDX 86 37 28 38 29 39 30 40 80 41 31 42 85 43 79 44 81 45 32 46
REMARK SMILES IDX 84 47 78 48 77 49 33 51 65 52 45 53 64 54 46 55 49 56 63 57
REMARK SMILES IDX 82 58 47 59 48 60 62 62 83 63 50 64 34 65 35 66 43 67 36 68
REMARK SMILES IDX 37 69 41 70 44 71 38 72 39 73 42 74 40 75 66 76 67 77 75 78
REMARK SMILES IDX 68 79 69 80 73 81 76 82 70 83 71 84 74 85 72 86 51 87 52 88
REMARK SMILES IDX 60 89 53 90 54 91 58 92 61 93 55 94 56 95 59 96 57 97
REMARK H PARENT 15 6 6 13 22 31 81 50 49 61
REMARK Flexibility Score: inf
ROOT
ATOM      1  C   UNL A   1      34.975  31.338  28.297  1.00  0.00     0.021 C 
ENDROOT
BRANCH   1   2
ATOM      2  C   UNL A   1      34.556  30.126  27.461  1.00  0.00     0.116 C 
BRANCH   2   3
ATOM      3  N   UNL A   1      33.489  30.473  26.539  1.00  0.00    -0.356 N 
ATOM      4  C   UNL A   1      32.350  29.798  26.217  1.00  0.00     0.220 C 
ATOM      5  O   UNL A   1      31.633  30.254  25.324  1.00  0.00    -0.275 OA
ATOM      6  H   UNL A   1      33.607  31.332  26.072  1.00  0.00     0.163 HD
BRANCH   4   7
ATOM      7  C   UNL A   1      31.985  28.497  26.915  1.00  0.00     0.103 C 
BRANCH   7   8
ATOM      8  C   UNL A   1      32.025  27.286  25.964  1.00  0.00     0.004 C 
ATOM      9  C   UNL A   1      33.442  26.718  25.822  1.00  0.00     0.009 C 
BRANCH   8  10
ATOM     10  C   UNL A   1      31.034  26.176  26.369  1.00  0.00     0.103 C 
BRANCH  10  11
ATOM     11  C   UNL A   1      30.571  25.413  25.134  1.00  0.00     0.220 C 
ATOM     12  N   UNL A   1      30.289  24.078  25.229  1.00  0.00    -0.352 N 
ATOM     13  H   UNL A   1      29.620  23.726  24.599  1.00  0.00     0.163 HD
ATOM     14  O   UNL A   1      30.365  25.995  24.069  1.00  0.00    -0.275 OA
BRANCH  12  15
ATOM     15  C   UNL A   1      30.868  23.126  26.154  1.00  0.00     0.151 C 
BRANCH  15  16
ATOM     16  C   UNL A   1      32.139  22.463  25.671  1.00  0.00    -0.028 A 
ATOM     17  C   UNL A   1      33.242  19.055  24.337  1.00  0.00     0.047 C 
ATOM     18  C   UNL A   1      33.282  20.468  24.829  1.00  0.00    -0.015 A 
ATOM     19  C   UNL A   1      32.108  21.162  25.142  1.00  0.00     0.012 A 
ATOM     20  C   UNL A   1      34.506  21.089  25.053  1.00  0.00     0.129 A 
ATOM     21  C   UNL A   1      34.579  22.381  25.577  1.00  0.00    -0.015 A 
ATOM     22  F   UNL A   1      35.634  20.408  24.801  1.00  0.00    -0.206 F 
ATOM     23  C   UNL A   1      33.388  23.070  25.867  1.00  0.00     0.012 A 
ATOM     24  C   UNL A   1      35.908  22.962  25.953  1.00  0.00     0.047 C 
ENDBRANCH  15  16
ENDBRANCH  12  15
ENDBRANCH  10  11
ENDBRANCH   8  10
ENDBRANCH   7   8
ENDBRANCH   4   7
ENDBRANCH   2   3
ENDBRANCH   1   2
BRANCH   1  25
ATOM     25  C   UNL A   1      34.175  32.607  27.983  1.00  0.00     0.002 C 
BRANCH  25  26
ATOM     26  C   UNL A   1      34.148  33.641  29.114  1.00  0.00     0.002 C 
BRANCH  26  27
ATOM     27  C   UNL A   1      33.006  34.663  29.041  1.00  0.00     0.021 C 
BRANCH  27  28
ATOM     28  C   UNL A   1      33.363  36.059  29.546  1.00  0.00     0.116 C 
BRANCH  28  29
ATOM     29  N   UNL A   1      32.545  36.451  30.683  1.00  0.00    -0.352 N 
ATOM     30  C   UNL A   1      32.604  35.989  31.975  1.00  0.00     0.251 C 
ATOM     31  H   UNL A   1      31.860  37.135  30.504  1.00  0.00     0.163 HD
ATOM     32  O   UNL A   1      31.713  36.235  32.783  1.00  0.00    -0.269 OA
BRANCH  30  33
ATOM     33  C   UNL A   1      33.762  35.174  32.381  1.00  0.00     0.039 A 
ATOM     34  C   UNL A   1      33.562  33.870  32.839  1.00  0.00     0.014 A 
ATOM     35  C   UNL A   1      35.048  35.712  32.290  1.00  0.00     0.014 A 
ATOM     36  C   UNL A   1      34.666  33.080  33.160  1.00  0.00     0.010 A 
ATOM     37  C   UNL A   1      36.148  34.906  32.551  1.00  0.00     0.010 A 
ATOM     38  C   UNL A   1      35.964  33.589  33.002  1.00  0.00    -0.014 A 
BRANCH  38  39
ATOM     39  C   UNL A   1      37.159  32.803  33.386  1.00  0.00     0.031 A 
ATOM     40  C   UNL A   1      37.834  33.106  34.693  1.00  0.00     0.074 A 
ATOM     41  C   UNL A   1      37.672  31.886  32.547  1.00  0.00     0.049 A 
ATOM     42  N   UNL A   1      38.962  32.650  35.171  1.00  0.00    -0.248 NA
ATOM     43  C   UNL A   1      37.155  34.077  35.568  1.00  0.00     0.031 C 
ATOM     44  C   UNL A   1      37.110  31.517  31.248  1.00  0.00     0.029 A 
ATOM     45  N   UNL A   1      38.797  31.109  32.658  1.00  0.00    -0.354 N 
ATOM     46  C   UNL A   1      39.134  33.288  36.392  1.00  0.00     0.074 A 
ATOM     47  C   UNL A   1      38.024  34.201  36.558  1.00  0.00     0.031 C 
ATOM     48  C   UNL A   1      37.890  30.580  30.684  1.00  0.00     0.029 A 
ATOM     49  C   UNL A   1      39.024  30.310  31.564  1.00  0.00     0.049 A 
ATOM     50  H   UNL A   1      39.387  31.124  33.446  1.00  0.00     0.167 HD
ATOM     51  C   UNL A   1      40.118  33.110  37.304  1.00  0.00     0.037 A 
ATOM     52  C   UNL A   1      40.041  29.467  31.305  1.00  0.00     0.037 A 
ATOM     53  C   UNL A   1      41.209  32.187  37.139  1.00  0.00     0.049 A 
ATOM     54  C   UNL A   1      41.142  29.309  32.320  1.00  0.00     0.074 A 
ATOM     55  C   UNL A   1      42.239  31.904  38.017  1.00  0.00     0.029 A 
ATOM     56  N   UNL A   1      41.406  31.394  36.018  1.00  0.00    -0.354 N 
ATOM     57  N   UNL A   1      41.283  29.894  33.486  1.00  0.00    -0.248 NA
ATOM     58  C   UNL A   1      42.224  28.374  31.983  1.00  0.00     0.031 C 
ATOM     59  C   UNL A   1      43.083  30.969  37.410  1.00  0.00     0.029 A 
ATOM     60  C   UNL A   1      42.554  30.633  36.174  1.00  0.00     0.049 A 
ATOM     61  H   UNL A   1      40.818  31.374  35.229  1.00  0.00     0.167 HD
ATOM     62  C   UNL A   1      42.458  29.388  34.028  1.00  0.00     0.074 A 
ATOM     63  C   UNL A   1      42.976  28.429  33.073  1.00  0.00     0.031 C 
ATOM     64  C   UNL A   1      43.057  29.692  35.206  1.00  0.00     0.037 A 
BRANCH  51  65
ATOM     65  C   UNL A   1      40.051  33.925  38.561  1.00  0.00     0.064 A 
ATOM     66  C   UNL A   1      39.323  33.489  39.678  1.00  0.00     0.173 A 
ATOM     67  C   UNL A   1      40.742  35.141  38.660  1.00  0.00     0.173 A 
ATOM     68  F   UNL A   1      38.630  32.342  39.628  1.00  0.00    -0.203 F 
ATOM     69  C   UNL A   1      39.272  34.253  40.842  1.00  0.00     0.198 A 
ATOM     70  C   UNL A   1      40.713  35.887  39.835  1.00  0.00     0.198 A 
ATOM     71  F   UNL A   1      41.451  35.604  37.620  1.00  0.00    -0.203 F 
ATOM     72  F   UNL A   1      38.533  33.838  41.881  1.00  0.00    -0.200 F 
ATOM     73  C   UNL A   1      39.973  35.447  40.922  1.00  0.00     0.200 A 
ATOM     74  F   UNL A   1      41.399  37.036  39.916  1.00  0.00    -0.200 F 
ATOM     75  F   UNL A   1      39.931  36.175  42.047  1.00  0.00    -0.200 F 
ENDBRANCH  51  65
BRANCH  52  76
ATOM     76  C   UNL A   1      40.055  28.689  30.038  1.00  0.00     0.064 A 
ATOM     77  C   UNL A   1      40.680  29.200  28.891  1.00  0.00     0.173 A 
ATOM     78  C   UNL A   1      39.453  27.426  29.944  1.00  0.00     0.173 A 
ATOM     79  F   UNL A   1      41.248  30.415  28.925  1.00  0.00    -0.203 F 
ATOM     80  C   UNL A   1      40.693  28.483  27.697  1.00  0.00     0.198 A 
ATOM     81  C   UNL A   1      39.489  26.698  28.756  1.00  0.00     0.198 A 
ATOM     82  F   UNL A   1      38.843  26.892  31.013  1.00  0.00    -0.203 F 
ATOM     83  F   UNL A   1      41.266  29.011  26.607  1.00  0.00    -0.200 F 
ATOM     84  C   UNL A   1      40.104  27.229  27.633  1.00  0.00     0.200 A 
ATOM     85  F   UNL A   1      38.929  25.482  28.701  1.00  0.00    -0.200 F 
ATOM     86  F   UNL A   1      40.123  26.536  26.486  1.00  0.00    -0.200 F 
ENDBRANCH  52  76
BRANCH  64  87
ATOM     87  C   UNL A   1      44.336  28.977  35.531  1.00  0.00     0.064 A 
ATOM     88  C   UNL A   1      44.336  27.749  36.209  1.00  0.00     0.173 A 
ATOM     89  C   UNL A   1      45.571  29.501  35.122  1.00  0.00     0.173 A 
ATOM     90  F   UNL A   1      43.182  27.212  36.633  1.00  0.00    -0.203 F 
ATOM     91  C   UNL A   1      45.527  27.086  36.490  1.00  0.00     0.198 A 
ATOM     92  C   UNL A   1      46.759  28.821  35.376  1.00  0.00     0.198 A 
ATOM     93  F   UNL A   1      45.626  30.668  34.462  1.00  0.00    -0.203 F 
ATOM     94  F   UNL A   1      45.507  25.939  37.182  1.00  0.00    -0.200 F 
ATOM     95  C   UNL A   1      46.736  27.618  36.066  1.00  0.00     0.200 A 
ATOM     96  F   UNL A   1      47.924  29.329  34.952  1.00  0.00    -0.200 F 
ATOM     97  F   UNL A   1      47.882  26.976  36.331  1.00  0.00    -0.200 F 
ENDBRANCH  64  87
ENDBRANCH  38  39
ENDBRANCH  30  33
ENDBRANCH  28  29
ENDBRANCH  27  28
ENDBRANCH  26  27
ENDBRANCH  25  26
ENDBRANCH   1  25
TORSDOF 18
ENDMDL
MODEL 3
REMARK VINA RESULT:     -11.3      6.296     10.737
REMARK SMILES Cc1cc(CNC(=O)C[C@H](C)CC(=O)NCCCCCCNC(=O)c2ccc(-c3c4nc(c(-c5c(F)c(F)c(F)c(F)c5F)c5ccc([nH]5)c(-c5c(F)c(F)c(F)c(F)c5F)c5nc(c(-c6c(F)c(F)c(F)c(F)c6F)c6ccc3[nH]6)C=C5)C=C4)cc2)cc(C)c1F
REMARK SMILES IDX 17 1 16 2 15 3 13 4 14 5 12 7 10 8 11 9 9 10 7 11 6 12 8 14
REMARK SMILES IDX 5 15 4 16 1 17 2 18 3 19 91 20 89 21 92 22 88 23 90 24 18 25
REMARK SMILES IDX 19 26 20 27 21 28 22 29 23 30 24 32 25 33 26 34 87 35 27 36
REMARK SMILES IDX 86 37 28 38 29 39 30 40 80 41 31 42 85 43 79 44 81 45 32 46
REMARK SMILES IDX 84 47 78 48 77 49 33 51 65 52 45 53 64 54 46 55 49 56 63 57
REMARK SMILES IDX 82 58 47 59 48 60 62 62 83 63 50 64 34 65 35 66 43 67 36 68
REMARK SMILES IDX 37 69 41 70 44 71 38 72 39 73 42 74 40 75 66 76 67 77 75 78
REMARK SMILES IDX 68 79 69 80 73 81 76 82 70 83 71 84 74 85 72 86 51 87 52 88
REMARK SMILES IDX 60 89 53 90 54 91 58 92 61 93 55 94 56 95 59 96 57 97
REMARK H PARENT 15 6 6 13 22 31 81 50 49 61
REMARK Flexibility Score: inf
ROOT
ATOM      1  C   UNL A   1      35.732  22.874  26.002  1.00  0.00     0.021 C 
ENDROOT
BRANCH   1   2
ATOM      2  C   UNL A   1      34.407  22.230  25.585  1.00  0.00     0.116 C 
BRANCH   2   3
ATOM      3  N   UNL A   1      33.361  22.519  26.550  1.00  0.00    -0.356 N 
ATOM      4  C   UNL A   1      32.414  23.499  26.554  1.00  0.00     0.220 C 
ATOM      5  O   UNL A   1      31.684  23.602  27.542  1.00  0.00    -0.275 OA
ATOM      6  H   UNL A   1      33.331  21.910  27.324  1.00  0.00     0.163 HD
BRANCH   4   7
ATOM      7  C   UNL A   1      32.279  24.464  25.386  1.00  0.00     0.103 C 
BRANCH   7   8
ATOM      8  C   UNL A   1      30.834  24.551  24.857  1.00  0.00     0.004 C 
ATOM      9  C   UNL A   1      30.134  25.835  25.316  1.00  0.00     0.009 C 
BRANCH   8  10
ATOM     10  C   UNL A   1      30.751  24.405  23.324  1.00  0.00     0.103 C 
BRANCH  10  11
ATOM     11  C   UNL A   1      32.093  23.945  22.769  1.00  0.00     0.220 C 
ATOM     12  N   UNL A   1      32.973  24.867  22.275  1.00  0.00    -0.352 N 
ATOM     13  H   UNL A   1      33.928  24.636  22.332  1.00  0.00     0.163 HD
ATOM     14  O   UNL A   1      32.436  22.764  22.836  1.00  0.00    -0.275 OA
BRANCH  12  15
ATOM     15  C   UNL A   1      32.655  26.146  21.674  1.00  0.00     0.151 C 
BRANCH  15  16
ATOM     16  C   UNL A   1      32.449  27.276  22.658  1.00  0.00    -0.028 A 
ATOM     17  C   UNL A   1      33.905  28.449  25.992  1.00  0.00     0.047 C 
ATOM     18  C   UNL A   1      33.039  28.356  24.775  1.00  0.00    -0.015 A 
ATOM     19  C   UNL A   1      33.296  27.417  23.769  1.00  0.00     0.012 A 
ATOM     20  C   UNL A   1      31.913  29.165  24.662  1.00  0.00     0.129 A 
ATOM     21  C   UNL A   1      31.046  29.055  23.573  1.00  0.00    -0.015 A 
ATOM     22  F   UNL A   1      31.637  30.032  25.648  1.00  0.00    -0.206 F 
ATOM     23  C   UNL A   1      31.332  28.120  22.563  1.00  0.00     0.012 A 
ATOM     24  C   UNL A   1      29.763  29.828  23.558  1.00  0.00     0.047 C 
ENDBRANCH  15  16
ENDBRANCH  12  15
ENDBRANCH  10  11
ENDBRANCH   8  10
ENDBRANCH   7   8
ENDBRANCH   4   7
ENDBRANCH   2   3
ENDBRANCH   1   2
BRANCH   1  25
ATOM     25  C   UNL A   1      36.968  22.134  25.478  1.00  0.00     0.002 C 
BRANCH  25  26
ATOM     26  C   UNL A   1      36.688  20.728  24.937  1.00  0.00     0.002 C 
BRANCH  26  27
ATOM     27  C   UNL A   1      37.879  19.762  24.972  1.00  0.00     0.021 C 
BRANCH  27  28
ATOM     28  C   UNL A   1      39.105  20.285  25.719  1.00  0.00     0.116 C 
BRANCH  28  29
ATOM     29  N   UNL A   1      40.131  19.264  25.861  1.00  0.00    -0.352 N 
ATOM     30  C   UNL A   1      41.472  19.430  26.105  1.00  0.00     0.251 C 
ATOM     31  H   UNL A   1      39.824  18.333  25.770  1.00  0.00     0.163 HD
ATOM     32  O   UNL A   1      42.264  18.501  25.979  1.00  0.00    -0.269 OA
BRANCH  30  33
ATOM     33  C   UNL A   1      41.954  20.759  26.516  1.00  0.00     0.039 A 
ATOM     34  C   UNL A   1      42.230  21.007  27.863  1.00  0.00     0.014 A 
ATOM     35  C   UNL A   1      42.143  21.753  25.552  1.00  0.00     0.014 A 
ATOM     36  C   UNL A   1      42.748  22.247  28.239  1.00  0.00     0.010 A 
ATOM     37  C   UNL A   1      42.715  22.963  25.918  1.00  0.00     0.010 A 
ATOM     38  C   UNL A   1      43.008  23.225  27.266  1.00  0.00    -0.014 A 
BRANCH  38  39
ATOM     39  C   UNL A   1      43.503  24.571  27.631  1.00  0.00     0.031 A 
ATOM     40  C   UNL A   1      42.512  25.611  28.069  1.00  0.00     0.074 A 
ATOM     41  C   UNL A   1      44.806  24.879  27.501  1.00  0.00     0.049 A 
ATOM     42  N   UNL A   1      42.692  26.886  28.302  1.00  0.00    -0.248 NA
ATOM     43  C   UNL A   1      41.123  25.156  28.244  1.00  0.00     0.031 C 
ATOM     44  C   UNL A   1      45.856  23.955  27.072  1.00  0.00     0.029 A 
ATOM     45  N   UNL A   1      45.464  26.065  27.702  1.00  0.00    -0.354 N 
ATOM     46  C   UNL A   1      41.440  27.384  28.634  1.00  0.00     0.074 A 
ATOM     47  C   UNL A   1      40.500  26.290  28.523  1.00  0.00     0.031 C 
ATOM     48  C   UNL A   1      47.029  24.609  27.048  1.00  0.00     0.029 A 
ATOM     49  C   UNL A   1      46.808  26.003  27.424  1.00  0.00     0.049 A 
ATOM     50  H   UNL A   1      45.017  26.884  28.015  1.00  0.00     0.167 HD
ATOM     51  C   UNL A   1      41.109  28.637  29.022  1.00  0.00     0.037 A 
ATOM     52  C   UNL A   1      47.745  26.969  27.458  1.00  0.00     0.037 A 
ATOM     53  C   UNL A   1      42.052  29.716  29.147  1.00  0.00     0.049 A 
ATOM     54  C   UNL A   1      47.346  28.365  27.860  1.00  0.00     0.074 A 
ATOM     55  C   UNL A   1      41.827  31.015  29.564  1.00  0.00     0.029 A 
ATOM     56  N   UNL A   1      43.405  29.616  28.856  1.00  0.00    -0.354 N 
ATOM     57  N   UNL A   1      46.166  28.822  28.202  1.00  0.00    -0.248 NA
ATOM     58  C   UNL A   1      48.411  29.376  27.882  1.00  0.00     0.031 C 
ATOM     59  C   UNL A   1      43.037  31.712  29.487  1.00  0.00     0.029 A 
ATOM     60  C   UNL A   1      44.025  30.836  29.068  1.00  0.00     0.049 A 
ATOM     61  H   UNL A   1      43.858  28.799  28.545  1.00  0.00     0.167 HD
ATOM     62  C   UNL A   1      46.346  30.168  28.494  1.00  0.00     0.074 A 
ATOM     63  C   UNL A   1      47.758  30.446  28.314  1.00  0.00     0.031 C 
ATOM     64  C   UNL A   1      45.429  31.093  28.872  1.00  0.00     0.037 A 
BRANCH  51  65
ATOM     65  C   UNL A   1      39.668  28.903  29.343  1.00  0.00     0.064 A 
ATOM     66  C   UNL A   1      38.766  29.332  28.357  1.00  0.00     0.173 A 
ATOM     67  C   UNL A   1      39.177  28.703  30.641  1.00  0.00     0.173 A 
ATOM     68  F   UNL A   1      39.190  29.555  27.104  1.00  0.00    -0.203 F 
ATOM     69  C   UNL A   1      37.429  29.572  28.666  1.00  0.00     0.198 A 
ATOM     70  C   UNL A   1      37.834  28.915  30.939  1.00  0.00     0.198 A 
ATOM     71  F   UNL A   1      39.999  28.296  31.620  1.00  0.00    -0.203 F 
ATOM     72  F   UNL A   1      36.596  30.024  27.718  1.00  0.00    -0.200 F 
ATOM     73  C   UNL A   1      36.962  29.355  29.954  1.00  0.00     0.200 A 
ATOM     74  F   UNL A   1      37.382  28.696  32.181  1.00  0.00    -0.200 F 
ATOM     75  F   UNL A   1      35.674  29.577  30.246  1.00  0.00    -0.200 F 
ENDBRANCH  51  65
BRANCH  52  76
ATOM     76  C   UNL A   1      49.157  26.645  27.123  1.00  0.00     0.064 A 
ATOM     77  C   UNL A   1      49.605  26.690  25.795  1.00  0.00     0.173 A 
ATOM     78  C   UNL A   1      50.084  26.292  28.113  1.00  0.00     0.173 A 
ATOM     79  F   UNL A   1      48.749  26.999  24.810  1.00  0.00    -0.203 F 
ATOM     80  C   UNL A   1      50.924  26.382  25.469  1.00  0.00     0.198 A 
ATOM     81  C   UNL A   1      51.410  26.009  27.789  1.00  0.00     0.198 A 
ATOM     82  F   UNL A   1      49.706  26.236  29.399  1.00  0.00    -0.203 F 
ATOM     83  F   UNL A   1      51.316  26.397  24.188  1.00  0.00    -0.200 F 
ATOM     84  C   UNL A   1      51.827  26.049  26.467  1.00  0.00     0.200 A 
ATOM     85  F   UNL A   1      52.283  25.700  28.757  1.00  0.00    -0.200 F 
ATOM     86  F   UNL A   1      53.098  25.761  26.155  1.00  0.00    -0.200 F 
ENDBRANCH  52  76
BRANCH  64  87
ATOM     87  C   UNL A   1      45.923  32.488  29.122  1.00  0.00     0.064 A 
ATOM     88  C   UNL A   1      46.417  32.876  30.376  1.00  0.00     0.173 A 
ATOM     89  C   UNL A   1      45.945  33.434  28.086  1.00  0.00     0.173 A 
ATOM     90  F   UNL A   1      46.405  32.013  31.402  1.00  0.00    -0.203 F 
ATOM     91  C   UNL A   1      46.888  34.168  30.591  1.00  0.00     0.198 A 
ATOM     92  C   UNL A   1      46.446  34.715  28.295  1.00  0.00     0.198 A 
ATOM     93  F   UNL A   1      45.493  33.111  26.865  1.00  0.00    -0.203 F 
ATOM     94  F   UNL A   1      47.309  34.532  31.810  1.00  0.00    -0.200 F 
ATOM     95  C   UNL A   1      46.910  35.084  29.549  1.00  0.00     0.200 A 
ATOM     96  F   UNL A   1      46.481  35.593  27.284  1.00  0.00    -0.200 F 
ATOM     97  F   UNL A   1      47.370  36.325  29.756  1.00  0.00    -0.200 F 
ENDBRANCH  64  87
ENDBRANCH  38  39
ENDBRANCH  30  33
ENDBRANCH  28  29
ENDBRANCH  27  28
ENDBRANCH  26  27
ENDBRANCH  25  26
ENDBRANCH   1  25
TORSDOF 18
ENDMDL
