MODEL 1
REMARK VINA RESULT:     -11.3      0.000      0.000
REMARK SMILES C[C@@]1(C(=O)N[C@@H](CO)C(=O)NCCCCCCNC(=O)c2ccc(-c3c4nc(c(-c5c(F)c(F)c(F)c(F)c5F)c5ccc([nH]5)c(-c5c(F)c(F)c(F)c(F)c5F)c5nc(c(-c6c(F)c(F)c(F)c(F)c6F)c6ccc3[nH]6)C=C5)C=C4)cc2)CCCO1
REMARK SMILES IDX 14 1 13 2 12 3 11 4 9 5 10 6 6 8 5 9 3 10 4 11 2 13 1 14
REMARK SMILES IDX 84 15 87 16 85 17 86 18 7 19 8 20 15 22 16 23 17 24 18 25
REMARK SMILES IDX 19 26 20 28 21 29 22 30 83 31 23 32 82 33 24 34 25 35 26 36
REMARK SMILES IDX 76 37 27 38 81 39 75 40 77 41 28 42 80 43 74 44 73 45 29 47
REMARK SMILES IDX 61 48 41 49 60 50 42 51 45 52 59 53 78 54 43 55 44 56 58 58
REMARK SMILES IDX 79 59 46 60 30 61 31 62 39 63 32 64 33 65 37 66 40 67 34 68
REMARK SMILES IDX 35 69 38 70 36 71 62 72 63 73 71 74 64 75 65 76 69 77 72 78
REMARK SMILES IDX 66 79 67 80 70 81 68 82 47 83 48 84 56 85 49 86 50 87 54 88
REMARK SMILES IDX 57 89 51 90 52 91 55 92 53 93
REMARK H PARENT 11 7 5 12 8 21 18 27 77 46 45 57
REMARK Flexibility Score: inf
ROOT
ATOM      1  C   UNL A   1      32.580  29.897  26.651  1.00  0.00     0.002 C 
ENDROOT
BRANCH   1   2
ATOM      2  C   UNL A   1      31.906  28.670  27.271  1.00  0.00     0.021 C 
BRANCH   2   3
ATOM      3  C   UNL A   1      32.116  27.382  26.486  1.00  0.00     0.116 C 
BRANCH   3   4
ATOM      4  N   UNL A   1      31.163  26.367  26.871  1.00  0.00    -0.354 N 
ATOM      5  C   UNL A   1      30.367  25.576  26.108  1.00  0.00     0.244 C 
ATOM      6  O   UNL A   1      29.736  24.684  26.684  1.00  0.00    -0.273 OA
ATOM      7  H   UNL A   1      31.076  26.227  27.843  1.00  0.00     0.163 HD
BRANCH   5   8
ATOM      8  C   UNL A   1      30.279  25.731  24.582  1.00  0.00     0.197 C 
BRANCH   8   9
ATOM      9  N   UNL A   1      30.282  24.444  23.890  1.00  0.00    -0.340 N 
ATOM     10  C   UNL A   1      31.315  23.748  23.338  1.00  0.00     0.252 C 
ATOM     11  O   UNL A   1      31.079  22.571  23.045  1.00  0.00    -0.272 OA
ATOM     12  H   UNL A   1      29.400  24.012  23.811  1.00  0.00     0.164 HD
BRANCH  10  13
ATOM     13  C   UNL A   1      32.714  24.389  23.108  1.00  0.00     0.143 C 
ATOM     14  C   UNL A   1      32.536  25.590  22.165  1.00  0.00     0.053 C 
ATOM     15  C   UNL A   1      33.720  23.402  22.507  1.00  0.00     0.048 C 
ATOM     16  O   UNL A   1      33.277  24.888  24.333  1.00  0.00    -0.365 OA
ATOM     17  C   UNL A   1      34.824  23.276  23.530  1.00  0.00     0.032 C 
ATOM     18  C   UNL A   1      34.648  24.485  24.419  1.00  0.00     0.162 C 
ENDBRANCH  10  13
ENDBRANCH   8   9
BRANCH   8  19
ATOM     19  C   UNL A   1      29.191  26.713  24.131  1.00  0.00     0.191 C 
BRANCH  19  20
ATOM     20  O   UNL A   1      27.926  26.110  23.872  1.00  0.00    -0.394 OA
ATOM     21  H   UNL A   1      27.320  26.305  24.604  1.00  0.00     0.210 HD
ENDBRANCH  19  20
ENDBRANCH   8  19
ENDBRANCH   5   8
ENDBRANCH   3   4
ENDBRANCH   2   3
ENDBRANCH   1   2
BRANCH   1  22
ATOM     22  C   UNL A   1      31.624  30.900  25.999  1.00  0.00     0.002 C 
BRANCH  22  23
ATOM     23  C   UNL A   1      31.386  32.182  26.800  1.00  0.00     0.021 C 
BRANCH  23  24
ATOM     24  C   UNL A   1      32.656  32.875  27.271  1.00  0.00     0.116 C 
BRANCH  24  25
ATOM     25  N   UNL A   1      32.421  34.263  27.626  1.00  0.00    -0.352 N 
ATOM     26  C   UNL A   1      32.983  35.001  28.637  1.00  0.00     0.251 C 
ATOM     27  H   UNL A   1      31.768  34.740  27.065  1.00  0.00     0.163 HD
ATOM     28  O   UNL A   1      32.534  36.100  28.931  1.00  0.00    -0.269 OA
BRANCH  26  29
ATOM     29  C   UNL A   1      34.128  34.441  29.385  1.00  0.00     0.039 A 
ATOM     30  C   UNL A   1      33.885  33.769  30.583  1.00  0.00     0.014 A 
ATOM     31  C   UNL A   1      35.431  34.571  28.894  1.00  0.00     0.014 A 
ATOM     32  C   UNL A   1      34.948  33.181  31.268  1.00  0.00     0.010 A 
ATOM     33  C   UNL A   1      36.476  33.912  29.533  1.00  0.00     0.010 A 
ATOM     34  C   UNL A   1      36.247  33.221  30.733  1.00  0.00    -0.014 A 
BRANCH  34  35
ATOM     35  C   UNL A   1      37.381  32.556  31.421  1.00  0.00     0.031 A 
ATOM     36  C   UNL A   1      38.098  31.415  30.756  1.00  0.00     0.074 A 
ATOM     37  C   UNL A   1      37.728  32.947  32.660  1.00  0.00     0.049 A 
ATOM     38  N   UNL A   1      39.081  30.679  31.208  1.00  0.00    -0.248 NA
ATOM     39  C   UNL A   1      37.632  31.036  29.414  1.00  0.00     0.031 C 
ATOM     40  C   UNL A   1      37.082  34.017  33.423  1.00  0.00     0.029 A 
ATOM     41  N   UNL A   1      38.712  32.488  33.500  1.00  0.00    -0.354 N 
ATOM     42  C   UNL A   1      39.344  29.748  30.211  1.00  0.00     0.074 A 
ATOM     43  C   UNL A   1      38.373  29.967  29.162  1.00  0.00     0.031 C 
ATOM     44  C   UNL A   1      37.710  34.157  34.601  1.00  0.00     0.029 A 
ATOM     45  C   UNL A   1      38.772  33.160  34.695  1.00  0.00     0.049 A 
ATOM     46  H   UNL A   1      39.317  31.747  33.267  1.00  0.00     0.167 HD
ATOM     47  C   UNL A   1      40.326  28.817  30.161  1.00  0.00     0.037 A 
ATOM     48  C   UNL A   1      39.591  32.987  35.750  1.00  0.00     0.037 A 
ATOM     49  C   UNL A   1      41.294  28.609  31.207  1.00  0.00     0.049 A 
ATOM     50  C   UNL A   1      40.643  31.913  35.691  1.00  0.00     0.074 A 
ATOM     51  C   UNL A   1      42.351  27.717  31.242  1.00  0.00     0.029 A 
ATOM     52  N   UNL A   1      41.313  29.298  32.413  1.00  0.00    -0.354 N 
ATOM     53  N   UNL A   1      40.926  31.081  34.717  1.00  0.00    -0.248 NA
ATOM     54  C   UNL A   1      41.492  31.757  36.879  1.00  0.00     0.031 C 
ATOM     55  C   UNL A   1      42.975  27.828  32.488  1.00  0.00     0.029 A 
ATOM     56  C   UNL A   1      42.347  28.832  33.208  1.00  0.00     0.049 A 
ATOM     57  H   UNL A   1      40.684  30.012  32.664  1.00  0.00     0.167 HD
ATOM     58  C   UNL A   1      42.005  30.329  35.159  1.00  0.00     0.074 A 
ATOM     59  C   UNL A   1      42.334  30.812  36.485  1.00  0.00     0.031 C 
ATOM     60  C   UNL A   1      42.666  29.329  34.524  1.00  0.00     0.037 A 
BRANCH  47  61
ATOM     61  C   UNL A   1      40.393  27.953  28.933  1.00  0.00     0.064 A 
ATOM     62  C   UNL A   1      39.693  26.740  28.844  1.00  0.00     0.173 A 
ATOM     63  C   UNL A   1      41.161  28.345  27.826  1.00  0.00     0.173 A 
ATOM     64  F   UNL A   1      38.952  26.311  29.878  1.00  0.00    -0.203 F 
ATOM     65  C   UNL A   1      39.796  25.930  27.716  1.00  0.00     0.198 A 
ATOM     66  C   UNL A   1      41.231  27.552  26.683  1.00  0.00     0.198 A 
ATOM     67  F   UNL A   1      41.846  29.499  27.850  1.00  0.00    -0.203 F 
ATOM     68  F   UNL A   1      39.173  24.744  27.685  1.00  0.00    -0.200 F 
ATOM     69  C   UNL A   1      40.559  26.339  26.634  1.00  0.00     0.200 A 
ATOM     70  F   UNL A   1      41.958  27.956  25.632  1.00  0.00    -0.200 F 
ATOM     71  F   UNL A   1      40.658  25.560  25.549  1.00  0.00    -0.200 F 
ENDBRANCH  47  61
BRANCH  48  72
ATOM     72  C   UNL A   1      39.475  33.877  36.936  1.00  0.00     0.064 A 
ATOM     73  C   UNL A   1      40.117  35.123  36.960  1.00  0.00     0.173 A 
ATOM     74  C   UNL A   1      38.727  33.506  38.063  1.00  0.00     0.173 A 
ATOM     75  F   UNL A   1      40.860  35.514  35.914  1.00  0.00    -0.203 F 
ATOM     76  C   UNL A   1      40.033  35.954  38.075  1.00  0.00     0.198 A 
ATOM     77  C   UNL A   1      38.620  34.351  39.164  1.00  0.00     0.198 A 
ATOM     78  F   UNL A   1      38.090  32.327  38.088  1.00  0.00    -0.203 F 
ATOM     79  F   UNL A   1      40.696  37.119  38.090  1.00  0.00    -0.200 F 
ATOM     80  C   UNL A   1      39.279  35.572  39.174  1.00  0.00     0.200 A 
ATOM     81  F   UNL A   1      37.878  33.984  40.218  1.00  0.00    -0.200 F 
ATOM     82  F   UNL A   1      39.195  36.373  40.244  1.00  0.00    -0.200 F 
ENDBRANCH  48  72
BRANCH  60  83
ATOM     83  C   UNL A   1      43.840  28.719  35.236  1.00  0.00     0.064 A 
ATOM     84  C   UNL A   1      43.692  27.640  36.119  1.00  0.00     0.173 A 
ATOM     85  C   UNL A   1      45.139  29.200  35.002  1.00  0.00     0.173 A 
ATOM     86  F   UNL A   1      42.472  27.152  36.391  1.00  0.00    -0.203 F 
ATOM     87  C   UNL A   1      44.794  27.085  36.765  1.00  0.00     0.198 A 
ATOM     88  C   UNL A   1      46.242  28.621  35.620  1.00  0.00     0.198 A 
ATOM     89  F   UNL A   1      45.338  30.227  34.161  1.00  0.00    -0.203 F 
ATOM     90  F   UNL A   1      44.622  26.092  37.647  1.00  0.00    -0.200 F 
ATOM     91  C   UNL A   1      46.069  27.570  36.508  1.00  0.00     0.200 A 
ATOM     92  F   UNL A   1      47.473  29.080  35.358  1.00  0.00    -0.200 F 
ATOM     93  F   UNL A   1      47.129  27.030  37.123  1.00  0.00    -0.200 F 
ENDBRANCH  60  83
ENDBRANCH  34  35
ENDBRANCH  26  29
ENDBRANCH  24  25
ENDBRANCH  23  24
ENDBRANCH  22  23
ENDBRANCH   1  22
TORSDOF 17
ENDMDL
MODEL 2
REMARK VINA RESULT:     -11.3      1.078      2.165
REMARK SMILES C[C@@]1(C(=O)N[C@@H](CO)C(=O)NCCCCCCNC(=O)c2ccc(-c3c4nc(c(-c5c(F)c(F)c(F)c(F)c5F)c5ccc([nH]5)c(-c5c(F)c(F)c(F)c(F)c5F)c5nc(c(-c6c(F)c(F)c(F)c(F)c6F)c6ccc3[nH]6)C=C5)C=C4)cc2)CCCO1
REMARK SMILES IDX 14 1 13 2 12 3 11 4 9 5 10 6 6 8 5 9 3 10 4 11 2 13 1 14
REMARK SMILES IDX 84 15 87 16 85 17 86 18 7 19 8 20 15 22 16 23 17 24 18 25
REMARK SMILES IDX 19 26 20 28 21 29 22 30 83 31 23 32 82 33 24 34 25 35 26 36
REMARK SMILES IDX 76 37 27 38 81 39 75 40 77 41 28 42 80 43 74 44 73 45 29 47
REMARK SMILES IDX 61 48 41 49 60 50 42 51 45 52 59 53 78 54 43 55 44 56 58 58
REMARK SMILES IDX 79 59 46 60 30 61 31 62 39 63 32 64 33 65 37 66 40 67 34 68
REMARK SMILES IDX 35 69 38 70 36 71 62 72 63 73 71 74 64 75 65 76 69 77 72 78
REMARK SMILES IDX 66 79 67 80 70 81 68 82 47 83 48 84 56 85 49 86 50 87 54 88
REMARK SMILES IDX 57 89 51 90 52 91 55 92 53 93
REMARK H PARENT 11 7 5 12 8 21 18 27 77 46 45 57
REMARK Flexibility Score: inf
ROOT
ATOM      1  C   UNL A   1      32.320  29.882  27.153  1.00  0.00     0.002 C 
ENDROOT
BRANCH   1   2
ATOM      2  C   UNL A   1      31.613  28.570  27.503  1.00  0.00     0.021 C 
BRANCH   2   3
ATOM      3  C   UNL A   1      32.044  27.385  26.649  1.00  0.00     0.116 C 
BRANCH   3   4
ATOM      4  N   UNL A   1      31.349  27.366  25.383  1.00  0.00    -0.354 N 
ATOM      5  C   UNL A   1      31.818  27.149  24.127  1.00  0.00     0.244 C 
ATOM      6  O   UNL A   1      30.985  27.049  23.221  1.00  0.00    -0.273 OA
ATOM      7  H   UNL A   1      30.380  27.536  25.439  1.00  0.00     0.163 HD
BRANCH   5   8
ATOM      8  C   UNL A   1      33.317  26.982  23.830  1.00  0.00     0.197 C 
BRANCH   8   9
ATOM      9  N   UNL A   1      33.566  26.033  22.746  1.00  0.00    -0.340 N 
ATOM     10  C   UNL A   1      33.712  24.679  22.784  1.00  0.00     0.252 C 
ATOM     11  O   UNL A   1      33.658  24.099  21.694  1.00  0.00    -0.272 OA
ATOM     12  H   UNL A   1      33.640  26.436  21.850  1.00  0.00     0.164 HD
BRANCH  10  13
ATOM     13  C   UNL A   1      33.914  23.906  24.119  1.00  0.00     0.143 C 
ATOM     14  C   UNL A   1      32.532  23.690  24.756  1.00  0.00     0.053 C 
ATOM     15  C   UNL A   1      34.825  24.654  25.098  1.00  0.00     0.048 C 
ATOM     16  O   UNL A   1      34.490  22.607  23.898  1.00  0.00    -0.365 OA
ATOM     17  C   UNL A   1      36.016  23.749  25.313  1.00  0.00     0.032 C 
ATOM     18  C   UNL A   1      35.544  22.394  24.842  1.00  0.00     0.162 C 
ENDBRANCH  10  13
ENDBRANCH   8   9
BRANCH   8  19
ATOM     19  C   UNL A   1      34.069  28.314  23.720  1.00  0.00     0.191 C 
BRANCH  19  20
ATOM     20  O   UNL A   1      33.243  29.429  23.395  1.00  0.00    -0.394 OA
ATOM     21  H   UNL A   1      32.650  29.189  22.666  1.00  0.00     0.210 HD
ENDBRANCH  19  20
ENDBRANCH   8  19
ENDBRANCH   5   8
ENDBRANCH   3   4
ENDBRANCH   2   3
ENDBRANCH   1   2
BRANCH   1  22
ATOM     22  C   UNL A   1      31.590  30.756  26.128  1.00  0.00     0.002 C 
BRANCH  22  23
ATOM     23  C   UNL A   1      31.403  32.218  26.540  1.00  0.00     0.021 C 
BRANCH  23  24
ATOM     24  C   UNL A   1      32.587  32.820  27.281  1.00  0.00     0.116 C 
BRANCH  24  25
ATOM     25  N   UNL A   1      32.373  34.218  27.607  1.00  0.00    -0.352 N 
ATOM     26  C   UNL A   1      32.965  34.975  28.586  1.00  0.00     0.251 C 
ATOM     27  H   UNL A   1      31.712  34.688  27.049  1.00  0.00     0.163 HD
ATOM     28  O   UNL A   1      32.533  36.086  28.863  1.00  0.00    -0.269 OA
BRANCH  26  29
ATOM     29  C   UNL A   1      34.121  34.423  29.322  1.00  0.00     0.039 A 
ATOM     30  C   UNL A   1      33.891  33.715  30.502  1.00  0.00     0.014 A 
ATOM     31  C   UNL A   1      35.421  34.594  28.838  1.00  0.00     0.014 A 
ATOM     32  C   UNL A   1      34.966  33.134  31.174  1.00  0.00     0.010 A 
ATOM     33  C   UNL A   1      36.479  33.943  29.462  1.00  0.00     0.010 A 
ATOM     34  C   UNL A   1      36.265  33.217  30.643  1.00  0.00    -0.014 A 
BRANCH  34  35
ATOM     35  C   UNL A   1      37.412  32.560  31.316  1.00  0.00     0.031 A 
ATOM     36  C   UNL A   1      38.133  31.429  30.639  1.00  0.00     0.074 A 
ATOM     37  C   UNL A   1      37.769  32.950  32.553  1.00  0.00     0.049 A 
ATOM     38  N   UNL A   1      39.128  30.700  31.078  1.00  0.00    -0.248 NA
ATOM     39  C   UNL A   1      37.656  31.049  29.301  1.00  0.00     0.031 C 
ATOM     40  C   UNL A   1      37.122  34.011  33.326  1.00  0.00     0.029 A 
ATOM     41  N   UNL A   1      38.766  32.497  33.380  1.00  0.00    -0.354 N 
ATOM     42  C   UNL A   1      39.389  29.776  30.075  1.00  0.00     0.074 A 
ATOM     43  C   UNL A   1      38.404  29.988  29.037  1.00  0.00     0.031 C 
ATOM     44  C   UNL A   1      37.761  34.153  34.498  1.00  0.00     0.029 A 
ATOM     45  C   UNL A   1      38.833  33.165  34.578  1.00  0.00     0.049 A 
ATOM     46  H   UNL A   1      39.376  31.763  33.138  1.00  0.00     0.167 HD
ATOM     47  C   UNL A   1      40.379  28.854  30.011  1.00  0.00     0.037 A 
ATOM     48  C   UNL A   1      39.665  32.997  35.622  1.00  0.00     0.037 A 
ATOM     49  C   UNL A   1      41.360  28.651  31.045  1.00  0.00     0.049 A 
ATOM     50  C   UNL A   1      40.726  31.933  35.548  1.00  0.00     0.074 A 
ATOM     51  C   UNL A   1      42.426  27.770  31.065  1.00  0.00     0.029 A 
ATOM     52  N   UNL A   1      41.385  29.336  32.253  1.00  0.00    -0.354 N 
ATOM     53  N   UNL A   1      41.007  31.107  34.568  1.00  0.00    -0.248 NA
ATOM     54  C   UNL A   1      41.590  31.780  36.726  1.00  0.00     0.031 C 
ATOM     55  C   UNL A   1      43.062  27.882  32.306  1.00  0.00     0.029 A 
ATOM     56  C   UNL A   1      42.433  28.877  33.036  1.00  0.00     0.049 A 
ATOM     57  H   UNL A   1      40.752  30.043  32.514  1.00  0.00     0.167 HD
ATOM     58  C   UNL A   1      42.098  30.364  34.996  1.00  0.00     0.074 A 
ATOM     59  C   UNL A   1      42.436  30.845  36.319  1.00  0.00     0.031 C 
ATOM     60  C   UNL A   1      42.761  29.372  34.350  1.00  0.00     0.037 A 
BRANCH  47  61
ATOM     61  C   UNL A   1      40.441  27.995  28.778  1.00  0.00     0.064 A 
ATOM     62  C   UNL A   1      39.754  26.774  28.694  1.00  0.00     0.173 A 
ATOM     63  C   UNL A   1      41.190  28.400  27.663  1.00  0.00     0.173 A 
ATOM     64  F   UNL A   1      39.031  26.333  29.735  1.00  0.00    -0.203 F 
ATOM     65  C   UNL A   1      39.853  25.969  27.562  1.00  0.00     0.198 A 
ATOM     66  C   UNL A   1      41.255  27.611  26.517  1.00  0.00     0.198 A 
ATOM     67  F   UNL A   1      41.861  29.562  27.683  1.00  0.00    -0.203 F 
ATOM     68  F   UNL A   1      39.243  24.776  27.535  1.00  0.00    -0.200 F 
ATOM     69  C   UNL A   1      40.597  26.391  26.472  1.00  0.00     0.200 A 
ATOM     70  F   UNL A   1      41.964  28.027  25.459  1.00  0.00    -0.200 F 
ATOM     71  F   UNL A   1      40.691  25.617  25.383  1.00  0.00    -0.200 F 
ENDBRANCH  47  61
BRANCH  48  72
ATOM     72  C   UNL A   1      39.554  33.881  36.813  1.00  0.00     0.064 A 
ATOM     73  C   UNL A   1      38.792  33.492  37.924  1.00  0.00     0.173 A 
ATOM     74  C   UNL A   1      40.201  35.124  36.868  1.00  0.00     0.173 A 
ATOM     75  F   UNL A   1      38.139  32.321  37.910  1.00  0.00    -0.203 F 
ATOM     76  C   UNL A   1      38.663  34.322  39.035  1.00  0.00     0.198 A 
ATOM     77  C   UNL A   1      40.096  35.939  37.993  1.00  0.00     0.198 A 
ATOM     78  F   UNL A   1      40.946  35.541  35.835  1.00  0.00    -0.203 F 
ATOM     79  F   UNL A   1      37.889  33.946  40.062  1.00  0.00    -0.200 F 
ATOM     80  C   UNL A   1      39.320  35.543  39.072  1.00  0.00     0.200 A 
ATOM     81  F   UNL A   1      40.745  37.111  38.031  1.00  0.00    -0.200 F 
ATOM     82  F   UNL A   1      39.200  36.339  40.143  1.00  0.00    -0.200 F 
ENDBRANCH  48  72
BRANCH  60  83
ATOM     83  C   UNL A   1      43.949  28.771  35.047  1.00  0.00     0.064 A 
ATOM     84  C   UNL A   1      45.237  29.307  34.912  1.00  0.00     0.173 A 
ATOM     85  C   UNL A   1      43.786  27.661  35.893  1.00  0.00     0.173 A 
ATOM     86  F   UNL A   1      45.450  30.358  34.104  1.00  0.00    -0.203 F 
ATOM     87  C   UNL A   1      46.323  28.738  35.572  1.00  0.00     0.198 A 
ATOM     88  C   UNL A   1      44.867  27.117  36.579  1.00  0.00     0.198 A 
ATOM     89  F   UNL A   1      42.574  27.113  36.063  1.00  0.00    -0.203 F 
ATOM     90  F   UNL A   1      47.554  29.233  35.384  1.00  0.00    -0.200 F 
ATOM     91  C   UNL A   1      46.136  27.649  36.411  1.00  0.00     0.200 A 
ATOM     92  F   UNL A   1      44.681  26.076  37.402  1.00  0.00    -0.200 F 
ATOM     93  F   UNL A   1      47.181  27.108  37.052  1.00  0.00    -0.200 F 
ENDBRANCH  60  83
ENDBRANCH  34  35
ENDBRANCH  26  29
ENDBRANCH  24  25
ENDBRANCH  23  24
ENDBRANCH  22  23
ENDBRANCH   1  22
TORSDOF 17
ENDMDL
MODEL 3
REMARK VINA RESULT:     -11.1      1.052      7.427
REMARK SMILES C[C@@]1(C(=O)N[C@@H](CO)C(=O)NCCCCCCNC(=O)c2ccc(-c3c4nc(c(-c5c(F)c(F)c(F)c(F)c5F)c5ccc([nH]5)c(-c5c(F)c(F)c(F)c(F)c5F)c5nc(c(-c6c(F)c(F)c(F)c(F)c6F)c6ccc3[nH]6)C=C5)C=C4)cc2)CCCO1
REMARK SMILES IDX 14 1 13 2 12 3 11 4 9 5 10 6 6 8 5 9 3 10 4 11 2 13 1 14
REMARK SMILES IDX 84 15 87 16 85 17 86 18 7 19 8 20 15 22 16 23 17 24 18 25
REMARK SMILES IDX 19 26 20 28 21 29 22 30 83 31 23 32 82 33 24 34 25 35 26 36
REMARK SMILES IDX 76 37 27 38 81 39 75 40 77 41 28 42 80 43 74 44 73 45 29 47
REMARK SMILES IDX 61 48 41 49 60 50 42 51 45 52 59 53 78 54 43 55 44 56 58 58
REMARK SMILES IDX 79 59 46 60 30 61 31 62 39 63 32 64 33 65 37 66 40 67 34 68
REMARK SMILES IDX 35 69 38 70 36 71 62 72 63 73 71 74 64 75 65 76 69 77 72 78
REMARK SMILES IDX 66 79 67 80 70 81 68 82 47 83 48 84 56 85 49 86 50 87 54 88
REMARK SMILES IDX 57 89 51 90 52 91 55 92 53 93
REMARK H PARENT 11 7 5 12 8 21 18 27 77 46 45 57
REMARK Flexibility Score: inf
ROOT
ATOM      1  C   UNL A   1      32.161  29.600  26.123  1.00  0.00     0.002 C 
ENDROOT
BRANCH   1   2
ATOM      2  C   UNL A   1      31.559  28.293  25.601  1.00  0.00     0.021 C 
BRANCH   2   3
ATOM      3  C   UNL A   1      32.021  27.053  26.354  1.00  0.00     0.116 C 
BRANCH   3   4
ATOM      4  N   UNL A   1      30.906  26.208  26.713  1.00  0.00    -0.354 N 
ATOM      5  C   UNL A   1      30.510  25.012  26.205  1.00  0.00     0.244 C 
ATOM      6  O   UNL A   1      29.593  24.425  26.788  1.00  0.00    -0.273 OA
ATOM      7  H   UNL A   1      30.342  26.553  27.444  1.00  0.00     0.163 HD
BRANCH   5   8
ATOM      8  C   UNL A   1      31.195  24.373  24.987  1.00  0.00     0.197 C 
BRANCH   8   9
ATOM      9  N   UNL A   1      31.115  22.914  25.006  1.00  0.00    -0.340 N 
ATOM     10  C   UNL A   1      32.109  21.984  25.073  1.00  0.00     0.252 C 
ATOM     11  O   UNL A   1      31.752  20.830  25.332  1.00  0.00    -0.272 OA
ATOM     12  H   UNL A   1      30.203  22.546  24.965  1.00  0.00     0.164 HD
BRANCH  10  13
ATOM     13  C   UNL A   1      33.605  22.354  24.856  1.00  0.00     0.143 C 
ATOM     14  C   UNL A   1      34.405  21.046  24.748  1.00  0.00     0.053 C 
ATOM     15  C   UNL A   1      34.166  23.215  25.992  1.00  0.00     0.048 C 
ATOM     16  O   UNL A   1      33.799  23.076  23.628  1.00  0.00    -0.365 OA
ATOM     17  C   UNL A   1      34.571  24.520  25.347  1.00  0.00     0.032 C 
ATOM     18  C   UNL A   1      34.653  24.198  23.874  1.00  0.00     0.162 C 
ENDBRANCH  10  13
ENDBRANCH   8   9
BRANCH   8  19
ATOM     19  C   UNL A   1      30.810  25.032  23.657  1.00  0.00     0.191 C 
BRANCH  19  20
ATOM     20  O   UNL A   1      31.226  24.309  22.502  1.00  0.00    -0.394 OA
ATOM     21  H   UNL A   1      30.646  23.541  22.376  1.00  0.00     0.210 HD
ENDBRANCH  19  20
ENDBRANCH   8  19
ENDBRANCH   5   8
ENDBRANCH   3   4
ENDBRANCH   2   3
ENDBRANCH   1   2
BRANCH   1  22
ATOM     22  C   UNL A   1      31.416  30.870  25.701  1.00  0.00     0.002 C 
BRANCH  22  23
ATOM     23  C   UNL A   1      31.308  31.948  26.782  1.00  0.00     0.021 C 
BRANCH  23  24
ATOM     24  C   UNL A   1      32.628  32.614  27.141  1.00  0.00     0.116 C 
BRANCH  24  25
ATOM     25  N   UNL A   1      32.450  34.000  27.534  1.00  0.00    -0.352 N 
ATOM     26  C   UNL A   1      33.081  34.701  28.531  1.00  0.00     0.251 C 
ATOM     27  H   UNL A   1      31.785  34.507  27.014  1.00  0.00     0.163 HD
ATOM     28  O   UNL A   1      32.678  35.806  28.866  1.00  0.00    -0.269 OA
BRANCH  26  29
ATOM     29  C   UNL A   1      34.243  34.094  29.212  1.00  0.00     0.039 A 
ATOM     30  C   UNL A   1      34.019  33.115  30.181  1.00  0.00     0.014 A 
ATOM     31  C   UNL A   1      35.545  34.483  28.883  1.00  0.00     0.014 A 
ATOM     32  C   UNL A   1      35.107  32.489  30.788  1.00  0.00     0.010 A 
ATOM     33  C   UNL A   1      36.626  33.798  29.426  1.00  0.00     0.010 A 
ATOM     34  C   UNL A   1      36.419  32.803  30.392  1.00  0.00    -0.014 A 
BRANCH  34  35
ATOM     35  C   UNL A   1      37.586  32.109  30.989  1.00  0.00     0.031 A 
ATOM     36  C   UNL A   1      38.056  32.478  32.368  1.00  0.00     0.074 A 
ATOM     37  C   UNL A   1      38.250  31.185  30.270  1.00  0.00     0.049 A 
ATOM     38  N   UNL A   1      39.078  32.020  33.046  1.00  0.00    -0.248 NA
ATOM     39  C   UNL A   1      37.290  33.519  33.069  1.00  0.00     0.031 C 
ATOM     40  C   UNL A   1      37.912  30.769  28.908  1.00  0.00     0.029 A 
ATOM     41  N   UNL A   1      39.350  30.428  30.585  1.00  0.00    -0.354 N 
ATOM     42  C   UNL A   1      39.079  32.720  34.245  1.00  0.00     0.074 A 
ATOM     43  C   UNL A   1      38.001  33.682  34.174  1.00  0.00     0.031 C 
ATOM     44  C   UNL A   1      38.762  29.807  28.519  1.00  0.00     0.029 A 
ATOM     45  C   UNL A   1      39.731  29.569  29.585  1.00  0.00     0.049 A 
ATOM     46  H   UNL A   1      39.822  30.494  31.447  1.00  0.00     0.167 HD
ATOM     47  C   UNL A   1      39.886  32.554  35.320  1.00  0.00     0.037 A 
ATOM     48  C   UNL A   1      40.750  28.690  29.534  1.00  0.00     0.037 A 
ATOM     49  C   UNL A   1      40.953  31.590  35.386  1.00  0.00     0.049 A 
ATOM     50  C   UNL A   1      41.662  28.559  30.723  1.00  0.00     0.074 A 
ATOM     51  C   UNL A   1      41.806  31.316  36.441  1.00  0.00     0.029 A 
ATOM     52  N   UNL A   1      41.321  30.748  34.345  1.00  0.00    -0.354 N 
ATOM     53  N   UNL A   1      41.616  29.179  31.877  1.00  0.00    -0.248 NA
ATOM     54  C   UNL A   1      42.769  27.601  30.601  1.00  0.00     0.031 C 
ATOM     55  C   UNL A   1      42.724  30.349  36.019  1.00  0.00     0.029 A 
ATOM     56  C   UNL A   1      42.405  29.973  34.724  1.00  0.00     0.049 A 
ATOM     57  H   UNL A   1      40.876  30.707  33.468  1.00  0.00     0.167 HD
ATOM     58  C   UNL A   1      42.661  28.663  32.631  1.00  0.00     0.074 A 
ATOM     59  C   UNL A   1      43.317  27.669  31.806  1.00  0.00     0.031 C 
ATOM     60  C   UNL A   1      43.043  28.982  33.893  1.00  0.00     0.037 A 
BRANCH  47  61
ATOM     61  C   UNL A   1      39.640  33.442  36.508  1.00  0.00     0.064 A 
ATOM     62  C   UNL A   1      38.767  33.067  37.541  1.00  0.00     0.173 A 
ATOM     63  C   UNL A   1      40.289  34.681  36.620  1.00  0.00     0.173 A 
ATOM     64  F   UNL A   1      38.111  31.898  37.481  1.00  0.00    -0.203 F 
ATOM     65  C   UNL A   1      38.517  33.917  38.616  1.00  0.00     0.198 A 
ATOM     66  C   UNL A   1      40.067  35.512  37.716  1.00  0.00     0.198 A 
ATOM     67  F   UNL A   1      41.140  35.089  35.667  1.00  0.00    -0.203 F 
ATOM     68  F   UNL A   1      37.626  33.564  39.554  1.00  0.00    -0.200 F 
ATOM     69  C   UNL A   1      39.171  35.135  38.707  1.00  0.00     0.200 A 
ATOM     70  F   UNL A   1      40.712  36.683  37.808  1.00  0.00    -0.200 F 
ATOM     71  F   UNL A   1      38.932  35.952  39.741  1.00  0.00    -0.200 F 
ENDBRANCH  47  61
BRANCH  48  72
ATOM     72  C   UNL A   1      40.938  27.838  28.330  1.00  0.00     0.064 A 
ATOM     73  C   UNL A   1      41.722  28.281  27.255  1.00  0.00     0.173 A 
ATOM     74  C   UNL A   1      40.345  26.571  28.225  1.00  0.00     0.173 A 
ATOM     75  F   UNL A   1      42.294  29.494  27.300  1.00  0.00    -0.203 F 
ATOM     76  C   UNL A   1      41.888  27.500  26.114  1.00  0.00     0.198 A 
ATOM     77  C   UNL A   1      40.536  25.779  27.096  1.00  0.00     0.198 A 
ATOM     78  F   UNL A   1      39.590  26.098  29.227  1.00  0.00    -0.203 F 
ATOM     79  F   UNL A   1      42.603  27.969  25.082  1.00  0.00    -0.200 F 
ATOM     80  C   UNL A   1      41.300  26.247  26.037  1.00  0.00     0.200 A 
ATOM     81  F   UNL A   1      39.979  24.561  27.032  1.00  0.00    -0.200 F 
ATOM     82  F   UNL A   1      41.463  25.494  24.941  1.00  0.00    -0.200 F 
ENDBRANCH  48  72
BRANCH  60  83
ATOM     83  C   UNL A   1      44.197  28.217  34.477  1.00  0.00     0.064 A 
ATOM     84  C   UNL A   1      44.016  27.000  35.147  1.00  0.00     0.173 A 
ATOM     85  C   UNL A   1      45.510  28.695  34.329  1.00  0.00     0.173 A 
ATOM     86  F   UNL A   1      42.781  26.506  35.329  1.00  0.00    -0.203 F 
ATOM     87  C   UNL A   1      45.100  26.304  35.676  1.00  0.00     0.198 A 
ATOM     88  C   UNL A   1      46.595  27.980  34.827  1.00  0.00     0.198 A 
ATOM     89  F   UNL A   1      45.740  29.852  33.690  1.00  0.00    -0.203 F 
ATOM     90  F   UNL A   1      44.897  25.171  36.362  1.00  0.00    -0.200 F 
ATOM     91  C   UNL A   1      46.389  26.790  35.508  1.00  0.00     0.200 A 
ATOM     92  F   UNL A   1      47.839  28.443  34.649  1.00  0.00    -0.200 F 
ATOM     93  F   UNL A   1      47.432  26.115  36.010  1.00  0.00    -0.200 F 
ENDBRANCH  60  83
ENDBRANCH  34  35
ENDBRANCH  26  29
ENDBRANCH  24  25
ENDBRANCH  23  24
ENDBRANCH  22  23
ENDBRANCH   1  22
TORSDOF 17
ENDMDL
