MODEL 1
REMARK VINA RESULT:     -13.6      0.000      0.000
REMARK SMILES O=C(NCCCCCCNC(=O)c1ccc(-c2c3nc(c(-c4c(F)c(F)c(F)c(F)c4F)c4ccc([nH]4)c(-c4c(F)c(F)c(F)c(F)c4F)c4nc(c(-c5c(F)c(F)c(F)c(F)c5F)c5ccc2[nH]5)C=C4)C=C3)cc1)C1=C(C(=O)Nc2ccc(-c3nc4ccccc4o3)cc2)CCCC1
REMARK SMILES IDX 6 1 5 2 4 3 3 4 1 5 2 6 76 8 77 9 99 10 96 11 98 12 97 13
REMARK SMILES IDX 78 14 79 15 80 16 81 18 82 19 95 20 83 21 94 22 84 23 85 24
REMARK SMILES IDX 86 25 93 26 87 27 92 28 88 29 91 30 89 31 90 32 7 33 8 34
REMARK SMILES IDX 9 35 10 36 11 37 12 39 13 40 14 41 75 42 15 43 74 44 16 45
REMARK SMILES IDX 17 46 18 47 68 48 19 49 73 50 67 51 69 52 20 53 72 54 66 55
REMARK SMILES IDX 65 56 21 58 53 59 33 60 52 61 34 62 37 63 51 64 70 65 35 66
REMARK SMILES IDX 36 67 50 69 71 70 38 71 22 72 23 73 31 74 24 75 25 76 29 77
REMARK SMILES IDX 32 78 26 79 27 80 30 81 28 82 54 83 55 84 63 85 56 86 57 87
REMARK SMILES IDX 61 88 64 89 58 90 59 91 62 92 60 93 39 94 40 95 48 96 41 97
REMARK SMILES IDX 42 98 46 99 49 100 43 101 44 102 47 103 45 104
REMARK H PARENT 3 7 80 17 10 38 69 57 37 68
REMARK Flexibility Score: inf
ROOT
ATOM      1  C   UNL A   1      34.464  24.643  23.707  1.00  0.00     0.002 C 
ENDROOT
BRANCH   1   2
ATOM      2  C   UNL A   1      34.263  25.992  22.998  1.00  0.00     0.021 C 
BRANCH   2   3
ATOM      3  C   UNL A   1      33.095  26.014  22.018  1.00  0.00     0.116 C 
BRANCH   3   4
ATOM      4  N   UNL A   1      32.509  27.333  21.933  1.00  0.00    -0.352 N 
ATOM      5  O   UNL A   1      31.309  29.110  22.502  1.00  0.00    -0.270 OA
ATOM      6  C   UNL A   1      31.902  28.097  22.871  1.00  0.00     0.247 C 
ATOM      7  H   UNL A   1      32.560  27.746  21.041  1.00  0.00     0.163 HD
BRANCH   6   8
ATOM      8  C   UNL A   1      31.818  27.656  24.294  1.00  0.00     0.026 C 
ATOM      9  C   UNL A   1      30.890  26.846  24.856  1.00  0.00     0.026 C 
ATOM     10  C   UNL A   1      32.996  28.214  25.076  1.00  0.00     0.042 C 
ATOM     11  C   UNL A   1      30.824  26.707  26.371  1.00  0.00     0.042 C 
ATOM     12  C   UNL A   1      33.040  27.826  26.550  1.00  0.00     0.005 C 
ATOM     13  C   UNL A   1      31.636  27.770  27.117  1.00  0.00     0.005 C 
BRANCH   9  14
ATOM     14  C   UNL A   1      29.754  26.127  24.172  1.00  0.00     0.252 C 
ATOM     15  O   UNL A   1      28.739  26.766  23.880  1.00  0.00    -0.269 OA
ATOM     16  N   UNL A   1      29.806  24.819  23.781  1.00  0.00    -0.322 N 
ATOM     17  H   UNL A   1      29.051  24.529  23.220  1.00  0.00     0.170 HD
BRANCH  16  18
ATOM     18  C   UNL A   1      30.751  23.826  24.045  1.00  0.00     0.041 A 
ATOM     19  C   UNL A   1      30.967  23.475  25.384  1.00  0.00     0.027 A 
ATOM     20  C   UNL A   1      31.400  23.134  23.029  1.00  0.00     0.027 A 
ATOM     21  C   UNL A   1      31.672  22.307  25.693  1.00  0.00     0.016 A 
ATOM     22  C   UNL A   1      32.154  22.008  23.346  1.00  0.00     0.016 A 
ATOM     23  C   UNL A   1      32.239  21.543  24.669  1.00  0.00     0.037 A 
BRANCH  23  24
ATOM     24  C   UNL A   1      32.849  20.241  24.894  1.00  0.00     0.227 A 
ATOM     25  N   UNL A   1      34.069  19.857  24.564  1.00  0.00    -0.209 NA
ATOM     26  O   UNL A   1      32.020  19.230  25.320  1.00  0.00    -0.436 OA
ATOM     27  C   UNL A   1      34.033  18.500  24.720  1.00  0.00     0.110 A 
ATOM     28  C   UNL A   1      32.784  18.105  25.172  1.00  0.00     0.155 A 
ATOM     29  C   UNL A   1      35.011  17.531  24.467  1.00  0.00     0.032 A 
ATOM     30  C   UNL A   1      32.414  16.782  25.391  1.00  0.00     0.049 A 
ATOM     31  C   UNL A   1      34.675  16.187  24.669  1.00  0.00     0.003 A 
ATOM     32  C   UNL A   1      33.399  15.822  25.120  1.00  0.00     0.004 A 
ENDBRANCH  23  24
ENDBRANCH  16  18
ENDBRANCH   9  14
ENDBRANCH   6   8
ENDBRANCH   3   4
ENDBRANCH   2   3
ENDBRANCH   1   2
BRANCH   1  33
ATOM     33  C   UNL A   1      34.682  24.706  25.224  1.00  0.00     0.002 C 
BRANCH  33  34
ATOM     34  C   UNL A   1      35.785  23.806  25.777  1.00  0.00     0.021 C 
BRANCH  34  35
ATOM     35  C   UNL A   1      37.069  23.766  24.961  1.00  0.00     0.116 C 
BRANCH  35  36
ATOM     36  N   UNL A   1      38.006  22.745  25.393  1.00  0.00    -0.352 N 
ATOM     37  C   UNL A   1      39.100  22.889  26.217  1.00  0.00     0.251 C 
ATOM     38  H   UNL A   1      37.838  21.835  25.055  1.00  0.00     0.163 HD
ATOM     39  O   UNL A   1      39.847  21.953  26.440  1.00  0.00    -0.269 OA
BRANCH  37  40
ATOM     40  C   UNL A   1      39.383  24.222  26.796  1.00  0.00     0.039 A 
ATOM     41  C   UNL A   1      38.978  24.481  28.107  1.00  0.00     0.014 A 
ATOM     42  C   UNL A   1      40.084  25.187  26.067  1.00  0.00     0.014 A 
ATOM     43  C   UNL A   1      39.335  25.688  28.713  1.00  0.00     0.010 A 
ATOM     44  C   UNL A   1      40.502  26.355  26.696  1.00  0.00     0.010 A 
ATOM     45  C   UNL A   1      40.130  26.618  28.024  1.00  0.00    -0.014 A 
BRANCH  45  46
ATOM     46  C   UNL A   1      40.580  27.873  28.676  1.00  0.00     0.031 A 
ATOM     47  C   UNL A   1      42.018  28.035  29.085  1.00  0.00     0.074 A 
ATOM     48  C   UNL A   1      39.684  28.838  28.957  1.00  0.00     0.049 A 
ATOM     49  N   UNL A   1      42.593  29.029  29.711  1.00  0.00    -0.248 NA
ATOM     50  C   UNL A   1      42.921  26.917  28.773  1.00  0.00     0.031 C 
ATOM     51  C   UNL A   1      38.253  28.776  28.656  1.00  0.00     0.029 A 
ATOM     52  N   UNL A   1      39.843  30.057  29.567  1.00  0.00    -0.354 N 
ATOM     53  C   UNL A   1      43.917  28.648  29.886  1.00  0.00     0.074 A 
ATOM     54  C   UNL A   1      44.049  27.313  29.346  1.00  0.00     0.031 C 
ATOM     55  C   UNL A   1      37.670  29.919  29.054  1.00  0.00     0.029 A 
ATOM     56  C   UNL A   1      38.678  30.778  29.669  1.00  0.00     0.049 A 
ATOM     57  H   UNL A   1      40.710  30.384  29.898  1.00  0.00     0.167 HD
ATOM     58  C   UNL A   1      44.935  29.358  30.430  1.00  0.00     0.037 A 
ATOM     59  C   UNL A   1      38.451  31.994  30.200  1.00  0.00     0.037 A 
ATOM     60  C   UNL A   1      44.807  30.701  30.931  1.00  0.00     0.049 A 
ATOM     61  C   UNL A   1      39.601  32.762  30.794  1.00  0.00     0.074 A 
ATOM     62  C   UNL A   1      45.795  31.536  31.421  1.00  0.00     0.029 A 
ATOM     63  N   UNL A   1      43.613  31.402  31.008  1.00  0.00    -0.354 N 
ATOM     64  N   UNL A   1      40.864  32.426  30.880  1.00  0.00    -0.248 NA
ATOM     65  C   UNL A   1      39.291  34.081  31.361  1.00  0.00     0.031 C 
ATOM     66  C   UNL A   1      45.191  32.726  31.842  1.00  0.00     0.029 A 
ATOM     67  C   UNL A   1      43.835  32.651  31.566  1.00  0.00     0.049 A 
ATOM     68  H   UNL A   1      42.738  31.064  30.712  1.00  0.00     0.167 HD
ATOM     69  C   UNL A   1      41.505  33.501  31.480  1.00  0.00     0.074 A 
ATOM     70  C   UNL A   1      40.492  34.506  31.727  1.00  0.00     0.031 C 
ATOM     71  C   UNL A   1      42.816  33.644  31.796  1.00  0.00     0.037 A 
BRANCH  58  72
ATOM     72  C   UNL A   1      46.278  28.693  30.510  1.00  0.00     0.064 A 
ATOM     73  C   UNL A   1      46.677  27.966  31.642  1.00  0.00     0.173 A 
ATOM     74  C   UNL A   1      47.169  28.760  29.428  1.00  0.00     0.173 A 
ATOM     75  F   UNL A   1      45.868  27.880  32.710  1.00  0.00    -0.203 F 
ATOM     76  C   UNL A   1      47.929  27.359  31.701  1.00  0.00     0.198 A 
ATOM     77  C   UNL A   1      48.408  28.126  29.478  1.00  0.00     0.198 A 
ATOM     78  F   UNL A   1      46.836  29.437  28.319  1.00  0.00    -0.203 F 
ATOM     79  F   UNL A   1      48.309  26.716  32.814  1.00  0.00    -0.200 F 
ATOM     80  C   UNL A   1      48.790  27.434  30.617  1.00  0.00     0.200 A 
ATOM     81  F   UNL A   1      49.234  28.189  28.423  1.00  0.00    -0.200 F 
ATOM     82  F   UNL A   1      49.993  26.846  30.673  1.00  0.00    -0.200 F 
ENDBRANCH  58  72
BRANCH  59  83
ATOM     83  C   UNL A   1      37.086  32.580  30.160  1.00  0.00     0.064 A 
ATOM     84  C   UNL A   1      36.661  33.329  29.052  1.00  0.00     0.173 A 
ATOM     85  C   UNL A   1      36.182  32.411  31.218  1.00  0.00     0.173 A 
ATOM     86  F   UNL A   1      37.498  33.536  28.025  1.00  0.00    -0.203 F 
ATOM     87  C   UNL A   1      35.392  33.902  29.014  1.00  0.00     0.198 A 
ATOM     88  C   UNL A   1      34.903  32.962  31.166  1.00  0.00     0.198 A 
ATOM     89  F   UNL A   1      36.538  31.701  32.299  1.00  0.00    -0.203 F 
ATOM     90  F   UNL A   1      35.029  34.648  27.962  1.00  0.00    -0.200 F 
ATOM     91  C   UNL A   1      34.512  33.713  30.068  1.00  0.00     0.200 A 
ATOM     92  F   UNL A   1      34.050  32.768  32.182  1.00  0.00    -0.200 F 
ATOM     93  F   UNL A   1      33.290  34.261  30.029  1.00  0.00    -0.200 F 
ENDBRANCH  59  83
BRANCH  71  94
ATOM     94  C   UNL A   1      43.237  34.947  32.410  1.00  0.00     0.064 A 
ATOM     95  C   UNL A   1      43.613  36.045  31.623  1.00  0.00     0.173 A 
ATOM     96  C   UNL A   1      43.222  35.111  33.804  1.00  0.00     0.173 A 
ATOM     97  F   UNL A   1      43.659  35.933  30.287  1.00  0.00    -0.203 F 
ATOM     98  C   UNL A   1      43.983  37.251  32.210  1.00  0.00     0.198 A 
ATOM     99  C   UNL A   1      43.564  36.329  34.386  1.00  0.00     0.198 A 
ATOM    100  F   UNL A   1      42.863  34.094  34.600  1.00  0.00    -0.203 F 
ATOM    101  F   UNL A   1      44.385  38.273  31.440  1.00  0.00    -0.200 F 
ATOM    102  C   UNL A   1      43.950  37.394  33.589  1.00  0.00     0.200 A 
ATOM    103  F   UNL A   1      43.518  36.469  35.717  1.00  0.00    -0.200 F 
ATOM    104  F   UNL A   1      44.299  38.560  34.151  1.00  0.00    -0.200 F 
ENDBRANCH  71  94
ENDBRANCH  45  46
ENDBRANCH  37  40
ENDBRANCH  35  36
ENDBRANCH  34  35
ENDBRANCH  33  34
ENDBRANCH   1  33
TORSDOF 16
ENDMDL
MODEL 2
REMARK VINA RESULT:     -13.6      3.658      9.096
REMARK SMILES O=C(NCCCCCCNC(=O)c1ccc(-c2c3nc(c(-c4c(F)c(F)c(F)c(F)c4F)c4ccc([nH]4)c(-c4c(F)c(F)c(F)c(F)c4F)c4nc(c(-c5c(F)c(F)c(F)c(F)c5F)c5ccc2[nH]5)C=C4)C=C3)cc1)C1=C(C(=O)Nc2ccc(-c3nc4ccccc4o3)cc2)CCCC1
REMARK SMILES IDX 6 1 5 2 4 3 3 4 1 5 2 6 76 8 77 9 99 10 96 11 98 12 97 13
REMARK SMILES IDX 78 14 79 15 80 16 81 18 82 19 95 20 83 21 94 22 84 23 85 24
REMARK SMILES IDX 86 25 93 26 87 27 92 28 88 29 91 30 89 31 90 32 7 33 8 34
REMARK SMILES IDX 9 35 10 36 11 37 12 39 13 40 14 41 75 42 15 43 74 44 16 45
REMARK SMILES IDX 17 46 18 47 68 48 19 49 73 50 67 51 69 52 20 53 72 54 66 55
REMARK SMILES IDX 65 56 21 58 53 59 33 60 52 61 34 62 37 63 51 64 70 65 35 66
REMARK SMILES IDX 36 67 50 69 71 70 38 71 22 72 23 73 31 74 24 75 25 76 29 77
REMARK SMILES IDX 32 78 26 79 27 80 30 81 28 82 54 83 55 84 63 85 56 86 57 87
REMARK SMILES IDX 61 88 64 89 58 90 59 91 62 92 60 93 39 94 40 95 48 96 41 97
REMARK SMILES IDX 42 98 46 99 49 100 43 101 44 102 47 103 45 104
REMARK H PARENT 3 7 80 17 10 38 69 57 37 68
REMARK Flexibility Score: inf
ROOT
ATOM      1  C   UNL A   1      32.489  25.720  25.962  1.00  0.00     0.002 C 
ENDROOT
BRANCH   1   2
ATOM      2  C   UNL A   1      32.193  24.627  27.001  1.00  0.00     0.021 C 
BRANCH   2   3
ATOM      3  C   UNL A   1      31.255  23.533  26.507  1.00  0.00     0.116 C 
BRANCH   3   4
ATOM      4  N   UNL A   1      31.855  22.225  26.651  1.00  0.00    -0.352 N 
ATOM      5  O   UNL A   1      33.104  20.453  26.178  1.00  0.00    -0.270 OA
ATOM      6  C   UNL A   1      32.907  21.657  26.016  1.00  0.00     0.247 C 
ATOM      7  H   UNL A   1      31.426  21.650  27.324  1.00  0.00     0.163 HD
BRANCH   6   8
ATOM      8  C   UNL A   1      33.722  22.422  25.029  1.00  0.00     0.026 C 
ATOM      9  C   UNL A   1      33.431  22.669  23.729  1.00  0.00     0.026 C 
ATOM     10  C   UNL A   1      34.968  22.972  25.706  1.00  0.00     0.042 C 
ATOM     11  C   UNL A   1      34.497  23.256  22.813  1.00  0.00     0.042 C 
ATOM     12  C   UNL A   1      35.888  23.792  24.807  1.00  0.00     0.005 C 
ATOM     13  C   UNL A   1      35.907  23.207  23.409  1.00  0.00     0.005 C 
BRANCH   9  14
ATOM     14  C   UNL A   1      32.180  22.296  22.975  1.00  0.00     0.252 C 
ATOM     15  O   UNL A   1      32.046  21.131  22.588  1.00  0.00    -0.269 OA
ATOM     16  N   UNL A   1      31.139  23.153  22.757  1.00  0.00    -0.322 N 
ATOM     17  H   UNL A   1      30.333  22.732  22.380  1.00  0.00     0.170 HD
BRANCH  16  18
ATOM     18  C   UNL A   1      31.028  24.527  22.978  1.00  0.00     0.041 A 
ATOM     19  C   UNL A   1      31.924  25.368  22.306  1.00  0.00     0.027 A 
ATOM     20  C   UNL A   1      30.017  25.070  23.762  1.00  0.00     0.027 A 
ATOM     21  C   UNL A   1      31.684  26.746  22.256  1.00  0.00     0.016 A 
ATOM     22  C   UNL A   1      29.819  26.448  23.762  1.00  0.00     0.016 A 
ATOM     23  C   UNL A   1      30.603  27.291  22.955  1.00  0.00     0.037 A 
BRANCH  23  24
ATOM     24  C   UNL A   1      30.196  28.682  22.829  1.00  0.00     0.227 A 
ATOM     25  N   UNL A   1      30.006  29.555  23.801  1.00  0.00    -0.209 NA
ATOM     26  O   UNL A   1      29.771  29.096  21.589  1.00  0.00    -0.436 OA
ATOM     27  C   UNL A   1      29.361  30.590  23.184  1.00  0.00     0.110 A 
ATOM     28  C   UNL A   1      29.204  30.317  21.835  1.00  0.00     0.155 A 
ATOM     29  C   UNL A   1      28.848  31.782  23.709  1.00  0.00     0.032 A 
ATOM     30  C   UNL A   1      28.549  31.154  20.938  1.00  0.00     0.049 A 
ATOM     31  C   UNL A   1      28.177  32.649  22.839  1.00  0.00     0.003 A 
ATOM     32  C   UNL A   1      28.028  32.338  21.481  1.00  0.00     0.004 A 
ENDBRANCH  23  24
ENDBRANCH  16  18
ENDBRANCH   9  14
ENDBRANCH   6   8
ENDBRANCH   3   4
ENDBRANCH   2   3
ENDBRANCH   1   2
BRANCH   1  33
ATOM     33  C   UNL A   1      33.116  27.011  26.502  1.00  0.00     0.002 C 
BRANCH  33  34
ATOM     34  C   UNL A   1      32.334  28.295  26.235  1.00  0.00     0.021 C 
BRANCH  34  35
ATOM     35  C   UNL A   1      33.155  29.466  25.713  1.00  0.00     0.116 C 
BRANCH  35  36
ATOM     36  N   UNL A   1      32.739  30.754  26.238  1.00  0.00    -0.352 N 
ATOM     37  C   UNL A   1      33.364  31.527  27.191  1.00  0.00     0.251 C 
ATOM     38  H   UNL A   1      31.904  31.121  25.866  1.00  0.00     0.163 HD
ATOM     39  O   UNL A   1      32.861  32.560  27.592  1.00  0.00    -0.269 OA
BRANCH  37  40
ATOM     40  C   UNL A   1      34.647  31.053  27.759  1.00  0.00     0.039 A 
ATOM     41  C   UNL A   1      35.700  31.963  27.883  1.00  0.00     0.014 A 
ATOM     42  C   UNL A   1      34.791  29.738  28.210  1.00  0.00     0.014 A 
ATOM     43  C   UNL A   1      36.878  31.570  28.521  1.00  0.00     0.010 A 
ATOM     44  C   UNL A   1      35.936  29.371  28.910  1.00  0.00     0.010 A 
ATOM     45  C   UNL A   1      36.991  30.283  29.071  1.00  0.00    -0.014 A 
BRANCH  45  46
ATOM     46  C   UNL A   1      38.207  29.872  29.815  1.00  0.00     0.031 A 
ATOM     47  C   UNL A   1      38.453  30.396  31.203  1.00  0.00     0.074 A 
ATOM     48  C   UNL A   1      39.119  29.081  29.220  1.00  0.00     0.049 A 
ATOM     49  N   UNL A   1      39.476  30.197  31.993  1.00  0.00    -0.248 NA
ATOM     50  C   UNL A   1      37.424  31.284  31.764  1.00  0.00     0.031 C 
ATOM     51  C   UNL A   1      39.018  28.550  27.859  1.00  0.00     0.029 A 
ATOM     52  N   UNL A   1      40.315  28.591  29.679  1.00  0.00    -0.354 N 
ATOM     53  C   UNL A   1      39.225  30.950  33.132  1.00  0.00     0.074 A 
ATOM     54  C   UNL A   1      37.978  31.649  32.911  1.00  0.00     0.031 C 
ATOM     55  C   UNL A   1      40.091  27.784  27.605  1.00  0.00     0.029 A 
ATOM     56  C   UNL A   1      40.972  27.797  28.769  1.00  0.00     0.049 A 
ATOM     57  H   UNL A   1      40.670  28.788  30.576  1.00  0.00     0.167 HD
ATOM     58  C   UNL A   1      39.958  31.034  34.268  1.00  0.00     0.037 A 
ATOM     59  C   UNL A   1      42.152  27.156  28.866  1.00  0.00     0.037 A 
ATOM     60  C   UNL A   1      41.178  30.307  34.498  1.00  0.00     0.049 A 
ATOM     61  C   UNL A   1      42.944  27.263  30.141  1.00  0.00     0.074 A 
ATOM     62  C   UNL A   1      41.949  30.257  35.646  1.00  0.00     0.029 A 
ATOM     63  N   UNL A   1      41.807  29.506  33.557  1.00  0.00    -0.354 N 
ATOM     64  N   UNL A   1      42.656  27.912  31.242  1.00  0.00    -0.248 NA
ATOM     65  C   UNL A   1      44.224  26.544  30.185  1.00  0.00     0.031 C 
ATOM     66  C   UNL A   1      43.071  29.464  35.384  1.00  0.00     0.029 A 
ATOM     67  C   UNL A   1      42.973  28.978  34.090  1.00  0.00     0.049 A 
ATOM     68  H   UNL A   1      41.475  29.336  32.647  1.00  0.00     0.167 HD
ATOM     69  C   UNL A   1      43.699  27.655  32.120  1.00  0.00     0.074 A 
ATOM     70  C   UNL A   1      44.623  26.781  31.427  1.00  0.00     0.031 C 
ATOM     71  C   UNL A   1      43.876  28.102  33.388  1.00  0.00     0.037 A 
BRANCH  58  72
ATOM     72  C   UNL A   1      39.457  31.946  35.351  1.00  0.00     0.064 A 
ATOM     73  C   UNL A   1      38.578  31.496  36.348  1.00  0.00     0.173 A 
ATOM     74  C   UNL A   1      39.884  33.281  35.408  1.00  0.00     0.173 A 
ATOM     75  F   UNL A   1      38.129  30.231  36.333  1.00  0.00    -0.203 F 
ATOM     76  C   UNL A   1      38.120  32.358  37.341  1.00  0.00     0.198 A 
ATOM     77  C   UNL A   1      39.448  34.131  36.421  1.00  0.00     0.198 A 
ATOM     78  F   UNL A   1      40.728  33.762  34.483  1.00  0.00    -0.203 F 
ATOM     79  F   UNL A   1      37.238  31.919  38.252  1.00  0.00    -0.200 F 
ATOM     80  C   UNL A   1      38.560  33.671  37.381  1.00  0.00     0.200 A 
ATOM     81  F   UNL A   1      39.885  35.398  36.465  1.00  0.00    -0.200 F 
ATOM     82  F   UNL A   1      38.122  34.498  38.341  1.00  0.00    -0.200 F 
ENDBRANCH  58  72
BRANCH  59  83
ATOM     83  C   UNL A   1      42.638  26.321  27.737  1.00  0.00     0.064 A 
ATOM     84  C   UNL A   1      43.564  26.832  26.816  1.00  0.00     0.173 A 
ATOM     85  C   UNL A   1      42.190  25.005  27.548  1.00  0.00     0.173 A 
ATOM     86  F   UNL A   1      44.005  28.093  26.941  1.00  0.00    -0.203 F 
ATOM     87  C   UNL A   1      44.009  26.066  25.740  1.00  0.00     0.198 A 
ATOM     88  C   UNL A   1      42.657  24.232  26.488  1.00  0.00     0.198 A 
ATOM     89  F   UNL A   1      41.307  24.468  28.403  1.00  0.00    -0.203 F 
ATOM     90  F   UNL A   1      44.861  26.596  24.852  1.00  0.00    -0.200 F 
ATOM     91  C   UNL A   1      43.560  24.765  25.580  1.00  0.00     0.200 A 
ATOM     92  F   UNL A   1      42.229  22.970  26.343  1.00  0.00    -0.200 F 
ATOM     93  F   UNL A   1      43.990  24.028  24.549  1.00  0.00    -0.200 F 
ENDBRANCH  59  83
BRANCH  71  94
ATOM     94  C   UNL A   1      45.095  27.624  34.122  1.00  0.00     0.064 A 
ATOM     95  C   UNL A   1      46.294  28.350  34.110  1.00  0.00     0.173 A 
ATOM     96  C   UNL A   1      45.048  26.445  34.881  1.00  0.00     0.173 A 
ATOM     97  F   UNL A   1      46.394  29.476  33.387  1.00  0.00    -0.203 F 
ATOM     98  C   UNL A   1      47.409  27.901  34.812  1.00  0.00     0.198 A 
ATOM     99  C   UNL A   1      46.155  26.014  35.606  1.00  0.00     0.198 A 
ATOM    100  F   UNL A   1      43.922  25.717  34.931  1.00  0.00    -0.203 F 
ATOM    101  F   UNL A   1      48.559  28.586  34.749  1.00  0.00    -0.200 F 
ATOM    102  C   UNL A   1      47.336  26.738  35.565  1.00  0.00     0.200 A 
ATOM    103  F   UNL A   1      46.079  24.898  36.344  1.00  0.00    -0.200 F 
ATOM    104  F   UNL A   1      48.409  26.312  36.246  1.00  0.00    -0.200 F 
ENDBRANCH  71  94
ENDBRANCH  45  46
ENDBRANCH  37  40
ENDBRANCH  35  36
ENDBRANCH  34  35
ENDBRANCH  33  34
ENDBRANCH   1  33
TORSDOF 16
ENDMDL
MODEL 3
REMARK VINA RESULT:     -13.4      3.779      9.315
REMARK SMILES O=C(NCCCCCCNC(=O)c1ccc(-c2c3nc(c(-c4c(F)c(F)c(F)c(F)c4F)c4ccc([nH]4)c(-c4c(F)c(F)c(F)c(F)c4F)c4nc(c(-c5c(F)c(F)c(F)c(F)c5F)c5ccc2[nH]5)C=C4)C=C3)cc1)C1=C(C(=O)Nc2ccc(-c3nc4ccccc4o3)cc2)CCCC1
REMARK SMILES IDX 6 1 5 2 4 3 3 4 1 5 2 6 76 8 77 9 99 10 96 11 98 12 97 13
REMARK SMILES IDX 78 14 79 15 80 16 81 18 82 19 95 20 83 21 94 22 84 23 85 24
REMARK SMILES IDX 86 25 93 26 87 27 92 28 88 29 91 30 89 31 90 32 7 33 8 34
REMARK SMILES IDX 9 35 10 36 11 37 12 39 13 40 14 41 75 42 15 43 74 44 16 45
REMARK SMILES IDX 17 46 18 47 68 48 19 49 73 50 67 51 69 52 20 53 72 54 66 55
REMARK SMILES IDX 65 56 21 58 53 59 33 60 52 61 34 62 37 63 51 64 70 65 35 66
REMARK SMILES IDX 36 67 50 69 71 70 38 71 22 72 23 73 31 74 24 75 25 76 29 77
REMARK SMILES IDX 32 78 26 79 27 80 30 81 28 82 54 83 55 84 63 85 56 86 57 87
REMARK SMILES IDX 61 88 64 89 58 90 59 91 62 92 60 93 39 94 40 95 48 96 41 97
REMARK SMILES IDX 42 98 46 99 49 100 43 101 44 102 47 103 45 104
REMARK H PARENT 3 7 80 17 10 38 69 57 37 68
REMARK Flexibility Score: inf
ROOT
ATOM      1  C   UNL A   1      31.768  28.788  26.265  1.00  0.00     0.002 C 
ENDROOT
BRANCH   1   2
ATOM      2  C   UNL A   1      31.502  27.401  26.872  1.00  0.00     0.021 C 
BRANCH   2   3
ATOM      3  C   UNL A   1      32.399  26.297  26.323  1.00  0.00     0.116 C 
BRANCH   3   4
ATOM      4  N   UNL A   1      31.912  24.990  26.705  1.00  0.00    -0.352 N 
ATOM      5  O   UNL A   1      31.562  22.801  26.619  1.00  0.00    -0.270 OA
ATOM      6  C   UNL A   1      32.264  23.753  26.281  1.00  0.00     0.247 C 
ATOM      7  H   UNL A   1      31.205  25.001  27.389  1.00  0.00     0.163 HD
BRANCH   6   8
ATOM      8  C   UNL A   1      33.379  23.555  25.310  1.00  0.00     0.026 C 
ATOM      9  C   UNL A   1      33.305  23.050  24.056  1.00  0.00     0.026 C 
ATOM     10  C   UNL A   1      34.680  24.065  25.910  1.00  0.00     0.042 C 
ATOM     11  C   UNL A   1      34.581  22.694  23.306  1.00  0.00     0.042 C 
ATOM     12  C   UNL A   1      35.905  23.933  25.011  1.00  0.00     0.005 C 
ATOM     13  C   UNL A   1      35.824  22.655  24.201  1.00  0.00     0.005 C 
BRANCH   9  14
ATOM     14  C   UNL A   1      32.069  22.632  23.299  1.00  0.00     0.252 C 
ATOM     15  O   UNL A   1      31.951  21.450  22.965  1.00  0.00    -0.269 OA
ATOM     16  N   UNL A   1      31.025  23.470  23.025  1.00  0.00    -0.322 N 
ATOM     17  H   UNL A   1      30.229  23.024  22.654  1.00  0.00     0.170 HD
BRANCH  16  18
ATOM     18  C   UNL A   1      30.900  24.851  23.180  1.00  0.00     0.041 A 
ATOM     19  C   UNL A   1      31.836  25.666  22.529  1.00  0.00     0.027 A 
ATOM     20  C   UNL A   1      29.842  25.424  23.876  1.00  0.00     0.027 A 
ATOM     21  C   UNL A   1      31.598  27.039  22.406  1.00  0.00     0.016 A 
ATOM     22  C   UNL A   1      29.644  26.800  23.804  1.00  0.00     0.016 A 
ATOM     23  C   UNL A   1      30.476  27.610  23.013  1.00  0.00     0.037 A 
BRANCH  23  24
ATOM     24  C   UNL A   1      30.077  28.993  22.803  1.00  0.00     0.227 A 
ATOM     25  N   UNL A   1      29.918  29.932  23.718  1.00  0.00    -0.209 NA
ATOM     26  O   UNL A   1      29.625  29.327  21.547  1.00  0.00    -0.436 OA
ATOM     27  C   UNL A   1      29.266  30.929  23.047  1.00  0.00     0.110 A 
ATOM     28  C   UNL A   1      29.073  30.567  21.724  1.00  0.00     0.155 A 
ATOM     29  C   UNL A   1      28.775  32.158  23.503  1.00  0.00     0.032 A 
ATOM     30  C   UNL A   1      28.403  31.348  20.789  1.00  0.00     0.049 A 
ATOM     31  C   UNL A   1      28.089  32.971  22.592  1.00  0.00     0.003 A 
ATOM     32  C   UNL A   1      27.905  32.570  21.262  1.00  0.00     0.004 A 
ENDBRANCH  23  24
ENDBRANCH  16  18
ENDBRANCH   9  14
ENDBRANCH   6   8
ENDBRANCH   3   4
ENDBRANCH   2   3
ENDBRANCH   1   2
BRANCH   1  33
ATOM     33  C   UNL A   1      32.189  29.884  27.251  1.00  0.00     0.002 C 
BRANCH  33  34
ATOM     34  C   UNL A   1      31.793  31.310  26.871  1.00  0.00     0.021 C 
BRANCH  34  35
ATOM     35  C   UNL A   1      32.923  32.329  26.886  1.00  0.00     0.116 C 
BRANCH  35  36
ATOM     36  N   UNL A   1      32.519  33.646  27.347  1.00  0.00    -0.352 N 
ATOM     37  C   UNL A   1      33.058  34.391  28.372  1.00  0.00     0.251 C 
ATOM     38  H   UNL A   1      31.764  34.057  26.866  1.00  0.00     0.163 HD
ATOM     39  O   UNL A   1      32.568  35.457  28.699  1.00  0.00    -0.269 OA
BRANCH  37  40
ATOM     40  C   UNL A   1      34.224  33.849  29.107  1.00  0.00     0.039 A 
ATOM     41  C   UNL A   1      33.998  32.937  30.140  1.00  0.00     0.014 A 
ATOM     42  C   UNL A   1      35.527  34.201  28.744  1.00  0.00     0.014 A 
ATOM     43  C   UNL A   1      35.085  32.326  30.769  1.00  0.00     0.010 A 
ATOM     44  C   UNL A   1      36.605  33.537  29.320  1.00  0.00     0.010 A 
ATOM     45  C   UNL A   1      36.395  32.594  30.339  1.00  0.00    -0.014 A 
BRANCH  45  46
ATOM     46  C   UNL A   1      37.558  31.901  30.946  1.00  0.00     0.031 A 
ATOM     47  C   UNL A   1      38.029  32.286  32.321  1.00  0.00     0.074 A 
ATOM     48  C   UNL A   1      38.226  30.972  30.237  1.00  0.00     0.049 A 
ATOM     49  N   UNL A   1      39.054  31.838  33.000  1.00  0.00    -0.248 NA
ATOM     50  C   UNL A   1      37.264  33.336  33.010  1.00  0.00     0.031 C 
ATOM     51  C   UNL A   1      37.897  30.549  28.876  1.00  0.00     0.029 A 
ATOM     52  N   UNL A   1      39.328  30.221  30.560  1.00  0.00    -0.354 N 
ATOM     53  C   UNL A   1      39.067  32.563  34.184  1.00  0.00     0.074 A 
ATOM     54  C   UNL A   1      37.981  33.515  34.110  1.00  0.00     0.031 C 
ATOM     55  C   UNL A   1      38.757  29.592  28.491  1.00  0.00     0.029 A 
ATOM     56  C   UNL A   1      39.721  29.360  29.564  1.00  0.00     0.049 A 
ATOM     57  H   UNL A   1      39.794  30.292  31.425  1.00  0.00     0.167 HD
ATOM     58  C   UNL A   1      39.899  32.433  35.245  1.00  0.00     0.037 A 
ATOM     59  C   UNL A   1      40.743  28.485  29.522  1.00  0.00     0.037 A 
ATOM     60  C   UNL A   1      40.955  31.458  35.329  1.00  0.00     0.049 A 
ATOM     61  C   UNL A   1      41.648  28.356  30.717  1.00  0.00     0.074 A 
ATOM     62  C   UNL A   1      41.795  31.187  36.394  1.00  0.00     0.029 A 
ATOM     63  N   UNL A   1      41.315  30.596  34.304  1.00  0.00    -0.354 N 
ATOM     64  N   UNL A   1      41.602  28.990  31.863  1.00  0.00    -0.248 NA
ATOM     65  C   UNL A   1      42.747  27.388  30.611  1.00  0.00     0.031 C 
ATOM     66  C   UNL A   1      42.698  30.195  35.996  1.00  0.00     0.029 A 
ATOM     67  C   UNL A   1      42.386  29.812  34.702  1.00  0.00     0.049 A 
ATOM     68  H   UNL A   1      40.876  30.549  33.425  1.00  0.00     0.167 HD
ATOM     69  C   UNL A   1      42.641  28.476  32.626  1.00  0.00     0.074 A 
ATOM     70  C   UNL A   1      43.295  27.470  31.816  1.00  0.00     0.031 C 
ATOM     71  C   UNL A   1      43.019  28.807  33.886  1.00  0.00     0.037 A 
BRANCH  58  72
ATOM     72  C   UNL A   1      39.699  33.368  36.402  1.00  0.00     0.064 A 
ATOM     73  C   UNL A   1      40.347  34.611  36.469  1.00  0.00     0.173 A 
ATOM     74  C   UNL A   1      38.826  33.028  37.446  1.00  0.00     0.173 A 
ATOM     75  F   UNL A   1      41.202  34.979  35.502  1.00  0.00    -0.203 F 
ATOM     76  C   UNL A   1      40.153  35.463  37.552  1.00  0.00     0.198 A 
ATOM     77  C   UNL A   1      38.611  33.897  38.513  1.00  0.00     0.198 A 
ATOM     78  F   UNL A   1      38.176  31.854  37.431  1.00  0.00    -0.203 F 
ATOM     79  F   UNL A   1      40.825  36.622  37.620  1.00  0.00    -0.200 F 
ATOM     80  C   UNL A   1      39.281  35.109  38.569  1.00  0.00     0.200 A 
ATOM     81  F   UNL A   1      37.756  33.558  39.489  1.00  0.00    -0.200 F 
ATOM     82  F   UNL A   1      39.092  35.933  39.609  1.00  0.00    -0.200 F 
ENDBRANCH  58  72
BRANCH  59  83
ATOM     83  C   UNL A   1      40.941  27.631  28.323  1.00  0.00     0.064 A 
ATOM     84  C   UNL A   1      40.281  26.398  28.205  1.00  0.00     0.173 A 
ATOM     85  C   UNL A   1      41.790  28.018  27.276  1.00  0.00     0.173 A 
ATOM     86  F   UNL A   1      39.476  25.974  29.190  1.00  0.00    -0.203 F 
ATOM     87  C   UNL A   1      40.478  25.579  27.096  1.00  0.00     0.198 A 
ATOM     88  C   UNL A   1      41.964  27.210  26.155  1.00  0.00     0.198 A 
ATOM     89  F   UNL A   1      42.442  29.189  27.339  1.00  0.00    -0.203 F 
ATOM     90  F   UNL A   1      39.868  24.388  27.030  1.00  0.00    -0.200 F 
ATOM     91  C   UNL A   1      41.314  25.988  26.069  1.00  0.00     0.200 A 
ATOM     92  F   UNL A   1      42.765  27.614  25.159  1.00  0.00    -0.200 F 
ATOM     93  F   UNL A   1      41.500  25.201  25.001  1.00  0.00    -0.200 F 
ENDBRANCH  59  83
BRANCH  71  94
ATOM     94  C   UNL A   1      44.169  28.049  34.480  1.00  0.00     0.064 A 
ATOM     95  C   UNL A   1      45.488  28.515  34.383  1.00  0.00     0.173 A 
ATOM     96  C   UNL A   1      43.943  26.861  35.192  1.00  0.00     0.173 A 
ATOM     97  F   UNL A   1      45.758  29.638  33.700  1.00  0.00    -0.203 F 
ATOM     98  C   UNL A   1      46.541  27.808  34.957  1.00  0.00     0.198 A 
ATOM     99  C   UNL A   1      44.994  26.171  35.789  1.00  0.00     0.198 A 
ATOM    100  F   UNL A   1      42.699  26.376  35.319  1.00  0.00    -0.203 F 
ATOM    101  F   UNL A   1      47.799  28.248  34.812  1.00  0.00    -0.200 F 
ATOM    102  C   UNL A   1      46.292  26.642  35.665  1.00  0.00     0.200 A 
ATOM    103  F   UNL A   1      44.751  25.053  36.485  1.00  0.00    -0.200 F 
ATOM    104  F   UNL A   1      47.306  25.967  36.224  1.00  0.00    -0.200 F 
ENDBRANCH  71  94
ENDBRANCH  45  46
ENDBRANCH  37  40
ENDBRANCH  35  36
ENDBRANCH  34  35
ENDBRANCH  33  34
ENDBRANCH   1  33
TORSDOF 16
ENDMDL
