MODEL 1
REMARK VINA RESULT:     -11.4      0.000      0.000
REMARK SMILES C[C@H]([NH3+])c1ccc(F)cc1OCC(C)(C)C(=O)NCCCCCCNC(=O)c1ccc(-c2c3nc(c(-c4c(F)c(F)c(F)c(F)c4F)c4ccc([nH]4)c(-c4c(F)c(F)c(F)c(F)c4F)c4nc(c(-c5c(F)c(F)c(F)c(F)c5F)c5ccc2[nH]5)C=C4)C=C3)cc1
REMARK SMILES IDX 20 1 19 2 18 3 16 4 17 5 13 7 14 8 15 9 12 10 11 11 10 12
REMARK SMILES IDX 4 13 5 14 6 15 9 16 7 17 8 18 2 19 1 20 3 21 21 25 22 26
REMARK SMILES IDX 23 27 24 28 25 29 26 30 27 32 28 33 29 34 90 35 30 36 89 37
REMARK SMILES IDX 31 38 32 39 33 40 83 41 34 42 88 43 82 44 84 45 35 46 87 47
REMARK SMILES IDX 81 48 80 49 36 51 68 52 48 53 67 54 49 55 52 56 66 57 85 58
REMARK SMILES IDX 50 59 51 60 65 62 86 63 53 64 37 65 38 66 46 67 39 68 40 69
REMARK SMILES IDX 44 70 47 71 41 72 42 73 45 74 43 75 69 76 70 77 78 78 71 79
REMARK SMILES IDX 72 80 76 81 79 82 73 83 74 84 77 85 75 86 54 87 55 88 63 89
REMARK SMILES IDX 56 90 57 91 61 92 64 93 58 94 59 95 62 96 60 97
REMARK H PARENT 18 6 3 22 3 23 3 24 25 31 84 50 52 61
REMARK Flexibility Score: inf
ROOT
ATOM      1  C   UNL A   1      31.888  28.640  27.297  1.00  0.00     0.021 C 
ENDROOT
BRANCH   1   2
ATOM      2  C   UNL A   1      32.207  27.456  26.404  1.00  0.00     0.116 C 
BRANCH   2   3
ATOM      3  N   UNL A   1      31.381  27.416  25.204  1.00  0.00    -0.356 N 
ATOM      4  C   UNL A   1      31.718  27.090  23.912  1.00  0.00     0.229 C 
ATOM      5  O   UNL A   1      30.801  27.019  23.092  1.00  0.00    -0.274 OA
ATOM      6  H   UNL A   1      30.438  27.659  25.340  1.00  0.00     0.163 HD
BRANCH   4   7
ATOM      7  C   UNL A   1      33.196  26.869  23.533  1.00  0.00     0.077 C 
ATOM      8  C   UNL A   1      33.944  28.194  23.793  1.00  0.00     0.025 C 
ATOM      9  C   UNL A   1      33.212  26.436  22.041  1.00  0.00     0.025 C 
BRANCH   7  10
ATOM     10  C   UNL A   1      33.807  25.632  24.282  1.00  0.00     0.245 C 
BRANCH  10  11
ATOM     11  O   UNL A   1      34.161  24.500  23.509  1.00  0.00    -0.492 OA
BRANCH  11  12
ATOM     12  C   UNL A   1      33.856  23.197  23.775  1.00  0.00     0.131 A 
ATOM     13  C   UNL A   1      34.137  22.358  24.882  1.00  0.00     0.051 A 
ATOM     14  C   UNL A   1      33.474  21.102  24.927  1.00  0.00     0.017 A 
ATOM     15  C   UNL A   1      32.587  20.687  23.933  1.00  0.00     0.040 A 
ATOM     16  C   UNL A   1      33.012  22.727  22.748  1.00  0.00     0.086 A 
ATOM     17  C   UNL A   1      32.380  21.499  22.838  1.00  0.00     0.126 A 
ATOM     18  F   UNL A   1      31.534  21.114  21.873  1.00  0.00    -0.207 F 
BRANCH  13  19
ATOM     19  C   UNL A   1      35.047  22.688  26.060  1.00  0.00     0.212 C 
ATOM     20  C   UNL A   1      36.472  23.023  25.626  1.00  0.00     0.081 C 
BRANCH  19  21
ATOM     21  N   UNL A   1      35.073  21.626  27.085  1.00  0.00    -0.351 N 
ATOM     22  H   UNL A   1      34.637  20.783  26.712  1.00  0.00     0.345 HD
ATOM     23  H   UNL A   1      34.561  21.939  27.909  1.00  0.00     0.345 HD
ATOM     24  H   UNL A   1      36.040  21.425  27.341  1.00  0.00     0.345 HD
ENDBRANCH  19  21
ENDBRANCH  13  19
ENDBRANCH  11  12
ENDBRANCH  10  11
ENDBRANCH   7  10
ENDBRANCH   4   7
ENDBRANCH   2   3
ENDBRANCH   1   2
BRANCH   1  25
ATOM     25  C   UNL A   1      32.452  29.956  26.764  1.00  0.00     0.002 C 
BRANCH  25  26
ATOM     26  C   UNL A   1      31.444  30.838  26.013  1.00  0.00     0.002 C 
BRANCH  26  27
ATOM     27  C   UNL A   1      31.313  32.273  26.533  1.00  0.00     0.021 C 
BRANCH  27  28
ATOM     28  C   UNL A   1      32.563  32.812  27.216  1.00  0.00     0.116 C 
BRANCH  28  29
ATOM     29  N   UNL A   1      32.380  34.169  27.703  1.00  0.00    -0.352 N 
ATOM     30  C   UNL A   1      33.058  34.820  28.700  1.00  0.00     0.251 C 
ATOM     31  H   UNL A   1      31.674  34.692  27.257  1.00  0.00     0.163 HD
ATOM     32  O   UNL A   1      32.684  35.914  29.107  1.00  0.00    -0.269 OA
BRANCH  30  33
ATOM     33  C   UNL A   1      34.239  34.171  29.294  1.00  0.00     0.039 A 
ATOM     34  C   UNL A   1      35.505  34.478  28.792  1.00  0.00     0.014 A 
ATOM     35  C   UNL A   1      34.088  33.278  30.359  1.00  0.00     0.014 A 
ATOM     36  C   UNL A   1      36.633  33.922  29.394  1.00  0.00     0.010 A 
ATOM     37  C   UNL A   1      35.215  32.781  31.001  1.00  0.00     0.010 A 
ATOM     38  C   UNL A   1      36.496  33.090  30.517  1.00  0.00    -0.014 A 
BRANCH  38  39
ATOM     39  C   UNL A   1      37.674  32.495  31.191  1.00  0.00     0.031 A 
ATOM     40  C   UNL A   1      38.423  31.383  30.515  1.00  0.00     0.074 A 
ATOM     41  C   UNL A   1      38.016  32.899  32.428  1.00  0.00     0.049 A 
ATOM     42  N   UNL A   1      39.387  30.632  30.981  1.00  0.00    -0.248 NA
ATOM     43  C   UNL A   1      38.014  31.052  29.140  1.00  0.00     0.031 C 
ATOM     44  C   UNL A   1      37.348  33.955  33.189  1.00  0.00     0.029 A 
ATOM     45  N   UNL A   1      39.007  32.459  33.268  1.00  0.00    -0.354 N 
ATOM     46  C   UNL A   1      39.682  29.730  29.968  1.00  0.00     0.074 A 
ATOM     47  C   UNL A   1      38.765  29.992  28.883  1.00  0.00     0.031 C 
ATOM     48  C   UNL A   1      37.959  34.095  34.375  1.00  0.00     0.029 A 
ATOM     49  C   UNL A   1      39.033  33.111  34.477  1.00  0.00     0.049 A 
ATOM     50  H   UNL A   1      39.640  31.744  33.029  1.00  0.00     0.167 HD
ATOM     51  C   UNL A   1      40.650  28.786  29.942  1.00  0.00     0.037 A 
ATOM     52  C   UNL A   1      39.826  32.925  35.549  1.00  0.00     0.037 A 
ATOM     53  C   UNL A   1      41.581  28.558  31.013  1.00  0.00     0.049 A 
ATOM     54  C   UNL A   1      40.885  31.857  35.501  1.00  0.00     0.074 A 
ATOM     55  C   UNL A   1      42.626  27.653  31.067  1.00  0.00     0.029 A 
ATOM     56  N   UNL A   1      41.584  29.249  32.215  1.00  0.00    -0.354 N 
ATOM     57  N   UNL A   1      41.175  31.026  34.529  1.00  0.00    -0.248 NA
ATOM     58  C   UNL A   1      41.726  31.696  36.696  1.00  0.00     0.031 C 
ATOM     59  C   UNL A   1      43.235  27.768  32.318  1.00  0.00     0.029 A 
ATOM     60  C   UNL A   1      42.605  28.781  33.024  1.00  0.00     0.049 A 
ATOM     61  H   UNL A   1      40.953  29.965  32.458  1.00  0.00     0.167 HD
ATOM     62  C   UNL A   1      42.249  30.270  34.978  1.00  0.00     0.074 A 
ATOM     63  C   UNL A   1      42.563  30.740  36.311  1.00  0.00     0.031 C 
ATOM     64  C   UNL A   1      42.916  29.278  34.340  1.00  0.00     0.037 A 
BRANCH  51  65
ATOM     65  C   UNL A   1      40.764  27.936  28.710  1.00  0.00     0.064 A 
ATOM     66  C   UNL A   1      41.555  28.353  27.628  1.00  0.00     0.173 A 
ATOM     67  C   UNL A   1      40.043  26.741  28.575  1.00  0.00     0.173 A 
ATOM     68  F   UNL A   1      42.262  29.490  27.705  1.00  0.00    -0.203 F 
ATOM     69  C   UNL A   1      41.608  27.609  26.452  1.00  0.00     0.198 A 
ATOM     70  C   UNL A   1      40.123  25.984  27.409  1.00  0.00     0.198 A 
ATOM     71  F   UNL A   1      39.283  26.292  29.585  1.00  0.00    -0.203 F 
ATOM     72  F   UNL A   1      42.346  28.043  25.421  1.00  0.00    -0.200 F 
ATOM     73  C   UNL A   1      40.896  26.424  26.346  1.00  0.00     0.200 A 
ATOM     74  F   UNL A   1      39.456  24.825  27.318  1.00  0.00    -0.200 F 
ATOM     75  F   UNL A   1      40.959  25.704  25.217  1.00  0.00    -0.200 F 
ENDBRANCH  51  65
BRANCH  52  76
ATOM     76  C   UNL A   1      39.666  33.796  36.742  1.00  0.00     0.064 A 
ATOM     77  C   UNL A   1      38.859  33.419  37.824  1.00  0.00     0.173 A 
ATOM     78  C   UNL A   1      40.299  35.046  36.803  1.00  0.00     0.173 A 
ATOM     79  F   UNL A   1      38.227  32.236  37.811  1.00  0.00    -0.203 F 
ATOM     80  C   UNL A   1      38.674  34.268  38.914  1.00  0.00     0.198 A 
ATOM     81  C   UNL A   1      40.134  35.882  37.905  1.00  0.00     0.198 A 
ATOM     82  F   UNL A   1      41.096  35.441  35.800  1.00  0.00    -0.203 F 
ATOM     83  F   UNL A   1      37.870  33.898  39.920  1.00  0.00    -0.200 F 
ATOM     84  C   UNL A   1      39.315  35.496  38.956  1.00  0.00     0.200 A 
ATOM     85  F   UNL A   1      40.773  37.058  37.951  1.00  0.00    -0.200 F 
ATOM     86  F   UNL A   1      39.146  36.308  40.009  1.00  0.00    -0.200 F 
ENDBRANCH  52  76
BRANCH  64  87
ATOM     87  C   UNL A   1      44.082  28.651  35.043  1.00  0.00     0.064 A 
ATOM     88  C   UNL A   1      45.384  29.125  34.809  1.00  0.00     0.173 A 
ATOM     89  C   UNL A   1      43.928  27.517  35.851  1.00  0.00     0.173 A 
ATOM     90  F   UNL A   1      45.581  30.202  34.034  1.00  0.00    -0.203 F 
ATOM     91  C   UNL A   1      46.490  28.468  35.339  1.00  0.00     0.198 A 
ATOM     92  C   UNL A   1      45.037  26.878  36.400  1.00  0.00     0.198 A 
ATOM     93  F   UNL A   1      42.705  27.033  36.111  1.00  0.00    -0.203 F 
ATOM     94  F   UNL A   1      47.725  28.911  35.063  1.00  0.00    -0.200 F 
ATOM     95  C   UNL A   1      46.316  27.346  36.133  1.00  0.00     0.200 A 
ATOM     96  F   UNL A   1      44.868  25.805  37.185  1.00  0.00    -0.200 F 
ATOM     97  F   UNL A   1      47.382  26.712  36.640  1.00  0.00    -0.200 F 
ENDBRANCH  64  87
ENDBRANCH  38  39
ENDBRANCH  30  33
ENDBRANCH  28  29
ENDBRANCH  27  28
ENDBRANCH  26  27
ENDBRANCH  25  26
ENDBRANCH   1  25
TORSDOF 18
ENDMDL
MODEL 2
REMARK VINA RESULT:     -11.3      1.588      3.407
REMARK SMILES C[C@H]([NH3+])c1ccc(F)cc1OCC(C)(C)C(=O)NCCCCCCNC(=O)c1ccc(-c2c3nc(c(-c4c(F)c(F)c(F)c(F)c4F)c4ccc([nH]4)c(-c4c(F)c(F)c(F)c(F)c4F)c4nc(c(-c5c(F)c(F)c(F)c(F)c5F)c5ccc2[nH]5)C=C4)C=C3)cc1
REMARK SMILES IDX 20 1 19 2 18 3 16 4 17 5 13 7 14 8 15 9 12 10 11 11 10 12
REMARK SMILES IDX 4 13 5 14 6 15 9 16 7 17 8 18 2 19 1 20 3 21 21 25 22 26
REMARK SMILES IDX 23 27 24 28 25 29 26 30 27 32 28 33 29 34 90 35 30 36 89 37
REMARK SMILES IDX 31 38 32 39 33 40 83 41 34 42 88 43 82 44 84 45 35 46 87 47
REMARK SMILES IDX 81 48 80 49 36 51 68 52 48 53 67 54 49 55 52 56 66 57 85 58
REMARK SMILES IDX 50 59 51 60 65 62 86 63 53 64 37 65 38 66 46 67 39 68 40 69
REMARK SMILES IDX 44 70 47 71 41 72 42 73 45 74 43 75 69 76 70 77 78 78 71 79
REMARK SMILES IDX 72 80 76 81 79 82 73 83 74 84 77 85 75 86 54 87 55 88 63 89
REMARK SMILES IDX 56 90 57 91 61 92 64 93 58 94 59 95 62 96 60 97
REMARK H PARENT 18 6 3 22 3 23 3 24 25 31 84 50 52 61
REMARK Flexibility Score: inf
ROOT
ATOM      1  C   UNL A   1      31.548  28.214  27.159  1.00  0.00     0.021 C 
ENDROOT
BRANCH   1   2
ATOM      2  C   UNL A   1      31.879  26.897  26.482  1.00  0.00     0.116 C 
BRANCH   2   3
ATOM      3  N   UNL A   1      30.916  25.847  26.789  1.00  0.00    -0.356 N 
ATOM      4  C   UNL A   1      30.872  24.540  26.367  1.00  0.00     0.229 C 
ATOM      5  O   UNL A   1      30.011  23.816  26.867  1.00  0.00    -0.274 OA
ATOM      6  H   UNL A   1      30.186  26.116  27.391  1.00  0.00     0.163 HD
BRANCH   4   7
ATOM      7  C   UNL A   1      31.849  24.048  25.281  1.00  0.00     0.077 C 
ATOM      8  C   UNL A   1      31.925  22.510  25.389  1.00  0.00     0.025 C 
ATOM      9  C   UNL A   1      33.207  24.752  25.552  1.00  0.00     0.025 C 
BRANCH   7  10
ATOM     10  C   UNL A   1      31.442  24.568  23.857  1.00  0.00     0.245 C 
BRANCH  10  11
ATOM     11  O   UNL A   1      30.251  25.324  23.746  1.00  0.00    -0.492 OA
BRANCH  11  12
ATOM     12  C   UNL A   1      30.146  26.651  23.441  1.00  0.00     0.131 A 
ATOM     13  C   UNL A   1      31.068  27.581  22.898  1.00  0.00     0.051 A 
ATOM     14  C   UNL A   1      30.553  28.845  22.502  1.00  0.00     0.017 A 
ATOM     15  C   UNL A   1      29.206  29.182  22.640  1.00  0.00     0.040 A 
ATOM     16  C   UNL A   1      28.805  27.039  23.635  1.00  0.00     0.086 A 
ATOM     17  C   UNL A   1      28.346  28.279  23.226  1.00  0.00     0.126 A 
ATOM     18  F   UNL A   1      27.050  28.588  23.368  1.00  0.00    -0.207 F 
BRANCH  13  19
ATOM     19  C   UNL A   1      32.553  27.344  22.652  1.00  0.00     0.212 C 
ATOM     20  C   UNL A   1      33.399  28.586  22.917  1.00  0.00     0.081 C 
BRANCH  19  21
ATOM     21  N   UNL A   1      32.838  26.823  21.300  1.00  0.00    -0.351 N 
ATOM     22  H   UNL A   1      33.630  26.182  21.343  1.00  0.00     0.345 HD
ATOM     23  H   UNL A   1      33.061  27.600  20.678  1.00  0.00     0.345 HD
ATOM     24  H   UNL A   1      32.018  26.329  20.947  1.00  0.00     0.345 HD
ENDBRANCH  19  21
ENDBRANCH  13  19
ENDBRANCH  11  12
ENDBRANCH  10  11
ENDBRANCH   7  10
ENDBRANCH   4   7
ENDBRANCH   2   3
ENDBRANCH   1   2
BRANCH   1  25
ATOM     25  C   UNL A   1      32.292  29.400  26.547  1.00  0.00     0.002 C 
BRANCH  25  26
ATOM     26  C   UNL A   1      31.444  30.298  25.635  1.00  0.00     0.002 C 
BRANCH  26  27
ATOM     27  C   UNL A   1      31.229  31.728  26.140  1.00  0.00     0.021 C 
BRANCH  27  28
ATOM     28  C   UNL A   1      32.275  32.208  27.138  1.00  0.00     0.116 C 
BRANCH  28  29
ATOM     29  N   UNL A   1      32.169  33.634  27.401  1.00  0.00    -0.352 N 
ATOM     30  C   UNL A   1      32.946  34.414  28.215  1.00  0.00     0.251 C 
ATOM     31  H   UNL A   1      31.441  34.102  26.931  1.00  0.00     0.163 HD
ATOM     32  O   UNL A   1      32.636  35.575  28.459  1.00  0.00    -0.269 OA
BRANCH  30  33
ATOM     33  C   UNL A   1      34.157  33.827  28.814  1.00  0.00     0.039 A 
ATOM     34  C   UNL A   1      35.371  34.504  28.689  1.00  0.00     0.014 A 
ATOM     35  C   UNL A   1      34.078  32.621  29.515  1.00  0.00     0.014 A 
ATOM     36  C   UNL A   1      36.508  33.991  29.312  1.00  0.00     0.010 A 
ATOM     37  C   UNL A   1      35.195  32.149  30.193  1.00  0.00     0.010 A 
ATOM     38  C   UNL A   1      36.421  32.823  30.088  1.00  0.00    -0.014 A 
BRANCH  38  39
ATOM     39  C   UNL A   1      37.606  32.259  30.777  1.00  0.00     0.031 A 
ATOM     40  C   UNL A   1      38.398  31.175  30.106  1.00  0.00     0.074 A 
ATOM     41  C   UNL A   1      37.916  32.666  32.021  1.00  0.00     0.049 A 
ATOM     42  N   UNL A   1      39.377  30.449  30.583  1.00  0.00    -0.248 NA
ATOM     43  C   UNL A   1      38.020  30.841  28.723  1.00  0.00     0.031 C 
ATOM     44  C   UNL A   1      37.205  33.696  32.778  1.00  0.00     0.029 A 
ATOM     45  N   UNL A   1      38.907  32.249  32.874  1.00  0.00    -0.354 N 
ATOM     46  C   UNL A   1      39.714  29.563  29.569  1.00  0.00     0.074 A 
ATOM     47  C   UNL A   1      38.807  29.805  28.471  1.00  0.00     0.031 C 
ATOM     48  C   UNL A   1      37.794  33.847  33.975  1.00  0.00     0.029 A 
ATOM     49  C   UNL A   1      38.894  32.894  34.087  1.00  0.00     0.049 A 
ATOM     50  H   UNL A   1      39.564  31.555  32.641  1.00  0.00     0.167 HD
ATOM     51  C   UNL A   1      40.710  28.648  29.552  1.00  0.00     0.037 A 
ATOM     52  C   UNL A   1      39.676  32.724  35.171  1.00  0.00     0.037 A 
ATOM     53  C   UNL A   1      41.631  28.442  30.636  1.00  0.00     0.049 A 
ATOM     54  C   UNL A   1      40.767  31.689  35.132  1.00  0.00     0.074 A 
ATOM     55  C   UNL A   1      42.701  27.568  30.701  1.00  0.00     0.029 A 
ATOM     56  N   UNL A   1      41.594  29.125  31.843  1.00  0.00    -0.354 N 
ATOM     57  N   UNL A   1      41.097  30.874  34.160  1.00  0.00    -0.248 NA
ATOM     58  C   UNL A   1      41.594  31.546  36.339  1.00  0.00     0.031 C 
ATOM     59  C   UNL A   1      43.288  27.692  31.962  1.00  0.00     0.029 A 
ATOM     60  C   UNL A   1      42.617  28.682  32.665  1.00  0.00     0.049 A 
ATOM     61  H   UNL A   1      40.939  29.820  32.080  1.00  0.00     0.167 HD
ATOM     62  C   UNL A   1      42.186  30.147  34.621  1.00  0.00     0.074 A 
ATOM     63  C   UNL A   1      42.465  30.617  35.962  1.00  0.00     0.031 C 
ATOM     64  C   UNL A   1      42.892  29.180  33.988  1.00  0.00     0.037 A 
BRANCH  51  65
ATOM     65  C   UNL A   1      40.869  27.811  28.317  1.00  0.00     0.064 A 
ATOM     66  C   UNL A   1      40.270  26.544  28.235  1.00  0.00     0.173 A 
ATOM     67  C   UNL A   1      41.664  28.232  27.242  1.00  0.00     0.173 A 
ATOM     68  F   UNL A   1      39.502  26.092  29.237  1.00  0.00    -0.203 F 
ATOM     69  C   UNL A   1      40.472  25.728  27.125  1.00  0.00     0.198 A 
ATOM     70  C   UNL A   1      41.839  27.426  26.121  1.00  0.00     0.198 A 
ATOM     71  F   UNL A   1      42.248  29.440  27.267  1.00  0.00    -0.203 F 
ATOM     72  F   UNL A   1      39.915  24.509  27.081  1.00  0.00    -0.200 F 
ATOM     73  C   UNL A   1      41.252  26.171  26.068  1.00  0.00     0.200 A 
ATOM     74  F   UNL A   1      42.571  27.867  25.088  1.00  0.00    -0.200 F 
ATOM     75  F   UNL A   1      41.435  25.388  24.996  1.00  0.00    -0.200 F 
ENDBRANCH  51  65
BRANCH  52  76
ATOM     76  C   UNL A   1      39.472  33.583  36.366  1.00  0.00     0.064 A 
ATOM     77  C   UNL A   1      40.072  34.845  36.474  1.00  0.00     0.173 A 
ATOM     78  C   UNL A   1      38.695  33.134  37.443  1.00  0.00     0.173 A 
ATOM     79  F   UNL A   1      40.830  35.317  35.474  1.00  0.00    -0.203 F 
ATOM     80  C   UNL A   1      39.917  35.619  37.623  1.00  0.00     0.198 A 
ATOM     81  C   UNL A   1      38.520  33.920  38.581  1.00  0.00     0.198 A 
ATOM     82  F   UNL A   1      38.087  31.941  37.377  1.00  0.00    -0.203 F 
ATOM     83  F   UNL A   1      40.528  36.808  37.716  1.00  0.00    -0.200 F 
ATOM     84  C   UNL A   1      39.138  35.158  38.673  1.00  0.00     0.200 A 
ATOM     85  F   UNL A   1      37.748  33.480  39.582  1.00  0.00    -0.200 F 
ATOM     86  F   UNL A   1      38.979  35.907  39.773  1.00  0.00    -0.200 F 
ENDBRANCH  52  76
BRANCH  64  87
ATOM     87  C   UNL A   1      44.066  28.582  34.705  1.00  0.00     0.064 A 
ATOM     88  C   UNL A   1      43.908  27.411  35.462  1.00  0.00     0.173 A 
ATOM     89  C   UNL A   1      45.310  29.226  34.737  1.00  0.00     0.173 A 
ATOM     90  F   UNL A   1      42.731  26.765  35.470  1.00  0.00    -0.203 F 
ATOM     91  C   UNL A   1      44.946  26.921  36.247  1.00  0.00     0.198 A 
ATOM     92  C   UNL A   1      46.355  28.717  35.504  1.00  0.00     0.198 A 
ATOM     93  F   UNL A   1      45.512  30.342  34.022  1.00  0.00    -0.203 F 
ATOM     94  F   UNL A   1      44.757  25.827  36.999  1.00  0.00    -0.200 F 
ATOM     95  C   UNL A   1      46.168  27.574  36.268  1.00  0.00     0.200 A 
ATOM     96  F   UNL A   1      47.543  29.337  35.509  1.00  0.00    -0.200 F 
ATOM     97  F   UNL A   1      47.167  27.103  37.027  1.00  0.00    -0.200 F 
ENDBRANCH  64  87
ENDBRANCH  38  39
ENDBRANCH  30  33
ENDBRANCH  28  29
ENDBRANCH  27  28
ENDBRANCH  26  27
ENDBRANCH  25  26
ENDBRANCH   1  25
TORSDOF 18
ENDMDL
MODEL 3
REMARK VINA RESULT:     -11.3      1.250      2.350
REMARK SMILES C[C@H]([NH3+])c1ccc(F)cc1OCC(C)(C)C(=O)NCCCCCCNC(=O)c1ccc(-c2c3nc(c(-c4c(F)c(F)c(F)c(F)c4F)c4ccc([nH]4)c(-c4c(F)c(F)c(F)c(F)c4F)c4nc(c(-c5c(F)c(F)c(F)c(F)c5F)c5ccc2[nH]5)C=C4)C=C3)cc1
REMARK SMILES IDX 20 1 19 2 18 3 16 4 17 5 13 7 14 8 15 9 12 10 11 11 10 12
REMARK SMILES IDX 4 13 5 14 6 15 9 16 7 17 8 18 2 19 1 20 3 21 21 25 22 26
REMARK SMILES IDX 23 27 24 28 25 29 26 30 27 32 28 33 29 34 90 35 30 36 89 37
REMARK SMILES IDX 31 38 32 39 33 40 83 41 34 42 88 43 82 44 84 45 35 46 87 47
REMARK SMILES IDX 81 48 80 49 36 51 68 52 48 53 67 54 49 55 52 56 66 57 85 58
REMARK SMILES IDX 50 59 51 60 65 62 86 63 53 64 37 65 38 66 46 67 39 68 40 69
REMARK SMILES IDX 44 70 47 71 41 72 42 73 45 74 43 75 69 76 70 77 78 78 71 79
REMARK SMILES IDX 72 80 76 81 79 82 73 83 74 84 77 85 75 86 54 87 55 88 63 89
REMARK SMILES IDX 56 90 57 91 61 92 64 93 58 94 59 95 62 96 60 97
REMARK H PARENT 18 6 3 22 3 23 3 24 25 31 84 50 52 61
REMARK Flexibility Score: inf
ROOT
ATOM      1  C   UNL A   1      32.975  28.618  27.107  1.00  0.00     0.021 C 
ENDROOT
BRANCH   1   2
ATOM      2  C   UNL A   1      32.923  27.658  25.934  1.00  0.00     0.116 C 
BRANCH   2   3
ATOM      3  N   UNL A   1      31.562  27.296  25.560  1.00  0.00    -0.356 N 
ATOM      4  C   UNL A   1      31.051  26.086  25.156  1.00  0.00     0.229 C 
ATOM      5  O   UNL A   1      29.830  26.012  25.008  1.00  0.00    -0.274 OA
ATOM      6  H   UNL A   1      30.909  28.030  25.604  1.00  0.00     0.163 HD
BRANCH   4   7
ATOM      7  C   UNL A   1      32.000  24.905  24.870  1.00  0.00     0.077 C 
ATOM      8  C   UNL A   1      32.835  25.273  23.626  1.00  0.00     0.025 C 
ATOM      9  C   UNL A   1      31.102  23.654  24.661  1.00  0.00     0.025 C 
BRANCH   7  10
ATOM     10  C   UNL A   1      32.859  24.535  26.130  1.00  0.00     0.245 C 
BRANCH  10  11
ATOM     11  O   UNL A   1      33.169  23.170  26.341  1.00  0.00    -0.492 OA
BRANCH  11  12
ATOM     12  C   UNL A   1      34.305  22.517  25.958  1.00  0.00     0.131 A 
ATOM     13  C   UNL A   1      34.544  21.182  25.546  1.00  0.00     0.051 A 
ATOM     14  C   UNL A   1      35.825  20.893  25.002  1.00  0.00     0.017 A 
ATOM     15  C   UNL A   1      36.821  21.862  24.876  1.00  0.00     0.040 A 
ATOM     16  C   UNL A   1      35.349  23.461  25.886  1.00  0.00     0.086 A 
ATOM     17  C   UNL A   1      36.579  23.137  25.339  1.00  0.00     0.126 A 
ATOM     18  F   UNL A   1      37.526  24.078  25.229  1.00  0.00    -0.207 F 
BRANCH  13  19
ATOM     19  C   UNL A   1      33.547  20.029  25.585  1.00  0.00     0.212 C 
ATOM     20  C   UNL A   1      33.895  18.917  24.600  1.00  0.00     0.081 C 
BRANCH  19  21
ATOM     21  N   UNL A   1      32.153  20.466  25.376  1.00  0.00    -0.351 N 
ATOM     22  H   UNL A   1      32.139  21.457  25.139  1.00  0.00     0.345 HD
ATOM     23  H   UNL A   1      31.618  20.312  26.230  1.00  0.00     0.345 HD
ATOM     24  H   UNL A   1      31.740  19.927  24.614  1.00  0.00     0.345 HD
ENDBRANCH  19  21
ENDBRANCH  13  19
ENDBRANCH  11  12
ENDBRANCH  10  11
ENDBRANCH   7  10
ENDBRANCH   4   7
ENDBRANCH   2   3
ENDBRANCH   1   2
BRANCH   1  25
ATOM     25  C   UNL A   1      33.016  30.083  26.675  1.00  0.00     0.002 C 
BRANCH  25  26
ATOM     26  C   UNL A   1      31.661  30.677  26.261  1.00  0.00     0.002 C 
BRANCH  26  27
ATOM     27  C   UNL A   1      31.442  32.143  26.647  1.00  0.00     0.021 C 
BRANCH  27  28
ATOM     28  C   UNL A   1      32.660  32.822  27.259  1.00  0.00     0.116 C 
BRANCH  28  29
ATOM     29  N   UNL A   1      32.392  34.203  27.626  1.00  0.00    -0.352 N 
ATOM     30  C   UNL A   1      32.971  34.953  28.615  1.00  0.00     0.251 C 
ATOM     31  H   UNL A   1      31.702  34.660  27.094  1.00  0.00     0.163 HD
ATOM     32  O   UNL A   1      32.529  36.058  28.910  1.00  0.00    -0.269 OA
BRANCH  30  33
ATOM     33  C   UNL A   1      34.130  34.401  29.338  1.00  0.00     0.039 A 
ATOM     34  C   UNL A   1      33.915  33.686  30.517  1.00  0.00     0.014 A 
ATOM     35  C   UNL A   1      35.421  34.575  28.831  1.00  0.00     0.014 A 
ATOM     36  C   UNL A   1      34.999  33.100  31.169  1.00  0.00     0.010 A 
ATOM     37  C   UNL A   1      36.489  33.933  29.444  1.00  0.00     0.010 A 
ATOM     38  C   UNL A   1      36.289  33.200  30.623  1.00  0.00    -0.014 A 
BRANCH  38  39
ATOM     39  C   UNL A   1      37.461  32.577  31.282  1.00  0.00     0.031 A 
ATOM     40  C   UNL A   1      38.188  31.462  30.587  1.00  0.00     0.074 A 
ATOM     41  C   UNL A   1      37.818  32.960  32.521  1.00  0.00     0.049 A 
ATOM     42  N   UNL A   1      39.142  30.688  31.038  1.00  0.00    -0.248 NA
ATOM     43  C   UNL A   1      37.764  31.155  29.211  1.00  0.00     0.031 C 
ATOM     44  C   UNL A   1      37.171  34.017  33.300  1.00  0.00     0.029 A 
ATOM     45  N   UNL A   1      38.806  32.492  33.350  1.00  0.00    -0.354 N 
ATOM     46  C   UNL A   1      39.415  29.795  30.011  1.00  0.00     0.074 A 
ATOM     47  C   UNL A   1      38.496  30.086  28.935  1.00  0.00     0.031 C 
ATOM     48  C   UNL A   1      37.793  34.131  34.485  1.00  0.00     0.029 A 
ATOM     49  C   UNL A   1      38.850  33.128  34.567  1.00  0.00     0.049 A 
ATOM     50  H   UNL A   1      39.425  31.770  33.098  1.00  0.00     0.167 HD
ATOM     51  C   UNL A   1      40.367  28.835  29.966  1.00  0.00     0.037 A 
ATOM     52  C   UNL A   1      39.647  32.915  35.632  1.00  0.00     0.037 A 
ATOM     53  C   UNL A   1      41.301  28.579  31.028  1.00  0.00     0.049 A 
ATOM     54  C   UNL A   1      40.688  31.830  35.563  1.00  0.00     0.074 A 
ATOM     55  C   UNL A   1      42.331  27.656  31.064  1.00  0.00     0.029 A 
ATOM     56  N   UNL A   1      41.323  29.254  32.240  1.00  0.00    -0.354 N 
ATOM     57  N   UNL A   1      40.958  31.008  34.579  1.00  0.00    -0.248 NA
ATOM     58  C   UNL A   1      41.534  31.641  36.750  1.00  0.00     0.031 C 
ATOM     59  C   UNL A   1      42.950  27.744  32.313  1.00  0.00     0.029 A 
ATOM     60  C   UNL A   1      42.341  28.758  33.036  1.00  0.00     0.049 A 
ATOM     61  H   UNL A   1      40.706  29.977  32.496  1.00  0.00     0.167 HD
ATOM     62  C   UNL A   1      42.022  30.228  35.011  1.00  0.00     0.074 A 
ATOM     63  C   UNL A   1      42.351  30.676  36.348  1.00  0.00     0.031 C 
ATOM     64  C   UNL A   1      42.668  29.234  34.356  1.00  0.00     0.037 A 
BRANCH  51  65
ATOM     65  C   UNL A   1      40.460  28.000  28.724  1.00  0.00     0.064 A 
ATOM     66  C   UNL A   1      39.800  26.764  28.646  1.00  0.00     0.173 A 
ATOM     67  C   UNL A   1      41.251  28.391  27.634  1.00  0.00     0.173 A 
ATOM     68  F   UNL A   1      39.033  26.341  29.662  1.00  0.00    -0.203 F 
ATOM     69  C   UNL A   1      39.940  25.947  27.527  1.00  0.00     0.198 A 
ATOM     70  C   UNL A   1      41.364  27.585  26.504  1.00  0.00     0.198 A 
ATOM     71  F   UNL A   1      41.892  29.570  27.653  1.00  0.00    -0.203 F 
ATOM     72  F   UNL A   1      39.324  24.756  27.488  1.00  0.00    -0.200 F 
ATOM     73  C   UNL A   1      40.717  26.360  26.457  1.00  0.00     0.200 A 
ATOM     74  F   UNL A   1      42.094  27.999  25.459  1.00  0.00    -0.200 F 
ATOM     75  F   UNL A   1      40.840  25.577  25.376  1.00  0.00    -0.200 F 
ENDBRANCH  51  65
BRANCH  52  76
ATOM     76  C   UNL A   1      39.509  33.773  36.836  1.00  0.00     0.064 A 
ATOM     77  C   UNL A   1      38.724  33.383  37.930  1.00  0.00     0.173 A 
ATOM     78  C   UNL A   1      40.140  35.024  36.898  1.00  0.00     0.173 A 
ATOM     79  F   UNL A   1      38.095  32.199  37.918  1.00  0.00    -0.203 F 
ATOM     80  C   UNL A   1      38.559  34.220  39.032  1.00  0.00     0.198 A 
ATOM     81  C   UNL A   1      39.995  35.849  38.012  1.00  0.00     0.198 A 
ATOM     82  F   UNL A   1      40.916  35.431  35.884  1.00  0.00    -0.203 F 
ATOM     83  F   UNL A   1      37.775  33.838  40.051  1.00  0.00    -0.200 F 
ATOM     84  C   UNL A   1      39.198  35.450  39.074  1.00  0.00     0.200 A 
ATOM     85  F   UNL A   1      40.633  37.025  38.057  1.00  0.00    -0.200 F 
ATOM     86  F   UNL A   1      39.048  36.250  40.139  1.00  0.00    -0.200 F 
ENDBRANCH  52  76
BRANCH  64  87
ATOM     87  C   UNL A   1      43.828  28.578  35.043  1.00  0.00     0.064 A 
ATOM     88  C   UNL A   1      43.611  27.516  35.936  1.00  0.00     0.173 A 
ATOM     89  C   UNL A   1      45.133  29.070  34.909  1.00  0.00     0.173 A 
ATOM     90  F   UNL A   1      42.377  27.019  36.105  1.00  0.00    -0.203 F 
ATOM     91  C   UNL A   1      44.655  26.989  36.689  1.00  0.00     0.198 A 
ATOM     92  C   UNL A   1      46.181  28.522  35.645  1.00  0.00     0.198 A 
ATOM     93  F   UNL A   1      45.393  30.076  34.060  1.00  0.00    -0.203 F 
ATOM     94  F   UNL A   1      44.415  26.007  37.570  1.00  0.00    -0.200 F 
ATOM     95  C   UNL A   1      45.938  27.492  36.543  1.00  0.00     0.200 A 
ATOM     96  F   UNL A   1      47.425  28.994  35.490  1.00  0.00    -0.200 F 
ATOM     97  F   UNL A   1      46.943  26.986  37.271  1.00  0.00    -0.200 F 
ENDBRANCH  64  87
ENDBRANCH  38  39
ENDBRANCH  30  33
ENDBRANCH  28  29
ENDBRANCH  27  28
ENDBRANCH  26  27
ENDBRANCH  25  26
ENDBRANCH   1  25
TORSDOF 18
ENDMDL
