MODEL 1
REMARK VINA RESULT:     -13.2      0.000      0.000
REMARK SMILES Cc1cccc(Cn2c(=O)c3sccc3n(CC(=O)NCCCCCCNC(=O)c3ccc(-c4c5nc(c(-c6c(F)c(F)c(F)c(F)c6F)c6ccc([nH]6)c(-c6c(F)c(F)c(F)c(F)c6F)c6nc(c(-c7c(F)c(F)c(F)c(F)c7F)c7ccc4[nH]7)C=C6)C=C5)cc3)c2=O)c1
REMARK SMILES IDX 23 1 22 2 21 3 20 4 18 5 19 6 17 8 16 9 8 10 9 11 93 12
REMARK SMILES IDX 10 13 11 14 94 15 12 16 15 17 13 18 14 19 7 20 6 21 1 22
REMARK SMILES IDX 2 23 3 24 95 25 4 26 5 27 24 28 25 29 26 30 27 31 28 32
REMARK SMILES IDX 29 34 30 35 31 36 92 37 32 38 91 39 33 40 34 41 35 42 85 43
REMARK SMILES IDX 36 44 90 45 84 46 86 47 37 48 89 49 83 50 82 51 38 53 70 54
REMARK SMILES IDX 50 55 69 56 51 57 54 58 68 59 87 60 52 61 53 62 67 64 88 65
REMARK SMILES IDX 55 66 39 67 40 68 48 69 41 70 42 71 46 72 49 73 43 74 44 75
REMARK SMILES IDX 47 76 45 77 71 78 72 79 80 80 73 81 74 82 78 83 81 84 75 85
REMARK SMILES IDX 76 86 79 87 77 88 56 89 57 90 65 91 58 92 59 93 63 94 66 95
REMARK SMILES IDX 60 96 61 97 64 98 62 99
REMARK H PARENT 20 7 27 33 86 52 54 63
REMARK Flexibility Score: inf
ROOT
ATOM      1  C   UNL A   1      35.145  21.381  25.359  1.00  0.00     0.002 C 
ENDROOT
BRANCH   1   2
ATOM      2  C   UNL A   1      34.074  20.465  24.745  1.00  0.00     0.021 C 
BRANCH   2   3
ATOM      3  C   UNL A   1      32.690  20.611  25.374  1.00  0.00     0.116 C 
BRANCH   3   4
ATOM      4  N   UNL A   1      32.699  21.525  26.494  1.00  0.00    -0.355 N 
ATOM      5  C   UNL A   1      31.969  22.656  26.698  1.00  0.00     0.240 C 
ATOM      6  O   UNL A   1      32.083  23.220  27.792  1.00  0.00    -0.273 OA
ATOM      7  H   UNL A   1      33.327  21.295  27.216  1.00  0.00     0.163 HD
BRANCH   5   8
ATOM      8  C   UNL A   1      30.967  23.171  25.660  1.00  0.00     0.227 C 
BRANCH   8   9
ATOM      9  N   UNL A   1      31.371  24.372  24.918  1.00  0.00    -0.283 N 
ATOM     10  N   UNL A   1      31.528  26.764  24.803  1.00  0.00    -0.254 N 
ATOM     11  C   UNL A   1      32.203  26.755  23.576  1.00  0.00     0.274 A 
ATOM     12  C   UNL A   1      31.082  25.621  25.472  1.00  0.00     0.332 A 
ATOM     13  O   UNL A   1      32.522  27.786  22.985  1.00  0.00    -0.268 OA
ATOM     14  C   UNL A   1      32.439  25.432  23.061  1.00  0.00     0.116 A 
ATOM     15  O   UNL A   1      30.412  25.700  26.505  1.00  0.00    -0.247 OA
ATOM     16  S   UNL A   1      33.208  25.130  21.577  1.00  0.00    -0.136 S 
ATOM     17  C   UNL A   1      32.050  24.288  23.703  1.00  0.00     0.070 A 
ATOM     18  C   UNL A   1      33.049  23.437  21.784  1.00  0.00     0.068 A 
ATOM     19  C   UNL A   1      32.422  23.121  22.971  1.00  0.00     0.039 A 
BRANCH  10  20
ATOM     20  C   UNL A   1      31.142  28.064  25.353  1.00  0.00     0.166 C 
BRANCH  20  21
ATOM     21  C   UNL A   1      32.247  28.809  26.081  1.00  0.00    -0.028 A 
ATOM     22  C   UNL A   1      32.927  32.237  27.626  1.00  0.00     0.044 C 
ATOM     23  C   UNL A   1      33.101  30.818  27.170  1.00  0.00    -0.051 A 
ATOM     24  C   UNL A   1      34.288  30.145  27.480  1.00  0.00     0.003 A 
ATOM     25  C   UNL A   1      32.097  30.156  26.444  1.00  0.00     0.009 A 
ATOM     26  C   UNL A   1      34.451  28.812  27.123  1.00  0.00     0.001 A 
ATOM     27  C   UNL A   1      33.428  28.146  26.453  1.00  0.00     0.005 A 
ENDBRANCH  20  21
ENDBRANCH  10  20
ENDBRANCH   8   9
ENDBRANCH   5   8
ENDBRANCH   3   4
ENDBRANCH   2   3
ENDBRANCH   1   2
BRANCH   1  28
ATOM     28  C   UNL A   1      36.330  21.748  24.447  1.00  0.00     0.002 C 
BRANCH  28  29
ATOM     29  C   UNL A   1      37.725  21.548  25.047  1.00  0.00     0.021 C 
BRANCH  29  30
ATOM     30  C   UNL A   1      38.253  22.766  25.791  1.00  0.00     0.116 C 
BRANCH  30  31
ATOM     31  N   UNL A   1      39.637  22.646  26.222  1.00  0.00    -0.352 N 
ATOM     32  C   UNL A   1      40.517  23.609  26.683  1.00  0.00     0.251 C 
ATOM     33  H   UNL A   1      40.006  21.734  26.179  1.00  0.00     0.163 HD
ATOM     34  O   UNL A   1      41.685  23.313  26.878  1.00  0.00    -0.269 OA
BRANCH  32  35
ATOM     35  C   UNL A   1      40.019  24.952  27.079  1.00  0.00     0.039 A 
ATOM     36  C   UNL A   1      40.433  26.053  26.311  1.00  0.00     0.014 A 
ATOM     37  C   UNL A   1      39.334  25.162  28.270  1.00  0.00     0.014 A 
ATOM     38  C   UNL A   1      40.384  27.333  26.858  1.00  0.00     0.010 A 
ATOM     39  C   UNL A   1      39.386  26.405  28.861  1.00  0.00     0.010 A 
ATOM     40  C   UNL A   1      39.969  27.477  28.179  1.00  0.00    -0.014 A 
BRANCH  40  41
ATOM     41  C   UNL A   1      40.208  28.664  28.982  1.00  0.00     0.031 A 
ATOM     42  C   UNL A   1      39.162  29.694  29.134  1.00  0.00     0.074 A 
ATOM     43  C   UNL A   1      41.338  28.730  29.721  1.00  0.00     0.049 A 
ATOM     44  N   UNL A   1      39.406  30.911  29.485  1.00  0.00    -0.248 NA
ATOM     45  C   UNL A   1      37.746  29.438  28.886  1.00  0.00     0.031 C 
ATOM     46  C   UNL A   1      41.617  29.632  30.835  1.00  0.00     0.029 A 
ATOM     47  N   UNL A   1      42.560  28.075  29.492  1.00  0.00    -0.354 N 
ATOM     48  C   UNL A   1      38.204  31.504  29.780  1.00  0.00     0.074 A 
ATOM     49  C   UNL A   1      37.195  30.572  29.332  1.00  0.00     0.031 C 
ATOM     50  C   UNL A   1      42.945  29.711  31.009  1.00  0.00     0.029 A 
ATOM     51  C   UNL A   1      43.559  28.981  29.916  1.00  0.00     0.049 A 
ATOM     52  H   UNL A   1      42.692  27.174  29.116  1.00  0.00     0.167 HD
ATOM     53  C   UNL A   1      38.186  32.659  30.502  1.00  0.00     0.037 A 
ATOM     54  C   UNL A   1      44.460  29.509  29.037  1.00  0.00     0.037 A 
ATOM     55  C   UNL A   1      39.531  33.105  30.834  1.00  0.00     0.049 A 
ATOM     56  C   UNL A   1      44.428  31.017  28.961  1.00  0.00     0.074 A 
ATOM     57  C   UNL A   1      40.315  32.949  31.965  1.00  0.00     0.029 A 
ATOM     58  N   UNL A   1      40.386  33.517  29.817  1.00  0.00    -0.354 N 
ATOM     59  N   UNL A   1      43.406  31.738  29.329  1.00  0.00    -0.248 NA
ATOM     60  C   UNL A   1      45.529  31.829  28.452  1.00  0.00     0.031 C 
ATOM     61  C   UNL A   1      41.656  33.243  31.619  1.00  0.00     0.029 A 
ATOM     62  C   UNL A   1      41.684  33.595  30.282  1.00  0.00     0.049 A 
ATOM     63  H   UNL A   1      40.105  33.724  28.897  1.00  0.00     0.167 HD
ATOM     64  C   UNL A   1      43.682  33.068  29.123  1.00  0.00     0.074 A 
ATOM     65  C   UNL A   1      45.028  33.070  28.583  1.00  0.00     0.031 C 
ATOM     66  C   UNL A   1      42.766  34.039  29.417  1.00  0.00     0.037 A 
BRANCH  53  67
ATOM     67  C   UNL A   1      36.932  33.201  31.134  1.00  0.00     0.064 A 
ATOM     68  C   UNL A   1      36.675  33.038  32.511  1.00  0.00     0.173 A 
ATOM     69  C   UNL A   1      35.926  33.864  30.408  1.00  0.00     0.173 A 
ATOM     70  F   UNL A   1      37.575  32.484  33.332  1.00  0.00    -0.203 F 
ATOM     71  C   UNL A   1      35.467  33.424  33.096  1.00  0.00     0.198 A 
ATOM     72  C   UNL A   1      34.698  34.205  30.982  1.00  0.00     0.198 A 
ATOM     73  F   UNL A   1      36.119  34.214  29.127  1.00  0.00    -0.203 F 
ATOM     74  F   UNL A   1      35.275  33.237  34.409  1.00  0.00    -0.200 F 
ATOM     75  C   UNL A   1      34.466  33.977  32.325  1.00  0.00     0.200 A 
ATOM     76  F   UNL A   1      33.735  34.747  30.222  1.00  0.00    -0.200 F 
ATOM     77  F   UNL A   1      33.288  34.302  32.876  1.00  0.00    -0.200 F 
ENDBRANCH  53  67
BRANCH  54  78
ATOM     78  C   UNL A   1      44.770  28.593  27.908  1.00  0.00     0.064 A 
ATOM     79  C   UNL A   1      45.553  27.454  28.180  1.00  0.00     0.173 A 
ATOM     80  C   UNL A   1      43.996  28.584  26.742  1.00  0.00     0.173 A 
ATOM     81  F   UNL A   1      46.311  27.414  29.288  1.00  0.00    -0.203 F 
ATOM     82  C   UNL A   1      45.464  26.308  27.394  1.00  0.00     0.198 A 
ATOM     83  C   UNL A   1      43.921  27.437  25.947  1.00  0.00     0.198 A 
ATOM     84  F   UNL A   1      43.217  29.631  26.436  1.00  0.00    -0.203 F 
ATOM     85  F   UNL A   1      46.127  25.199  27.750  1.00  0.00    -0.200 F 
ATOM     86  C   UNL A   1      44.622  26.290  26.294  1.00  0.00     0.200 A 
ATOM     87  F   UNL A   1      43.089  27.409  24.895  1.00  0.00    -0.200 F 
ATOM     88  F   UNL A   1      44.456  25.160  25.594  1.00  0.00    -0.200 F 
ENDBRANCH  54  78
BRANCH  66  89
ATOM     89  C   UNL A   1      42.815  35.503  29.034  1.00  0.00     0.064 A 
ATOM     90  C   UNL A   1      42.145  36.059  27.933  1.00  0.00     0.173 A 
ATOM     91  C   UNL A   1      43.446  36.445  29.890  1.00  0.00     0.173 A 
ATOM     92  F   UNL A   1      41.413  35.305  27.105  1.00  0.00    -0.203 F 
ATOM     93  C   UNL A   1      42.151  37.435  27.677  1.00  0.00     0.198 A 
ATOM     94  C   UNL A   1      43.395  37.821  29.668  1.00  0.00     0.198 A 
ATOM     95  F   UNL A   1      44.110  36.067  30.993  1.00  0.00    -0.203 F 
ATOM     96  F   UNL A   1      41.528  37.907  26.589  1.00  0.00    -0.200 F 
ATOM     97  C   UNL A   1      42.760  38.315  28.552  1.00  0.00     0.200 A 
ATOM     98  F   UNL A   1      43.945  38.659  30.557  1.00  0.00    -0.200 F 
ATOM     99  F   UNL A   1      42.715  39.635  28.330  1.00  0.00    -0.200 F 
ENDBRANCH  66  89
ENDBRANCH  40  41
ENDBRANCH  32  35
ENDBRANCH  30  31
ENDBRANCH  29  30
ENDBRANCH  28  29
ENDBRANCH   1  28
TORSDOF 16
ENDMDL
MODEL 2
REMARK VINA RESULT:     -12.8      3.312      9.749
REMARK SMILES Cc1cccc(Cn2c(=O)c3sccc3n(CC(=O)NCCCCCCNC(=O)c3ccc(-c4c5nc(c(-c6c(F)c(F)c(F)c(F)c6F)c6ccc([nH]6)c(-c6c(F)c(F)c(F)c(F)c6F)c6nc(c(-c7c(F)c(F)c(F)c(F)c7F)c7ccc4[nH]7)C=C6)C=C5)cc3)c2=O)c1
REMARK SMILES IDX 23 1 22 2 21 3 20 4 18 5 19 6 17 8 16 9 8 10 9 11 93 12
REMARK SMILES IDX 10 13 11 14 94 15 12 16 15 17 13 18 14 19 7 20 6 21 1 22
REMARK SMILES IDX 2 23 3 24 95 25 4 26 5 27 24 28 25 29 26 30 27 31 28 32
REMARK SMILES IDX 29 34 30 35 31 36 92 37 32 38 91 39 33 40 34 41 35 42 85 43
REMARK SMILES IDX 36 44 90 45 84 46 86 47 37 48 89 49 83 50 82 51 38 53 70 54
REMARK SMILES IDX 50 55 69 56 51 57 54 58 68 59 87 60 52 61 53 62 67 64 88 65
REMARK SMILES IDX 55 66 39 67 40 68 48 69 41 70 42 71 46 72 49 73 43 74 44 75
REMARK SMILES IDX 47 76 45 77 71 78 72 79 80 80 73 81 74 82 78 83 81 84 75 85
REMARK SMILES IDX 76 86 79 87 77 88 56 89 57 90 65 91 58 92 59 93 63 94 66 95
REMARK SMILES IDX 60 96 61 97 64 98 62 99
REMARK H PARENT 20 7 27 33 86 52 54 63
REMARK Flexibility Score: inf
ROOT
ATOM      1  C   UNL A   1      31.034  30.076  24.541  1.00  0.00     0.002 C 
ENDROOT
BRANCH   1   2
ATOM      2  C   UNL A   1      31.237  29.367  23.192  1.00  0.00     0.021 C 
BRANCH   2   3
ATOM      3  C   UNL A   1      30.445  28.070  23.041  1.00  0.00     0.116 C 
BRANCH   3   4
ATOM      4  N   UNL A   1      30.982  27.228  21.997  1.00  0.00    -0.355 N 
ATOM      5  C   UNL A   1      32.083  26.425  22.008  1.00  0.00     0.240 C 
ATOM      6  O   UNL A   1      32.283  25.717  21.015  1.00  0.00    -0.273 OA
ATOM      7  H   UNL A   1      30.477  27.235  21.152  1.00  0.00     0.163 HD
BRANCH   5   8
ATOM      8  C   UNL A   1      32.995  26.320  23.234  1.00  0.00     0.227 C 
BRANCH   8   9
ATOM      9  N   UNL A   1      32.975  25.033  23.940  1.00  0.00    -0.283 N 
ATOM     10  N   UNL A   1      33.998  22.904  24.368  1.00  0.00    -0.254 N 
ATOM     11  C   UNL A   1      33.054  22.539  25.336  1.00  0.00     0.274 A 
ATOM     12  C   UNL A   1      33.974  24.101  23.646  1.00  0.00     0.332 A 
ATOM     13  O   UNL A   1      33.071  21.448  25.903  1.00  0.00    -0.268 OA
ATOM     14  C   UNL A   1      32.046  23.542  25.560  1.00  0.00     0.116 A 
ATOM     15  O   UNL A   1      34.782  24.323  22.742  1.00  0.00    -0.247 OA
ATOM     16  S   UNL A   1      30.763  23.348  26.656  1.00  0.00    -0.136 S 
ATOM     17  C   UNL A   1      32.009  24.740  24.900  1.00  0.00     0.070 A 
ATOM     18  C   UNL A   1      30.139  24.897  26.274  1.00  0.00     0.068 A 
ATOM     19  C   UNL A   1      30.909  25.542  25.329  1.00  0.00     0.039 A 
BRANCH  10  20
ATOM     20  C   UNL A   1      34.998  21.905  23.988  1.00  0.00     0.166 C 
BRANCH  20  21
ATOM     21  C   UNL A   1      36.302  21.974  24.761  1.00  0.00    -0.028 A 
ATOM     22  C   UNL A   1      39.385  19.832  25.478  1.00  0.00     0.044 C 
ATOM     23  C   UNL A   1      38.409  20.971  25.476  1.00  0.00    -0.051 A 
ATOM     24  C   UNL A   1      38.740  22.151  26.153  1.00  0.00     0.003 A 
ATOM     25  C   UNL A   1      37.177  20.878  24.808  1.00  0.00     0.009 A 
ATOM     26  C   UNL A   1      37.881  23.243  26.117  1.00  0.00     0.001 A 
ATOM     27  C   UNL A   1      36.687  23.161  25.406  1.00  0.00     0.005 A 
ENDBRANCH  20  21
ENDBRANCH  10  20
ENDBRANCH   8   9
ENDBRANCH   5   8
ENDBRANCH   3   4
ENDBRANCH   2   3
ENDBRANCH   1   2
BRANCH   1  28
ATOM     28  C   UNL A   1      31.560  29.336  25.784  1.00  0.00     0.002 C 
BRANCH  28  29
ATOM     29  C   UNL A   1      32.094  30.220  26.915  1.00  0.00     0.021 C 
BRANCH  29  30
ATOM     30  C   UNL A   1      33.602  30.417  26.880  1.00  0.00     0.116 C 
BRANCH  30  31
ATOM     31  N   UNL A   1      34.095  31.402  27.831  1.00  0.00    -0.352 N 
ATOM     32  C   UNL A   1      35.127  31.320  28.749  1.00  0.00     0.251 C 
ATOM     33  H   UNL A   1      33.619  32.263  27.819  1.00  0.00     0.163 HD
ATOM     34  O   UNL A   1      35.298  32.229  29.546  1.00  0.00    -0.269 OA
BRANCH  32  35
ATOM     35  C   UNL A   1      36.110  30.207  28.676  1.00  0.00     0.039 A 
ATOM     36  C   UNL A   1      36.407  29.520  29.864  1.00  0.00     0.014 A 
ATOM     37  C   UNL A   1      36.864  29.966  27.534  1.00  0.00     0.014 A 
ATOM     38  C   UNL A   1      37.596  28.801  29.967  1.00  0.00     0.010 A 
ATOM     39  C   UNL A   1      38.092  29.354  27.661  1.00  0.00     0.010 A 
ATOM     40  C   UNL A   1      38.484  28.828  28.895  1.00  0.00    -0.014 A 
BRANCH  40  41
ATOM     41  C   UNL A   1      39.883  28.445  28.988  1.00  0.00     0.031 A 
ATOM     42  C   UNL A   1      40.331  27.114  28.536  1.00  0.00     0.074 A 
ATOM     43  C   UNL A   1      40.789  29.385  29.337  1.00  0.00     0.049 A 
ATOM     44  N   UNL A   1      41.430  26.563  28.924  1.00  0.00    -0.248 NA
ATOM     45  C   UNL A   1      39.563  26.282  27.614  1.00  0.00     0.031 C 
ATOM     46  C   UNL A   1      42.238  29.326  29.161  1.00  0.00     0.029 A 
ATOM     47  N   UNL A   1      40.579  30.550  30.094  1.00  0.00    -0.354 N 
ATOM     48  C   UNL A   1      41.654  25.475  28.118  1.00  0.00     0.074 A 
ATOM     49  C   UNL A   1      40.436  25.300  27.361  1.00  0.00     0.031 C 
ATOM     50  C   UNL A   1      42.814  30.196  30.006  1.00  0.00     0.029 A 
ATOM     51  C   UNL A   1      41.761  30.727  30.851  1.00  0.00     0.049 A 
ATOM     52  H   UNL A   1      39.778  31.123  30.096  1.00  0.00     0.167 HD
ATOM     53  C   UNL A   1      42.897  24.919  28.071  1.00  0.00     0.037 A 
ATOM     54  C   UNL A   1      41.749  30.660  32.214  1.00  0.00     0.037 A 
ATOM     55  C   UNL A   1      43.824  25.604  28.960  1.00  0.00     0.049 A 
ATOM     56  C   UNL A   1      42.649  29.588  32.781  1.00  0.00     0.074 A 
ATOM     57  C   UNL A   1      44.762  26.600  28.745  1.00  0.00     0.029 A 
ATOM     58  N   UNL A   1      43.627  25.540  30.335  1.00  0.00    -0.354 N 
ATOM     59  N   UNL A   1      43.061  28.554  32.100  1.00  0.00    -0.248 NA
ATOM     60  C   UNL A   1      43.141  29.582  34.154  1.00  0.00     0.031 C 
ATOM     61  C   UNL A   1      45.112  27.158  29.998  1.00  0.00     0.029 A 
ATOM     62  C   UNL A   1      44.398  26.488  30.977  1.00  0.00     0.049 A 
ATOM     63  H   UNL A   1      43.023  24.907  30.787  1.00  0.00     0.167 HD
ATOM     64  C   UNL A   1      43.847  27.760  32.898  1.00  0.00     0.074 A 
ATOM     65  C   UNL A   1      43.875  28.455  34.171  1.00  0.00     0.031 C 
ATOM     66  C   UNL A   1      44.398  26.601  32.427  1.00  0.00     0.037 A 
BRANCH  53  67
ATOM     67  C   UNL A   1      43.310  23.945  27.000  1.00  0.00     0.064 A 
ATOM     68  C   UNL A   1      42.864  22.607  27.014  1.00  0.00     0.173 A 
ATOM     69  C   UNL A   1      44.182  24.279  25.949  1.00  0.00     0.173 A 
ATOM     70  F   UNL A   1      41.979  22.171  27.919  1.00  0.00    -0.203 F 
ATOM     71  C   UNL A   1      43.328  21.657  26.102  1.00  0.00     0.198 A 
ATOM     72  C   UNL A   1      44.686  23.317  25.068  1.00  0.00     0.198 A 
ATOM     73  F   UNL A   1      44.553  25.551  25.740  1.00  0.00    -0.203 F 
ATOM     74  F   UNL A   1      42.876  20.397  26.168  1.00  0.00    -0.200 F 
ATOM     75  C   UNL A   1      44.264  22.003  25.151  1.00  0.00     0.200 A 
ATOM     76  F   UNL A   1      45.591  23.669  24.144  1.00  0.00    -0.200 F 
ATOM     77  F   UNL A   1      44.747  21.080  24.309  1.00  0.00    -0.200 F 
ENDBRANCH  53  67
BRANCH  54  78
ATOM     78  C   UNL A   1      40.459  31.106  32.803  1.00  0.00     0.064 A 
ATOM     79  C   UNL A   1      40.165  32.484  32.776  1.00  0.00     0.173 A 
ATOM     80  C   UNL A   1      39.392  30.219  32.980  1.00  0.00     0.173 A 
ATOM     81  F   UNL A   1      41.155  33.375  32.606  1.00  0.00    -0.203 F 
ATOM     82  C   UNL A   1      38.851  32.945  32.791  1.00  0.00     0.198 A 
ATOM     83  C   UNL A   1      38.075  30.687  33.010  1.00  0.00     0.198 A 
ATOM     84  F   UNL A   1      39.605  28.895  32.998  1.00  0.00    -0.203 F 
ATOM     85  F   UNL A   1      38.599  34.252  32.640  1.00  0.00    -0.200 F 
ATOM     86  C   UNL A   1      37.805  32.042  32.877  1.00  0.00     0.200 A 
ATOM     87  F   UNL A   1      37.059  29.813  33.070  1.00  0.00    -0.200 F 
ATOM     88  F   UNL A   1      36.538  32.471  32.791  1.00  0.00    -0.200 F 
ENDBRANCH  54  78
BRANCH  66  89
ATOM     89  C   UNL A   1      45.078  25.509  33.226  1.00  0.00     0.064 A 
ATOM     90  C   UNL A   1      46.458  25.255  33.210  1.00  0.00     0.173 A 
ATOM     91  C   UNL A   1      44.340  24.758  34.180  1.00  0.00     0.173 A 
ATOM     92  F   UNL A   1      47.292  25.967  32.443  1.00  0.00    -0.203 F 
ATOM     93  C   UNL A   1      47.046  24.292  34.038  1.00  0.00     0.198 A 
ATOM     94  C   UNL A   1      44.939  23.846  35.049  1.00  0.00     0.198 A 
ATOM     95  F   UNL A   1      43.015  24.905  34.327  1.00  0.00    -0.203 F 
ATOM     96  F   UNL A   1      48.363  24.062  33.953  1.00  0.00    -0.200 F 
ATOM     97  C   UNL A   1      46.290  23.601  34.967  1.00  0.00     0.200 A 
ATOM     98  F   UNL A   1      44.197  23.227  35.978  1.00  0.00    -0.200 F 
ATOM     99  F   UNL A   1      46.868  22.720  35.794  1.00  0.00    -0.200 F 
ENDBRANCH  66  89
ENDBRANCH  40  41
ENDBRANCH  32  35
ENDBRANCH  30  31
ENDBRANCH  29  30
ENDBRANCH  28  29
ENDBRANCH   1  28
TORSDOF 16
ENDMDL
MODEL 3
REMARK VINA RESULT:     -12.7      3.426      9.525
REMARK SMILES Cc1cccc(Cn2c(=O)c3sccc3n(CC(=O)NCCCCCCNC(=O)c3ccc(-c4c5nc(c(-c6c(F)c(F)c(F)c(F)c6F)c6ccc([nH]6)c(-c6c(F)c(F)c(F)c(F)c6F)c6nc(c(-c7c(F)c(F)c(F)c(F)c7F)c7ccc4[nH]7)C=C6)C=C5)cc3)c2=O)c1
REMARK SMILES IDX 23 1 22 2 21 3 20 4 18 5 19 6 17 8 16 9 8 10 9 11 93 12
REMARK SMILES IDX 10 13 11 14 94 15 12 16 15 17 13 18 14 19 7 20 6 21 1 22
REMARK SMILES IDX 2 23 3 24 95 25 4 26 5 27 24 28 25 29 26 30 27 31 28 32
REMARK SMILES IDX 29 34 30 35 31 36 92 37 32 38 91 39 33 40 34 41 35 42 85 43
REMARK SMILES IDX 36 44 90 45 84 46 86 47 37 48 89 49 83 50 82 51 38 53 70 54
REMARK SMILES IDX 50 55 69 56 51 57 54 58 68 59 87 60 52 61 53 62 67 64 88 65
REMARK SMILES IDX 55 66 39 67 40 68 48 69 41 70 42 71 46 72 49 73 43 74 44 75
REMARK SMILES IDX 47 76 45 77 71 78 72 79 80 80 73 81 74 82 78 83 81 84 75 85
REMARK SMILES IDX 76 86 79 87 77 88 56 89 57 90 65 91 58 92 59 93 63 94 66 95
REMARK SMILES IDX 60 96 61 97 64 98 62 99
REMARK H PARENT 20 7 27 33 86 52 54 63
REMARK Flexibility Score: inf
ROOT
ATOM      1  C   UNL A   1      32.789  28.886  27.197  1.00  0.00     0.002 C 
ENDROOT
BRANCH   1   2
ATOM      2  C   UNL A   1      32.031  29.953  26.392  1.00  0.00     0.021 C 
BRANCH   2   3
ATOM      3  C   UNL A   1      31.693  29.536  24.961  1.00  0.00     0.116 C 
BRANCH   3   4
ATOM      4  N   UNL A   1      32.877  29.420  24.140  1.00  0.00    -0.355 N 
ATOM      5  C   UNL A   1      33.152  28.547  23.131  1.00  0.00     0.240 C 
ATOM      6  O   UNL A   1      34.203  28.713  22.503  1.00  0.00    -0.273 OA
ATOM      7  H   UNL A   1      33.589  30.069  24.338  1.00  0.00     0.163 HD
BRANCH   5   8
ATOM      8  C   UNL A   1      32.162  27.455  22.714  1.00  0.00     0.227 C 
BRANCH   8   9
ATOM      9  N   UNL A   1      32.333  26.151  23.366  1.00  0.00    -0.283 N 
ATOM     10  N   UNL A   1      33.576  24.110  23.592  1.00  0.00    -0.254 N 
ATOM     11  C   UNL A   1      32.784  23.634  24.645  1.00  0.00     0.274 A 
ATOM     12  C   UNL A   1      33.367  25.320  22.926  1.00  0.00     0.332 A 
ATOM     13  O   UNL A   1      32.959  22.532  25.163  1.00  0.00    -0.268 OA
ATOM     14  C   UNL A   1      31.727  24.536  25.021  1.00  0.00     0.116 A 
ATOM     15  O   UNL A   1      34.043  25.640  21.946  1.00  0.00    -0.247 OA
ATOM     16  S   UNL A   1      30.600  24.196  26.245  1.00  0.00    -0.136 S 
ATOM     17  C   UNL A   1      31.512  25.745  24.417  1.00  0.00     0.070 A 
ATOM     18  C   UNL A   1      29.807  25.694  25.997  1.00  0.00     0.068 A 
ATOM     19  C   UNL A   1      30.405  26.433  24.997  1.00  0.00     0.039 A 
BRANCH  10  20
ATOM     20  C   UNL A   1      34.606  23.215  23.063  1.00  0.00     0.166 C 
BRANCH  20  21
ATOM     21  C   UNL A   1      35.749  22.915  24.016  1.00  0.00    -0.028 A 
ATOM     22  C   UNL A   1      38.051  20.025  24.991  1.00  0.00     0.044 C 
ATOM     23  C   UNL A   1      37.402  21.376  24.941  1.00  0.00    -0.051 A 
ATOM     24  C   UNL A   1      37.905  22.403  25.749  1.00  0.00     0.003 A 
ATOM     25  C   UNL A   1      36.305  21.630  24.100  1.00  0.00     0.009 A 
ATOM     26  C   UNL A   1      37.361  23.680  25.678  1.00  0.00     0.001 A 
ATOM     27  C   UNL A   1      36.310  23.936  24.800  1.00  0.00     0.005 A 
ENDBRANCH  20  21
ENDBRANCH  10  20
ENDBRANCH   8   9
ENDBRANCH   5   8
ENDBRANCH   3   4
ENDBRANCH   2   3
ENDBRANCH   1   2
BRANCH   1  28
ATOM     28  C   UNL A   1      34.317  29.055  27.279  1.00  0.00     0.002 C 
BRANCH  28  29
ATOM     29  C   UNL A   1      34.821  30.162  28.211  1.00  0.00     0.021 C 
BRANCH  29  30
ATOM     30  C   UNL A   1      34.932  31.524  27.543  1.00  0.00     0.116 C 
BRANCH  30  31
ATOM     31  N   UNL A   1      34.211  32.584  28.229  1.00  0.00    -0.352 N 
ATOM     32  C   UNL A   1      34.529  33.283  29.380  1.00  0.00     0.251 C 
ATOM     33  H   UNL A   1      33.360  32.846  27.808  1.00  0.00     0.163 HD
ATOM     34  O   UNL A   1      33.716  34.058  29.859  1.00  0.00    -0.269 OA
BRANCH  32  35
ATOM     35  C   UNL A   1      35.900  33.206  29.949  1.00  0.00     0.039 A 
ATOM     36  C   UNL A   1      36.950  33.762  29.200  1.00  0.00     0.014 A 
ATOM     37  C   UNL A   1      36.187  32.446  31.077  1.00  0.00     0.014 A 
ATOM     38  C   UNL A   1      38.259  33.349  29.434  1.00  0.00     0.010 A 
ATOM     39  C   UNL A   1      37.461  31.947  31.241  1.00  0.00     0.010 A 
ATOM     40  C   UNL A   1      38.483  32.351  30.378  1.00  0.00    -0.014 A 
BRANCH  40  41
ATOM     41  C   UNL A   1      39.711  31.577  30.468  1.00  0.00     0.031 A 
ATOM     42  C   UNL A   1      39.831  30.273  29.789  1.00  0.00     0.074 A 
ATOM     43  C   UNL A   1      40.794  32.147  31.041  1.00  0.00     0.049 A 
ATOM     44  N   UNL A   1      40.694  29.375  30.119  1.00  0.00    -0.248 NA
ATOM     45  C   UNL A   1      38.969  29.865  28.683  1.00  0.00     0.031 C 
ATOM     46  C   UNL A   1      42.184  31.712  30.934  1.00  0.00     0.029 A 
ATOM     47  N   UNL A   1      40.826  33.175  31.999  1.00  0.00    -0.354 N 
ATOM     48  C   UNL A   1      40.702  28.425  29.129  1.00  0.00     0.074 A 
ATOM     49  C   UNL A   1      39.568  28.736  28.289  1.00  0.00     0.031 C 
ATOM     50  C   UNL A   1      42.880  32.223  31.961  1.00  0.00     0.029 A 
ATOM     51  C   UNL A   1      41.925  32.876  32.837  1.00  0.00     0.049 A 
ATOM     52  H   UNL A   1      40.212  33.942  32.071  1.00  0.00     0.167 HD
ATOM     53  C   UNL A   1      41.748  27.556  29.040  1.00  0.00     0.037 A 
ATOM     54  C   UNL A   1      41.753  32.580  34.158  1.00  0.00     0.037 A 
ATOM     55  C   UNL A   1      42.726  27.786  30.093  1.00  0.00     0.049 A 
ATOM     56  C   UNL A   1      42.268  31.216  34.551  1.00  0.00     0.074 A 
ATOM     57  C   UNL A   1      43.914  28.498  30.126  1.00  0.00     0.029 A 
ATOM     58  N   UNL A   1      42.376  27.544  31.416  1.00  0.00    -0.354 N 
ATOM     59  N   UNL A   1      42.457  30.242  33.704  1.00  0.00    -0.248 NA
ATOM     60  C   UNL A   1      42.594  30.834  35.921  1.00  0.00     0.031 C 
ATOM     61  C   UNL A   1      44.267  28.708  31.481  1.00  0.00     0.029 A 
ATOM     62  C   UNL A   1      43.302  28.109  32.271  1.00  0.00     0.049 A 
ATOM     63  H   UNL A   1      41.581  27.040  31.704  1.00  0.00     0.167 HD
ATOM     64  C   UNL A   1      42.913  29.133  34.372  1.00  0.00     0.074 A 
ATOM     65  C   UNL A   1      42.993  29.560  35.756  1.00  0.00     0.031 C 
ATOM     66  C   UNL A   1      43.180  27.965  33.713  1.00  0.00     0.037 A 
BRANCH  53  67
ATOM     67  C   UNL A   1      41.995  26.706  27.823  1.00  0.00     0.064 A 
ATOM     68  C   UNL A   1      41.319  25.483  27.633  1.00  0.00     0.173 A 
ATOM     69  C   UNL A   1      42.924  27.042  26.822  1.00  0.00     0.173 A 
ATOM     70  F   UNL A   1      40.361  25.073  28.473  1.00  0.00    -0.203 F 
ATOM     71  C   UNL A   1      41.618  24.621  26.576  1.00  0.00     0.198 A 
ATOM     72  C   UNL A   1      43.261  26.158  25.793  1.00  0.00     0.198 A 
ATOM     73  F   UNL A   1      43.517  28.246  26.810  1.00  0.00    -0.203 F 
ATOM     74  F   UNL A   1      40.950  23.467  26.451  1.00  0.00    -0.200 F 
ATOM     75  C   UNL A   1      42.612  24.943  25.676  1.00  0.00     0.200 A 
ATOM     76  F   UNL A   1      44.224  26.486  24.921  1.00  0.00    -0.200 F 
ATOM     77  F   UNL A   1      42.934  24.093  24.691  1.00  0.00    -0.200 F 
ENDBRANCH  53  67
BRANCH  54  78
ATOM     78  C   UNL A   1      40.576  33.265  34.754  1.00  0.00     0.064 A 
ATOM     79  C   UNL A   1      39.411  32.502  34.973  1.00  0.00     0.173 A 
ATOM     80  C   UNL A   1      40.711  34.459  35.470  1.00  0.00     0.173 A 
ATOM     81  F   UNL A   1      39.236  31.346  34.312  1.00  0.00    -0.203 F 
ATOM     82  C   UNL A   1      38.490  32.851  35.957  1.00  0.00     0.198 A 
ATOM     83  C   UNL A   1      39.776  34.815  36.446  1.00  0.00     0.198 A 
ATOM     84  F   UNL A   1      41.804  35.221  35.318  1.00  0.00    -0.203 F 
ATOM     85  F   UNL A   1      37.458  32.039  36.225  1.00  0.00    -0.200 F 
ATOM     86  C   UNL A   1      38.691  33.992  36.715  1.00  0.00     0.200 A 
ATOM     87  F   UNL A   1      39.980  35.906  37.198  1.00  0.00    -0.200 F 
ATOM     88  F   UNL A   1      37.863  34.278  37.730  1.00  0.00    -0.200 F 
ENDBRANCH  54  78
BRANCH  66  89
ATOM     89  C   UNL A   1      43.454  26.604  34.318  1.00  0.00     0.064 A 
ATOM     90  C   UNL A   1      42.471  25.769  34.873  1.00  0.00     0.173 A 
ATOM     91  C   UNL A   1      44.746  26.023  34.214  1.00  0.00     0.173 A 
ATOM     92  F   UNL A   1      41.187  26.141  34.930  1.00  0.00    -0.203 F 
ATOM     93  C   UNL A   1      42.765  24.481  35.335  1.00  0.00     0.198 A 
ATOM     94  C   UNL A   1      45.021  24.716  34.616  1.00  0.00     0.198 A 
ATOM     95  F   UNL A   1      45.783  26.691  33.687  1.00  0.00    -0.203 F 
ATOM     96  F   UNL A   1      41.797  23.742  35.893  1.00  0.00    -0.200 F 
ATOM     97  C   UNL A   1      44.033  23.950  35.192  1.00  0.00     0.200 A 
ATOM     98  F   UNL A   1      46.243  24.202  34.418  1.00  0.00    -0.200 F 
ATOM     99  F   UNL A   1      44.295  22.697  35.587  1.00  0.00    -0.200 F 
ENDBRANCH  66  89
ENDBRANCH  40  41
ENDBRANCH  32  35
ENDBRANCH  30  31
ENDBRANCH  29  30
ENDBRANCH  28  29
ENDBRANCH   1  28
TORSDOF 16
ENDMDL
