MODEL 1
REMARK VINA RESULT:     -13.0      0.000      0.000
REMARK SMILES O=C(C[C@@H]([NH2+]Cc1cccnc1)C(=O)NCCCCCCNC(=O)c1ccc(-c2c3nc(c(-c4c(F)c(F)c(F)c(F)c4F)c4ccc([nH]4)c(-c4c(F)c(F)c(F)c(F)c4F)c4nc(c(-c5c(F)c(F)c(F)c(F)c5F)c5ccc2[nH]5)C=C4)C=C3)cc1)Nc1ccc2ccccc2c1
REMARK SMILES IDX 18 1 17 2 16 3 15 4 13 5 14 6 4 8 3 9 2 10 1 11 88 12 89 14
REMARK SMILES IDX 90 15 98 16 91 17 97 18 92 19 96 20 93 21 95 22 94 23 5 24
REMARK SMILES IDX 6 27 7 28 8 29 12 30 9 31 11 32 10 33 19 34 20 35 21 36
REMARK SMILES IDX 22 37 23 38 24 40 25 41 26 42 87 43 27 44 86 45 28 46 29 47
REMARK SMILES IDX 30 48 80 49 31 50 85 51 79 52 81 53 32 54 84 55 78 56 77 57
REMARK SMILES IDX 33 59 65 60 45 61 64 62 46 63 49 64 63 65 82 66 47 67 48 68
REMARK SMILES IDX 62 70 83 71 50 72 34 73 35 74 43 75 36 76 37 77 41 78 44 79
REMARK SMILES IDX 38 80 39 81 42 82 40 83 66 84 67 85 75 86 68 87 69 88 73 89
REMARK SMILES IDX 76 90 70 91 71 92 74 93 72 94 51 95 52 96 60 97 53 98 54 99
REMARK SMILES IDX 58 100 61 101 55 102 56 103 59 104 57 105
REMARK H PARENT 15 7 88 13 5 25 5 26 22 39 81 58 49 69
REMARK Flexibility Score: inf
ROOT
ATOM      1  C   UNL A   1      37.660  22.330  25.292  1.00  0.00     0.002 C 
ENDROOT
BRANCH   1   2
ATOM      2  C   UNL A   1      36.502  23.257  25.684  1.00  0.00     0.021 C 
BRANCH   2   3
ATOM      3  C   UNL A   1      35.130  22.594  25.567  1.00  0.00     0.116 C 
BRANCH   3   4
ATOM      4  N   UNL A   1      34.477  22.577  26.860  1.00  0.00    -0.351 N 
ATOM      5  C   UNL A   1      33.154  22.517  27.174  1.00  0.00     0.278 C 
ATOM      6  O   UNL A   1      32.847  22.572  28.368  1.00  0.00    -0.268 OA
ATOM      7  H   UNL A   1      35.086  22.615  27.632  1.00  0.00     0.163 HD
BRANCH   5   8
ATOM      8  C   UNL A   1      32.077  22.314  26.089  1.00  0.00     0.282 C 
BRANCH   8   9
ATOM      9  C   UNL A   1      32.285  23.322  24.936  1.00  0.00     0.175 C 
BRANCH   9  10
ATOM     10  C   UNL A   1      31.669  24.690  25.166  1.00  0.00     0.230 C 
ATOM     11  O   UNL A   1      31.009  24.938  26.169  1.00  0.00    -0.274 OA
ATOM     12  N   UNL A   1      31.926  25.573  24.131  1.00  0.00    -0.326 N 
ATOM     13  H   UNL A   1      32.597  25.318  23.457  1.00  0.00     0.169 HD
BRANCH  12  14
ATOM     14  C   UNL A   1      31.282  26.810  23.991  1.00  0.00     0.041 A 
ATOM     15  C   UNL A   1      31.923  27.937  24.505  1.00  0.00     0.027 A 
ATOM     16  C   UNL A   1      30.022  26.927  23.405  1.00  0.00     0.034 A 
ATOM     17  C   UNL A   1      31.361  29.199  24.331  1.00  0.00     0.011 A 
ATOM     18  C   UNL A   1      29.378  28.178  23.366  1.00  0.00    -0.016 A 
ATOM     19  C   UNL A   1      30.083  29.334  23.778  1.00  0.00    -0.018 A 
ATOM     20  C   UNL A   1      28.039  28.313  22.966  1.00  0.00     0.009 A 
ATOM     21  C   UNL A   1      29.479  30.594  23.669  1.00  0.00     0.009 A 
ATOM     22  C   UNL A   1      27.420  29.565  22.950  1.00  0.00     0.001 A 
ATOM     23  C   UNL A   1      28.148  30.707  23.270  1.00  0.00     0.001 A 
ENDBRANCH  12  14
ENDBRANCH   9  10
ENDBRANCH   8   9
BRANCH   8  24
ATOM     24  N   UNL A   1      32.016  20.881  25.653  1.00  0.00    -0.332 N 
ATOM     25  H   UNL A   1      31.079  20.525  25.839  1.00  0.00     0.347 HD
ATOM     26  H   UNL A   1      32.733  20.379  26.177  1.00  0.00     0.347 HD
BRANCH  24  27
ATOM     27  C   UNL A   1      32.314  20.685  24.215  1.00  0.00     0.299 C 
BRANCH  27  28
ATOM     28  C   UNL A   1      32.947  19.355  23.911  1.00  0.00     0.024 A 
ATOM     29  C   UNL A   1      34.086  18.903  24.588  1.00  0.00     0.013 A 
ATOM     30  C   UNL A   1      32.416  18.517  22.935  1.00  0.00     0.120 A 
ATOM     31  C   UNL A   1      34.668  17.689  24.239  1.00  0.00     0.021 A 
ATOM     32  N   UNL A   1      32.945  17.319  22.597  1.00  0.00    -0.264 NA
ATOM     33  C   UNL A   1      34.067  16.940  23.245  1.00  0.00     0.111 A 
ENDBRANCH  27  28
ENDBRANCH  24  27
ENDBRANCH   8  24
ENDBRANCH   5   8
ENDBRANCH   3   4
ENDBRANCH   2   3
ENDBRANCH   1   2
BRANCH   1  34
ATOM     34  C   UNL A   1      37.230  21.019  24.626  1.00  0.00     0.002 C 
BRANCH  34  35
ATOM     35  C   UNL A   1      38.116  19.816  24.953  1.00  0.00     0.021 C 
BRANCH  35  36
ATOM     36  C   UNL A   1      39.186  20.099  26.001  1.00  0.00     0.116 C 
BRANCH  36  37
ATOM     37  N   UNL A   1      40.226  19.083  26.000  1.00  0.00    -0.352 N 
ATOM     38  C   UNL A   1      41.588  19.234  26.058  1.00  0.00     0.251 C 
ATOM     39  H   UNL A   1      39.906  18.152  25.951  1.00  0.00     0.163 HD
ATOM     40  O   UNL A   1      42.328  18.286  25.827  1.00  0.00    -0.269 OA
BRANCH  38  41
ATOM     41  C   UNL A   1      42.161  20.557  26.383  1.00  0.00     0.039 A 
ATOM     42  C   UNL A   1      42.535  21.404  25.338  1.00  0.00     0.014 A 
ATOM     43  C   UNL A   1      42.327  20.958  27.711  1.00  0.00     0.014 A 
ATOM     44  C   UNL A   1      43.026  22.679  25.628  1.00  0.00     0.010 A 
ATOM     45  C   UNL A   1      42.739  22.255  27.995  1.00  0.00     0.010 A 
ATOM     46  C   UNL A   1      43.098  23.128  26.957  1.00  0.00    -0.014 A 
BRANCH  46  47
ATOM     47  C   UNL A   1      43.546  24.506  27.277  1.00  0.00     0.031 A 
ATOM     48  C   UNL A   1      42.566  25.516  27.807  1.00  0.00     0.074 A 
ATOM     49  C   UNL A   1      44.822  24.863  27.037  1.00  0.00     0.049 A 
ATOM     50  N   UNL A   1      42.752  26.782  28.091  1.00  0.00    -0.248 NA
ATOM     51  C   UNL A   1      41.187  25.053  28.022  1.00  0.00     0.031 C 
ATOM     52  C   UNL A   1      45.854  23.986  26.483  1.00  0.00     0.029 A 
ATOM     53  N   UNL A   1      45.468  26.061  27.220  1.00  0.00    -0.354 N 
ATOM     54  C   UNL A   1      41.517  27.262  28.506  1.00  0.00     0.074 A 
ATOM     55  C   UNL A   1      40.576  26.171  28.381  1.00  0.00     0.031 C 
ATOM     56  C   UNL A   1      47.009  24.666  26.394  1.00  0.00     0.029 A 
ATOM     57  C   UNL A   1      46.788  26.037  26.843  1.00  0.00     0.049 A 
ATOM     58  H   UNL A   1      45.026  26.861  27.587  1.00  0.00     0.167 HD
ATOM     59  C   UNL A   1      41.204  28.494  28.972  1.00  0.00     0.037 A 
ATOM     60  C   UNL A   1      47.714  27.016  26.849  1.00  0.00     0.037 A 
ATOM     61  C   UNL A   1      42.149  29.571  29.110  1.00  0.00     0.049 A 
ATOM     62  C   UNL A   1      47.333  28.383  27.351  1.00  0.00     0.074 A 
ATOM     63  C   UNL A   1      41.943  30.839  29.624  1.00  0.00     0.029 A 
ATOM     64  N   UNL A   1      43.481  29.508  28.724  1.00  0.00    -0.354 N 
ATOM     65  N   UNL A   1      46.180  28.804  27.809  1.00  0.00    -0.248 NA
ATOM     66  C   UNL A   1      48.385  29.407  27.343  1.00  0.00     0.031 C 
ATOM     67  C   UNL A   1      43.133  31.563  29.494  1.00  0.00     0.029 A 
ATOM     68  C   UNL A   1      44.100  30.725  28.961  1.00  0.00     0.049 A 
ATOM     69  H   UNL A   1      43.920  28.716  28.339  1.00  0.00     0.167 HD
ATOM     70  C   UNL A   1      46.375  30.130  28.174  1.00  0.00     0.074 A 
ATOM     71  C   UNL A   1      47.762  30.438  27.898  1.00  0.00     0.031 C 
ATOM     72  C   UNL A   1      45.485  31.014  28.690  1.00  0.00     0.037 A 
BRANCH  59  73
ATOM     73  C   UNL A   1      39.776  28.747  29.368  1.00  0.00     0.064 A 
ATOM     74  C   UNL A   1      39.320  28.510  30.674  1.00  0.00     0.173 A 
ATOM     75  C   UNL A   1      38.864  29.273  28.442  1.00  0.00     0.173 A 
ATOM     76  F   UNL A   1      40.147  27.998  31.597  1.00  0.00    -0.203 F 
ATOM     77  C   UNL A   1      37.996  28.761  31.029  1.00  0.00     0.198 A 
ATOM     78  C   UNL A   1      37.550  29.556  28.809  1.00  0.00     0.198 A 
ATOM     79  F   UNL A   1      39.247  29.525  27.182  1.00  0.00    -0.203 F 
ATOM     80  F   UNL A   1      37.571  28.477  32.268  1.00  0.00    -0.200 F 
ATOM     81  C   UNL A   1      37.115  29.292  30.099  1.00  0.00     0.200 A 
ATOM     82  F   UNL A   1      36.705  30.084  27.914  1.00  0.00    -0.200 F 
ATOM     83  F   UNL A   1      35.845  29.543  30.444  1.00  0.00    -0.200 F 
ENDBRANCH  59  73
BRANCH  60  84
ATOM     84  C   UNL A   1      49.097  26.736  26.377  1.00  0.00     0.064 A 
ATOM     85  C   UNL A   1      50.070  26.235  27.253  1.00  0.00     0.173 A 
ATOM     86  C   UNL A   1      49.479  26.974  25.049  1.00  0.00     0.173 A 
ATOM     87  F   UNL A   1      49.761  26.007  28.538  1.00  0.00    -0.203 F 
ATOM     88  C   UNL A   1      51.378  26.011  26.826  1.00  0.00     0.198 A 
ATOM     89  C   UNL A   1      50.777  26.718  24.615  1.00  0.00     0.198 A 
ATOM     90  F   UNL A   1      48.586  27.447  24.167  1.00  0.00    -0.203 F 
ATOM     91  F   UNL A   1      52.301  25.585  27.698  1.00  0.00    -0.200 F 
ATOM     92  C   UNL A   1      51.730  26.247  25.506  1.00  0.00     0.200 A 
ATOM     93  F   UNL A   1      51.107  26.932  23.333  1.00  0.00    -0.200 F 
ATOM     94  F   UNL A   1      52.985  26.029  25.095  1.00  0.00    -0.200 F 
ENDBRANCH  60  84
BRANCH  72  95
ATOM     95  C   UNL A   1      45.994  32.386  29.031  1.00  0.00     0.064 A 
ATOM     96  C   UNL A   1      46.557  32.678  30.282  1.00  0.00     0.173 A 
ATOM     97  C   UNL A   1      45.951  33.414  28.075  1.00  0.00     0.173 A 
ATOM     98  F   UNL A   1      46.609  31.736  31.236  1.00  0.00    -0.203 F 
ATOM     99  C   UNL A   1      47.030  33.955  30.573  1.00  0.00     0.198 A 
ATOM    100  C   UNL A   1      46.458  34.678  28.358  1.00  0.00     0.198 A 
ATOM    101  F   UNL A   1      45.429  33.186  26.860  1.00  0.00    -0.203 F 
ATOM    102  F   UNL A   1      47.514  34.226  31.794  1.00  0.00    -0.200 F 
ATOM    103  C   UNL A   1      46.988  34.951  29.609  1.00  0.00     0.200 A 
ATOM    104  F   UNL A   1      46.432  35.634  27.419  1.00  0.00    -0.200 F 
ATOM    105  F   UNL A   1      47.453  36.176  29.888  1.00  0.00    -0.200 F 
ENDBRANCH  72  95
ENDBRANCH  46  47
ENDBRANCH  38  41
ENDBRANCH  36  37
ENDBRANCH  35  36
ENDBRANCH  34  35
ENDBRANCH   1  34
TORSDOF 19
ENDMDL
MODEL 2
REMARK VINA RESULT:     -13.0      5.088     11.210
REMARK SMILES O=C(C[C@@H]([NH2+]Cc1cccnc1)C(=O)NCCCCCCNC(=O)c1ccc(-c2c3nc(c(-c4c(F)c(F)c(F)c(F)c4F)c4ccc([nH]4)c(-c4c(F)c(F)c(F)c(F)c4F)c4nc(c(-c5c(F)c(F)c(F)c(F)c5F)c5ccc2[nH]5)C=C4)C=C3)cc1)Nc1ccc2ccccc2c1
REMARK SMILES IDX 18 1 17 2 16 3 15 4 13 5 14 6 4 8 3 9 2 10 1 11 88 12 89 14
REMARK SMILES IDX 90 15 98 16 91 17 97 18 92 19 96 20 93 21 95 22 94 23 5 24
REMARK SMILES IDX 6 27 7 28 8 29 12 30 9 31 11 32 10 33 19 34 20 35 21 36
REMARK SMILES IDX 22 37 23 38 24 40 25 41 26 42 87 43 27 44 86 45 28 46 29 47
REMARK SMILES IDX 30 48 80 49 31 50 85 51 79 52 81 53 32 54 84 55 78 56 77 57
REMARK SMILES IDX 33 59 65 60 45 61 64 62 46 63 49 64 63 65 82 66 47 67 48 68
REMARK SMILES IDX 62 70 83 71 50 72 34 73 35 74 43 75 36 76 37 77 41 78 44 79
REMARK SMILES IDX 38 80 39 81 42 82 40 83 66 84 67 85 75 86 68 87 69 88 73 89
REMARK SMILES IDX 76 90 70 91 71 92 74 93 72 94 51 95 52 96 60 97 53 98 54 99
REMARK SMILES IDX 58 100 61 101 55 102 56 103 59 104 57 105
REMARK H PARENT 15 7 88 13 5 25 5 26 22 39 81 58 49 69
REMARK Flexibility Score: inf
ROOT
ATOM      1  C   UNL A   1      32.484  29.684  25.483  1.00  0.00     0.002 C 
ENDROOT
BRANCH   1   2
ATOM      2  C   UNL A   1      33.651  28.885  26.078  1.00  0.00     0.021 C 
BRANCH   2   3
ATOM      3  C   UNL A   1      33.831  27.509  25.438  1.00  0.00     0.116 C 
BRANCH   3   4
ATOM      4  N   UNL A   1      33.104  26.511  26.196  1.00  0.00    -0.351 N 
ATOM      5  C   UNL A   1      31.943  25.862  25.906  1.00  0.00     0.278 C 
ATOM      6  O   UNL A   1      31.495  25.086  26.754  1.00  0.00    -0.268 OA
ATOM      7  H   UNL A   1      33.514  26.264  27.056  1.00  0.00     0.163 HD
BRANCH   5   8
ATOM      8  C   UNL A   1      31.247  26.029  24.540  1.00  0.00     0.282 C 
BRANCH   8   9
ATOM      9  C   UNL A   1      30.762  24.658  24.017  1.00  0.00     0.175 C 
BRANCH   9  10
ATOM     10  C   UNL A   1      31.861  23.632  23.809  1.00  0.00     0.230 C 
ATOM     11  O   UNL A   1      32.601  23.670  22.832  1.00  0.00    -0.274 OA
ATOM     12  N   UNL A   1      31.904  22.683  24.815  1.00  0.00    -0.326 N 
ATOM     13  H   UNL A   1      31.372  22.842  25.628  1.00  0.00     0.169 HD
BRANCH  12  14
ATOM     14  C   UNL A   1      32.664  21.508  24.740  1.00  0.00     0.041 A 
ATOM     15  C   UNL A   1      33.984  21.558  25.185  1.00  0.00     0.027 A 
ATOM     16  C   UNL A   1      32.153  20.329  24.196  1.00  0.00     0.034 A 
ATOM     17  C   UNL A   1      34.762  20.403  25.198  1.00  0.00     0.011 A 
ATOM     18  C   UNL A   1      32.982  19.200  24.061  1.00  0.00    -0.016 A 
ATOM     19  C   UNL A   1      34.280  19.221  24.625  1.00  0.00    -0.018 A 
ATOM     20  C   UNL A   1      32.576  18.060  23.348  1.00  0.00     0.009 A 
ATOM     21  C   UNL A   1      35.084  18.074  24.565  1.00  0.00     0.009 A 
ATOM     22  C   UNL A   1      33.425  16.958  23.218  1.00  0.00     0.001 A 
ATOM     23  C   UNL A   1      34.664  16.952  23.852  1.00  0.00     0.001 A 
ENDBRANCH  12  14
ENDBRANCH   9  10
ENDBRANCH   8   9
BRANCH   8  24
ATOM     24  N   UNL A   1      30.176  27.078  24.607  1.00  0.00    -0.332 N 
ATOM     25  H   UNL A   1      30.569  27.914  25.039  1.00  0.00     0.347 HD
ATOM     26  H   UNL A   1      29.407  26.685  25.150  1.00  0.00     0.347 HD
BRANCH  24  27
ATOM     27  C   UNL A   1      29.626  27.450  23.283  1.00  0.00     0.299 C 
BRANCH  27  28
ATOM     28  C   UNL A   1      28.962  28.800  23.268  1.00  0.00     0.024 A 
ATOM     29  C   UNL A   1      29.682  29.983  23.471  1.00  0.00     0.013 A 
ATOM     30  C   UNL A   1      27.594  28.920  23.049  1.00  0.00     0.120 A 
ATOM     31  C   UNL A   1      29.019  31.205  23.500  1.00  0.00     0.021 A 
ATOM     32  N   UNL A   1      26.929  30.098  23.043  1.00  0.00    -0.264 NA
ATOM     33  C   UNL A   1      27.654  31.211  23.284  1.00  0.00     0.111 A 
ENDBRANCH  27  28
ENDBRANCH  24  27
ENDBRANCH   8  24
ENDBRANCH   5   8
ENDBRANCH   3   4
ENDBRANCH   2   3
ENDBRANCH   1   2
BRANCH   1  34
ATOM     34  C   UNL A   1      31.546  30.311  26.520  1.00  0.00     0.002 C 
BRANCH  34  35
ATOM     35  C   UNL A   1      31.513  31.840  26.508  1.00  0.00     0.021 C 
BRANCH  35  36
ATOM     36  C   UNL A   1      32.733  32.493  27.148  1.00  0.00     0.116 C 
BRANCH  36  37
ATOM     37  N   UNL A   1      32.484  33.883  27.492  1.00  0.00    -0.352 N 
ATOM     38  C   UNL A   1      33.037  34.643  28.492  1.00  0.00     0.251 C 
ATOM     39  H   UNL A   1      31.823  34.346  26.926  1.00  0.00     0.163 HD
ATOM     40  O   UNL A   1      32.557  35.732  28.781  1.00  0.00    -0.269 OA
BRANCH  38  41
ATOM     41  C   UNL A   1      34.208  34.131  29.232  1.00  0.00     0.039 A 
ATOM     42  C   UNL A   1      33.998  33.337  30.361  1.00  0.00     0.014 A 
ATOM     43  C   UNL A   1      35.507  34.433  28.815  1.00  0.00     0.014 A 
ATOM     44  C   UNL A   1      35.093  32.799  31.039  1.00  0.00     0.010 A 
ATOM     45  C   UNL A   1      36.593  33.832  29.443  1.00  0.00     0.010 A 
ATOM     46  C   UNL A   1      36.398  33.013  30.565  1.00  0.00    -0.014 A 
BRANCH  46  47
ATOM     47  C   UNL A   1      37.568  32.387  31.230  1.00  0.00     0.031 A 
ATOM     48  C   UNL A   1      38.322  31.279  30.549  1.00  0.00     0.074 A 
ATOM     49  C   UNL A   1      37.914  32.778  32.471  1.00  0.00     0.049 A 
ATOM     50  N   UNL A   1      39.331  30.570  30.990  1.00  0.00    -0.248 NA
ATOM     51  C   UNL A   1      37.866  30.896  29.203  1.00  0.00     0.031 C 
ATOM     52  C   UNL A   1      37.233  33.811  33.252  1.00  0.00     0.029 A 
ATOM     53  N   UNL A   1      38.922  32.348  33.298  1.00  0.00    -0.354 N 
ATOM     54  C   UNL A   1      39.621  29.658  29.985  1.00  0.00     0.074 A 
ATOM     55  C   UNL A   1      38.646  29.860  28.936  1.00  0.00     0.031 C 
ATOM     56  C   UNL A   1      37.856  33.953  34.433  1.00  0.00     0.029 A 
ATOM     57  C   UNL A   1      38.952  32.992  34.511  1.00  0.00     0.049 A 
ATOM     58  H   UNL A   1      39.564  31.645  33.045  1.00  0.00     0.167 HD
ATOM     59  C   UNL A   1      40.626  28.751  29.931  1.00  0.00     0.037 A 
ATOM     60  C   UNL A   1      39.765  32.818  35.571  1.00  0.00     0.037 A 
ATOM     61  C   UNL A   1      41.603  28.565  30.971  1.00  0.00     0.049 A 
ATOM     62  C   UNL A   1      40.859  31.787  35.493  1.00  0.00     0.074 A 
ATOM     63  C   UNL A   1      42.693  27.712  30.990  1.00  0.00     0.029 A 
ATOM     64  N   UNL A   1      41.606  29.241  32.184  1.00  0.00    -0.354 N 
ATOM     65  N   UNL A   1      41.169  30.980  34.508  1.00  0.00    -0.248 NA
ATOM     66  C   UNL A   1      41.721  31.648  36.675  1.00  0.00     0.031 C 
ATOM     67  C   UNL A   1      43.318  27.827  32.236  1.00  0.00     0.029 A 
ATOM     68  C   UNL A   1      42.660  28.801  32.969  1.00  0.00     0.049 A 
ATOM     69  H   UNL A   1      40.954  29.931  32.447  1.00  0.00     0.167 HD
ATOM     70  C   UNL A   1      42.278  30.262  34.936  1.00  0.00     0.074 A 
ATOM     71  C   UNL A   1      42.597  30.741  36.264  1.00  0.00     0.031 C 
ATOM     72  C   UNL A   1      42.971  29.294  34.287  1.00  0.00     0.037 A 
BRANCH  59  73
ATOM     73  C   UNL A   1      40.719  27.885  28.707  1.00  0.00     0.064 A 
ATOM     74  C   UNL A   1      40.074  26.640  28.633  1.00  0.00     0.173 A 
ATOM     75  C   UNL A   1      41.427  28.323  27.577  1.00  0.00     0.173 A 
ATOM     76  F   UNL A   1      39.393  26.169  29.687  1.00  0.00    -0.203 F 
ATOM     77  C   UNL A   1      40.161  25.854  27.486  1.00  0.00     0.198 A 
ATOM     78  C   UNL A   1      41.482  27.550  26.420  1.00  0.00     0.198 A 
ATOM     79  F   UNL A   1      42.057  29.507  27.590  1.00  0.00    -0.203 F 
ATOM     80  F   UNL A   1      39.580  24.646  27.458  1.00  0.00    -0.200 F 
ATOM     81  C   UNL A   1      40.856  26.313  26.378  1.00  0.00     0.200 A 
ATOM     82  F   UNL A   1      42.142  28.003  25.345  1.00  0.00    -0.200 F 
ATOM     83  F   UNL A   1      40.931  25.561  25.272  1.00  0.00    -0.200 F 
ENDBRANCH  59  73
BRANCH  60  84
ATOM     84  C   UNL A   1      39.587  33.650  36.791  1.00  0.00     0.064 A 
ATOM     85  C   UNL A   1      38.799  33.201  37.860  1.00  0.00     0.173 A 
ATOM     86  C   UNL A   1      40.185  34.913  36.908  1.00  0.00     0.173 A 
ATOM     87  F   UNL A   1      38.190  32.008  37.790  1.00  0.00    -0.203 F 
ATOM     88  C   UNL A   1      38.595  33.995  38.988  1.00  0.00     0.198 A 
ATOM     89  C   UNL A   1      40.007  35.691  38.050  1.00  0.00     0.198 A 
ATOM     90  F   UNL A   1      40.954  35.388  35.917  1.00  0.00    -0.203 F 
ATOM     91  F   UNL A   1      37.793  33.564  39.971  1.00  0.00    -0.200 F 
ATOM     92  C   UNL A   1      39.203  35.237  39.084  1.00  0.00     0.200 A 
ATOM     93  F   UNL A   1      40.612  36.884  38.146  1.00  0.00    -0.200 F 
ATOM     94  F   UNL A   1      39.008  35.998  40.169  1.00  0.00    -0.200 F 
ENDBRANCH  60  84
BRANCH  72  95
ATOM     95  C   UNL A   1      44.168  28.715  34.986  1.00  0.00     0.064 A 
ATOM     96  C   UNL A   1      44.068  27.595  35.823  1.00  0.00     0.173 A 
ATOM     97  C   UNL A   1      45.442  29.270  34.782  1.00  0.00     0.173 A 
ATOM     98  F   UNL A   1      42.872  27.035  36.063  1.00  0.00    -0.203 F 
ATOM     99  C   UNL A   1      45.193  27.070  36.453  1.00  0.00     0.198 A 
ATOM    100  C   UNL A   1      46.569  28.720  35.385  1.00  0.00     0.198 A 
ATOM    101  F   UNL A   1      45.595  30.338  33.985  1.00  0.00    -0.203 F 
ATOM    102  F   UNL A   1      45.065  26.031  37.293  1.00  0.00    -0.200 F 
ATOM    103  C   UNL A   1      46.443  27.627  36.228  1.00  0.00     0.200 A 
ATOM    104  F   UNL A   1      47.778  29.250  35.152  1.00  0.00    -0.200 F 
ATOM    105  F   UNL A   1      47.526  27.114  36.828  1.00  0.00    -0.200 F 
ENDBRANCH  72  95
ENDBRANCH  46  47
ENDBRANCH  38  41
ENDBRANCH  36  37
ENDBRANCH  35  36
ENDBRANCH  34  35
ENDBRANCH   1  34
TORSDOF 19
ENDMDL
MODEL 3
REMARK VINA RESULT:     -12.9      0.171      1.527
REMARK SMILES O=C(C[C@@H]([NH2+]Cc1cccnc1)C(=O)NCCCCCCNC(=O)c1ccc(-c2c3nc(c(-c4c(F)c(F)c(F)c(F)c4F)c4ccc([nH]4)c(-c4c(F)c(F)c(F)c(F)c4F)c4nc(c(-c5c(F)c(F)c(F)c(F)c5F)c5ccc2[nH]5)C=C4)C=C3)cc1)Nc1ccc2ccccc2c1
REMARK SMILES IDX 18 1 17 2 16 3 15 4 13 5 14 6 4 8 3 9 2 10 1 11 88 12 89 14
REMARK SMILES IDX 90 15 98 16 91 17 97 18 92 19 96 20 93 21 95 22 94 23 5 24
REMARK SMILES IDX 6 27 7 28 8 29 12 30 9 31 11 32 10 33 19 34 20 35 21 36
REMARK SMILES IDX 22 37 23 38 24 40 25 41 26 42 87 43 27 44 86 45 28 46 29 47
REMARK SMILES IDX 30 48 80 49 31 50 85 51 79 52 81 53 32 54 84 55 78 56 77 57
REMARK SMILES IDX 33 59 65 60 45 61 64 62 46 63 49 64 63 65 82 66 47 67 48 68
REMARK SMILES IDX 62 70 83 71 50 72 34 73 35 74 43 75 36 76 37 77 41 78 44 79
REMARK SMILES IDX 38 80 39 81 42 82 40 83 66 84 67 85 75 86 68 87 69 88 73 89
REMARK SMILES IDX 76 90 70 91 71 92 74 93 72 94 51 95 52 96 60 97 53 98 54 99
REMARK SMILES IDX 58 100 61 101 55 102 56 103 59 104 57 105
REMARK H PARENT 15 7 88 13 5 25 5 26 22 39 81 58 49 69
REMARK Flexibility Score: inf
ROOT
ATOM      1  C   UNL A   1      37.201  22.104  24.736  1.00  0.00     0.002 C 
ENDROOT
BRANCH   1   2
ATOM      2  C   UNL A   1      36.455  23.115  25.616  1.00  0.00     0.021 C 
BRANCH   2   3
ATOM      3  C   UNL A   1      34.935  23.040  25.470  1.00  0.00     0.116 C 
BRANCH   3   4
ATOM      4  N   UNL A   1      34.317  22.913  26.774  1.00  0.00    -0.351 N 
ATOM      5  C   UNL A   1      33.030  22.628  27.111  1.00  0.00     0.278 C 
ATOM      6  O   UNL A   1      32.739  22.632  28.310  1.00  0.00    -0.268 OA
ATOM      7  H   UNL A   1      34.924  23.057  27.535  1.00  0.00     0.163 HD
BRANCH   5   8
ATOM      8  C   UNL A   1      31.985  22.241  26.045  1.00  0.00     0.282 C 
BRANCH   8   9
ATOM      9  C   UNL A   1      32.065  23.210  24.843  1.00  0.00     0.175 C 
BRANCH   9  10
ATOM     10  C   UNL A   1      31.407  24.559  25.069  1.00  0.00     0.230 C 
ATOM     11  O   UNL A   1      30.579  24.732  25.957  1.00  0.00    -0.274 OA
ATOM     12  N   UNL A   1      31.835  25.520  24.169  1.00  0.00    -0.326 N 
ATOM     13  H   UNL A   1      32.617  25.315  23.606  1.00  0.00     0.169 HD
BRANCH  12  14
ATOM     14  C   UNL A   1      31.218  26.768  24.017  1.00  0.00     0.041 A 
ATOM     15  C   UNL A   1      31.889  27.889  24.503  1.00  0.00     0.027 A 
ATOM     16  C   UNL A   1      29.953  26.904  23.445  1.00  0.00     0.034 A 
ATOM     17  C   UNL A   1      31.353  29.160  24.315  1.00  0.00     0.011 A 
ATOM     18  C   UNL A   1      29.335  28.167  23.394  1.00  0.00    -0.016 A 
ATOM     19  C   UNL A   1      30.071  29.314  23.776  1.00  0.00    -0.018 A 
ATOM     20  C   UNL A   1      27.994  28.325  23.008  1.00  0.00     0.009 A 
ATOM     21  C   UNL A   1      29.493  30.586  23.654  1.00  0.00     0.009 A 
ATOM     22  C   UNL A   1      27.403  29.591  22.980  1.00  0.00     0.001 A 
ATOM     23  C   UNL A   1      28.160  30.722  23.271  1.00  0.00     0.001 A 
ENDBRANCH  12  14
ENDBRANCH   9  10
ENDBRANCH   8   9
BRANCH   8  24
ATOM     24  N   UNL A   1      32.103  20.791  25.678  1.00  0.00    -0.332 N 
ATOM     25  H   UNL A   1      31.270  20.305  26.008  1.00  0.00     0.347 HD
ATOM     26  H   UNL A   1      32.956  20.441  26.114  1.00  0.00     0.347 HD
BRANCH  24  27
ATOM     27  C   UNL A   1      32.234  20.557  24.221  1.00  0.00     0.299 C 
BRANCH  27  28
ATOM     28  C   UNL A   1      32.875  19.238  23.882  1.00  0.00     0.024 A 
ATOM     29  C   UNL A   1      33.920  18.703  24.645  1.00  0.00     0.013 A 
ATOM     30  C   UNL A   1      32.444  18.496  22.787  1.00  0.00     0.120 A 
ATOM     31  C   UNL A   1      34.516  17.506  24.265  1.00  0.00     0.021 A 
ATOM     32  N   UNL A   1      32.987  17.315  22.414  1.00  0.00    -0.264 NA
ATOM     33  C   UNL A   1      34.020  16.855  23.151  1.00  0.00     0.111 A 
ENDBRANCH  27  28
ENDBRANCH  24  27
ENDBRANCH   8  24
ENDBRANCH   5   8
ENDBRANCH   3   4
ENDBRANCH   2   3
ENDBRANCH   1   2
BRANCH   1  34
ATOM     34  C   UNL A   1      36.821  20.640  24.986  1.00  0.00     0.002 C 
BRANCH  34  35
ATOM     35  C   UNL A   1      38.001  19.667  24.988  1.00  0.00     0.021 C 
BRANCH  35  36
ATOM     36  C   UNL A   1      39.216  20.164  25.761  1.00  0.00     0.116 C 
BRANCH  36  37
ATOM     37  N   UNL A   1      40.223  19.126  25.913  1.00  0.00    -0.352 N 
ATOM     38  C   UNL A   1      41.576  19.250  26.106  1.00  0.00     0.251 C 
ATOM     39  H   UNL A   1      39.885  18.202  25.871  1.00  0.00     0.163 HD
ATOM     40  O   UNL A   1      42.309  18.275  25.995  1.00  0.00    -0.269 OA
BRANCH  38  41
ATOM     41  C   UNL A   1      42.147  20.573  26.432  1.00  0.00     0.039 A 
ATOM     42  C   UNL A   1      42.544  21.411  25.388  1.00  0.00     0.014 A 
ATOM     43  C   UNL A   1      42.291  20.983  27.760  1.00  0.00     0.014 A 
ATOM     44  C   UNL A   1      43.033  22.686  25.677  1.00  0.00     0.010 A 
ATOM     45  C   UNL A   1      42.702  22.281  28.042  1.00  0.00     0.010 A 
ATOM     46  C   UNL A   1      43.083  23.145  27.003  1.00  0.00    -0.014 A 
BRANCH  46  47
ATOM     47  C   UNL A   1      43.530  24.524  27.322  1.00  0.00     0.031 A 
ATOM     48  C   UNL A   1      42.549  25.534  27.850  1.00  0.00     0.074 A 
ATOM     49  C   UNL A   1      44.806  24.881  27.081  1.00  0.00     0.049 A 
ATOM     50  N   UNL A   1      42.735  26.800  28.131  1.00  0.00    -0.248 NA
ATOM     51  C   UNL A   1      41.170  25.070  28.065  1.00  0.00     0.031 C 
ATOM     52  C   UNL A   1      45.839  24.004  26.529  1.00  0.00     0.029 A 
ATOM     53  N   UNL A   1      45.451  26.079  27.262  1.00  0.00    -0.354 N 
ATOM     54  C   UNL A   1      41.499  27.280  28.545  1.00  0.00     0.074 A 
ATOM     55  C   UNL A   1      40.558  26.189  28.422  1.00  0.00     0.031 C 
ATOM     56  C   UNL A   1      46.993  24.684  26.440  1.00  0.00     0.029 A 
ATOM     57  C   UNL A   1      46.772  26.056  26.886  1.00  0.00     0.049 A 
ATOM     58  H   UNL A   1      45.009  26.880  27.628  1.00  0.00     0.167 HD
ATOM     59  C   UNL A   1      41.185  28.513  29.010  1.00  0.00     0.037 A 
ATOM     60  C   UNL A   1      47.697  27.035  26.890  1.00  0.00     0.037 A 
ATOM     61  C   UNL A   1      42.129  29.591  29.146  1.00  0.00     0.049 A 
ATOM     62  C   UNL A   1      47.314  28.403  27.390  1.00  0.00     0.074 A 
ATOM     63  C   UNL A   1      41.923  30.860  29.657  1.00  0.00     0.029 A 
ATOM     64  N   UNL A   1      43.462  29.528  28.761  1.00  0.00    -0.354 N 
ATOM     65  N   UNL A   1      46.161  28.824  27.847  1.00  0.00    -0.248 NA
ATOM     66  C   UNL A   1      48.367  29.428  27.381  1.00  0.00     0.031 C 
ATOM     67  C   UNL A   1      43.113  31.584  29.526  1.00  0.00     0.029 A 
ATOM     68  C   UNL A   1      44.080  30.746  28.996  1.00  0.00     0.049 A 
ATOM     69  H   UNL A   1      43.902  28.735  28.377  1.00  0.00     0.167 HD
ATOM     70  C   UNL A   1      46.356  30.151  28.210  1.00  0.00     0.074 A 
ATOM     71  C   UNL A   1      47.743  30.459  27.934  1.00  0.00     0.031 C 
ATOM     72  C   UNL A   1      45.466  31.035  28.725  1.00  0.00     0.037 A 
BRANCH  59  73
ATOM     73  C   UNL A   1      39.757  28.766  29.405  1.00  0.00     0.064 A 
ATOM     74  C   UNL A   1      39.310  28.569  30.721  1.00  0.00     0.173 A 
ATOM     75  C   UNL A   1      38.835  29.251  28.466  1.00  0.00     0.173 A 
ATOM     76  F   UNL A   1      40.148  28.098  31.656  1.00  0.00    -0.203 F 
ATOM     77  C   UNL A   1      37.986  28.820  31.074  1.00  0.00     0.198 A 
ATOM     78  C   UNL A   1      37.521  29.534  28.831  1.00  0.00     0.198 A 
ATOM     79  F   UNL A   1      39.209  29.463  27.196  1.00  0.00    -0.203 F 
ATOM     80  F   UNL A   1      37.570  28.575  32.325  1.00  0.00    -0.200 F 
ATOM     81  C   UNL A   1      37.095  29.310  30.132  1.00  0.00     0.200 A 
ATOM     82  F   UNL A   1      36.665  30.023  27.922  1.00  0.00    -0.200 F 
ATOM     83  F   UNL A   1      35.825  29.561  30.475  1.00  0.00    -0.200 F 
ENDBRANCH  59  73
BRANCH  60  84
ATOM     84  C   UNL A   1      49.080  26.755  26.420  1.00  0.00     0.064 A 
ATOM     85  C   UNL A   1      49.436  26.941  25.077  1.00  0.00     0.173 A 
ATOM     86  C   UNL A   1      50.069  26.282  27.295  1.00  0.00     0.173 A 
ATOM     87  F   UNL A   1      48.523  27.374  24.195  1.00  0.00    -0.203 F 
ATOM     88  C   UNL A   1      50.720  26.640  24.622  1.00  0.00     0.198 A 
ATOM     89  C   UNL A   1      51.360  26.013  26.847  1.00  0.00     0.198 A 
ATOM     90  F   UNL A   1      49.783  26.092  28.592  1.00  0.00    -0.203 F 
ATOM     91  F   UNL A   1      51.017  26.776  23.323  1.00  0.00    -0.200 F 
ATOM     92  C   UNL A   1      51.682  26.181  25.509  1.00  0.00     0.200 A 
ATOM     93  F   UNL A   1      52.291  25.587  27.712  1.00  0.00    -0.200 F 
ATOM     94  F   UNL A   1      52.915  25.894  25.073  1.00  0.00    -0.200 F 
ENDBRANCH  60  84
BRANCH  72  95
ATOM     95  C   UNL A   1      45.973  32.408  29.064  1.00  0.00     0.064 A 
ATOM     96  C   UNL A   1      45.900  33.471  28.153  1.00  0.00     0.173 A 
ATOM     97  C   UNL A   1      46.506  32.670  30.337  1.00  0.00     0.173 A 
ATOM     98  F   UNL A   1      45.414  33.270  26.918  1.00  0.00    -0.203 F 
ATOM     99  C   UNL A   1      46.369  34.737  28.492  1.00  0.00     0.198 A 
ATOM    100  C   UNL A   1      46.939  33.946  30.683  1.00  0.00     0.198 A 
ATOM    101  F   UNL A   1      46.591  31.690  31.249  1.00  0.00    -0.203 F 
ATOM    102  F   UNL A   1      46.340  35.726  27.585  1.00  0.00    -0.200 F 
ATOM    103  C   UNL A   1      46.880  34.976  29.759  1.00  0.00     0.200 A 
ATOM    104  F   UNL A   1      47.416  34.178  31.914  1.00  0.00    -0.200 F 
ATOM    105  F   UNL A   1      47.320  36.198  30.086  1.00  0.00    -0.200 F 
ENDBRANCH  72  95
ENDBRANCH  46  47
ENDBRANCH  38  41
ENDBRANCH  36  37
ENDBRANCH  35  36
ENDBRANCH  34  35
ENDBRANCH   1  34
TORSDOF 19
ENDMDL
