MODEL 1
REMARK VINA RESULT:     -12.9      0.000      0.000
REMARK SMILES Cc1c(C)c2c(c(C)c1O)CC[C@@](C)(C(=O)NCCCCCCNC(=O)c1ccc(-c3c4nc(c(-c5c(F)c(F)c(F)c(F)c5F)c5ccc([nH]5)c(-c5c(F)c(F)c(F)c(F)c5F)c5nc(c(-c6c(F)c(F)c(F)c(F)c6F)c6ccc3[nH]6)C=C5)C=C4)cc1)O2
REMARK SMILES IDX 21 1 20 2 19 3 18 4 17 5 15 6 16 7 13 9 1 10 2 11 3 12 9 13
REMARK SMILES IDX 4 14 5 15 7 16 6 17 90 18 8 19 11 20 12 21 14 22 10 23 22 25
REMARK SMILES IDX 23 26 24 27 25 28 26 30 27 31 28 32 89 33 29 34 88 35 30 36
REMARK SMILES IDX 31 37 32 38 82 39 33 40 87 41 81 42 83 43 34 44 86 45 80 46
REMARK SMILES IDX 79 47 35 49 67 50 47 51 66 52 48 53 51 54 65 55 84 56 49 57
REMARK SMILES IDX 50 58 64 60 85 61 52 62 36 63 37 64 45 65 38 66 39 67 43 68
REMARK SMILES IDX 46 69 40 70 41 71 44 72 42 73 68 74 69 75 77 76 70 77 71 78
REMARK SMILES IDX 75 79 78 80 72 81 73 82 76 83 74 84 53 85 54 86 62 87 55 88
REMARK SMILES IDX 56 89 60 90 63 91 57 92 58 93 61 94 59 95
REMARK H PARENT 17 8 10 24 24 29 83 48 51 59
REMARK Flexibility Score: inf
ROOT
ATOM      1  C   UNL A   1      36.850  20.712  24.625  1.00  0.00     0.002 C 
ENDROOT
BRANCH   1   2
ATOM      2  C   UNL A   1      36.513  21.700  25.747  1.00  0.00     0.002 C 
BRANCH   2   3
ATOM      3  C   UNL A   1      35.037  21.733  26.148  1.00  0.00     0.021 C 
BRANCH   3   4
ATOM      4  C   UNL A   1      34.609  23.044  26.800  1.00  0.00     0.116 C 
BRANCH   4   5
ATOM      5  N   UNL A   1      33.199  23.030  27.147  1.00  0.00    -0.353 N 
ATOM      6  C   UNL A   1      32.145  23.777  26.683  1.00  0.00     0.263 C 
ATOM      7  O   UNL A   1      31.047  23.561  27.202  1.00  0.00    -0.270 OA
ATOM      8  H   UNL A   1      32.956  22.369  27.835  1.00  0.00     0.163 HD
BRANCH   6   9
ATOM      9  C   UNL A   1      32.349  24.815  25.546  1.00  0.00     0.184 C 
ATOM     10  C   UNL A   1      28.827  28.760  22.405  1.00  0.00     0.049 C 
ATOM     11  C   UNL A   1      30.079  28.230  23.058  1.00  0.00    -0.002 A 
ATOM     12  C   UNL A   1      30.029  27.164  23.989  1.00  0.00    -0.002 A 
ATOM     13  C   UNL A   1      31.332  28.789  22.726  1.00  0.00     0.122 A 
ATOM     14  C   UNL A   1      28.715  26.532  24.375  1.00  0.00     0.049 C 
ATOM     15  C   UNL A   1      31.231  26.678  24.538  1.00  0.00     0.127 A 
ATOM     16  C   UNL A   1      32.528  28.324  23.288  1.00  0.00    -0.002 A 
ATOM     17  C   UNL A   1      32.470  27.275  24.225  1.00  0.00     0.001 A 
ATOM     18  O   UNL A   1      31.135  25.584  25.376  1.00  0.00    -0.477 OA
ATOM     19  C   UNL A   1      33.859  28.919  22.899  1.00  0.00     0.049 C 
ATOM     20  C   UNL A   1      33.737  26.764  24.853  1.00  0.00     0.044 C 
ATOM     21  C   UNL A   1      33.426  25.812  25.983  1.00  0.00     0.063 C 
ATOM     22  C   UNL A   1      32.554  24.021  24.236  1.00  0.00     0.067 C 
BRANCH  13  23
ATOM     23  O   UNL A   1      31.438  29.818  21.824  1.00  0.00    -0.507 OA
ATOM     24  H   UNL A   1      31.583  29.633  20.917  1.00  0.00     0.293 HD
ENDBRANCH  13  23
ENDBRANCH   6   9
ENDBRANCH   4   5
ENDBRANCH   3   4
ENDBRANCH   2   3
ENDBRANCH   1   2
BRANCH   1  25
ATOM     25  C   UNL A   1      37.891  19.650  24.990  1.00  0.00     0.021 C 
BRANCH  25  26
ATOM     26  C   UNL A   1      39.101  20.193  25.741  1.00  0.00     0.116 C 
BRANCH  26  27
ATOM     27  N   UNL A   1      40.126  19.177  25.922  1.00  0.00    -0.352 N 
ATOM     28  C   UNL A   1      41.474  19.329  26.112  1.00  0.00     0.251 C 
ATOM     29  H   UNL A   1      39.804  18.247  25.908  1.00  0.00     0.163 HD
ATOM     30  O   UNL A   1      42.227  18.361  26.034  1.00  0.00    -0.269 OA
BRANCH  28  31
ATOM     31  C   UNL A   1      42.024  20.669  26.394  1.00  0.00     0.039 A 
ATOM     32  C   UNL A   1      42.287  21.530  25.327  1.00  0.00     0.014 A 
ATOM     33  C   UNL A   1      42.281  21.071  27.708  1.00  0.00     0.014 A 
ATOM     34  C   UNL A   1      42.759  22.818  25.583  1.00  0.00     0.010 A 
ATOM     35  C   UNL A   1      42.678  22.379  27.966  1.00  0.00     0.010 A 
ATOM     36  C   UNL A   1      42.930  23.262  26.905  1.00  0.00    -0.014 A 
BRANCH  36  37
ATOM     37  C   UNL A   1      43.397  24.639  27.192  1.00  0.00     0.031 A 
ATOM     38  C   UNL A   1      42.445  25.652  27.761  1.00  0.00     0.074 A 
ATOM     39  C   UNL A   1      44.667  24.985  26.906  1.00  0.00     0.049 A 
ATOM     40  N   UNL A   1      42.654  26.912  28.048  1.00  0.00    -0.248 NA
ATOM     41  C   UNL A   1      41.071  25.197  28.022  1.00  0.00     0.031 C 
ATOM     42  C   UNL A   1      45.672  24.098  26.321  1.00  0.00     0.029 A 
ATOM     43  N   UNL A   1      45.331  26.176  27.070  1.00  0.00    -0.354 N 
ATOM     44  C   UNL A   1      41.442  27.395  28.521  1.00  0.00     0.074 A 
ATOM     45  C   UNL A   1      40.485  26.317  28.422  1.00  0.00     0.031 C 
ATOM     46  C   UNL A   1      46.832  24.763  26.205  1.00  0.00     0.029 A 
ATOM     47  C   UNL A   1      46.643  26.134  26.669  1.00  0.00     0.049 A 
ATOM     48  H   UNL A   1      44.905  26.983  27.439  1.00  0.00     0.167 HD
ATOM     49  C   UNL A   1      41.162  28.622  29.022  1.00  0.00     0.037 A 
ATOM     50  C   UNL A   1      47.588  27.096  26.673  1.00  0.00     0.037 A 
ATOM     51  C   UNL A   1      42.124  29.685  29.137  1.00  0.00     0.049 A 
ATOM     52  C   UNL A   1      47.241  28.461  27.203  1.00  0.00     0.074 A 
ATOM     53  C   UNL A   1      41.950  30.948  29.674  1.00  0.00     0.029 A 
ATOM     54  N   UNL A   1      43.440  29.610  28.706  1.00  0.00    -0.354 N 
ATOM     55  N   UNL A   1      46.108  28.890  27.704  1.00  0.00    -0.248 NA
ATOM     56  C   UNL A   1      48.304  29.475  27.172  1.00  0.00     0.031 C 
ATOM     57  C   UNL A   1      43.143  31.657  29.516  1.00  0.00     0.029 A 
ATOM     58  C   UNL A   1      44.081  30.817  28.936  1.00  0.00     0.049 A 
ATOM     59  H   UNL A   1      43.858  28.818  28.296  1.00  0.00     0.167 HD
ATOM     60  C   UNL A   1      46.325  30.212  28.067  1.00  0.00     0.074 A 
ATOM     61  C   UNL A   1      47.706  30.511  27.747  1.00  0.00     0.031 C 
ATOM     62  C   UNL A   1      45.457  31.098  28.613  1.00  0.00     0.037 A 
BRANCH  49  63
ATOM     63  C   UNL A   1      39.762  28.880  29.500  1.00  0.00     0.064 A 
ATOM     64  C   UNL A   1      38.772  29.375  28.638  1.00  0.00     0.173 A 
ATOM     65  C   UNL A   1      39.389  28.569  30.816  1.00  0.00     0.173 A 
ATOM     66  F   UNL A   1      39.079  29.700  27.373  1.00  0.00    -0.203 F 
ATOM     67  C   UNL A   1      37.466  29.565  29.080  1.00  0.00     0.198 A 
ATOM     68  C   UNL A   1      38.075  28.730  31.247  1.00  0.00     0.198 A 
ATOM     69  F   UNL A   1      40.296  28.089  31.682  1.00  0.00    -0.203 F 
ATOM     70  F   UNL A   1      36.547  30.076  28.249  1.00  0.00    -0.200 F 
ATOM     71  C   UNL A   1      37.115  29.232  30.379  1.00  0.00     0.200 A 
ATOM     72  F   UNL A   1      37.735  28.393  32.498  1.00  0.00    -0.200 F 
ATOM     73  F   UNL A   1      35.854  29.398  30.798  1.00  0.00    -0.200 F 
ENDBRANCH  49  63
BRANCH  50  74
ATOM     74  C   UNL A   1      48.959  26.783  26.190  1.00  0.00     0.064 A 
ATOM     75  C   UNL A   1      49.906  26.198  27.040  1.00  0.00     0.173 A 
ATOM     76  C   UNL A   1      49.342  27.036  24.864  1.00  0.00     0.173 A 
ATOM     77  F   UNL A   1      49.594  25.956  28.322  1.00  0.00    -0.203 F 
ATOM     78  C   UNL A   1      51.186  25.885  26.587  1.00  0.00     0.198 A 
ATOM     79  C   UNL A   1      50.612  26.695  24.404  1.00  0.00     0.198 A 
ATOM     80  F   UNL A   1      48.472  27.591  24.006  1.00  0.00    -0.203 F 
ATOM     81  F   UNL A   1      52.082  25.357  27.431  1.00  0.00    -0.200 F 
ATOM     82  C   UNL A   1      51.535  26.125  25.266  1.00  0.00     0.200 A 
ATOM     83  F   UNL A   1      50.939  26.913  23.122  1.00  0.00    -0.200 F 
ATOM     84  F   UNL A   1      52.760  25.809  24.827  1.00  0.00    -0.200 F 
ENDBRANCH  50  74
BRANCH  62  85
ATOM     85  C   UNL A   1      45.966  32.479  28.915  1.00  0.00     0.064 A 
ATOM     86  C   UNL A   1      45.835  33.526  27.992  1.00  0.00     0.173 A 
ATOM     87  C   UNL A   1      46.514  32.776  30.174  1.00  0.00     0.173 A 
ATOM     88  F   UNL A   1      45.329  33.291  26.772  1.00  0.00    -0.203 F 
ATOM     89  C   UNL A   1      46.243  34.818  28.314  1.00  0.00     0.198 A 
ATOM     90  C   UNL A   1      46.890  34.075  30.502  1.00  0.00     0.198 A 
ATOM     91  F   UNL A   1      46.653  31.812  31.096  1.00  0.00    -0.203 F 
ATOM     92  F   UNL A   1      46.139  35.796  27.403  1.00  0.00    -0.200 F 
ATOM     93  C   UNL A   1      46.759  35.094  29.571  1.00  0.00     0.200 A 
ATOM     94  F   UNL A   1      47.370  34.343  31.725  1.00  0.00    -0.200 F 
ATOM     95  F   UNL A   1      47.130  36.343  29.886  1.00  0.00    -0.200 F 
ENDBRANCH  62  85
ENDBRANCH  36  37
ENDBRANCH  28  31
ENDBRANCH  26  27
ENDBRANCH  25  26
ENDBRANCH   1  25
TORSDOF 14
ENDMDL
MODEL 2
REMARK VINA RESULT:     -12.9      0.159      1.591
REMARK SMILES Cc1c(C)c2c(c(C)c1O)CC[C@@](C)(C(=O)NCCCCCCNC(=O)c1ccc(-c3c4nc(c(-c5c(F)c(F)c(F)c(F)c5F)c5ccc([nH]5)c(-c5c(F)c(F)c(F)c(F)c5F)c5nc(c(-c6c(F)c(F)c(F)c(F)c6F)c6ccc3[nH]6)C=C5)C=C4)cc1)O2
REMARK SMILES IDX 21 1 20 2 19 3 18 4 17 5 15 6 16 7 13 9 1 10 2 11 3 12 9 13
REMARK SMILES IDX 4 14 5 15 7 16 6 17 90 18 8 19 11 20 12 21 14 22 10 23 22 25
REMARK SMILES IDX 23 26 24 27 25 28 26 30 27 31 28 32 89 33 29 34 88 35 30 36
REMARK SMILES IDX 31 37 32 38 82 39 33 40 87 41 81 42 83 43 34 44 86 45 80 46
REMARK SMILES IDX 79 47 35 49 67 50 47 51 66 52 48 53 51 54 65 55 84 56 49 57
REMARK SMILES IDX 50 58 64 60 85 61 52 62 36 63 37 64 45 65 38 66 39 67 43 68
REMARK SMILES IDX 46 69 40 70 41 71 44 72 42 73 68 74 69 75 77 76 70 77 71 78
REMARK SMILES IDX 75 79 78 80 72 81 73 82 76 83 74 84 53 85 54 86 62 87 55 88
REMARK SMILES IDX 56 89 60 90 63 91 57 92 58 93 61 94 59 95
REMARK H PARENT 17 8 10 24 24 29 83 48 51 59
REMARK Flexibility Score: inf
ROOT
ATOM      1  C   UNL A   1      36.900  20.683  24.631  1.00  0.00     0.002 C 
ENDROOT
BRANCH   1   2
ATOM      2  C   UNL A   1      36.574  21.676  25.752  1.00  0.00     0.002 C 
BRANCH   2   3
ATOM      3  C   UNL A   1      35.098  21.726  26.152  1.00  0.00     0.021 C 
BRANCH   3   4
ATOM      4  C   UNL A   1      34.667  23.068  26.735  1.00  0.00     0.116 C 
BRANCH   4   5
ATOM      5  N   UNL A   1      33.264  23.058  27.113  1.00  0.00    -0.353 N 
ATOM      6  C   UNL A   1      32.204  23.811  26.676  1.00  0.00     0.263 C 
ATOM      7  O   UNL A   1      31.117  23.598  27.216  1.00  0.00    -0.270 OA
ATOM      8  H   UNL A   1      33.033  22.394  27.802  1.00  0.00     0.163 HD
BRANCH   6   9
ATOM      9  C   UNL A   1      32.388  24.855  25.540  1.00  0.00     0.184 C 
ATOM     10  C   UNL A   1      28.793  28.742  22.410  1.00  0.00     0.049 C 
ATOM     11  C   UNL A   1      30.055  28.233  23.060  1.00  0.00    -0.002 A 
ATOM     12  C   UNL A   1      30.026  27.165  23.990  1.00  0.00    -0.002 A 
ATOM     13  C   UNL A   1      31.298  28.815  22.727  1.00  0.00     0.122 A 
ATOM     14  C   UNL A   1      28.723  26.510  24.377  1.00  0.00     0.049 C 
ATOM     15  C   UNL A   1      31.237  26.700  24.536  1.00  0.00     0.127 A 
ATOM     16  C   UNL A   1      32.502  28.371  23.287  1.00  0.00    -0.002 A 
ATOM     17  C   UNL A   1      32.464  27.319  24.223  1.00  0.00     0.001 A 
ATOM     18  O   UNL A   1      31.161  25.603  25.373  1.00  0.00    -0.477 OA
ATOM     19  C   UNL A   1      33.822  28.989  22.898  1.00  0.00     0.049 C 
ATOM     20  C   UNL A   1      33.741  26.830  24.848  1.00  0.00     0.044 C 
ATOM     21  C   UNL A   1      33.448  25.871  25.977  1.00  0.00     0.063 C 
ATOM     22  C   UNL A   1      32.606  24.067  24.229  1.00  0.00     0.067 C 
BRANCH  13  23
ATOM     23  O   UNL A   1      31.385  29.847  21.828  1.00  0.00    -0.507 OA
ATOM     24  H   UNL A   1      31.531  29.666  20.919  1.00  0.00     0.293 HD
ENDBRANCH  13  23
ENDBRANCH   6   9
ENDBRANCH   4   5
ENDBRANCH   3   4
ENDBRANCH   2   3
ENDBRANCH   1   2
BRANCH   1  25
ATOM     25  C   UNL A   1      37.937  19.617  24.994  1.00  0.00     0.021 C 
BRANCH  25  26
ATOM     26  C   UNL A   1      39.151  20.155  25.744  1.00  0.00     0.116 C 
BRANCH  26  27
ATOM     27  N   UNL A   1      40.177  19.138  25.913  1.00  0.00    -0.352 N 
ATOM     28  C   UNL A   1      41.526  19.289  26.095  1.00  0.00     0.251 C 
ATOM     29  H   UNL A   1      39.854  18.208  25.896  1.00  0.00     0.163 HD
ATOM     30  O   UNL A   1      42.278  18.322  26.008  1.00  0.00    -0.269 OA
BRANCH  28  31
ATOM     31  C   UNL A   1      42.077  20.627  26.381  1.00  0.00     0.039 A 
ATOM     32  C   UNL A   1      42.398  21.469  25.313  1.00  0.00     0.014 A 
ATOM     33  C   UNL A   1      42.280  21.048  27.699  1.00  0.00     0.014 A 
ATOM     34  C   UNL A   1      42.873  22.755  25.570  1.00  0.00     0.010 A 
ATOM     35  C   UNL A   1      42.679  22.355  27.954  1.00  0.00     0.010 A 
ATOM     36  C   UNL A   1      42.989  23.218  26.892  1.00  0.00    -0.014 A 
BRANCH  36  37
ATOM     37  C   UNL A   1      43.458  24.595  27.178  1.00  0.00     0.031 A 
ATOM     38  C   UNL A   1      42.503  25.616  27.726  1.00  0.00     0.074 A 
ATOM     39  C   UNL A   1      44.734  24.934  26.910  1.00  0.00     0.049 A 
ATOM     40  N   UNL A   1      42.712  26.877  28.009  1.00  0.00    -0.248 NA
ATOM     41  C   UNL A   1      41.122  25.170  27.968  1.00  0.00     0.031 C 
ATOM     42  C   UNL A   1      45.744  24.038  26.346  1.00  0.00     0.029 A 
ATOM     43  N   UNL A   1      45.401  26.122  27.078  1.00  0.00    -0.354 N 
ATOM     44  C   UNL A   1      41.496  27.369  28.459  1.00  0.00     0.074 A 
ATOM     45  C   UNL A   1      40.535  26.294  28.351  1.00  0.00     0.031 C 
ATOM     46  C   UNL A   1      46.909  24.696  26.246  1.00  0.00     0.029 A 
ATOM     47  C   UNL A   1      46.720  26.071  26.698  1.00  0.00     0.049 A 
ATOM     48  H   UNL A   1      44.974  26.933  27.435  1.00  0.00     0.167 HD
ATOM     49  C   UNL A   1      41.214  28.599  28.949  1.00  0.00     0.037 A 
ATOM     50  C   UNL A   1      47.669  27.028  26.712  1.00  0.00     0.037 A 
ATOM     51  C   UNL A   1      42.179  29.658  29.072  1.00  0.00     0.049 A 
ATOM     52  C   UNL A   1      47.320  28.398  27.228  1.00  0.00     0.074 A 
ATOM     53  C   UNL A   1      42.003  30.926  29.599  1.00  0.00     0.029 A 
ATOM     54  N   UNL A   1      43.502  29.575  28.663  1.00  0.00    -0.354 N 
ATOM     55  N   UNL A   1      46.182  28.836  27.708  1.00  0.00    -0.248 NA
ATOM     56  C   UNL A   1      48.389  29.407  27.207  1.00  0.00     0.031 C 
ATOM     57  C   UNL A   1      43.202  31.628  29.456  1.00  0.00     0.029 A 
ATOM     58  C   UNL A   1      44.144  30.780  28.896  1.00  0.00     0.049 A 
ATOM     59  H   UNL A   1      43.922  28.779  28.265  1.00  0.00     0.167 HD
ATOM     60  C   UNL A   1      46.399  30.159  28.067  1.00  0.00     0.074 A 
ATOM     61  C   UNL A   1      47.786  30.449  27.767  1.00  0.00     0.031 C 
ATOM     62  C   UNL A   1      45.527  31.053  28.593  1.00  0.00     0.037 A 
BRANCH  49  63
ATOM     63  C   UNL A   1      39.808  28.867  29.403  1.00  0.00     0.064 A 
ATOM     64  C   UNL A   1      38.834  29.361  28.522  1.00  0.00     0.173 A 
ATOM     65  C   UNL A   1      39.412  28.566  30.715  1.00  0.00     0.173 A 
ATOM     66  F   UNL A   1      39.163  29.677  27.260  1.00  0.00    -0.203 F 
ATOM     67  C   UNL A   1      37.522  29.560  28.942  1.00  0.00     0.198 A 
ATOM     68  C   UNL A   1      38.093  28.735  31.123  1.00  0.00     0.198 A 
ATOM     69  F   UNL A   1      40.303  28.087  31.597  1.00  0.00    -0.203 F 
ATOM     70  F   UNL A   1      36.618  30.070  28.093  1.00  0.00    -0.200 F 
ATOM     71  C   UNL A   1      37.149  29.237  30.238  1.00  0.00     0.200 A 
ATOM     72  F   UNL A   1      37.731  28.409  32.371  1.00  0.00    -0.200 F 
ATOM     73  F   UNL A   1      35.882  29.412  30.636  1.00  0.00    -0.200 F 
ENDBRANCH  49  63
BRANCH  50  74
ATOM     74  C   UNL A   1      49.045  26.706  26.252  1.00  0.00     0.064 A 
ATOM     75  C   UNL A   1      49.434  26.939  24.926  1.00  0.00     0.173 A 
ATOM     76  C   UNL A   1      50.008  26.188  27.131  1.00  0.00     0.173 A 
ATOM     77  F   UNL A   1      48.544  27.414  24.042  1.00  0.00    -0.203 F 
ATOM     78  C   UNL A   1      50.729  26.658  24.495  1.00  0.00     0.198 A 
ATOM     79  C   UNL A   1      51.310  25.935  26.706  1.00  0.00     0.198 A 
ATOM     80  F   UNL A   1      49.690  25.951  28.413  1.00  0.00    -0.203 F 
ATOM     81  F   UNL A   1      51.063  26.859  23.212  1.00  0.00    -0.200 F 
ATOM     82  C   UNL A   1      51.669  26.165  25.387  1.00  0.00     0.200 A 
ATOM     83  F   UNL A   1      52.220  25.476  27.577  1.00  0.00    -0.200 F 
ATOM     84  F   UNL A   1      52.918  25.911  24.975  1.00  0.00    -0.200 F 
ENDBRANCH  50  74
BRANCH  62  85
ATOM     85  C   UNL A   1      46.038  32.432  28.896  1.00  0.00     0.064 A 
ATOM     86  C   UNL A   1      46.664  32.731  30.114  1.00  0.00     0.173 A 
ATOM     87  C   UNL A   1      45.979  33.443  27.923  1.00  0.00     0.173 A 
ATOM     88  F   UNL A   1      46.736  31.803  31.081  1.00  0.00    -0.203 F 
ATOM     89  C   UNL A   1      47.202  33.993  30.353  1.00  0.00     0.198 A 
ATOM     90  C   UNL A   1      46.545  34.693  28.152  1.00  0.00     0.198 A 
ATOM     91  F   UNL A   1      45.399  33.206  26.736  1.00  0.00    -0.203 F 
ATOM     92  F   UNL A   1      47.765  34.265  31.538  1.00  0.00    -0.200 F 
ATOM     93  C   UNL A   1      47.152  34.969  29.368  1.00  0.00     0.200 A 
ATOM     94  F   UNL A   1      46.514  35.628  27.192  1.00  0.00    -0.200 F 
ATOM     95  F   UNL A   1      47.690  36.176  29.592  1.00  0.00    -0.200 F 
ENDBRANCH  62  85
ENDBRANCH  36  37
ENDBRANCH  28  31
ENDBRANCH  26  27
ENDBRANCH  25  26
ENDBRANCH   1  25
TORSDOF 14
ENDMDL
MODEL 3
REMARK VINA RESULT:     -12.8      5.199      9.566
REMARK SMILES Cc1c(C)c2c(c(C)c1O)CC[C@@](C)(C(=O)NCCCCCCNC(=O)c1ccc(-c3c4nc(c(-c5c(F)c(F)c(F)c(F)c5F)c5ccc([nH]5)c(-c5c(F)c(F)c(F)c(F)c5F)c5nc(c(-c6c(F)c(F)c(F)c(F)c6F)c6ccc3[nH]6)C=C5)C=C4)cc1)O2
REMARK SMILES IDX 21 1 20 2 19 3 18 4 17 5 15 6 16 7 13 9 1 10 2 11 3 12 9 13
REMARK SMILES IDX 4 14 5 15 7 16 6 17 90 18 8 19 11 20 12 21 14 22 10 23 22 25
REMARK SMILES IDX 23 26 24 27 25 28 26 30 27 31 28 32 89 33 29 34 88 35 30 36
REMARK SMILES IDX 31 37 32 38 82 39 33 40 87 41 81 42 83 43 34 44 86 45 80 46
REMARK SMILES IDX 79 47 35 49 67 50 47 51 66 52 48 53 51 54 65 55 84 56 49 57
REMARK SMILES IDX 50 58 64 60 85 61 52 62 36 63 37 64 45 65 38 66 39 67 43 68
REMARK SMILES IDX 46 69 40 70 41 71 44 72 42 73 68 74 69 75 77 76 70 77 71 78
REMARK SMILES IDX 75 79 78 80 72 81 73 82 76 83 74 84 53 85 54 86 62 87 55 88
REMARK SMILES IDX 56 89 60 90 63 91 57 92 58 93 61 94 59 95
REMARK H PARENT 17 8 10 24 24 29 83 48 51 59
REMARK Flexibility Score: inf
ROOT
ATOM      1  C   UNL A   1      31.427  30.504  25.803  1.00  0.00     0.002 C 
ENDROOT
BRANCH   1   2
ATOM      2  C   UNL A   1      32.832  29.894  25.847  1.00  0.00     0.002 C 
BRANCH   2   3
ATOM      3  C   UNL A   1      33.287  29.244  24.539  1.00  0.00     0.021 C 
BRANCH   3   4
ATOM      4  C   UNL A   1      32.175  28.500  23.806  1.00  0.00     0.116 C 
BRANCH   4   5
ATOM      5  N   UNL A   1      32.679  27.819  22.625  1.00  0.00    -0.353 N 
ATOM      6  C   UNL A   1      33.075  26.520  22.430  1.00  0.00     0.263 C 
ATOM      7  O   UNL A   1      33.498  26.237  21.307  1.00  0.00    -0.270 OA
ATOM      8  H   UNL A   1      32.748  28.389  21.826  1.00  0.00     0.163 HD
BRANCH   6   9
ATOM      9  C   UNL A   1      32.961  25.476  23.574  1.00  0.00     0.184 C 
ATOM     10  C   UNL A   1      32.442  19.363  24.017  1.00  0.00     0.049 C 
ATOM     11  C   UNL A   1      32.852  20.756  24.423  1.00  0.00    -0.002 A 
ATOM     12  C   UNL A   1      32.831  21.829  23.498  1.00  0.00    -0.002 A 
ATOM     13  C   UNL A   1      33.247  21.010  25.754  1.00  0.00     0.122 A 
ATOM     14  C   UNL A   1      32.415  21.609  22.065  1.00  0.00     0.049 C 
ATOM     15  C   UNL A   1      33.183  23.119  23.939  1.00  0.00     0.127 A 
ATOM     16  C   UNL A   1      33.621  22.287  26.190  1.00  0.00    -0.002 A 
ATOM     17  C   UNL A   1      33.614  23.346  25.262  1.00  0.00     0.001 A 
ATOM     18  O   UNL A   1      33.066  24.143  23.019  1.00  0.00    -0.477 OA
ATOM     19  C   UNL A   1      34.015  22.541  27.625  1.00  0.00     0.049 C 
ATOM     20  C   UNL A   1      34.022  24.726  25.700  1.00  0.00     0.044 C 
ATOM     21  C   UNL A   1      34.162  25.643  24.508  1.00  0.00     0.063 C 
ATOM     22  C   UNL A   1      31.536  25.597  24.161  1.00  0.00     0.067 C 
BRANCH  13  23
ATOM     23  O   UNL A   1      33.278  20.009  26.693  1.00  0.00    -0.507 OA
ATOM     24  H   UNL A   1      33.734  20.139  27.502  1.00  0.00     0.293 HD
ENDBRANCH  13  23
ENDBRANCH   6   9
ENDBRANCH   4   5
ENDBRANCH   3   4
ENDBRANCH   2   3
ENDBRANCH   1   2
BRANCH   1  25
ATOM     25  C   UNL A   1      31.288  31.857  26.505  1.00  0.00     0.021 C 
BRANCH  25  26
ATOM     26  C   UNL A   1      32.602  32.432  27.021  1.00  0.00     0.116 C 
BRANCH  26  27
ATOM     27  N   UNL A   1      32.465  33.825  27.417  1.00  0.00    -0.352 N 
ATOM     28  C   UNL A   1      33.107  34.511  28.413  1.00  0.00     0.251 C 
ATOM     29  H   UNL A   1      31.818  34.351  26.892  1.00  0.00     0.163 HD
ATOM     30  O   UNL A   1      32.718  35.626  28.752  1.00  0.00    -0.269 OA
BRANCH  28  31
ATOM     31  C   UNL A   1      34.262  33.895  29.094  1.00  0.00     0.039 A 
ATOM     32  C   UNL A   1      34.032  32.946  30.092  1.00  0.00     0.014 A 
ATOM     33  C   UNL A   1      35.568  34.257  28.749  1.00  0.00     0.014 A 
ATOM     34  C   UNL A   1      35.116  32.319  30.708  1.00  0.00     0.010 A 
ATOM     35  C   UNL A   1      36.645  33.577  29.308  1.00  0.00     0.010 A 
ATOM     36  C   UNL A   1      36.429  32.609  30.300  1.00  0.00    -0.014 A 
BRANCH  36  37
ATOM     37  C   UNL A   1      37.588  31.924  30.921  1.00  0.00     0.031 A 
ATOM     38  C   UNL A   1      38.027  32.298  32.308  1.00  0.00     0.074 A 
ATOM     39  C   UNL A   1      38.266  30.994  30.222  1.00  0.00     0.049 A 
ATOM     40  N   UNL A   1      39.034  31.840  33.009  1.00  0.00    -0.248 NA
ATOM     41  C   UNL A   1      37.246  33.340  32.993  1.00  0.00     0.031 C 
ATOM     42  C   UNL A   1      37.954  30.572  28.856  1.00  0.00     0.029 A 
ATOM     43  N   UNL A   1      39.356  30.233  30.563  1.00  0.00    -0.354 N 
ATOM     44  C   UNL A   1      39.004  32.536  34.208  1.00  0.00     0.074 A 
ATOM     45  C   UNL A   1      37.925  33.493  34.120  1.00  0.00     0.031 C 
ATOM     46  C   UNL A   1      38.810  29.607  28.488  1.00  0.00     0.029 A 
ATOM     47  C   UNL A   1      39.757  29.370  29.573  1.00  0.00     0.049 A 
ATOM     48  H   UNL A   1      39.809  30.301  31.435  1.00  0.00     0.167 HD
ATOM     49  C   UNL A   1      39.790  32.368  35.299  1.00  0.00     0.037 A 
ATOM     50  C   UNL A   1      40.775  28.487  29.546  1.00  0.00     0.037 A 
ATOM     51  C   UNL A   1      40.850  31.400  35.387  1.00  0.00     0.049 A 
ATOM     52  C   UNL A   1      41.655  28.345  30.758  1.00  0.00     0.074 A 
ATOM     53  C   UNL A   1      41.672  31.122  36.465  1.00  0.00     0.029 A 
ATOM     54  N   UNL A   1      41.236  30.554  34.359  1.00  0.00    -0.354 N 
ATOM     55  N   UNL A   1      41.582  28.965  31.910  1.00  0.00    -0.248 NA
ATOM     56  C   UNL A   1      42.759  27.378  30.668  1.00  0.00     0.031 C 
ATOM     57  C   UNL A   1      42.592  30.148  36.071  1.00  0.00     0.029 A 
ATOM     58  C   UNL A   1      42.306  29.774  34.767  1.00  0.00     0.049 A 
ATOM     59  H   UNL A   1      40.814  30.513  33.471  1.00  0.00     0.167 HD
ATOM     60  C   UNL A   1      42.609  28.452  32.689  1.00  0.00     0.074 A 
ATOM     61  C   UNL A   1      43.283  27.454  31.884  1.00  0.00     0.031 C 
ATOM     62  C   UNL A   1      42.965  28.782  33.955  1.00  0.00     0.037 A 
BRANCH  49  63
ATOM     63  C   UNL A   1      39.526  33.240  36.493  1.00  0.00     0.064 A 
ATOM     64  C   UNL A   1      38.667  32.831  37.524  1.00  0.00     0.173 A 
ATOM     65  C   UNL A   1      40.186  34.469  36.639  1.00  0.00     0.173 A 
ATOM     66  F   UNL A   1      38.001  31.670  37.428  1.00  0.00    -0.203 F 
ATOM     67  C   UNL A   1      38.468  33.626  38.649  1.00  0.00     0.198 A 
ATOM     68  C   UNL A   1      40.010  35.247  37.779  1.00  0.00     0.198 A 
ATOM     69  F   UNL A   1      41.021  34.906  35.683  1.00  0.00    -0.203 F 
ATOM     70  F   UNL A   1      37.613  33.232  39.603  1.00  0.00    -0.200 F 
ATOM     71  C   UNL A   1      39.147  34.828  38.781  1.00  0.00     0.200 A 
ATOM     72  F   UNL A   1      40.678  36.401  37.912  1.00  0.00    -0.200 F 
ATOM     73  F   UNL A   1      38.968  35.584  39.872  1.00  0.00    -0.200 F 
ENDBRANCH  49  63
BRANCH  50  74
ATOM     74  C   UNL A   1      40.989  27.648  28.337  1.00  0.00     0.064 A 
ATOM     75  C   UNL A   1      41.860  28.059  27.320  1.00  0.00     0.173 A 
ATOM     76  C   UNL A   1      40.350  26.408  28.185  1.00  0.00     0.173 A 
ATOM     77  F   UNL A   1      42.478  29.247  27.409  1.00  0.00    -0.203 F 
ATOM     78  C   UNL A   1      42.080  27.268  26.194  1.00  0.00     0.198 A 
ATOM     79  C   UNL A   1      40.594  25.604  27.073  1.00  0.00     0.198 A 
ATOM     80  F   UNL A   1      39.509  25.963  29.131  1.00  0.00    -0.203 F 
ATOM     81  F   UNL A   1      42.893  27.702  25.222  1.00  0.00    -0.200 F 
ATOM     82  C   UNL A   1      41.454  26.036  26.076  1.00  0.00     0.200 A 
ATOM     83  F   UNL A   1      40.000  24.406  26.972  1.00  0.00    -0.200 F 
ATOM     84  F   UNL A   1      41.678  25.269  25.001  1.00  0.00    -0.200 F 
ENDBRANCH  50  74
BRANCH  62  85
ATOM     85  C   UNL A   1      44.128  28.054  34.566  1.00  0.00     0.064 A 
ATOM     86  C   UNL A   1      43.961  26.824  35.218  1.00  0.00     0.173 A 
ATOM     87  C   UNL A   1      45.434  28.549  34.421  1.00  0.00     0.173 A 
ATOM     88  F   UNL A   1      42.732  26.314  35.393  1.00  0.00    -0.203 F 
ATOM     89  C   UNL A   1      45.057  26.123  35.714  1.00  0.00     0.198 A 
ATOM     90  C   UNL A   1      46.529  27.830  34.889  1.00  0.00     0.198 A 
ATOM     91  F   UNL A   1      45.649  29.717  33.797  1.00  0.00    -0.203 F 
ATOM     92  F   UNL A   1      44.869  24.966  36.364  1.00  0.00    -0.200 F 
ATOM     93  C   UNL A   1      46.340  26.620  35.539  1.00  0.00     0.200 A 
ATOM     94  F   UNL A   1      47.769  28.302  34.701  1.00  0.00    -0.200 F 
ATOM     95  F   UNL A   1      47.394  25.931  35.997  1.00  0.00    -0.200 F 
ENDBRANCH  62  85
ENDBRANCH  36  37
ENDBRANCH  28  31
ENDBRANCH  26  27
ENDBRANCH  25  26
ENDBRANCH   1  25
TORSDOF 14
ENDMDL
