MODEL 1
REMARK VINA RESULT:     -12.2      0.000      0.000
REMARK SMILES CCS(=O)(=O)Nc1ccc(N2CC[NH+](C)CC2)cc1C(=O)NCCCCCCNC(=O)c1ccc(-c2c3nc(c(-c4c(F)c(F)c(F)c(F)c4F)c4ccc([nH]4)c(-c4c(F)c(F)c(F)c(F)c4F)c4nc(c(-c5c(F)c(F)c(F)c(F)c5F)c5ccc2[nH]5)C=C4)C=C3)cc1
REMARK SMILES IDX 25 1 24 2 23 3 22 4 20 5 21 6 19 8 7 9 8 10 9 11 18 12 10 13
REMARK SMILES IDX 6 14 3 16 4 17 5 18 2 19 1 20 11 21 12 22 17 23 13 24 16 25
REMARK SMILES IDX 14 26 15 27 26 29 27 30 28 31 29 32 30 33 31 35 32 36 33 37
REMARK SMILES IDX 94 38 34 39 93 40 35 41 36 42 37 43 87 44 38 45 92 46 86 47
REMARK SMILES IDX 88 48 39 49 91 50 85 51 84 52 40 54 72 55 52 56 71 57 53 58
REMARK SMILES IDX 56 59 70 60 89 61 54 62 55 63 69 65 90 66 57 67 41 68 42 69
REMARK SMILES IDX 50 70 43 71 44 72 48 73 51 74 45 75 46 76 49 77 47 78 73 79
REMARK SMILES IDX 74 80 82 81 75 82 76 83 80 84 83 85 77 86 78 87 81 88 79 89
REMARK SMILES IDX 58 90 59 91 67 92 60 93 61 94 65 95 68 96 62 97 63 98 66 99
REMARK SMILES IDX 64 100
REMARK H PARENT 22 7 6 15 14 28 29 34 88 53 56 64
REMARK Flexibility Score: inf
ROOT
ATOM      1  C   UNL A   1      32.066  29.568  25.782  1.00  0.00     0.002 C 
ENDROOT
BRANCH   1   2
ATOM      2  C   UNL A   1      33.521  29.067  25.754  1.00  0.00     0.021 C 
BRANCH   2   3
ATOM      3  C   UNL A   1      33.792  27.663  26.293  1.00  0.00     0.116 C 
BRANCH   3   4
ATOM      4  N   UNL A   1      34.009  26.673  25.256  1.00  0.00    -0.352 N 
ATOM      5  C   UNL A   1      33.135  25.963  24.475  1.00  0.00     0.253 C 
ATOM      6  O   UNL A   1      33.612  25.116  23.715  1.00  0.00    -0.269 OA
ATOM      7  H   UNL A   1      34.957  26.476  25.082  1.00  0.00     0.163 HD
BRANCH   5   8
ATOM      8  C   UNL A   1      31.652  26.114  24.522  1.00  0.00     0.066 A 
ATOM      9  C   UNL A   1      30.790  25.556  25.469  1.00  0.00     0.061 A 
ATOM     10  C   UNL A   1      29.410  25.653  25.263  1.00  0.00     0.030 A 
ATOM     11  C   UNL A   1      28.892  26.497  24.287  1.00  0.00     0.028 A 
ATOM     12  C   UNL A   1      31.098  27.023  23.576  1.00  0.00     0.042 A 
ATOM     13  C   UNL A   1      29.723  27.305  23.513  1.00  0.00     0.038 A 
BRANCH   9  14
ATOM     14  N   UNL A   1      31.141  24.922  26.698  1.00  0.00    -0.283 N 
ATOM     15  H   UNL A   1      31.451  25.492  27.437  1.00  0.00     0.180 HD
BRANCH  14  16
ATOM     16  S   UNL A   1      31.063  23.275  26.965  1.00  0.00     0.232 S 
ATOM     17  O   UNL A   1      29.782  22.963  27.554  1.00  0.00    -0.207 OA
ATOM     18  O   UNL A   1      32.271  23.016  27.723  1.00  0.00    -0.207 OA
BRANCH  16  19
ATOM     19  C   UNL A   1      31.201  22.374  25.423  1.00  0.00     0.156 C 
ATOM     20  C   UNL A   1      32.610  21.947  25.058  1.00  0.00     0.023 C 
ENDBRANCH  16  19
ENDBRANCH  14  16
ENDBRANCH   9  14
BRANCH  13  21
ATOM     21  N   UNL A   1      29.207  28.379  22.820  1.00  0.00    -0.360 N 
ATOM     22  C   UNL A   1      29.937  29.138  21.795  1.00  0.00     0.178 C 
ATOM     23  C   UNL A   1      27.771  28.709  22.925  1.00  0.00     0.178 C 
ATOM     24  C   UNL A   1      29.643  30.658  21.914  1.00  0.00     0.283 C 
ATOM     25  C   UNL A   1      27.562  30.232  23.045  1.00  0.00     0.283 C 
ATOM     26  N   UNL A   1      28.195  30.977  21.939  1.00  0.00    -0.334 N 
ATOM     27  C   UNL A   1      27.979  32.414  22.111  1.00  0.00     0.332 C 
ATOM     28  H   UNL A   1      27.776  30.703  21.051  1.00  0.00     0.347 HD
ENDBRANCH  13  21
ENDBRANCH   5   8
ENDBRANCH   3   4
ENDBRANCH   2   3
ENDBRANCH   1   2
BRANCH   1  29
ATOM     29  C   UNL A   1      31.628  30.530  26.890  1.00  0.00     0.002 C 
BRANCH  29  30
ATOM     30  C   UNL A   1      31.675  32.023  26.583  1.00  0.00     0.021 C 
BRANCH  30  31
ATOM     31  C   UNL A   1      32.798  32.770  27.282  1.00  0.00     0.116 C 
BRANCH  31  32
ATOM     32  N   UNL A   1      32.444  34.136  27.642  1.00  0.00    -0.352 N 
ATOM     33  C   UNL A   1      33.002  34.944  28.601  1.00  0.00     0.251 C 
ATOM     34  H   UNL A   1      31.704  34.534  27.128  1.00  0.00     0.163 HD
ATOM     35  O   UNL A   1      32.522  36.040  28.863  1.00  0.00    -0.269 OA
BRANCH  33  36
ATOM     36  C   UNL A   1      34.184  34.457  29.340  1.00  0.00     0.039 A 
ATOM     37  C   UNL A   1      34.001  33.793  30.554  1.00  0.00     0.014 A 
ATOM     38  C   UNL A   1      35.463  34.618  28.805  1.00  0.00     0.014 A 
ATOM     39  C   UNL A   1      35.102  33.233  31.204  1.00  0.00     0.010 A 
ATOM     40  C   UNL A   1      36.542  33.983  29.403  1.00  0.00     0.010 A 
ATOM     41  C   UNL A   1      36.374  33.292  30.615  1.00  0.00    -0.014 A 
BRANCH  41  42
ATOM     42  C   UNL A   1      37.566  32.686  31.257  1.00  0.00     0.031 A 
ATOM     43  C   UNL A   1      38.266  31.545  30.571  1.00  0.00     0.074 A 
ATOM     44  C   UNL A   1      37.966  33.102  32.474  1.00  0.00     0.049 A 
ATOM     45  N   UNL A   1      39.216  30.765  31.018  1.00  0.00    -0.248 NA
ATOM     46  C   UNL A   1      37.808  31.212  29.211  1.00  0.00     0.031 C 
ATOM     47  C   UNL A   1      37.350  34.180  33.250  1.00  0.00     0.029 A 
ATOM     48  N   UNL A   1      38.978  32.649  33.285  1.00  0.00    -0.354 N 
ATOM     49  C   UNL A   1      39.458  29.850  30.002  1.00  0.00     0.074 A 
ATOM     50  C   UNL A   1      38.511  30.123  28.945  1.00  0.00     0.031 C 
ATOM     51  C   UNL A   1      38.003  34.312  34.416  1.00  0.00     0.029 A 
ATOM     52  C   UNL A   1      39.049  33.297  34.494  1.00  0.00     0.049 A 
ATOM     53  H   UNL A   1      39.595  31.928  33.023  1.00  0.00     0.167 HD
ATOM     54  C   UNL A   1      40.409  28.889  29.942  1.00  0.00     0.037 A 
ATOM     55  C   UNL A   1      39.854  33.078  35.552  1.00  0.00     0.037 A 
ATOM     56  C   UNL A   1      41.365  28.639  30.986  1.00  0.00     0.049 A 
ATOM     57  C   UNL A   1      40.878  31.973  35.472  1.00  0.00     0.074 A 
ATOM     58  C   UNL A   1      42.382  27.701  31.018  1.00  0.00     0.029 A 
ATOM     59  N   UNL A   1      41.425  29.340  32.181  1.00  0.00    -0.354 N 
ATOM     60  N   UNL A   1      41.125  31.140  34.490  1.00  0.00    -0.248 NA
ATOM     61  C   UNL A   1      41.743  31.783  36.646  1.00  0.00     0.031 C 
ATOM     62  C   UNL A   1      43.031  27.806  32.251  1.00  0.00     0.029 A 
ATOM     63  C   UNL A   1      42.459  28.850  32.960  1.00  0.00     0.049 A 
ATOM     64  H   UNL A   1      40.823  30.075  32.438  1.00  0.00     0.167 HD
ATOM     65  C   UNL A   1      42.200  30.365  34.906  1.00  0.00     0.074 A 
ATOM     66  C   UNL A   1      42.563  30.830  36.227  1.00  0.00     0.031 C 
ATOM     67  C   UNL A   1      42.831  29.359  34.255  1.00  0.00     0.037 A 
BRANCH  54  68
ATOM     68  C   UNL A   1      40.482  28.053  28.698  1.00  0.00     0.064 A 
ATOM     69  C   UNL A   1      41.257  28.447  27.596  1.00  0.00     0.173 A 
ATOM     70  C   UNL A   1      39.821  26.818  28.626  1.00  0.00     0.173 A 
ATOM     71  F   UNL A   1      41.897  29.626  27.610  1.00  0.00    -0.203 F 
ATOM     72  C   UNL A   1      41.352  27.646  26.463  1.00  0.00     0.198 A 
ATOM     73  C   UNL A   1      39.946  26.003  27.504  1.00  0.00     0.198 A 
ATOM     74  F   UNL A   1      39.069  26.391  29.652  1.00  0.00    -0.203 F 
ATOM     75  F   UNL A   1      42.065  28.063  25.407  1.00  0.00    -0.200 F 
ATOM     76  C   UNL A   1      40.706  26.419  26.423  1.00  0.00     0.200 A 
ATOM     77  F   UNL A   1      39.333  24.811  27.473  1.00  0.00    -0.200 F 
ATOM     78  F   UNL A   1      40.814  25.640  25.338  1.00  0.00    -0.200 F 
ENDBRANCH  54  68
BRANCH  55  79
ATOM     79  C   UNL A   1      39.733  33.906  36.783  1.00  0.00     0.064 A 
ATOM     80  C   UNL A   1      38.934  33.491  37.858  1.00  0.00     0.173 A 
ATOM     81  C   UNL A   1      40.359  35.158  36.888  1.00  0.00     0.173 A 
ATOM     82  F   UNL A   1      38.298  32.311  37.802  1.00  0.00    -0.203 F 
ATOM     83  C   UNL A   1      38.728  34.312  38.966  1.00  0.00     0.198 A 
ATOM     84  C   UNL A   1      40.184  35.961  38.013  1.00  0.00     0.198 A 
ATOM     85  F   UNL A   1      41.141  35.604  35.893  1.00  0.00    -0.203 F 
ATOM     86  F   UNL A   1      37.894  33.921  39.940  1.00  0.00    -0.200 F 
ATOM     87  C   UNL A   1      39.354  35.546  39.043  1.00  0.00     0.200 A 
ATOM     88  F   UNL A   1      40.803  37.147  38.090  1.00  0.00    -0.200 F 
ATOM     89  F   UNL A   1      39.144  36.342  40.100  1.00  0.00    -0.200 F 
ENDBRANCH  55  79
BRANCH  67  90
ATOM     90  C   UNL A   1      44.032  28.746  34.914  1.00  0.00     0.064 A 
ATOM     91  C   UNL A   1      43.934  27.612  35.732  1.00  0.00     0.173 A 
ATOM     92  C   UNL A   1      45.312  29.268  34.663  1.00  0.00     0.173 A 
ATOM     93  F   UNL A   1      42.733  27.083  36.013  1.00  0.00    -0.203 F 
ATOM     94  C   UNL A   1      45.070  27.034  36.291  1.00  0.00     0.198 A 
ATOM     95  C   UNL A   1      46.448  28.667  35.195  1.00  0.00     0.198 A 
ATOM     96  F   UNL A   1      45.461  30.346  33.878  1.00  0.00    -0.203 F 
ATOM     97  F   UNL A   1      44.949  25.977  37.105  1.00  0.00    -0.200 F 
ATOM     98  C   UNL A   1      46.326  27.554  36.014  1.00  0.00     0.200 A 
ATOM     99  F   UNL A   1      47.661  29.159  34.910  1.00  0.00    -0.200 F 
ATOM    100  F   UNL A   1      47.420  26.986  36.539  1.00  0.00    -0.200 F 
ENDBRANCH  67  90
ENDBRANCH  41  42
ENDBRANCH  33  36
ENDBRANCH  31  32
ENDBRANCH  30  31
ENDBRANCH  29  30
ENDBRANCH   1  29
TORSDOF 17
ENDMDL
MODEL 2
REMARK VINA RESULT:     -12.1      2.215      8.087
REMARK SMILES CCS(=O)(=O)Nc1ccc(N2CC[NH+](C)CC2)cc1C(=O)NCCCCCCNC(=O)c1ccc(-c2c3nc(c(-c4c(F)c(F)c(F)c(F)c4F)c4ccc([nH]4)c(-c4c(F)c(F)c(F)c(F)c4F)c4nc(c(-c5c(F)c(F)c(F)c(F)c5F)c5ccc2[nH]5)C=C4)C=C3)cc1
REMARK SMILES IDX 25 1 24 2 23 3 22 4 20 5 21 6 19 8 7 9 8 10 9 11 18 12 10 13
REMARK SMILES IDX 6 14 3 16 4 17 5 18 2 19 1 20 11 21 12 22 17 23 13 24 16 25
REMARK SMILES IDX 14 26 15 27 26 29 27 30 28 31 29 32 30 33 31 35 32 36 33 37
REMARK SMILES IDX 94 38 34 39 93 40 35 41 36 42 37 43 87 44 38 45 92 46 86 47
REMARK SMILES IDX 88 48 39 49 91 50 85 51 84 52 40 54 72 55 52 56 71 57 53 58
REMARK SMILES IDX 56 59 70 60 89 61 54 62 55 63 69 65 90 66 57 67 41 68 42 69
REMARK SMILES IDX 50 70 43 71 44 72 48 73 51 74 45 75 46 76 49 77 47 78 73 79
REMARK SMILES IDX 74 80 82 81 75 82 76 83 80 84 83 85 77 86 78 87 81 88 79 89
REMARK SMILES IDX 58 90 59 91 67 92 60 93 61 94 65 95 68 96 62 97 63 98 66 99
REMARK SMILES IDX 64 100
REMARK H PARENT 22 7 6 15 14 28 29 34 88 53 56 64
REMARK Flexibility Score: inf
ROOT
ATOM      1  C   UNL A   1      34.131  31.990  28.715  1.00  0.00     0.002 C 
ENDROOT
BRANCH   1   2
ATOM      2  C   UNL A   1      34.727  31.006  27.692  1.00  0.00     0.021 C 
BRANCH   2   3
ATOM      3  C   UNL A   1      33.788  29.957  27.096  1.00  0.00     0.116 C 
BRANCH   3   4
ATOM      4  N   UNL A   1      34.057  29.658  25.704  1.00  0.00    -0.352 N 
ATOM      5  C   UNL A   1      33.778  28.557  24.937  1.00  0.00     0.253 C 
ATOM      6  O   UNL A   1      34.203  28.549  23.778  1.00  0.00    -0.269 OA
ATOM      7  H   UNL A   1      34.525  30.377  25.222  1.00  0.00     0.163 HD
BRANCH   5   8
ATOM      8  C   UNL A   1      33.042  27.356  25.426  1.00  0.00     0.066 A 
ATOM      9  C   UNL A   1      31.655  27.191  25.464  1.00  0.00     0.061 A 
ATOM     10  C   UNL A   1      31.129  26.073  26.119  1.00  0.00     0.030 A 
ATOM     11  C   UNL A   1      31.949  25.017  26.500  1.00  0.00     0.028 A 
ATOM     12  C   UNL A   1      33.852  26.235  25.764  1.00  0.00     0.042 A 
ATOM     13  C   UNL A   1      33.312  25.017  26.208  1.00  0.00     0.038 A 
BRANCH   9  14
ATOM     14  N   UNL A   1      30.664  28.014  24.852  1.00  0.00    -0.283 N 
ATOM     15  H   UNL A   1      30.341  28.795  25.355  1.00  0.00     0.180 HD
BRANCH  14  16
ATOM     16  S   UNL A   1      30.013  27.740  23.338  1.00  0.00     0.232 S 
ATOM     17  O   UNL A   1      29.605  29.006  22.775  1.00  0.00    -0.207 OA
ATOM     18  O   UNL A   1      29.010  26.728  23.599  1.00  0.00    -0.207 OA
BRANCH  16  19
ATOM     19  C   UNL A   1      31.231  27.012  22.245  1.00  0.00     0.156 C 
ATOM     20  C   UNL A   1      31.498  25.537  22.480  1.00  0.00     0.023 C 
ENDBRANCH  16  19
ENDBRANCH  14  16
ENDBRANCH   9  14
BRANCH  13  21
ATOM     21  N   UNL A   1      34.037  23.845  26.257  1.00  0.00    -0.360 N 
ATOM     22  C   UNL A   1      35.448  23.723  25.861  1.00  0.00     0.178 C 
ATOM     23  C   UNL A   1      33.479  22.654  26.927  1.00  0.00     0.178 C 
ATOM     24  C   UNL A   1      35.697  22.391  25.101  1.00  0.00     0.283 C 
ATOM     25  C   UNL A   1      33.762  21.377  26.110  1.00  0.00     0.283 C 
ATOM     26  N   UNL A   1      35.200  21.197  25.825  1.00  0.00    -0.334 N 
ATOM     27  C   UNL A   1      35.410  19.983  25.038  1.00  0.00     0.332 C 
ATOM     28  H   UNL A   1      35.717  21.095  26.699  1.00  0.00     0.347 HD
ENDBRANCH  13  21
ENDBRANCH   5   8
ENDBRANCH   3   4
ENDBRANCH   2   3
ENDBRANCH   1   2
BRANCH   1  29
ATOM     29  C   UNL A   1      34.312  33.495  28.497  1.00  0.00     0.002 C 
BRANCH  29  30
ATOM     30  C   UNL A   1      33.103  34.391  28.744  1.00  0.00     0.021 C 
BRANCH  30  31
ATOM     31  C   UNL A   1      33.445  35.772  29.277  1.00  0.00     0.116 C 
BRANCH  31  32
ATOM     32  N   UNL A   1      32.553  36.215  30.339  1.00  0.00    -0.352 N 
ATOM     33  C   UNL A   1      32.605  35.926  31.680  1.00  0.00     0.251 C 
ATOM     34  H   UNL A   1      31.814  36.802  30.058  1.00  0.00     0.163 HD
ATOM     35  O   UNL A   1      31.714  36.287  32.440  1.00  0.00    -0.269 OA
BRANCH  33  36
ATOM     36  C   UNL A   1      33.743  35.139  32.194  1.00  0.00     0.039 A 
ATOM     37  C   UNL A   1      33.528  33.824  32.613  1.00  0.00     0.014 A 
ATOM     38  C   UNL A   1      35.026  35.690  32.215  1.00  0.00     0.014 A 
ATOM     39  C   UNL A   1      34.617  33.039  32.995  1.00  0.00     0.010 A 
ATOM     40  C   UNL A   1      36.116  34.881  32.506  1.00  0.00     0.010 A 
ATOM     41  C   UNL A   1      35.921  33.550  32.910  1.00  0.00    -0.014 A 
BRANCH  41  42
ATOM     42  C   UNL A   1      37.107  32.740  33.280  1.00  0.00     0.031 A 
ATOM     43  C   UNL A   1      37.825  33.040  34.567  1.00  0.00     0.074 A 
ATOM     44  C   UNL A   1      37.579  31.803  32.435  1.00  0.00     0.049 A 
ATOM     45  N   UNL A   1      38.966  32.576  35.009  1.00  0.00    -0.248 NA
ATOM     46  C   UNL A   1      37.192  34.024  35.462  1.00  0.00     0.031 C 
ATOM     47  C   UNL A   1      36.986  31.443  31.146  1.00  0.00     0.029 A 
ATOM     48  N   UNL A   1      38.686  30.995  32.526  1.00  0.00    -0.354 N 
ATOM     49  C   UNL A   1      39.187  33.217  36.221  1.00  0.00     0.074 A 
ATOM     50  C   UNL A   1      38.103  34.154  36.413  1.00  0.00     0.031 C 
ATOM     51  C   UNL A   1      37.726  30.480  30.574  1.00  0.00     0.029 A 
ATOM     52  C   UNL A   1      38.873  30.190  31.428  1.00  0.00     0.049 A 
ATOM     53  H   UNL A   1      39.287  30.992  33.305  1.00  0.00     0.167 HD
ATOM     54  C   UNL A   1      40.187  33.017  37.110  1.00  0.00     0.037 A 
ATOM     55  C   UNL A   1      39.872  29.334  31.138  1.00  0.00     0.037 A 
ATOM     56  C   UNL A   1      41.248  32.065  36.925  1.00  0.00     0.049 A 
ATOM     57  C   UNL A   1      40.996  29.161  32.130  1.00  0.00     0.074 A 
ATOM     58  C   UNL A   1      42.301  31.772  37.772  1.00  0.00     0.029 A 
ATOM     59  N   UNL A   1      41.384  31.246  35.814  1.00  0.00    -0.354 N 
ATOM     60  N   UNL A   1      41.173  29.744  33.291  1.00  0.00    -0.248 NA
ATOM     61  C   UNL A   1      42.054  28.205  31.776  1.00  0.00     0.031 C 
ATOM     62  C   UNL A   1      43.099  30.804  37.156  1.00  0.00     0.029 A 
ATOM     63  C   UNL A   1      42.509  30.450  35.953  1.00  0.00     0.049 A 
ATOM     64  H   UNL A   1      40.773  31.231  35.042  1.00  0.00     0.167 HD
ATOM     65  C   UNL A   1      42.330  29.191  33.824  1.00  0.00     0.074 A 
ATOM     66  C   UNL A   1      42.811  28.221  32.864  1.00  0.00     0.031 C 
ATOM     67  C   UNL A   1      42.942  29.459  35.003  1.00  0.00     0.037 A 
BRANCH  54  68
ATOM     68  C   UNL A   1      40.170  33.823  38.375  1.00  0.00     0.064 A 
ATOM     69  C   UNL A   1      39.462  33.391  39.508  1.00  0.00     0.173 A 
ATOM     70  C   UNL A   1      40.914  35.007  38.480  1.00  0.00     0.173 A 
ATOM     71  F   UNL A   1      38.724  32.272  39.455  1.00  0.00    -0.203 F 
ATOM     72  C   UNL A   1      39.486  34.123  40.691  1.00  0.00     0.198 A 
ATOM     73  C   UNL A   1      40.962  35.720  39.675  1.00  0.00     0.198 A 
ATOM     74  F   UNL A   1      41.611  35.464  37.429  1.00  0.00    -0.203 F 
ATOM     75  F   UNL A   1      38.768  33.711  41.746  1.00  0.00    -0.200 F 
ATOM     76  C   UNL A   1      40.245  35.280  40.777  1.00  0.00     0.200 A 
ATOM     77  F   UNL A   1      41.708  36.830  39.762  1.00  0.00    -0.200 F 
ATOM     78  F   UNL A   1      40.282  35.974  41.923  1.00  0.00    -0.200 F 
ENDBRANCH  54  68
BRANCH  55  79
ATOM     79  C   UNL A   1      39.874  28.574  29.858  1.00  0.00     0.064 A 
ATOM     80  C   UNL A   1      39.330  27.283  29.784  1.00  0.00     0.173 A 
ATOM     81  C   UNL A   1      40.474  29.091  28.699  1.00  0.00     0.173 A 
ATOM     82  F   UNL A   1      38.761  26.734  30.867  1.00  0.00    -0.203 F 
ATOM     83  C   UNL A   1      39.427  26.523  28.619  1.00  0.00     0.198 A 
ATOM     84  C   UNL A   1      40.536  28.345  27.524  1.00  0.00     0.198 A 
ATOM     85  F   UNL A   1      41.005  30.323  28.710  1.00  0.00    -0.203 F 
ATOM     86  F   UNL A   1      38.970  25.263  28.604  1.00  0.00    -0.200 F 
ATOM     87  C   UNL A   1      40.030  27.055  27.490  1.00  0.00     0.200 A 
ATOM     88  F   UNL A   1      41.106  28.869  26.430  1.00  0.00    -0.200 F 
ATOM     89  F   UNL A   1      40.138  26.320  26.375  1.00  0.00    -0.200 F 
ENDBRANCH  55  79
BRANCH  67  90
ATOM     90  C   UNL A   1      44.146  28.640  35.367  1.00  0.00     0.064 A 
ATOM     91  C   UNL A   1      44.040  27.439  36.082  1.00  0.00     0.173 A 
ATOM     92  C   UNL A   1      45.421  29.037  34.931  1.00  0.00     0.173 A 
ATOM     93  F   UNL A   1      42.847  27.024  36.532  1.00  0.00    -0.203 F 
ATOM     94  C   UNL A   1      45.169  26.675  36.364  1.00  0.00     0.198 A 
ATOM     95  C   UNL A   1      46.541  28.252  35.185  1.00  0.00     0.198 A 
ATOM     96  F   UNL A   1      45.574  30.174  34.235  1.00  0.00    -0.203 F 
ATOM     97  F   UNL A   1      45.050  25.553  37.087  1.00  0.00    -0.200 F 
ATOM     98  C   UNL A   1      46.416  27.075  35.907  1.00  0.00     0.200 A 
ATOM     99  F   UNL A   1      47.741  28.632  34.725  1.00  0.00    -0.200 F 
ATOM    100  F   UNL A   1      47.498  26.329  36.165  1.00  0.00    -0.200 F 
ENDBRANCH  67  90
ENDBRANCH  41  42
ENDBRANCH  33  36
ENDBRANCH  31  32
ENDBRANCH  30  31
ENDBRANCH  29  30
ENDBRANCH   1  29
TORSDOF 17
ENDMDL
MODEL 3
REMARK VINA RESULT:     -11.9      1.649      3.795
REMARK SMILES CCS(=O)(=O)Nc1ccc(N2CC[NH+](C)CC2)cc1C(=O)NCCCCCCNC(=O)c1ccc(-c2c3nc(c(-c4c(F)c(F)c(F)c(F)c4F)c4ccc([nH]4)c(-c4c(F)c(F)c(F)c(F)c4F)c4nc(c(-c5c(F)c(F)c(F)c(F)c5F)c5ccc2[nH]5)C=C4)C=C3)cc1
REMARK SMILES IDX 25 1 24 2 23 3 22 4 20 5 21 6 19 8 7 9 8 10 9 11 18 12 10 13
REMARK SMILES IDX 6 14 3 16 4 17 5 18 2 19 1 20 11 21 12 22 17 23 13 24 16 25
REMARK SMILES IDX 14 26 15 27 26 29 27 30 28 31 29 32 30 33 31 35 32 36 33 37
REMARK SMILES IDX 94 38 34 39 93 40 35 41 36 42 37 43 87 44 38 45 92 46 86 47
REMARK SMILES IDX 88 48 39 49 91 50 85 51 84 52 40 54 72 55 52 56 71 57 53 58
REMARK SMILES IDX 56 59 70 60 89 61 54 62 55 63 69 65 90 66 57 67 41 68 42 69
REMARK SMILES IDX 50 70 43 71 44 72 48 73 51 74 45 75 46 76 49 77 47 78 73 79
REMARK SMILES IDX 74 80 82 81 75 82 76 83 80 84 83 85 77 86 78 87 81 88 79 89
REMARK SMILES IDX 58 90 59 91 67 92 60 93 61 94 65 95 68 96 62 97 63 98 66 99
REMARK SMILES IDX 64 100
REMARK H PARENT 22 7 6 15 14 28 29 34 88 53 56 64
REMARK Flexibility Score: inf
ROOT
ATOM      1  C   UNL A   1      33.044  30.060  27.518  1.00  0.00     0.002 C 
ENDROOT
BRANCH   1   2
ATOM      2  C   UNL A   1      33.559  28.651  27.177  1.00  0.00     0.021 C 
BRANCH   2   3
ATOM      3  C   UNL A   1      34.673  28.542  26.136  1.00  0.00     0.116 C 
BRANCH   3   4
ATOM      4  N   UNL A   1      34.278  28.982  24.813  1.00  0.00    -0.352 N 
ATOM      5  C   UNL A   1      33.307  28.536  23.954  1.00  0.00     0.253 C 
ATOM      6  O   UNL A   1      33.249  29.061  22.839  1.00  0.00    -0.269 OA
ATOM      7  H   UNL A   1      34.803  29.740  24.468  1.00  0.00     0.163 HD
BRANCH   5   8
ATOM      8  C   UNL A   1      32.357  27.429  24.263  1.00  0.00     0.066 A 
ATOM      9  C   UNL A   1      30.978  27.548  24.456  1.00  0.00     0.061 A 
ATOM     10  C   UNL A   1      30.265  26.435  24.914  1.00  0.00     0.030 A 
ATOM     11  C   UNL A   1      30.846  25.173  24.933  1.00  0.00     0.028 A 
ATOM     12  C   UNL A   1      32.910  26.117  24.228  1.00  0.00     0.042 A 
ATOM     13  C   UNL A   1      32.141  24.965  24.461  1.00  0.00     0.038 A 
BRANCH   9  14
ATOM     14  N   UNL A   1      30.157  28.682  24.186  1.00  0.00    -0.283 N 
ATOM     15  H   UNL A   1      30.133  29.402  24.857  1.00  0.00     0.180 HD
BRANCH  14  16
ATOM     16  S   UNL A   1      29.231  28.871  22.809  1.00  0.00     0.232 S 
ATOM     17  O   UNL A   1      27.929  28.291  23.044  1.00  0.00    -0.207 OA
ATOM     18  O   UNL A   1      30.077  28.310  21.775  1.00  0.00    -0.207 OA
BRANCH  16  19
ATOM     19  C   UNL A   1      29.006  30.606  22.428  1.00  0.00     0.156 C 
ATOM     20  C   UNL A   1      28.333  31.418  23.518  1.00  0.00     0.023 C 
ENDBRANCH  16  19
ENDBRANCH  14  16
ENDBRANCH   9  14
BRANCH  13  21
ATOM     21  N   UNL A   1      32.576  23.694  24.148  1.00  0.00    -0.360 N 
ATOM     22  C   UNL A   1      32.562  23.120  22.795  1.00  0.00     0.178 C 
ATOM     23  C   UNL A   1      33.294  22.887  25.154  1.00  0.00     0.178 C 
ATOM     24  C   UNL A   1      32.139  21.626  22.830  1.00  0.00     0.283 C 
ATOM     25  C   UNL A   1      32.815  21.421  25.130  1.00  0.00     0.283 C 
ATOM     26  N   UNL A   1      32.924  20.813  23.789  1.00  0.00    -0.334 N 
ATOM     27  C   UNL A   1      32.443  19.433  23.821  1.00  0.00     0.332 C 
ATOM     28  H   UNL A   1      33.900  20.797  23.494  1.00  0.00     0.347 HD
ENDBRANCH  13  21
ENDBRANCH   5   8
ENDBRANCH   3   4
ENDBRANCH   2   3
ENDBRANCH   1   2
BRANCH   1  29
ATOM     29  C   UNL A   1      31.795  30.592  26.808  1.00  0.00     0.002 C 
BRANCH  29  30
ATOM     30  C   UNL A   1      31.561  32.099  26.834  1.00  0.00     0.021 C 
BRANCH  30  31
ATOM     31  C   UNL A   1      32.744  32.907  27.339  1.00  0.00     0.116 C 
BRANCH  31  32
ATOM     32  N   UNL A   1      32.399  34.279  27.683  1.00  0.00    -0.352 N 
ATOM     33  C   UNL A   1      32.963  35.093  28.634  1.00  0.00     0.251 C 
ATOM     34  H   UNL A   1      31.663  34.676  27.164  1.00  0.00     0.163 HD
ATOM     35  O   UNL A   1      32.489  36.195  28.885  1.00  0.00    -0.269 OA
BRANCH  33  36
ATOM     36  C   UNL A   1      34.140  34.606  29.380  1.00  0.00     0.039 A 
ATOM     37  C   UNL A   1      33.957  34.020  30.634  1.00  0.00     0.014 A 
ATOM     38  C   UNL A   1      35.414  34.689  28.814  1.00  0.00     0.014 A 
ATOM     39  C   UNL A   1      35.049  33.458  31.295  1.00  0.00     0.010 A 
ATOM     40  C   UNL A   1      36.480  34.049  29.430  1.00  0.00     0.010 A 
ATOM     41  C   UNL A   1      36.311  33.436  30.682  1.00  0.00    -0.014 A 
BRANCH  41  42
ATOM     42  C   UNL A   1      37.492  32.824  31.338  1.00  0.00     0.031 A 
ATOM     43  C   UNL A   1      38.160  31.643  30.688  1.00  0.00     0.074 A 
ATOM     44  C   UNL A   1      37.911  33.272  32.537  1.00  0.00     0.049 A 
ATOM     45  N   UNL A   1      39.095  30.856  31.156  1.00  0.00    -0.248 NA
ATOM     46  C   UNL A   1      37.685  31.275  29.343  1.00  0.00     0.031 C 
ATOM     47  C   UNL A   1      37.326  34.391  33.279  1.00  0.00     0.029 A 
ATOM     48  N   UNL A   1      38.917  32.823  33.357  1.00  0.00    -0.354 N 
ATOM     49  C   UNL A   1      39.308  29.901  30.171  1.00  0.00     0.074 A 
ATOM     50  C   UNL A   1      38.360  30.160  29.111  1.00  0.00     0.031 C 
ATOM     51  C   UNL A   1      37.990  34.547  34.436  1.00  0.00     0.029 A 
ATOM     52  C   UNL A   1      39.012  33.512  34.543  1.00  0.00     0.049 A 
ATOM     53  H   UNL A   1      39.515  32.079  33.117  1.00  0.00     0.167 HD
ATOM     54  C   UNL A   1      40.236  28.916  30.138  1.00  0.00     0.037 A 
ATOM     55  C   UNL A   1      39.819  33.310  35.602  1.00  0.00     0.037 A 
ATOM     56  C   UNL A   1      41.193  28.680  31.185  1.00  0.00     0.049 A 
ATOM     57  C   UNL A   1      40.816  32.179  35.555  1.00  0.00     0.074 A 
ATOM     58  C   UNL A   1      42.187  27.720  31.243  1.00  0.00     0.029 A 
ATOM     59  N   UNL A   1      41.277  29.420  32.355  1.00  0.00    -0.354 N 
ATOM     60  N   UNL A   1      41.036  31.307  34.601  1.00  0.00    -0.248 NA
ATOM     61  C   UNL A   1      41.684  32.009  36.729  1.00  0.00     0.031 C 
ATOM     62  C   UNL A   1      42.847  27.852  32.468  1.00  0.00     0.029 A 
ATOM     63  C   UNL A   1      42.305  28.933  33.144  1.00  0.00     0.049 A 
ATOM     64  H   UNL A   1      40.695  30.178  32.589  1.00  0.00     0.167 HD
ATOM     65  C   UNL A   1      42.095  30.521  35.037  1.00  0.00     0.074 A 
ATOM     66  C   UNL A   1      42.479  31.022  36.339  1.00  0.00     0.031 C 
ATOM     67  C   UNL A   1      42.698  29.478  34.418  1.00  0.00     0.037 A 
BRANCH  54  68
ATOM     68  C   UNL A   1      40.279  28.036  28.924  1.00  0.00     0.064 A 
ATOM     69  C   UNL A   1      41.023  28.393  27.789  1.00  0.00     0.173 A 
ATOM     70  C   UNL A   1      39.623  26.797  28.915  1.00  0.00     0.173 A 
ATOM     71  F   UNL A   1      41.658  29.574  27.743  1.00  0.00    -0.203 F 
ATOM     72  C   UNL A   1      41.092  27.551  26.683  1.00  0.00     0.198 A 
ATOM     73  C   UNL A   1      39.722  25.942  27.820  1.00  0.00     0.198 A 
ATOM     74  F   UNL A   1      38.900  26.405  29.975  1.00  0.00    -0.203 F 
ATOM     75  F   UNL A   1      41.775  27.933  25.594  1.00  0.00    -0.200 F 
ATOM     76  C   UNL A   1      40.452  26.322  26.704  1.00  0.00     0.200 A 
ATOM     77  F   UNL A   1      39.114  24.748  27.848  1.00  0.00    -0.200 F 
ATOM     78  F   UNL A   1      40.535  25.504  25.646  1.00  0.00    -0.200 F 
ENDBRANCH  54  68
BRANCH  55  79
ATOM     79  C   UNL A   1      39.727  34.183  36.805  1.00  0.00     0.064 A 
ATOM     80  C   UNL A   1      40.477  35.364  36.898  1.00  0.00     0.173 A 
ATOM     81  C   UNL A   1      38.938  33.828  37.909  1.00  0.00     0.173 A 
ATOM     82  F   UNL A   1      41.262  35.741  35.878  1.00  0.00    -0.203 F 
ATOM     83  C   UNL A   1      40.481  36.128  38.065  1.00  0.00     0.198 A 
ATOM     84  C   UNL A   1      38.912  34.612  39.061  1.00  0.00     0.198 A 
ATOM     85  F   UNL A   1      38.194  32.712  37.873  1.00  0.00    -0.203 F 
ATOM     86  F   UNL A   1      41.271  37.207  38.154  1.00  0.00    -0.200 F 
ATOM     87  C   UNL A   1      39.698  35.752  39.145  1.00  0.00     0.200 A 
ATOM     88  F   UNL A   1      38.142  34.253  40.096  1.00  0.00    -0.200 F 
ATOM     89  F   UNL A   1      39.712  36.477  40.271  1.00  0.00    -0.200 F 
ENDBRANCH  55  79
BRANCH  67  90
ATOM     90  C   UNL A   1      43.889  28.859  35.090  1.00  0.00     0.064 A 
ATOM     91  C   UNL A   1      45.193  29.322  34.866  1.00  0.00     0.173 A 
ATOM     92  C   UNL A   1      43.707  27.828  36.027  1.00  0.00     0.173 A 
ATOM     93  F   UNL A   1      45.420  30.296  33.973  1.00  0.00    -0.203 F 
ATOM     94  C   UNL A   1      46.274  28.762  35.541  1.00  0.00     0.198 A 
ATOM     95  C   UNL A   1      44.786  27.295  36.724  1.00  0.00     0.198 A 
ATOM     96  F   UNL A   1      42.477  27.356  36.283  1.00  0.00    -0.203 F 
ATOM     97  F   UNL A   1      47.517  29.189  35.280  1.00  0.00    -0.200 F 
ATOM     98  C   UNL A   1      46.070  27.757  36.476  1.00  0.00     0.200 A 
ATOM     99  F   UNL A   1      44.584  26.339  37.640  1.00  0.00    -0.200 F 
ATOM    100  F   UNL A   1      47.110  27.232  37.137  1.00  0.00    -0.200 F 
ENDBRANCH  67  90
ENDBRANCH  41  42
ENDBRANCH  33  36
ENDBRANCH  31  32
ENDBRANCH  30  31
ENDBRANCH  29  30
ENDBRANCH   1  29
TORSDOF 17
ENDMDL
