MODEL 1
REMARK VINA RESULT:     -12.1      0.000      0.000
REMARK SMILES O=C(NCCCCCCNC(=O)c1ccc(-c2c3nc(c(-c4c(F)c(F)c(F)c(F)c4F)c4ccc([nH]4)c(-c4c(F)c(F)c(F)c(F)c4F)c4nc(c(-c5c(F)c(F)c(F)c(F)c5F)c5ccc2[nH]5)C=C4)C=C3)cc1)c1ccc(NC(=O)[C@H]2CCS(=O)(=O)C2)cc1
REMARK SMILES IDX 6 1 5 2 4 3 3 4 1 5 2 6 76 8 77 9 91 10 78 11 90 12 79 13
REMARK SMILES IDX 80 14 81 15 82 17 83 18 84 19 89 20 85 21 86 22 87 23 88 24
REMARK SMILES IDX 7 25 8 26 9 27 10 28 11 29 12 31 13 32 14 33 75 34 15 35
REMARK SMILES IDX 74 36 16 37 17 38 18 39 68 40 19 41 73 42 67 43 69 44 20 45
REMARK SMILES IDX 72 46 66 47 65 48 21 50 53 51 33 52 52 53 34 54 37 55 51 56
REMARK SMILES IDX 70 57 35 58 36 59 50 61 71 62 38 63 22 64 23 65 31 66 24 67
REMARK SMILES IDX 25 68 29 69 32 70 26 71 27 72 30 73 28 74 54 75 55 76 63 77
REMARK SMILES IDX 56 78 57 79 61 80 64 81 58 82 59 83 62 84 60 85 39 86 40 87
REMARK SMILES IDX 48 88 41 89 42 90 46 91 49 92 43 93 44 94 47 95 45 96
REMARK H PARENT 3 7 80 16 10 30 69 49 37 60
REMARK Flexibility Score: inf
ROOT
ATOM      1  C   UNL A   1      34.410  32.230  29.153  1.00  0.00     0.002 C 
ENDROOT
BRANCH   1   2
ATOM      2  C   UNL A   1      34.812  31.332  27.997  1.00  0.00     0.021 C 
BRANCH   2   3
ATOM      3  C   UNL A   1      33.659  30.845  27.147  1.00  0.00     0.116 C 
BRANCH   3   4
ATOM      4  N   UNL A   1      32.904  29.729  27.715  1.00  0.00    -0.352 N 
ATOM      5  O   UNL A   1      31.628  27.865  27.811  1.00  0.00    -0.269 OA
ATOM      6  C   UNL A   1      32.278  28.644  27.119  1.00  0.00     0.251 C 
ATOM      7  H   UNL A   1      32.827  29.751  28.696  1.00  0.00     0.163 HD
BRANCH   6   8
ATOM      8  C   UNL A   1      32.384  28.401  25.656  1.00  0.00     0.039 A 
ATOM      9  C   UNL A   1      33.554  27.875  25.151  1.00  0.00     0.016 A 
ATOM     10  C   UNL A   1      31.349  28.660  24.750  1.00  0.00     0.016 A 
ATOM     11  C   UNL A   1      33.804  27.884  23.802  1.00  0.00     0.027 A 
ATOM     12  C   UNL A   1      31.512  28.328  23.384  1.00  0.00     0.027 A 
ATOM     13  C   UNL A   1      32.742  27.841  22.930  1.00  0.00     0.041 A 
BRANCH  13  14
ATOM     14  N   UNL A   1      32.865  27.178  21.690  1.00  0.00    -0.326 N 
ATOM     15  C   UNL A   1      32.887  25.814  21.422  1.00  0.00     0.228 C 
ATOM     16  H   UNL A   1      32.947  27.764  20.904  1.00  0.00     0.169 HD
ATOM     17  O   UNL A   1      33.023  25.434  20.259  1.00  0.00    -0.274 OA
BRANCH  15  18
ATOM     18  C   UNL A   1      32.727  24.793  22.550  1.00  0.00     0.095 C 
ATOM     19  C   UNL A   1      31.274  24.520  22.984  1.00  0.00     0.030 C 
ATOM     20  C   UNL A   1      33.289  23.383  22.370  1.00  0.00     0.150 C 
ATOM     21  C   UNL A   1      31.407  23.697  24.260  1.00  0.00     0.138 C 
ATOM     22  S   UNL A   1      32.755  22.576  23.903  1.00  0.00     0.151 S 
ATOM     23  O   UNL A   1      33.768  22.776  24.918  1.00  0.00    -0.229 OA
ATOM     24  O   UNL A   1      32.200  21.272  23.603  1.00  0.00    -0.229 OA
ENDBRANCH  15  18
ENDBRANCH  13  14
ENDBRANCH   6   8
ENDBRANCH   3   4
ENDBRANCH   2   3
ENDBRANCH   1   2
BRANCH   1  25
ATOM     25  C   UNL A   1      34.572  33.734  28.903  1.00  0.00     0.002 C 
BRANCH  25  26
ATOM     26  C   UNL A   1      33.285  34.566  28.907  1.00  0.00     0.021 C 
BRANCH  26  27
ATOM     27  C   UNL A   1      33.418  35.966  29.495  1.00  0.00     0.116 C 
BRANCH  27  28
ATOM     28  N   UNL A   1      32.525  36.177  30.621  1.00  0.00    -0.352 N 
ATOM     29  C   UNL A   1      32.600  35.697  31.903  1.00  0.00     0.251 C 
ATOM     30  H   UNL A   1      31.748  36.754  30.436  1.00  0.00     0.163 HD
ATOM     31  O   UNL A   1      31.648  35.831  32.666  1.00  0.00    -0.269 OA
BRANCH  29  32
ATOM     32  C   UNL A   1      33.817  34.998  32.361  1.00  0.00     0.039 A 
ATOM     33  C   UNL A   1      33.695  33.703  32.871  1.00  0.00     0.014 A 
ATOM     34  C   UNL A   1      35.069  35.617  32.309  1.00  0.00     0.014 A 
ATOM     35  C   UNL A   1      34.836  33.007  33.273  1.00  0.00     0.010 A 
ATOM     36  C   UNL A   1      36.213  34.896  32.637  1.00  0.00     0.010 A 
ATOM     37  C   UNL A   1      36.108  33.585  33.127  1.00  0.00    -0.014 A 
BRANCH  37  38
ATOM     38  C   UNL A   1      37.338  32.829  33.480  1.00  0.00     0.031 A 
ATOM     39  C   UNL A   1      38.081  33.140  34.748  1.00  0.00     0.074 A 
ATOM     40  C   UNL A   1      37.812  31.898  32.628  1.00  0.00     0.049 A 
ATOM     41  N   UNL A   1      39.205  32.636  35.195  1.00  0.00    -0.248 NA
ATOM     42  C   UNL A   1      37.500  34.171  35.621  1.00  0.00     0.031 C 
ATOM     43  C   UNL A   1      37.206  31.539  31.345  1.00  0.00     0.029 A 
ATOM     44  N   UNL A   1      38.922  31.092  32.707  1.00  0.00    -0.354 N 
ATOM     45  C   UNL A   1      39.464  33.289  36.392  1.00  0.00     0.074 A 
ATOM     46  C   UNL A   1      38.416  34.270  36.574  1.00  0.00     0.031 C 
ATOM     47  C   UNL A   1      37.938  30.573  30.767  1.00  0.00     0.029 A 
ATOM     48  C   UNL A   1      39.088  30.277  31.615  1.00  0.00     0.049 A 
ATOM     49  H   UNL A   1      39.538  31.099  33.474  1.00  0.00     0.167 HD
ATOM     50  C   UNL A   1      40.468  33.071  37.274  1.00  0.00     0.037 A 
ATOM     51  C   UNL A   1      40.067  29.399  31.322  1.00  0.00     0.037 A 
ATOM     52  C   UNL A   1      41.503  32.085  37.094  1.00  0.00     0.049 A 
ATOM     53  C   UNL A   1      41.188  29.197  32.307  1.00  0.00     0.074 A 
ATOM     54  C   UNL A   1      42.543  31.762  37.948  1.00  0.00     0.029 A 
ATOM     55  N   UNL A   1      41.631  31.269  35.980  1.00  0.00    -0.354 N 
ATOM     56  N   UNL A   1      41.386  29.776  33.467  1.00  0.00    -0.248 NA
ATOM     57  C   UNL A   1      42.218  28.213  31.946  1.00  0.00     0.031 C 
ATOM     58  C   UNL A   1      43.332  30.788  37.328  1.00  0.00     0.029 A 
ATOM     59  C   UNL A   1      42.747  30.457  36.116  1.00  0.00     0.049 A 
ATOM     60  H   UNL A   1      41.020  31.265  35.209  1.00  0.00     0.167 HD
ATOM     61  C   UNL A   1      42.540  29.205  33.986  1.00  0.00     0.074 A 
ATOM     62  C   UNL A   1      42.988  28.221  33.023  1.00  0.00     0.031 C 
ATOM     63  C   UNL A   1      43.175  29.473  35.154  1.00  0.00     0.037 A 
BRANCH  50  64
ATOM     64  C   UNL A   1      40.496  33.909  38.521  1.00  0.00     0.064 A 
ATOM     65  C   UNL A   1      41.222  35.109  38.584  1.00  0.00     0.173 A 
ATOM     66  C   UNL A   1      39.749  33.537  39.649  1.00  0.00     0.173 A 
ATOM     67  F   UNL A   1      41.962  35.506  37.537  1.00  0.00    -0.203 F 
ATOM     68  C   UNL A   1      41.221  35.889  39.738  1.00  0.00     0.198 A 
ATOM     69  C   UNL A   1      39.722  34.338  40.788  1.00  0.00     0.198 A 
ATOM     70  F   UNL A   1      39.030  32.404  39.642  1.00  0.00    -0.203 F 
ATOM     71  F   UNL A   1      41.962  37.005  39.789  1.00  0.00    -0.200 F 
ATOM     72  C   UNL A   1      40.464  35.508  40.834  1.00  0.00     0.200 A 
ATOM     73  F   UNL A   1      38.977  33.976  41.843  1.00  0.00    -0.200 F 
ATOM     74  F   UNL A   1      40.454  36.266  41.939  1.00  0.00    -0.200 F 
ENDBRANCH  50  64
BRANCH  51  75
ATOM     75  C   UNL A   1      40.033  28.642  30.042  1.00  0.00     0.064 A 
ATOM     76  C   UNL A   1      39.426  27.380  29.962  1.00  0.00     0.173 A 
ATOM     77  C   UNL A   1      40.626  29.153  28.877  1.00  0.00     0.173 A 
ATOM     78  F   UNL A   1      38.863  26.839  31.051  1.00  0.00    -0.203 F 
ATOM     79  C   UNL A   1      39.445  26.645  28.778  1.00  0.00     0.198 A 
ATOM     80  C   UNL A   1      40.612  28.433  27.685  1.00  0.00     0.198 A 
ATOM     81  F   UNL A   1      41.214  30.358  28.897  1.00  0.00    -0.203 F 
ATOM     82  F   UNL A   1      38.912  25.415  28.748  1.00  0.00    -0.200 F 
ATOM     83  C   UNL A   1      40.032  27.174  27.639  1.00  0.00     0.200 A 
ATOM     84  F   UNL A   1      41.166  28.955  26.582  1.00  0.00    -0.200 F 
ATOM     85  F   UNL A   1      40.050  26.467  26.501  1.00  0.00    -0.200 F 
ENDBRANCH  51  75
BRANCH  63  86
ATOM     86  C   UNL A   1      44.395  28.660  35.480  1.00  0.00     0.064 A 
ATOM     87  C   UNL A   1      45.683  29.077  35.111  1.00  0.00     0.173 A 
ATOM     88  C   UNL A   1      44.276  27.465  36.207  1.00  0.00     0.173 A 
ATOM     89  F   UNL A   1      45.852  30.204  34.403  1.00  0.00    -0.203 F 
ATOM     90  C   UNL A   1      46.802  28.311  35.430  1.00  0.00     0.198 A 
ATOM     91  C   UNL A   1      45.401  26.722  36.556  1.00  0.00     0.198 A 
ATOM     92  F   UNL A   1      43.069  27.025  36.594  1.00  0.00    -0.203 F 
ATOM     93  F   UNL A   1      48.017  28.701  35.019  1.00  0.00    -0.200 F 
ATOM     94  C   UNL A   1      46.661  27.141  36.160  1.00  0.00     0.200 A 
ATOM     95  F   UNL A   1      45.263  25.601  37.277  1.00  0.00    -0.200 F 
ATOM     96  F   UNL A   1      47.740  26.412  36.474  1.00  0.00    -0.200 F 
ENDBRANCH  63  86
ENDBRANCH  37  38
ENDBRANCH  29  32
ENDBRANCH  27  28
ENDBRANCH  26  27
ENDBRANCH  25  26
ENDBRANCH   1  25
TORSDOF 15
ENDMDL
MODEL 2
REMARK VINA RESULT:     -11.8      6.773     12.331
REMARK SMILES O=C(NCCCCCCNC(=O)c1ccc(-c2c3nc(c(-c4c(F)c(F)c(F)c(F)c4F)c4ccc([nH]4)c(-c4c(F)c(F)c(F)c(F)c4F)c4nc(c(-c5c(F)c(F)c(F)c(F)c5F)c5ccc2[nH]5)C=C4)C=C3)cc1)c1ccc(NC(=O)[C@H]2CCS(=O)(=O)C2)cc1
REMARK SMILES IDX 6 1 5 2 4 3 3 4 1 5 2 6 76 8 77 9 91 10 78 11 90 12 79 13
REMARK SMILES IDX 80 14 81 15 82 17 83 18 84 19 89 20 85 21 86 22 87 23 88 24
REMARK SMILES IDX 7 25 8 26 9 27 10 28 11 29 12 31 13 32 14 33 75 34 15 35
REMARK SMILES IDX 74 36 16 37 17 38 18 39 68 40 19 41 73 42 67 43 69 44 20 45
REMARK SMILES IDX 72 46 66 47 65 48 21 50 53 51 33 52 52 53 34 54 37 55 51 56
REMARK SMILES IDX 70 57 35 58 36 59 50 61 71 62 38 63 22 64 23 65 31 66 24 67
REMARK SMILES IDX 25 68 29 69 32 70 26 71 27 72 30 73 28 74 54 75 55 76 63 77
REMARK SMILES IDX 56 78 57 79 61 80 64 81 58 82 59 83 62 84 60 85 39 86 40 87
REMARK SMILES IDX 48 88 41 89 42 90 46 91 49 92 43 93 44 94 47 95 45 96
REMARK H PARENT 3 7 80 16 10 30 69 49 37 60
REMARK Flexibility Score: inf
ROOT
ATOM      1  C   UNL A   1      40.642  22.313  26.356  1.00  0.00     0.002 C 
ENDROOT
BRANCH   1   2
ATOM      2  C   UNL A   1      39.195  22.749  26.506  1.00  0.00     0.021 C 
BRANCH   2   3
ATOM      3  C   UNL A   1      38.198  21.885  25.766  1.00  0.00     0.116 C 
BRANCH   3   4
ATOM      4  N   UNL A   1      37.747  22.423  24.483  1.00  0.00    -0.352 N 
ATOM      5  O   UNL A   1      36.347  23.054  22.824  1.00  0.00    -0.269 OA
ATOM      6  C   UNL A   1      36.478  22.662  23.980  1.00  0.00     0.251 C 
ATOM      7  H   UNL A   1      38.477  22.660  23.866  1.00  0.00     0.163 HD
BRANCH   6   8
ATOM      8  C   UNL A   1      35.266  22.460  24.820  1.00  0.00     0.039 A 
ATOM      9  C   UNL A   1      34.962  23.394  25.787  1.00  0.00     0.016 A 
ATOM     10  C   UNL A   1      34.394  21.375  24.673  1.00  0.00     0.016 A 
ATOM     11  C   UNL A   1      34.027  23.124  26.754  1.00  0.00     0.027 A 
ATOM     12  C   UNL A   1      33.224  21.302  25.465  1.00  0.00     0.027 A 
ATOM     13  C   UNL A   1      33.000  22.258  26.462  1.00  0.00     0.041 A 
BRANCH  13  14
ATOM     14  N   UNL A   1      31.724  22.446  27.036  1.00  0.00    -0.326 N 
ATOM     15  C   UNL A   1      30.757  23.399  26.734  1.00  0.00     0.228 C 
ATOM     16  H   UNL A   1      31.486  21.813  27.751  1.00  0.00     0.169 HD
ATOM     17  O   UNL A   1      29.704  23.406  27.372  1.00  0.00    -0.274 OA
BRANCH  15  18
ATOM     18  C   UNL A   1      30.985  24.417  25.615  1.00  0.00     0.095 C 
ATOM     19  C   UNL A   1      30.679  23.905  24.194  1.00  0.00     0.030 C 
ATOM     20  C   UNL A   1      30.243  25.752  25.654  1.00  0.00     0.150 C 
ATOM     21  C   UNL A   1      31.227  24.990  23.274  1.00  0.00     0.138 C 
ATOM     22  S   UNL A   1      30.773  26.513  24.097  1.00  0.00     0.151 S 
ATOM     23  O   UNL A   1      31.990  27.261  24.329  1.00  0.00    -0.229 OA
ATOM     24  O   UNL A   1      29.629  27.079  23.413  1.00  0.00    -0.229 OA
ENDBRANCH  15  18
ENDBRANCH  13  14
ENDBRANCH   6   8
ENDBRANCH   3   4
ENDBRANCH   2   3
ENDBRANCH   1   2
BRANCH   1  25
ATOM     25  C   UNL A   1      41.004  20.993  27.046  1.00  0.00     0.002 C 
BRANCH  25  26
ATOM     26  C   UNL A   1      41.376  19.825  26.124  1.00  0.00     0.021 C 
BRANCH  26  27
ATOM     27  C   UNL A   1      42.665  19.096  26.487  1.00  0.00     0.116 C 
BRANCH  27  28
ATOM     28  N   UNL A   1      43.449  18.748  25.315  1.00  0.00    -0.352 N 
ATOM     29  C   UNL A   1      44.222  19.542  24.508  1.00  0.00     0.251 C 
ATOM     30  H   UNL A   1      43.421  17.797  25.061  1.00  0.00     0.163 HD
ATOM     31  O   UNL A   1      44.660  19.101  23.450  1.00  0.00    -0.269 OA
BRANCH  29  32
ATOM     32  C   UNL A   1      44.512  20.936  24.901  1.00  0.00     0.039 A 
ATOM     33  C   UNL A   1      44.115  21.969  24.048  1.00  0.00     0.014 A 
ATOM     34  C   UNL A   1      45.187  21.227  26.090  1.00  0.00     0.014 A 
ATOM     35  C   UNL A   1      44.343  23.296  24.417  1.00  0.00     0.010 A 
ATOM     36  C   UNL A   1      45.345  22.550  26.492  1.00  0.00     0.010 A 
ATOM     37  C   UNL A   1      44.928  23.598  25.657  1.00  0.00    -0.014 A 
BRANCH  37  38
ATOM     38  C   UNL A   1      45.108  25.006  26.097  1.00  0.00     0.031 A 
ATOM     39  C   UNL A   1      46.462  25.655  26.029  1.00  0.00     0.074 A 
ATOM     40  C   UNL A   1      44.058  25.681  26.607  1.00  0.00     0.049 A 
ATOM     41  N   UNL A   1      46.830  26.847  26.425  1.00  0.00    -0.248 NA
ATOM     42  C   UNL A   1      47.555  24.849  25.464  1.00  0.00     0.031 C 
ATOM     43  C   UNL A   1      42.706  25.146  26.767  1.00  0.00     0.029 A 
ATOM     44  N   UNL A   1      43.968  26.962  27.096  1.00  0.00    -0.354 N 
ATOM     45  C   UNL A   1      48.190  26.931  26.161  1.00  0.00     0.074 A 
ATOM     46  C   UNL A   1      48.597  25.649  25.629  1.00  0.00     0.031 C 
ATOM     47  C   UNL A   1      41.917  26.094  27.298  1.00  0.00     0.029 A 
ATOM     48  C   UNL A   1      42.717  27.287  27.557  1.00  0.00     0.049 A 
ATOM     49  H   UNL A   1      44.729  27.586  27.114  1.00  0.00     0.167 HD
ATOM     50  C   UNL A   1      49.018  27.991  26.320  1.00  0.00     0.037 A 
ATOM     51  C   UNL A   1      42.267  28.416  28.138  1.00  0.00     0.037 A 
ATOM     52  C   UNL A   1      48.606  29.270  26.840  1.00  0.00     0.049 A 
ATOM     53  C   UNL A   1      43.216  29.569  28.330  1.00  0.00     0.074 A 
ATOM     54  C   UNL A   1      49.361  30.418  27.005  1.00  0.00     0.029 A 
ATOM     55  N   UNL A   1      47.325  29.566  27.284  1.00  0.00    -0.354 N 
ATOM     56  N   UNL A   1      44.486  29.658  28.016  1.00  0.00    -0.248 NA
ATOM     57  C   UNL A   1      42.667  30.782  28.951  1.00  0.00     0.031 C 
ATOM     58  C   UNL A   1      48.553  31.392  27.599  1.00  0.00     0.029 A 
ATOM     59  C   UNL A   1      47.276  30.873  27.744  1.00  0.00     0.049 A 
ATOM     60  H   UNL A   1      46.565  28.941  27.274  1.00  0.00     0.167 HD
ATOM     61  C   UNL A   1      44.878  30.942  28.370  1.00  0.00     0.074 A 
ATOM     62  C   UNL A   1      43.706  31.603  28.906  1.00  0.00     0.031 C 
ATOM     63  C   UNL A   1      46.099  31.522  28.264  1.00  0.00     0.037 A 
BRANCH  50  64
ATOM     64  C   UNL A   1      50.456  27.818  25.922  1.00  0.00     0.064 A 
ATOM     65  C   UNL A   1      51.448  27.505  26.865  1.00  0.00     0.173 A 
ATOM     66  C   UNL A   1      50.843  27.917  24.577  1.00  0.00     0.173 A 
ATOM     67  F   UNL A   1      51.135  27.409  28.167  1.00  0.00    -0.203 F 
ATOM     68  C   UNL A   1      52.774  27.324  26.481  1.00  0.00     0.198 A 
ATOM     69  C   UNL A   1      52.164  27.700  24.191  1.00  0.00     0.198 A 
ATOM     70  F   UNL A   1      49.936  28.207  23.631  1.00  0.00    -0.203 F 
ATOM     71  F   UNL A   1      53.709  27.073  27.408  1.00  0.00    -0.200 F 
ATOM     72  C   UNL A   1      53.129  27.412  25.145  1.00  0.00     0.200 A 
ATOM     73  F   UNL A   1      52.503  27.771  22.896  1.00  0.00    -0.200 F 
ATOM     74  F   UNL A   1      54.403  27.226  24.774  1.00  0.00    -0.200 F 
ENDBRANCH  50  64
BRANCH  51  75
ATOM     75  C   UNL A   1      40.849  28.516  28.580  1.00  0.00     0.064 A 
ATOM     76  C   UNL A   1      39.851  28.981  27.712  1.00  0.00     0.173 A 
ATOM     77  C   UNL A   1      40.467  28.169  29.885  1.00  0.00     0.173 A 
ATOM     78  F   UNL A   1      40.168  29.344  26.460  1.00  0.00    -0.203 F 
ATOM     79  C   UNL A   1      38.534  29.130  28.142  1.00  0.00     0.198 A 
ATOM     80  C   UNL A   1      39.143  28.284  30.301  1.00  0.00     0.198 A 
ATOM     81  F   UNL A   1      41.380  27.712  30.753  1.00  0.00    -0.203 F 
ATOM     82  F   UNL A   1      37.614  29.636  27.309  1.00  0.00    -0.200 F 
ATOM     83  C   UNL A   1      38.180  28.775  29.434  1.00  0.00     0.200 A 
ATOM     84  F   UNL A   1      38.801  27.924  31.547  1.00  0.00    -0.200 F 
ATOM     85  F   UNL A   1      36.913  28.918  29.847  1.00  0.00    -0.200 F 
ENDBRANCH  51  75
BRANCH  63  86
ATOM     86  C   UNL A   1      46.222  32.956  28.691  1.00  0.00     0.064 A 
ATOM     87  C   UNL A   1      46.582  33.311  30.001  1.00  0.00     0.173 A 
ATOM     88  C   UNL A   1      46.015  33.991  27.766  1.00  0.00     0.173 A 
ATOM     89  F   UNL A   1      46.778  32.361  30.928  1.00  0.00    -0.203 F 
ATOM     90  C   UNL A   1      46.698  34.648  30.374  1.00  0.00     0.198 A 
ATOM     91  C   UNL A   1      46.168  35.325  28.134  1.00  0.00     0.198 A 
ATOM     92  F   UNL A   1      45.678  33.709  26.498  1.00  0.00    -0.203 F 
ATOM     93  F   UNL A   1      46.989  34.963  31.644  1.00  0.00    -0.200 F 
ATOM     94  C   UNL A   1      46.501  35.652  29.439  1.00  0.00     0.200 A 
ATOM     95  F   UNL A   1      45.994  36.293  27.224  1.00  0.00    -0.200 F 
ATOM     96  F   UNL A   1      46.623  36.937  29.798  1.00  0.00    -0.200 F 
ENDBRANCH  63  86
ENDBRANCH  37  38
ENDBRANCH  29  32
ENDBRANCH  27  28
ENDBRANCH  26  27
ENDBRANCH  25  26
ENDBRANCH   1  25
TORSDOF 15
ENDMDL
MODEL 3
REMARK VINA RESULT:     -11.7      2.226      7.941
REMARK SMILES O=C(NCCCCCCNC(=O)c1ccc(-c2c3nc(c(-c4c(F)c(F)c(F)c(F)c4F)c4ccc([nH]4)c(-c4c(F)c(F)c(F)c(F)c4F)c4nc(c(-c5c(F)c(F)c(F)c(F)c5F)c5ccc2[nH]5)C=C4)C=C3)cc1)c1ccc(NC(=O)[C@H]2CCS(=O)(=O)C2)cc1
REMARK SMILES IDX 6 1 5 2 4 3 3 4 1 5 2 6 76 8 77 9 91 10 78 11 90 12 79 13
REMARK SMILES IDX 80 14 81 15 82 17 83 18 84 19 89 20 85 21 86 22 87 23 88 24
REMARK SMILES IDX 7 25 8 26 9 27 10 28 11 29 12 31 13 32 14 33 75 34 15 35
REMARK SMILES IDX 74 36 16 37 17 38 18 39 68 40 19 41 73 42 67 43 69 44 20 45
REMARK SMILES IDX 72 46 66 47 65 48 21 50 53 51 33 52 52 53 34 54 37 55 51 56
REMARK SMILES IDX 70 57 35 58 36 59 50 61 71 62 38 63 22 64 23 65 31 66 24 67
REMARK SMILES IDX 25 68 29 69 32 70 26 71 27 72 30 73 28 74 54 75 55 76 63 77
REMARK SMILES IDX 56 78 57 79 61 80 64 81 58 82 59 83 62 84 60 85 39 86 40 87
REMARK SMILES IDX 48 88 41 89 42 90 46 91 49 92 43 93 44 94 47 95 45 96
REMARK H PARENT 3 7 80 16 10 30 69 49 37 60
REMARK Flexibility Score: inf
ROOT
ATOM      1  C   UNL A   1      32.619  29.993  25.892  1.00  0.00     0.002 C 
ENDROOT
BRANCH   1   2
ATOM      2  C   UNL A   1      32.478  28.500  25.649  1.00  0.00     0.021 C 
BRANCH   2   3
ATOM      3  C   UNL A   1      32.285  27.675  26.903  1.00  0.00     0.116 C 
BRANCH   3   4
ATOM      4  N   UNL A   1      31.285  26.614  26.794  1.00  0.00    -0.352 N 
ATOM      5  O   UNL A   1      30.392  24.576  26.389  1.00  0.00    -0.269 OA
ATOM      6  C   UNL A   1      31.403  25.264  26.502  1.00  0.00     0.251 C 
ATOM      7  H   UNL A   1      30.361  26.912  26.958  1.00  0.00     0.163 HD
BRANCH   6   8
ATOM      8  C   UNL A   1      32.737  24.627  26.331  1.00  0.00     0.039 A 
ATOM      9  C   UNL A   1      32.996  23.439  26.980  1.00  0.00     0.016 A 
ATOM     10  C   UNL A   1      33.751  25.158  25.526  1.00  0.00     0.016 A 
ATOM     11  C   UNL A   1      34.277  22.956  27.075  1.00  0.00     0.027 A 
ATOM     12  C   UNL A   1      34.963  24.446  25.362  1.00  0.00     0.027 A 
ATOM     13  C   UNL A   1      35.180  23.269  26.087  1.00  0.00     0.041 A 
BRANCH  13  14
ATOM     14  N   UNL A   1      36.185  22.348  25.722  1.00  0.00    -0.326 N 
ATOM     15  C   UNL A   1      36.054  21.048  25.246  1.00  0.00     0.228 C 
ATOM     16  H   UNL A   1      37.110  22.672  25.818  1.00  0.00     0.169 HD
ATOM     17  O   UNL A   1      37.068  20.395  25.001  1.00  0.00    -0.274 OA
BRANCH  15  18
ATOM     18  C   UNL A   1      34.671  20.437  25.013  1.00  0.00     0.095 C 
ATOM     19  C   UNL A   1      33.824  21.132  23.929  1.00  0.00     0.030 C 
ATOM     20  C   UNL A   1      34.559  18.963  24.626  1.00  0.00     0.150 C 
ATOM     21  C   UNL A   1      32.437  20.517  24.079  1.00  0.00     0.138 C 
ATOM     22  S   UNL A   1      32.772  18.784  24.374  1.00  0.00     0.151 S 
ATOM     23  O   UNL A   1      32.153  18.429  25.633  1.00  0.00    -0.229 OA
ATOM     24  O   UNL A   1      32.520  18.053  23.149  1.00  0.00    -0.229 OA
ENDBRANCH  15  18
ENDBRANCH  13  14
ENDBRANCH   6   8
ENDBRANCH   3   4
ENDBRANCH   2   3
ENDBRANCH   1   2
BRANCH   1  25
ATOM     25  C   UNL A   1      31.387  30.680  26.492  1.00  0.00     0.002 C 
BRANCH  25  26
ATOM     26  C   UNL A   1      31.418  32.212  26.538  1.00  0.00     0.021 C 
BRANCH  26  27
ATOM     27  C   UNL A   1      32.626  32.816  27.246  1.00  0.00     0.116 C 
BRANCH  27  28
ATOM     28  N   UNL A   1      32.404  34.201  27.626  1.00  0.00    -0.352 N 
ATOM     29  C   UNL A   1      32.982  34.940  28.625  1.00  0.00     0.251 C 
ATOM     30  H   UNL A   1      31.739  34.681  27.082  1.00  0.00     0.163 HD
ATOM     31  O   UNL A   1      32.529  36.044  28.914  1.00  0.00    -0.269 OA
BRANCH  29  32
ATOM     32  C   UNL A   1      34.138  34.402  29.370  1.00  0.00     0.039 A 
ATOM     33  C   UNL A   1      33.909  33.758  30.589  1.00  0.00     0.014 A 
ATOM     34  C   UNL A   1      35.441  34.545  28.885  1.00  0.00     0.014 A 
ATOM     35  C   UNL A   1      34.981  33.206  31.292  1.00  0.00     0.010 A 
ATOM     36  C   UNL A   1      36.498  33.928  29.547  1.00  0.00     0.010 A 
ATOM     37  C   UNL A   1      36.280  33.256  30.760  1.00  0.00    -0.014 A 
BRANCH  37  38
ATOM     38  C   UNL A   1      37.419  32.607  31.459  1.00  0.00     0.031 A 
ATOM     39  C   UNL A   1      38.129  31.440  30.831  1.00  0.00     0.074 A 
ATOM     40  C   UNL A   1      37.779  33.039  32.684  1.00  0.00     0.049 A 
ATOM     41  N   UNL A   1      39.098  30.703  31.313  1.00  0.00    -0.248 NA
ATOM     42  C   UNL A   1      37.673  31.029  29.495  1.00  0.00     0.031 C 
ATOM     43  C   UNL A   1      37.139  34.132  33.417  1.00  0.00     0.029 A 
ATOM     44  N   UNL A   1      38.765  32.601  33.535  1.00  0.00    -0.354 N 
ATOM     45  C   UNL A   1      39.364  29.745  30.344  1.00  0.00     0.074 A 
ATOM     46  C   UNL A   1      38.412  29.952  29.274  1.00  0.00     0.031 C 
ATOM     47  C   UNL A   1      37.758  34.293  34.597  1.00  0.00     0.029 A 
ATOM     48  C   UNL A   1      38.808  33.287  34.724  1.00  0.00     0.049 A 
ATOM     49  H   UNL A   1      39.381  31.867  33.313  1.00  0.00     0.167 HD
ATOM     50  C   UNL A   1      40.331  28.797  30.335  1.00  0.00     0.037 A 
ATOM     51  C   UNL A   1      39.597  33.114  35.803  1.00  0.00     0.037 A 
ATOM     52  C   UNL A   1      41.283  28.602  31.398  1.00  0.00     0.049 A 
ATOM     53  C   UNL A   1      40.645  32.034  35.778  1.00  0.00     0.074 A 
ATOM     54  C   UNL A   1      42.325  27.694  31.467  1.00  0.00     0.029 A 
ATOM     55  N   UNL A   1      41.304  29.326  32.582  1.00  0.00    -0.354 N 
ATOM     56  N   UNL A   1      40.927  31.175  34.828  1.00  0.00    -0.248 NA
ATOM     57  C   UNL A   1      41.489  31.903  36.973  1.00  0.00     0.031 C 
ATOM     58  C   UNL A   1      42.942  27.830  32.714  1.00  0.00     0.029 A 
ATOM     59  C   UNL A   1      42.328  28.868  33.396  1.00  0.00     0.049 A 
ATOM     60  H   UNL A   1      40.685  30.056  32.809  1.00  0.00     0.167 HD
ATOM     61  C   UNL A   1      41.999  30.427  35.296  1.00  0.00     0.074 A 
ATOM     62  C   UNL A   1      42.328  30.945  36.607  1.00  0.00     0.031 C 
ATOM     63  C   UNL A   1      42.652  29.401  34.696  1.00  0.00     0.037 A 
BRANCH  50  64
ATOM     64  C   UNL A   1      40.416  27.899  29.134  1.00  0.00     0.064 A 
ATOM     65  C   UNL A   1      39.671  26.712  29.050  1.00  0.00     0.173 A 
ATOM     66  C   UNL A   1      41.210  28.251  28.032  1.00  0.00     0.173 A 
ATOM     67  F   UNL A   1      38.902  26.323  30.079  1.00  0.00    -0.203 F 
ATOM     68  C   UNL A   1      39.740  25.899  27.921  1.00  0.00     0.198 A 
ATOM     69  C   UNL A   1      41.249  27.453  26.891  1.00  0.00     0.198 A 
ATOM     70  F   UNL A   1      41.939  29.378  28.055  1.00  0.00    -0.203 F 
ATOM     71  F   UNL A   1      39.056  24.747  27.886  1.00  0.00    -0.200 F 
ATOM     72  C   UNL A   1      40.520  26.275  26.840  1.00  0.00     0.200 A 
ATOM     73  F   UNL A   1      41.994  27.826  25.840  1.00  0.00    -0.200 F 
ATOM     74  F   UNL A   1      40.577  25.498  25.750  1.00  0.00    -0.200 F 
ENDBRANCH  50  64
BRANCH  51  75
ATOM     75  C   UNL A   1      39.429  33.984  36.998  1.00  0.00     0.064 A 
ATOM     76  C   UNL A   1      40.047  35.241  37.071  1.00  0.00     0.173 A 
ATOM     77  C   UNL A   1      38.666  33.569  38.100  1.00  0.00     0.173 A 
ATOM     78  F   UNL A   1      40.802  35.676  36.052  1.00  0.00    -0.203 F 
ATOM     79  C   UNL A   1      39.938  36.032  38.213  1.00  0.00     0.198 A 
ATOM     80  C   UNL A   1      38.529  34.377  39.226  1.00  0.00     0.198 A 
ATOM     81  F   UNL A   1      38.049  32.379  38.079  1.00  0.00    -0.203 F 
ATOM     82  F   UNL A   1      40.591  37.201  38.279  1.00  0.00    -0.200 F 
ATOM     83  C   UNL A   1      39.174  35.603  39.287  1.00  0.00     0.200 A 
ATOM     84  F   UNL A   1      37.776  33.965  40.256  1.00  0.00    -0.200 F 
ATOM     85  F   UNL A   1      39.070  36.363  40.385  1.00  0.00    -0.200 F 
ENDBRANCH  51  75
BRANCH  63  86
ATOM     86  C   UNL A   1      43.817  28.799  35.428  1.00  0.00     0.064 A 
ATOM     87  C   UNL A   1      43.661  27.711  36.300  1.00  0.00     0.173 A 
ATOM     88  C   UNL A   1      45.113  29.295  35.225  1.00  0.00     0.173 A 
ATOM     89  F   UNL A   1      42.441  27.207  36.541  1.00  0.00    -0.203 F 
ATOM     90  C   UNL A   1      44.756  27.163  36.964  1.00  0.00     0.198 A 
ATOM     91  C   UNL A   1      46.211  28.722  35.862  1.00  0.00     0.198 A 
ATOM     92  F   UNL A   1      45.321  30.329  34.395  1.00  0.00    -0.203 F 
ATOM     93  F   UNL A   1      44.577  26.159  37.834  1.00  0.00    -0.200 F 
ATOM     94  C   UNL A   1      46.030  27.662  36.737  1.00  0.00     0.200 A 
ATOM     95  F   UNL A   1      47.442  29.194  35.627  1.00  0.00    -0.200 F 
ATOM     96  F   UNL A   1      47.083  27.127  37.369  1.00  0.00    -0.200 F 
ENDBRANCH  63  86
ENDBRANCH  37  38
ENDBRANCH  29  32
ENDBRANCH  27  28
ENDBRANCH  26  27
ENDBRANCH  25  26
ENDBRANCH   1  25
TORSDOF 15
ENDMDL
