MODEL 1
REMARK VINA RESULT:     -11.4      0.000      0.000
REMARK SMILES O=C(CSc1nc2cnccc2n1CCC(F)(F)F)NCCCCCCNC(=O)c1ccc(-c2c3nc(c(-c4c(F)c(F)c(F)c(F)c4F)c4ccc([nH]4)c(-c4c(F)c(F)c(F)c(F)c4F)c4nc(c(-c5c(F)c(F)c(F)c(F)c5F)c5ccc2[nH]5)C=C4)C=C3)cc1
REMARK SMILES IDX 22 1 21 2 20 3 1 4 2 5 3 7 4 8 5 9 6 10 13 11 7 12 12 13
REMARK SMILES IDX 8 14 11 15 9 16 10 17 14 18 15 19 16 20 17 21 18 22 19 23
REMARK SMILES IDX 23 24 24 25 25 26 26 27 27 28 28 29 29 31 30 32 31 33 92 34
REMARK SMILES IDX 32 35 91 36 33 37 34 38 35 39 85 40 36 41 90 42 84 43 86 44
REMARK SMILES IDX 37 45 89 46 83 47 82 48 38 50 70 51 50 52 69 53 51 54 54 55
REMARK SMILES IDX 68 56 87 57 52 58 53 59 67 61 88 62 55 63 39 64 40 65 48 66
REMARK SMILES IDX 41 67 42 68 46 69 49 70 43 71 44 72 47 73 45 74 71 75 72 76
REMARK SMILES IDX 80 77 73 78 74 79 78 80 81 81 75 82 76 83 79 84 77 85 56 86
REMARK SMILES IDX 57 87 65 88 58 89 59 90 63 91 66 92 60 93 61 94 64 95 62 96
REMARK H PARENT 20 6 27 30 86 49 54 60
REMARK Flexibility Score: inf
ROOT
ATOM      1  C   UNL A   1      40.626  21.406  27.277  1.00  0.00     0.021 C 
ENDROOT
BRANCH   1   2
ATOM      2  C   UNL A   1      39.551  21.082  26.241  1.00  0.00     0.116 C 
BRANCH   2   3
ATOM      3  N   UNL A   1      38.797  22.263  25.876  1.00  0.00    -0.355 N 
ATOM      4  O   UNL A   1      37.093  21.109  24.873  1.00  0.00    -0.274 OA
ATOM      5  C   UNL A   1      37.588  22.172  25.208  1.00  0.00     0.230 C 
ATOM      6  H   UNL A   1      39.152  23.152  26.109  1.00  0.00     0.163 HD
BRANCH   5   7
ATOM      7  C   UNL A   1      37.001  23.491  24.739  1.00  0.00     0.178 C 
BRANCH   7   8
ATOM      8  S   UNL A   1      35.665  23.388  23.539  1.00  0.00    -0.078 SA
BRANCH   8   9
ATOM      9  C   UNL A   1      34.214  23.471  24.477  1.00  0.00     0.169 A 
ATOM     10  N   UNL A   1      33.792  24.531  25.118  1.00  0.00    -0.221 NA
ATOM     11  N   UNL A   1      33.318  22.429  24.564  1.00  0.00    -0.318 N 
ATOM     12  C   UNL A   1      32.600  24.166  25.695  1.00  0.00     0.108 A 
ATOM     13  C   UNL A   1      32.289  22.840  25.391  1.00  0.00     0.072 A 
ATOM     14  C   UNL A   1      31.723  24.899  26.500  1.00  0.00     0.141 A 
ATOM     15  C   UNL A   1      31.148  22.217  25.903  1.00  0.00     0.049 A 
ATOM     16  N   UNL A   1      30.603  24.317  27.005  1.00  0.00    -0.262 NA
ATOM     17  C   UNL A   1      30.353  23.021  26.712  1.00  0.00     0.113 A 
BRANCH  11  18
ATOM     18  C   UNL A   1      33.442  21.097  23.997  1.00  0.00     0.134 C 
BRANCH  18  19
ATOM     19  C   UNL A   1      33.741  19.979  24.993  1.00  0.00     0.137 C 
BRANCH  19  20
ATOM     20  C   UNL A   1      33.134  18.647  24.624  1.00  0.00     0.390 C 
ATOM     21  F   UNL A   1      34.084  17.704  24.464  1.00  0.00    -0.171 F 
ATOM     22  F   UNL A   1      32.310  18.221  25.609  1.00  0.00    -0.171 F 
ATOM     23  F   UNL A   1      32.398  18.721  23.498  1.00  0.00    -0.171 F 
ENDBRANCH  19  20
ENDBRANCH  18  19
ENDBRANCH  11  18
ENDBRANCH   8   9
ENDBRANCH   7   8
ENDBRANCH   5   7
ENDBRANCH   2   3
ENDBRANCH   1   2
BRANCH   1  24
ATOM     24  C   UNL A   1      42.013  20.847  26.939  1.00  0.00     0.002 C 
BRANCH  24  25
ATOM     25  C   UNL A   1      42.283  19.424  27.444  1.00  0.00     0.002 C 
BRANCH  25  26
ATOM     26  C   UNL A   1      42.700  18.407  26.373  1.00  0.00     0.021 C 
BRANCH  26  27
ATOM     27  C   UNL A   1      44.176  18.471  25.974  1.00  0.00     0.116 C 
BRANCH  27  28
ATOM     28  N   UNL A   1      44.390  18.931  24.618  1.00  0.00    -0.352 N 
ATOM     29  C   UNL A   1      44.677  20.136  24.040  1.00  0.00     0.251 C 
ATOM     30  H   UNL A   1      44.312  18.206  23.956  1.00  0.00     0.163 HD
ATOM     31  O   UNL A   1      44.887  20.120  22.825  1.00  0.00    -0.269 OA
BRANCH  29  32
ATOM     32  C   UNL A   1      44.696  21.447  24.748  1.00  0.00     0.039 A 
ATOM     33  C   UNL A   1      45.495  21.771  25.846  1.00  0.00     0.014 A 
ATOM     34  C   UNL A   1      43.779  22.410  24.283  1.00  0.00     0.014 A 
ATOM     35  C   UNL A   1      45.314  22.972  26.523  1.00  0.00     0.010 A 
ATOM     36  C   UNL A   1      43.609  23.623  24.943  1.00  0.00     0.010 A 
ATOM     37  C   UNL A   1      44.341  23.879  26.099  1.00  0.00    -0.014 A 
BRANCH  37  38
ATOM     38  C   UNL A   1      44.146  25.085  26.899  1.00  0.00     0.031 A 
ATOM     39  C   UNL A   1      45.188  26.150  26.775  1.00  0.00     0.074 A 
ATOM     40  C   UNL A   1      43.042  25.284  27.645  1.00  0.00     0.049 A 
ATOM     41  N   UNL A   1      45.874  26.730  27.710  1.00  0.00    -0.248 NA
ATOM     42  C   UNL A   1      45.538  26.595  25.417  1.00  0.00     0.031 C 
ATOM     43  C   UNL A   1      41.805  24.500  27.667  1.00  0.00     0.029 A 
ATOM     44  N   UNL A   1      42.764  26.321  28.486  1.00  0.00    -0.354 N 
ATOM     45  C   UNL A   1      46.657  27.698  27.080  1.00  0.00     0.074 A 
ATOM     46  C   UNL A   1      46.464  27.521  25.662  1.00  0.00     0.031 C 
ATOM     47  C   UNL A   1      40.841  25.207  28.295  1.00  0.00     0.029 A 
ATOM     48  C   UNL A   1      41.427  26.422  28.835  1.00  0.00     0.049 A 
ATOM     49  H   UNL A   1      43.452  26.944  28.814  1.00  0.00     0.167 HD
ATOM     50  C   UNL A   1      47.319  28.675  27.761  1.00  0.00     0.037 A 
ATOM     51  C   UNL A   1      40.836  27.475  29.448  1.00  0.00     0.037 A 
ATOM     52  C   UNL A   1      47.498  28.346  29.145  1.00  0.00     0.049 A 
ATOM     53  C   UNL A   1      41.898  28.273  30.107  1.00  0.00     0.074 A 
ATOM     54  C   UNL A   1      48.197  27.366  29.822  1.00  0.00     0.029 A 
ATOM     55  N   UNL A   1      46.666  28.909  30.076  1.00  0.00    -0.354 N 
ATOM     56  N   UNL A   1      42.579  27.881  31.146  1.00  0.00    -0.248 NA
ATOM     57  C   UNL A   1      42.481  29.373  29.356  1.00  0.00     0.031 C 
ATOM     58  C   UNL A   1      47.398  27.062  30.963  1.00  0.00     0.029 A 
ATOM     59  C   UNL A   1      46.282  27.898  30.919  1.00  0.00     0.049 A 
ATOM     60  H   UNL A   1      46.398  29.855  30.130  1.00  0.00     0.167 HD
ATOM     61  C   UNL A   1      43.853  28.389  30.945  1.00  0.00     0.074 A 
ATOM     62  C   UNL A   1      43.706  29.380  29.884  1.00  0.00     0.031 C 
ATOM     63  C   UNL A   1      44.952  27.768  31.462  1.00  0.00     0.037 A 
BRANCH  50  64
ATOM     64  C   UNL A   1      47.609  30.049  27.218  1.00  0.00     0.064 A 
ATOM     65  C   UNL A   1      48.921  30.564  27.246  1.00  0.00     0.173 A 
ATOM     66  C   UNL A   1      46.594  30.982  26.919  1.00  0.00     0.173 A 
ATOM     67  F   UNL A   1      49.960  29.773  27.553  1.00  0.00    -0.203 F 
ATOM     68  C   UNL A   1      49.186  31.921  27.032  1.00  0.00     0.198 A 
ATOM     69  C   UNL A   1      46.866  32.323  26.656  1.00  0.00     0.198 A 
ATOM     70  F   UNL A   1      45.297  30.648  26.973  1.00  0.00    -0.203 F 
ATOM     71  F   UNL A   1      50.436  32.384  27.169  1.00  0.00    -0.200 F 
ATOM     72  C   UNL A   1      48.159  32.798  26.737  1.00  0.00     0.200 A 
ATOM     73  F   UNL A   1      45.856  33.164  26.395  1.00  0.00    -0.200 F 
ATOM     74  F   UNL A   1      48.406  34.106  26.581  1.00  0.00    -0.200 F 
ENDBRANCH  50  64
BRANCH  51  75
ATOM     75  C   UNL A   1      39.479  28.017  29.204  1.00  0.00     0.064 A 
ATOM     76  C   UNL A   1      38.565  28.168  30.258  1.00  0.00     0.173 A 
ATOM     77  C   UNL A   1      39.156  28.665  27.995  1.00  0.00     0.173 A 
ATOM     78  F   UNL A   1      38.820  27.621  31.455  1.00  0.00    -0.203 F 
ATOM     79  C   UNL A   1      37.412  28.947  30.120  1.00  0.00     0.198 A 
ATOM     80  C   UNL A   1      38.000  29.432  27.856  1.00  0.00     0.198 A 
ATOM     81  F   UNL A   1      40.004  28.650  26.957  1.00  0.00    -0.203 F 
ATOM     82  F   UNL A   1      36.597  29.126  31.169  1.00  0.00    -0.200 F 
ATOM     83  C   UNL A   1      37.137  29.586  28.923  1.00  0.00     0.200 A 
ATOM     84  F   UNL A   1      37.764  30.073  26.702  1.00  0.00    -0.200 F 
ATOM     85  F   UNL A   1      36.066  30.384  28.810  1.00  0.00    -0.200 F 
ENDBRANCH  51  75
BRANCH  63  86
ATOM     86  C   UNL A   1      44.732  26.674  32.467  1.00  0.00     0.064 A 
ATOM     87  C   UNL A   1      44.529  25.327  32.119  1.00  0.00     0.173 A 
ATOM     88  C   UNL A   1      44.885  26.971  33.828  1.00  0.00     0.173 A 
ATOM     89  F   UNL A   1      44.483  24.947  30.836  1.00  0.00    -0.203 F 
ATOM     90  C   UNL A   1      44.433  24.334  33.092  1.00  0.00     0.198 A 
ATOM     91  C   UNL A   1      44.827  25.972  34.797  1.00  0.00     0.198 A 
ATOM     92  F   UNL A   1      45.144  28.230  34.217  1.00  0.00    -0.203 F 
ATOM     93  F   UNL A   1      44.226  23.058  32.734  1.00  0.00    -0.200 F 
ATOM     94  C   UNL A   1      44.590  24.657  34.429  1.00  0.00     0.200 A 
ATOM     95  F   UNL A   1      45.032  26.280  36.084  1.00  0.00    -0.200 F 
ATOM     96  F   UNL A   1      44.543  23.696  35.363  1.00  0.00    -0.200 F 
ENDBRANCH  63  86
ENDBRANCH  37  38
ENDBRANCH  29  32
ENDBRANCH  27  28
ENDBRANCH  26  27
ENDBRANCH  25  26
ENDBRANCH  24  25
ENDBRANCH   1  24
TORSDOF 18
ENDMDL
MODEL 2
REMARK VINA RESULT:     -11.4      3.299      4.980
REMARK SMILES O=C(CSc1nc2cnccc2n1CCC(F)(F)F)NCCCCCCNC(=O)c1ccc(-c2c3nc(c(-c4c(F)c(F)c(F)c(F)c4F)c4ccc([nH]4)c(-c4c(F)c(F)c(F)c(F)c4F)c4nc(c(-c5c(F)c(F)c(F)c(F)c5F)c5ccc2[nH]5)C=C4)C=C3)cc1
REMARK SMILES IDX 22 1 21 2 20 3 1 4 2 5 3 7 4 8 5 9 6 10 13 11 7 12 12 13
REMARK SMILES IDX 8 14 11 15 9 16 10 17 14 18 15 19 16 20 17 21 18 22 19 23
REMARK SMILES IDX 23 24 24 25 25 26 26 27 27 28 28 29 29 31 30 32 31 33 92 34
REMARK SMILES IDX 32 35 91 36 33 37 34 38 35 39 85 40 36 41 90 42 84 43 86 44
REMARK SMILES IDX 37 45 89 46 83 47 82 48 38 50 70 51 50 52 69 53 51 54 54 55
REMARK SMILES IDX 68 56 87 57 52 58 53 59 67 61 88 62 55 63 39 64 40 65 48 66
REMARK SMILES IDX 41 67 42 68 46 69 49 70 43 71 44 72 47 73 45 74 71 75 72 76
REMARK SMILES IDX 80 77 73 78 74 79 78 80 81 81 75 82 76 83 79 84 77 85 56 86
REMARK SMILES IDX 57 87 65 88 58 89 59 90 63 91 66 92 60 93 61 94 64 95 62 96
REMARK H PARENT 20 6 27 30 86 49 54 60
REMARK Flexibility Score: inf
ROOT
ATOM      1  C   UNL A   1      35.594  23.701  25.828  1.00  0.00     0.021 C 
ENDROOT
BRANCH   1   2
ATOM      2  C   UNL A   1      34.727  22.447  25.937  1.00  0.00     0.116 C 
BRANCH   2   3
ATOM      3  N   UNL A   1      33.318  22.779  25.929  1.00  0.00    -0.355 N 
ATOM      4  O   UNL A   1      33.049  22.552  28.191  1.00  0.00    -0.274 OA
ATOM      5  C   UNL A   1      32.576  22.811  27.098  1.00  0.00     0.230 C 
ATOM      6  H   UNL A   1      32.876  22.985  25.073  1.00  0.00     0.163 HD
BRANCH   5   7
ATOM      7  C   UNL A   1      31.081  23.001  26.917  1.00  0.00     0.178 C 
BRANCH   7   8
ATOM      8  S   UNL A   1      30.563  23.884  25.439  1.00  0.00    -0.078 SA
BRANCH   8   9
ATOM      9  C   UNL A   1      31.092  25.514  25.683  1.00  0.00     0.169 A 
ATOM     10  N   UNL A   1      31.079  26.145  26.829  1.00  0.00    -0.221 NA
ATOM     11  N   UNL A   1      31.657  26.274  24.684  1.00  0.00    -0.318 N 
ATOM     12  C   UNL A   1      31.607  27.387  26.573  1.00  0.00     0.108 A 
ATOM     13  C   UNL A   1      31.952  27.511  25.227  1.00  0.00     0.072 A 
ATOM     14  C   UNL A   1      31.820  28.472  27.429  1.00  0.00     0.141 A 
ATOM     15  C   UNL A   1      32.465  28.702  24.706  1.00  0.00     0.049 A 
ATOM     16  N   UNL A   1      32.325  29.639  26.947  1.00  0.00    -0.262 NA
ATOM     17  C   UNL A   1      32.617  29.730  25.630  1.00  0.00     0.113 A 
BRANCH  11  18
ATOM     18  C   UNL A   1      31.833  25.921  23.286  1.00  0.00     0.134 C 
BRANCH  18  19
ATOM     19  C   UNL A   1      33.219  25.409  22.902  1.00  0.00     0.137 C 
BRANCH  19  20
ATOM     20  C   UNL A   1      33.224  24.005  22.344  1.00  0.00     0.390 C 
ATOM     21  F   UNL A   1      33.186  24.015  20.996  1.00  0.00    -0.171 F 
ATOM     22  F   UNL A   1      34.359  23.364  22.707  1.00  0.00    -0.171 F 
ATOM     23  F   UNL A   1      32.192  23.274  22.805  1.00  0.00    -0.171 F 
ENDBRANCH  19  20
ENDBRANCH  18  19
ENDBRANCH  11  18
ENDBRANCH   8   9
ENDBRANCH   7   8
ENDBRANCH   5   7
ENDBRANCH   2   3
ENDBRANCH   1   2
BRANCH   1  24
ATOM     24  C   UNL A   1      36.890  23.501  25.035  1.00  0.00     0.002 C 
BRANCH  24  25
ATOM     25  C   UNL A   1      37.030  22.138  24.347  1.00  0.00     0.002 C 
BRANCH  25  26
ATOM     26  C   UNL A   1      38.005  21.156  25.011  1.00  0.00     0.021 C 
BRANCH  26  27
ATOM     27  C   UNL A   1      38.848  21.759  26.137  1.00  0.00     0.116 C 
BRANCH  27  28
ATOM     28  N   UNL A   1      40.250  21.898  25.801  1.00  0.00    -0.352 N 
ATOM     29  C   UNL A   1      41.222  22.818  26.077  1.00  0.00     0.251 C 
ATOM     30  H   UNL A   1      40.580  21.157  25.243  1.00  0.00     0.163 HD
ATOM     31  O   UNL A   1      42.359  22.543  25.683  1.00  0.00    -0.269 OA
BRANCH  29  32
ATOM     32  C   UNL A   1      41.002  24.128  26.752  1.00  0.00     0.039 A 
ATOM     33  C   UNL A   1      40.181  25.157  26.289  1.00  0.00     0.014 A 
ATOM     34  C   UNL A   1      41.738  24.342  27.934  1.00  0.00     0.014 A 
ATOM     35  C   UNL A   1      40.175  26.396  26.921  1.00  0.00     0.010 A 
ATOM     36  C   UNL A   1      41.719  25.572  28.583  1.00  0.00     0.010 A 
ATOM     37  C   UNL A   1      40.977  26.618  28.042  1.00  0.00    -0.014 A 
BRANCH  37  38
ATOM     38  C   UNL A   1      40.986  27.963  28.611  1.00  0.00     0.031 A 
ATOM     39  C   UNL A   1      42.072  28.881  28.149  1.00  0.00     0.074 A 
ATOM     40  C   UNL A   1      40.019  28.401  29.440  1.00  0.00     0.049 A 
ATOM     41  N   UNL A   1      42.926  29.552  28.859  1.00  0.00    -0.248 NA
ATOM     42  C   UNL A   1      42.252  29.035  26.698  1.00  0.00     0.031 C 
ATOM     43  C   UNL A   1      38.745  27.758  29.773  1.00  0.00     0.029 A 
ATOM     44  N   UNL A   1      39.940  29.596  30.093  1.00  0.00    -0.354 N 
ATOM     45  C   UNL A   1      43.677  30.307  27.958  1.00  0.00     0.074 A 
ATOM     46  C   UNL A   1      43.269  29.895  26.638  1.00  0.00     0.031 C 
ATOM     47  C   UNL A   1      37.935  28.659  30.371  1.00  0.00     0.029 A 
ATOM     48  C   UNL A   1      38.679  29.889  30.585  1.00  0.00     0.049 A 
ATOM     49  H   UNL A   1      40.712  30.198  30.203  1.00  0.00     0.167 HD
ATOM     50  C   UNL A   1      44.499  31.323  28.345  1.00  0.00     0.037 A 
ATOM     51  C   UNL A   1      38.259  31.088  31.053  1.00  0.00     0.037 A 
ATOM     52  C   UNL A   1      44.853  31.235  29.732  1.00  0.00     0.049 A 
ATOM     53  C   UNL A   1      39.460  31.886  31.403  1.00  0.00     0.074 A 
ATOM     54  C   UNL A   1      45.570  30.331  30.491  1.00  0.00     0.029 A 
ATOM     55  N   UNL A   1      44.207  32.037  30.635  1.00  0.00    -0.354 N 
ATOM     56  N   UNL A   1      40.254  31.624  32.402  1.00  0.00    -0.248 NA
ATOM     57  C   UNL A   1      40.005  32.768  30.384  1.00  0.00     0.031 C 
ATOM     58  C   UNL A   1      44.925  30.320  31.761  1.00  0.00     0.029 A 
ATOM     59  C   UNL A   1      43.877  31.238  31.701  1.00  0.00     0.049 A 
ATOM     60  H   UNL A   1      44.017  32.998  30.539  1.00  0.00     0.167 HD
ATOM     61  C   UNL A   1      41.519  31.961  31.943  1.00  0.00     0.074 A 
ATOM     62  C   UNL A   1      41.291  32.751  30.738  1.00  0.00     0.031 C 
ATOM     63  C   UNL A   1      42.634  31.340  32.425  1.00  0.00     0.037 A 
BRANCH  50  64
ATOM     64  C   UNL A   1      44.804  32.540  27.513  1.00  0.00     0.064 A 
ATOM     65  C   UNL A   1      46.035  32.647  26.834  1.00  0.00     0.173 A 
ATOM     66  C   UNL A   1      44.039  33.723  27.582  1.00  0.00     0.173 A 
ATOM     67  F   UNL A   1      46.859  31.594  26.739  1.00  0.00    -0.203 F 
ATOM     68  C   UNL A   1      46.480  33.862  26.302  1.00  0.00     0.198 A 
ATOM     69  C   UNL A   1      44.463  34.920  27.006  1.00  0.00     0.198 A 
ATOM     70  F   UNL A   1      42.907  33.785  28.295  1.00  0.00    -0.203 F 
ATOM     71  F   UNL A   1      47.701  33.942  25.755  1.00  0.00    -0.200 F 
ATOM     72  C   UNL A   1      45.694  34.996  26.388  1.00  0.00     0.200 A 
ATOM     73  F   UNL A   1      43.699  36.015  27.119  1.00  0.00    -0.200 F 
ATOM     74  F   UNL A   1      46.141  36.171  25.922  1.00  0.00    -0.200 F 
ENDBRANCH  50  64
BRANCH  51  75
ATOM     75  C   UNL A   1      36.924  31.707  30.886  1.00  0.00     0.064 A 
ATOM     76  C   UNL A   1      36.103  31.959  31.996  1.00  0.00     0.173 A 
ATOM     77  C   UNL A   1      36.550  32.325  29.675  1.00  0.00     0.173 A 
ATOM     78  F   UNL A   1      36.415  31.444  33.194  1.00  0.00    -0.203 F 
ATOM     79  C   UNL A   1      34.993  32.804  31.908  1.00  0.00     0.198 A 
ATOM     80  C   UNL A   1      35.437  33.159  29.587  1.00  0.00     0.198 A 
ATOM     81  F   UNL A   1      37.314  32.214  28.580  1.00  0.00    -0.203 F 
ATOM     82  F   UNL A   1      34.273  33.077  33.005  1.00  0.00    -0.200 F 
ATOM     83  C   UNL A   1      34.668  33.412  30.707  1.00  0.00     0.200 A 
ATOM     84  F   UNL A   1      35.153  33.768  28.427  1.00  0.00    -0.200 F 
ATOM     85  F   UNL A   1      33.643  34.272  30.638  1.00  0.00    -0.200 F 
ENDBRANCH  51  75
BRANCH  63  86
ATOM     86  C   UNL A   1      42.484  30.474  33.643  1.00  0.00     0.064 A 
ATOM     87  C   UNL A   1      42.563  30.961  34.959  1.00  0.00     0.173 A 
ATOM     88  C   UNL A   1      42.097  29.137  33.472  1.00  0.00     0.173 A 
ATOM     89  F   UNL A   1      42.819  32.252  35.202  1.00  0.00    -0.203 F 
ATOM     90  C   UNL A   1      42.314  30.133  36.053  1.00  0.00     0.198 A 
ATOM     91  C   UNL A   1      41.812  28.323  34.565  1.00  0.00     0.198 A 
ATOM     92  F   UNL A   1      41.944  28.633  32.237  1.00  0.00    -0.203 F 
ATOM     93  F   UNL A   1      42.407  30.619  37.300  1.00  0.00    -0.200 F 
ATOM     94  C   UNL A   1      41.931  28.818  35.854  1.00  0.00     0.200 A 
ATOM     95  F   UNL A   1      41.390  27.066  34.368  1.00  0.00    -0.200 F 
ATOM     96  F   UNL A   1      41.648  28.034  36.905  1.00  0.00    -0.200 F 
ENDBRANCH  63  86
ENDBRANCH  37  38
ENDBRANCH  29  32
ENDBRANCH  27  28
ENDBRANCH  26  27
ENDBRANCH  25  26
ENDBRANCH  24  25
ENDBRANCH   1  24
TORSDOF 18
ENDMDL
MODEL 3
REMARK VINA RESULT:     -11.4      3.656      5.177
REMARK SMILES O=C(CSc1nc2cnccc2n1CCC(F)(F)F)NCCCCCCNC(=O)c1ccc(-c2c3nc(c(-c4c(F)c(F)c(F)c(F)c4F)c4ccc([nH]4)c(-c4c(F)c(F)c(F)c(F)c4F)c4nc(c(-c5c(F)c(F)c(F)c(F)c5F)c5ccc2[nH]5)C=C4)C=C3)cc1
REMARK SMILES IDX 22 1 21 2 20 3 1 4 2 5 3 7 4 8 5 9 6 10 13 11 7 12 12 13
REMARK SMILES IDX 8 14 11 15 9 16 10 17 14 18 15 19 16 20 17 21 18 22 19 23
REMARK SMILES IDX 23 24 24 25 25 26 26 27 27 28 28 29 29 31 30 32 31 33 92 34
REMARK SMILES IDX 32 35 91 36 33 37 34 38 35 39 85 40 36 41 90 42 84 43 86 44
REMARK SMILES IDX 37 45 89 46 83 47 82 48 38 50 70 51 50 52 69 53 51 54 54 55
REMARK SMILES IDX 68 56 87 57 52 58 53 59 67 61 88 62 55 63 39 64 40 65 48 66
REMARK SMILES IDX 41 67 42 68 46 69 49 70 43 71 44 72 47 73 45 74 71 75 72 76
REMARK SMILES IDX 80 77 73 78 74 79 78 80 81 81 75 82 76 83 79 84 77 85 56 86
REMARK SMILES IDX 57 87 65 88 58 89 59 90 63 91 66 92 60 93 61 94 64 95 62 96
REMARK H PARENT 20 6 27 30 86 49 54 60
REMARK Flexibility Score: inf
ROOT
ATOM      1  C   UNL A   1      36.624  22.857  24.045  1.00  0.00     0.021 C 
ENDROOT
BRANCH   1   2
ATOM      2  C   UNL A   1      35.126  22.731  23.767  1.00  0.00     0.116 C 
BRANCH   2   3
ATOM      3  N   UNL A   1      34.531  24.021  23.490  1.00  0.00    -0.355 N 
ATOM      4  O   UNL A   1      33.350  23.306  21.663  1.00  0.00    -0.274 OA
ATOM      5  C   UNL A   1      33.658  24.203  22.430  1.00  0.00     0.230 C 
ATOM      6  H   UNL A   1      34.752  24.788  24.067  1.00  0.00     0.163 HD
BRANCH   5   7
ATOM      7  C   UNL A   1      33.253  25.640  22.157  1.00  0.00     0.178 C 
BRANCH   7   8
ATOM      8  S   UNL A   1      33.004  26.685  23.599  1.00  0.00    -0.078 SA
BRANCH   8   9
ATOM      9  C   UNL A   1      31.574  27.595  23.250  1.00  0.00     0.169 A 
ATOM     10  N   UNL A   1      31.551  28.764  22.662  1.00  0.00    -0.221 NA
ATOM     11  N   UNL A   1      30.305  27.119  23.494  1.00  0.00    -0.318 N 
ATOM     12  C   UNL A   1      30.223  29.101  22.559  1.00  0.00     0.108 A 
ATOM     13  C   UNL A   1      29.415  28.101  23.101  1.00  0.00     0.072 A 
ATOM     14  C   UNL A   1      29.619  30.243  22.025  1.00  0.00     0.141 A 
ATOM     15  C   UNL A   1      28.025  28.230  23.160  1.00  0.00     0.049 A 
ATOM     16  N   UNL A   1      28.268  30.389  22.064  1.00  0.00    -0.262 NA
ATOM     17  C   UNL A   1      27.522  29.412  22.626  1.00  0.00     0.113 A 
BRANCH  11  18
ATOM     18  C   UNL A   1      29.930  25.872  24.138  1.00  0.00     0.134 C 
BRANCH  18  19
ATOM     19  C   UNL A   1      30.112  25.829  25.653  1.00  0.00     0.137 C 
BRANCH  19  20
ATOM     20  C   UNL A   1      30.834  24.599  26.153  1.00  0.00     0.390 C 
ATOM     21  F   UNL A   1      31.430  23.938  25.140  1.00  0.00    -0.171 F 
ATOM     22  F   UNL A   1      31.805  24.952  27.026  1.00  0.00    -0.171 F 
ATOM     23  F   UNL A   1      30.007  23.756  26.799  1.00  0.00    -0.171 F 
ENDBRANCH  19  20
ENDBRANCH  18  19
ENDBRANCH  11  18
ENDBRANCH   8   9
ENDBRANCH   7   8
ENDBRANCH   5   7
ENDBRANCH   2   3
ENDBRANCH   1   2
BRANCH   1  24
ATOM     24  C   UNL A   1      36.968  23.785  25.216  1.00  0.00     0.002 C 
BRANCH  24  25
ATOM     25  C   UNL A   1      38.009  23.236  26.199  1.00  0.00     0.002 C 
BRANCH  25  26
ATOM     26  C   UNL A   1      38.651  21.898  25.807  1.00  0.00     0.021 C 
BRANCH  26  27
ATOM     27  C   UNL A   1      39.935  21.561  26.567  1.00  0.00     0.116 C 
BRANCH  27  28
ATOM     28  N   UNL A   1      41.142  21.955  25.871  1.00  0.00    -0.352 N 
ATOM     29  C   UNL A   1      41.921  23.078  25.848  1.00  0.00     0.251 C 
ATOM     30  H   UNL A   1      41.482  21.249  25.275  1.00  0.00     0.163 HD
ATOM     31  O   UNL A   1      42.957  23.008  25.182  1.00  0.00    -0.269 OA
BRANCH  29  32
ATOM     32  C   UNL A   1      41.586  24.372  26.509  1.00  0.00     0.039 A 
ATOM     33  C   UNL A   1      40.859  25.416  25.936  1.00  0.00     0.014 A 
ATOM     34  C   UNL A   1      42.107  24.553  27.805  1.00  0.00     0.014 A 
ATOM     35  C   UNL A   1      40.743  26.639  26.589  1.00  0.00     0.010 A 
ATOM     36  C   UNL A   1      41.975  25.766  28.473  1.00  0.00     0.010 A 
ATOM     37  C   UNL A   1      41.338  26.829  27.837  1.00  0.00    -0.014 A 
BRANCH  37  38
ATOM     38  C   UNL A   1      41.248  28.159  28.434  1.00  0.00     0.031 A 
ATOM     39  C   UNL A   1      42.298  29.146  28.036  1.00  0.00     0.074 A 
ATOM     40  C   UNL A   1      40.225  28.524  29.231  1.00  0.00     0.049 A 
ATOM     41  N   UNL A   1      43.084  29.847  28.794  1.00  0.00    -0.248 NA
ATOM     42  C   UNL A   1      42.528  29.343  26.597  1.00  0.00     0.031 C 
ATOM     43  C   UNL A   1      38.977  27.803  29.498  1.00  0.00     0.029 A 
ATOM     44  N   UNL A   1      40.053  29.697  29.904  1.00  0.00    -0.354 N 
ATOM     45  C   UNL A   1      43.826  30.664  27.940  1.00  0.00     0.074 A 
ATOM     46  C   UNL A   1      43.495  30.260  26.596  1.00  0.00     0.031 C 
ATOM     47  C   UNL A   1      38.095  28.644  30.080  1.00  0.00     0.029 A 
ATOM     48  C   UNL A   1      38.758  29.908  30.349  1.00  0.00     0.049 A 
ATOM     49  H   UNL A   1      40.784  30.338  30.058  1.00  0.00     0.167 HD
ATOM     50  C   UNL A   1      44.573  31.715  28.381  1.00  0.00     0.037 A 
ATOM     51  C   UNL A   1      38.253  31.071  30.824  1.00  0.00     0.037 A 
ATOM     52  C   UNL A   1      44.875  31.615  29.779  1.00  0.00     0.049 A 
ATOM     53  C   UNL A   1      39.392  31.926  31.239  1.00  0.00     0.074 A 
ATOM     54  C   UNL A   1      45.612  30.736  30.549  1.00  0.00     0.029 A 
ATOM     55  N   UNL A   1      44.149  32.359  30.672  1.00  0.00    -0.354 N 
ATOM     56  N   UNL A   1      40.159  31.687  32.265  1.00  0.00    -0.248 NA
ATOM     57  C   UNL A   1      39.927  32.861  30.262  1.00  0.00     0.031 C 
ATOM     58  C   UNL A   1      44.918  30.660  31.791  1.00  0.00     0.029 A 
ATOM     59  C   UNL A   1      43.823  31.519  31.706  1.00  0.00     0.049 A 
ATOM     60  H   UNL A   1      43.909  33.310  30.587  1.00  0.00     0.167 HD
ATOM     61  C   UNL A   1      41.419  32.103  31.866  1.00  0.00     0.074 A 
ATOM     62  C   UNL A   1      41.196  32.907  30.669  1.00  0.00     0.031 C 
ATOM     63  C   UNL A   1      42.548  31.535  32.381  1.00  0.00     0.037 A 
BRANCH  50  64
ATOM     64  C   UNL A   1      44.842  32.965  27.588  1.00  0.00     0.064 A 
ATOM     65  C   UNL A   1      46.045  33.106  26.867  1.00  0.00     0.173 A 
ATOM     66  C   UNL A   1      44.076  34.141  27.733  1.00  0.00     0.173 A 
ATOM     67  F   UNL A   1      46.868  32.061  26.698  1.00  0.00    -0.203 F 
ATOM     68  C   UNL A   1      46.466  34.343  26.367  1.00  0.00     0.198 A 
ATOM     69  C   UNL A   1      44.473  35.362  27.190  1.00  0.00     0.198 A 
ATOM     70  F   UNL A   1      42.972  34.169  28.492  1.00  0.00    -0.203 F 
ATOM     71  F   UNL A   1      47.664  34.450  25.777  1.00  0.00    -0.200 F 
ATOM     72  C   UNL A   1      45.680  35.469  26.529  1.00  0.00     0.200 A 
ATOM     73  F   UNL A   1      43.710  36.448  27.376  1.00  0.00    -0.200 F 
ATOM     74  F   UNL A   1      46.104  36.663  26.094  1.00  0.00    -0.200 F 
ENDBRANCH  50  64
BRANCH  51  75
ATOM     75  C   UNL A   1      36.893  31.618  30.615  1.00  0.00     0.064 A 
ATOM     76  C   UNL A   1      36.067  31.930  31.705  1.00  0.00     0.173 A 
ATOM     77  C   UNL A   1      36.489  32.115  29.359  1.00  0.00     0.173 A 
ATOM     78  F   UNL A   1      36.403  31.533  32.941  1.00  0.00    -0.203 F 
ATOM     79  C   UNL A   1      34.922  32.718  31.554  1.00  0.00     0.198 A 
ATOM     80  C   UNL A   1      35.341  32.892  29.208  1.00  0.00     0.198 A 
ATOM     81  F   UNL A   1      37.253  31.942  28.271  1.00  0.00    -0.203 F 
ATOM     82  F   UNL A   1      34.195  33.054  32.629  1.00  0.00    -0.200 F 
ATOM     83  C   UNL A   1      34.567  33.207  30.308  1.00  0.00     0.200 A 
ATOM     84  F   UNL A   1      35.029  33.387  28.002  1.00  0.00    -0.200 F 
ATOM     85  F   UNL A   1      33.507  34.015  30.173  1.00  0.00    -0.200 F 
ENDBRANCH  51  75
BRANCH  63  86
ATOM     86  C   UNL A   1      42.399  30.635  33.573  1.00  0.00     0.064 A 
ATOM     87  C   UNL A   1      42.432  31.091  34.903  1.00  0.00     0.173 A 
ATOM     88  C   UNL A   1      42.060  29.291  33.362  1.00  0.00     0.173 A 
ATOM     89  F   UNL A   1      42.640  32.383  35.182  1.00  0.00    -0.203 F 
ATOM     90  C   UNL A   1      42.185  30.229  35.970  1.00  0.00     0.198 A 
ATOM     91  C   UNL A   1      41.776  28.441  34.428  1.00  0.00     0.198 A 
ATOM     92  F   UNL A   1      41.951  28.813  32.111  1.00  0.00    -0.203 F 
ATOM     93  F   UNL A   1      42.234  30.687  37.230  1.00  0.00    -0.200 F 
ATOM     94  C   UNL A   1      41.850  28.907  35.730  1.00  0.00     0.200 A 
ATOM     95  F   UNL A   1      41.400  27.177  34.190  1.00  0.00    -0.200 F 
ATOM     96  F   UNL A   1      41.568  28.089  36.755  1.00  0.00    -0.200 F 
ENDBRANCH  63  86
ENDBRANCH  37  38
ENDBRANCH  29  32
ENDBRANCH  27  28
ENDBRANCH  26  27
ENDBRANCH  25  26
ENDBRANCH  24  25
ENDBRANCH   1  24
TORSDOF 18
ENDMDL
