MODEL 1
REMARK VINA RESULT:     -11.2      0.000      0.000
REMARK SMILES CCCCCCOC(=O)Nc1cccc(-c2ccc([C@@H](C)C(=O)NCCCCCCNC(=O)c3ccc(-c4c5nc(c(-c6c(F)c(F)c(F)c(F)c6F)c6ccc([nH]6)c(-c6c(F)c(F)c(F)c(F)c6F)c6nc(c(-c7c(F)c(F)c(F)c(F)c7F)c7ccc4[nH]7)C=C6)C=C5)cc3)cc2F)c1
REMARK SMILES IDX 22 1 23 2 24 3 20 5 21 6 19 7 16 8 17 9 98 10 18 11 97 12
REMARK SMILES IDX 99 13 15 14 11 15 12 16 100 17 13 18 14 19 10 20 8 21 9 22
REMARK SMILES IDX 7 24 6 25 5 26 4 27 3 28 2 29 1 30 25 31 26 32 27 33 28 34
REMARK SMILES IDX 29 35 30 36 31 37 32 38 33 40 34 41 35 42 96 43 36 44 95 45
REMARK SMILES IDX 37 46 38 47 39 48 89 49 40 50 94 51 88 52 90 53 41 54 93 55
REMARK SMILES IDX 87 56 86 57 42 59 74 60 54 61 73 62 55 63 58 64 72 65 91 66
REMARK SMILES IDX 56 67 57 68 71 70 92 71 59 72 43 73 44 74 52 75 45 76 46 77
REMARK SMILES IDX 50 78 53 79 47 80 48 81 51 82 49 83 75 84 76 85 84 86 77 87
REMARK SMILES IDX 78 88 82 89 85 90 79 91 80 92 83 93 81 94 60 95 61 96 69 97
REMARK SMILES IDX 62 98 63 99 67 100 70 101 64 102 65 103 68 104 66 105
REMARK H PARENT 24 4 10 23 31 39 90 58 58 69
REMARK Flexibility Score: inf
ROOT
ATOM      1  C   UNL A   1      36.267  23.244  23.898  1.00  0.00     0.227 C 
ATOM      2  O   UNL A   1      36.563  23.016  22.718  1.00  0.00    -0.274 OA
ATOM      3  N   UNL A   1      37.303  23.489  24.745  1.00  0.00    -0.356 N 
ATOM      4  H   UNL A   1      38.182  23.540  24.305  1.00  0.00     0.163 HD
ENDROOT
BRANCH   1   5
ATOM      5  C   UNL A   1      34.792  23.257  24.328  1.00  0.00     0.105 C 
ATOM      6  C   UNL A   1      33.899  22.326  23.508  1.00  0.00     0.023 C 
BRANCH   5   7
ATOM      7  C   UNL A   1      34.242  24.652  24.582  1.00  0.00    -0.033 A 
ATOM      8  C   UNL A   1      33.033  27.217  24.944  1.00  0.00     0.018 A 
ATOM      9  C   UNL A   1      33.347  26.397  26.035  1.00  0.00     0.012 A 
ATOM     10  C   UNL A   1      33.397  26.741  23.673  1.00  0.00     0.131 A 
ATOM     11  C   UNL A   1      33.967  25.153  25.860  1.00  0.00     0.005 A 
ATOM     12  C   UNL A   1      33.966  25.481  23.488  1.00  0.00     0.044 A 
ATOM     13  F   UNL A   1      33.197  27.495  22.580  1.00  0.00    -0.206 F 
BRANCH   8  14
ATOM     14  C   UNL A   1      32.327  28.501  25.130  1.00  0.00    -0.013 A 
ATOM     15  C   UNL A   1      30.690  30.138  24.331  1.00  0.00     0.045 A 
ATOM     16  C   UNL A   1      31.018  30.996  25.376  1.00  0.00     0.026 A 
ATOM     17  C   UNL A   1      31.335  28.902  24.222  1.00  0.00     0.035 A 
ATOM     18  C   UNL A   1      31.952  30.595  26.330  1.00  0.00     0.003 A 
ATOM     19  C   UNL A   1      32.605  29.364  26.202  1.00  0.00     0.009 A 
BRANCH  15  20
ATOM     20  N   UNL A   1      29.793  30.575  23.347  1.00  0.00    -0.291 N 
ATOM     21  C   UNL A   1      29.295  29.839  22.304  1.00  0.00     0.411 C 
ATOM     22  O   UNL A   1      28.917  30.369  21.274  1.00  0.00    -0.224 OA
ATOM     23  H   UNL A   1      29.491  31.511  23.410  1.00  0.00     0.173 HD
BRANCH  21  24
ATOM     24  O   UNL A   1      29.162  28.521  22.613  1.00  0.00    -0.449 OA
BRANCH  24  25
ATOM     25  C   UNL A   1      27.938  28.079  23.218  1.00  0.00     0.235 C 
BRANCH  25  26
ATOM     26  C   UNL A   1      28.084  26.703  23.877  1.00  0.00     0.042 C 
BRANCH  26  27
ATOM     27  C   UNL A   1      29.500  26.114  23.874  1.00  0.00     0.003 C 
BRANCH  27  28
ATOM     28  C   UNL A   1      29.963  25.537  25.218  1.00  0.00    -0.000 C 
BRANCH  28  29
ATOM     29  C   UNL A   1      30.567  24.136  25.143  1.00  0.00    -0.003 C 
ATOM     30  C   UNL A   1      30.695  23.480  26.507  1.00  0.00     0.004 C 
ENDBRANCH  28  29
ENDBRANCH  27  28
ENDBRANCH  26  27
ENDBRANCH  25  26
ENDBRANCH  24  25
ENDBRANCH  21  24
ENDBRANCH  15  20
ENDBRANCH   8  14
ENDBRANCH   5   7
ENDBRANCH   1   5
BRANCH   3  31
ATOM     31  C   UNL A   1      37.342  23.687  26.178  1.00  0.00     0.116 C 
BRANCH  31  32
ATOM     32  C   UNL A   1      38.694  24.241  26.634  1.00  0.00     0.021 C 
BRANCH  32  33
ATOM     33  C   UNL A   1      39.751  23.160  26.880  1.00  0.00     0.002 C 
BRANCH  33  34
ATOM     34  C   UNL A   1      41.202  23.610  26.661  1.00  0.00     0.002 C 
BRANCH  34  35
ATOM     35  C   UNL A   1      42.057  22.676  25.800  1.00  0.00     0.021 C 
BRANCH  35  36
ATOM     36  C   UNL A   1      43.156  23.373  25.002  1.00  0.00     0.116 C 
BRANCH  36  37
ATOM     37  N   UNL A   1      44.481  23.023  25.490  1.00  0.00    -0.352 N 
ATOM     38  C   UNL A   1      45.228  23.589  26.491  1.00  0.00     0.251 C 
ATOM     39  H   UNL A   1      44.907  22.262  25.031  1.00  0.00     0.163 HD
ATOM     40  O   UNL A   1      46.419  23.316  26.601  1.00  0.00    -0.269 OA
BRANCH  38  41
ATOM     41  C   UNL A   1      44.604  24.538  27.437  1.00  0.00     0.039 A 
ATOM     42  C   UNL A   1      43.905  24.035  28.537  1.00  0.00     0.014 A 
ATOM     43  C   UNL A   1      44.678  25.917  27.222  1.00  0.00     0.014 A 
ATOM     44  C   UNL A   1      43.333  24.918  29.457  1.00  0.00     0.010 A 
ATOM     45  C   UNL A   1      44.167  26.795  28.174  1.00  0.00     0.010 A 
ATOM     46  C   UNL A   1      43.489  26.305  29.301  1.00  0.00    -0.014 A 
BRANCH  46  47
ATOM     47  C   UNL A   1      42.968  27.255  30.314  1.00  0.00     0.031 A 
ATOM     48  C   UNL A   1      43.629  27.369  31.660  1.00  0.00     0.074 A 
ATOM     49  C   UNL A   1      41.855  27.964  30.044  1.00  0.00     0.049 A 
ATOM     50  N   UNL A   1      43.276  28.086  32.697  1.00  0.00    -0.248 NA
ATOM     51  C   UNL A   1      44.831  26.550  31.877  1.00  0.00     0.031 C 
ATOM     52  C   UNL A   1      41.099  27.904  28.794  1.00  0.00     0.029 A 
ATOM     53  N   UNL A   1      41.158  28.864  30.812  1.00  0.00    -0.354 N 
ATOM     54  C   UNL A   1      44.203  27.797  33.690  1.00  0.00     0.074 A 
ATOM     55  C   UNL A   1      45.102  26.800  33.150  1.00  0.00     0.031 C 
ATOM     56  C   UNL A   1      40.055  28.745  28.869  1.00  0.00     0.029 A 
ATOM     57  C   UNL A   1      40.045  29.372  30.187  1.00  0.00     0.049 A 
ATOM     58  H   UNL A   1      41.430  29.121  31.722  1.00  0.00     0.167 HD
ATOM     59  C   UNL A   1      44.304  28.330  34.931  1.00  0.00     0.037 A 
ATOM     60  C   UNL A   1      39.115  30.239  30.632  1.00  0.00     0.037 A 
ATOM     61  C   UNL A   1      43.417  29.335  35.456  1.00  0.00     0.049 A 
ATOM     62  C   UNL A   1      39.244  30.804  32.019  1.00  0.00     0.074 A 
ATOM     63  C   UNL A   1      43.475  29.986  36.675  1.00  0.00     0.029 A 
ATOM     64  N   UNL A   1      42.306  29.833  34.791  1.00  0.00    -0.354 N 
ATOM     65  N   UNL A   1      40.165  30.576  32.924  1.00  0.00    -0.248 NA
ATOM     66  C   UNL A   1      38.206  31.753  32.446  1.00  0.00     0.031 C 
ATOM     67  C   UNL A   1      42.371  30.839  36.770  1.00  0.00     0.029 A 
ATOM     68  C   UNL A   1      41.654  30.762  35.587  1.00  0.00     0.049 A 
ATOM     69  H   UNL A   1      42.022  29.566  33.886  1.00  0.00     0.167 HD
ATOM     70  C   UNL A   1      39.833  31.368  34.016  1.00  0.00     0.074 A 
ATOM     71  C   UNL A   1      38.636  32.097  33.652  1.00  0.00     0.031 C 
ATOM     72  C   UNL A   1      40.462  31.478  35.211  1.00  0.00     0.037 A 
BRANCH  59  73
ATOM     73  C   UNL A   1      45.416  27.836  35.811  1.00  0.00     0.064 A 
ATOM     74  C   UNL A   1      46.680  28.446  35.813  1.00  0.00     0.173 A 
ATOM     75  C   UNL A   1      45.205  26.766  36.693  1.00  0.00     0.173 A 
ATOM     76  F   UNL A   1      46.938  29.467  34.981  1.00  0.00    -0.203 F 
ATOM     77  C   UNL A   1      47.698  27.986  36.644  1.00  0.00     0.198 A 
ATOM     78  C   UNL A   1      46.216  26.327  37.546  1.00  0.00     0.198 A 
ATOM     79  F   UNL A   1      44.014  26.150  36.737  1.00  0.00    -0.203 F 
ATOM     80  F   UNL A   1      48.911  28.554  36.592  1.00  0.00    -0.200 F 
ATOM     81  C   UNL A   1      47.464  26.932  37.515  1.00  0.00     0.200 A 
ATOM     82  F   UNL A   1      45.983  25.318  38.395  1.00  0.00    -0.200 F 
ATOM     83  F   UNL A   1      48.442  26.495  38.319  1.00  0.00    -0.200 F 
ENDBRANCH  59  73
BRANCH  60  84
ATOM     84  C   UNL A   1      37.989  30.635  29.748  1.00  0.00     0.064 A 
ATOM     85  C   UNL A   1      37.934  31.918  29.184  1.00  0.00     0.173 A 
ATOM     86  C   UNL A   1      36.946  29.747  29.449  1.00  0.00     0.173 A 
ATOM     87  F   UNL A   1      38.899  32.809  29.456  1.00  0.00    -0.203 F 
ATOM     88  C   UNL A   1      36.871  32.303  28.371  1.00  0.00     0.198 A 
ATOM     89  C   UNL A   1      35.897  30.123  28.613  1.00  0.00     0.198 A 
ATOM     90  F   UNL A   1      36.953  28.506  29.959  1.00  0.00    -0.203 F 
ATOM     91  F   UNL A   1      36.820  33.550  27.882  1.00  0.00    -0.200 F 
ATOM     92  C   UNL A   1      35.855  31.403  28.081  1.00  0.00     0.200 A 
ATOM     93  F   UNL A   1      34.927  29.246  28.322  1.00  0.00    -0.200 F 
ATOM     94  F   UNL A   1      34.835  31.772  27.296  1.00  0.00    -0.200 F 
ENDBRANCH  60  84
BRANCH  72  95
ATOM     95  C   UNL A   1      39.878  32.440  36.206  1.00  0.00     0.064 A 
ATOM     96  C   UNL A   1      38.787  32.088  37.013  1.00  0.00     0.173 A 
ATOM     97  C   UNL A   1      40.440  33.714  36.377  1.00  0.00     0.173 A 
ATOM     98  F   UNL A   1      38.204  30.887  36.876  1.00  0.00    -0.203 F 
ATOM     99  C   UNL A   1      38.261  32.989  37.937  1.00  0.00     0.198 A 
ATOM    100  C   UNL A   1      39.932  34.600  37.323  1.00  0.00     0.198 A 
ATOM    101  F   UNL A   1      41.488  34.097  35.634  1.00  0.00    -0.203 F 
ATOM    102  F   UNL A   1      37.186  32.649  38.662  1.00  0.00    -0.200 F 
ATOM    103  C   UNL A   1      38.839  34.239  38.097  1.00  0.00     0.200 A 
ATOM    104  F   UNL A   1      40.499  35.803  37.486  1.00  0.00    -0.200 F 
ATOM    105  F   UNL A   1      38.336  35.101  38.991  1.00  0.00    -0.200 F 
ENDBRANCH  72  95
ENDBRANCH  46  47
ENDBRANCH  38  41
ENDBRANCH  36  37
ENDBRANCH  35  36
ENDBRANCH  34  35
ENDBRANCH  33  34
ENDBRANCH  32  33
ENDBRANCH  31  32
ENDBRANCH   3  31
TORSDOF 22
ENDMDL
MODEL 2
REMARK VINA RESULT:     -10.9      5.178      8.630
REMARK SMILES CCCCCCOC(=O)Nc1cccc(-c2ccc([C@@H](C)C(=O)NCCCCCCNC(=O)c3ccc(-c4c5nc(c(-c6c(F)c(F)c(F)c(F)c6F)c6ccc([nH]6)c(-c6c(F)c(F)c(F)c(F)c6F)c6nc(c(-c7c(F)c(F)c(F)c(F)c7F)c7ccc4[nH]7)C=C6)C=C5)cc3)cc2F)c1
REMARK SMILES IDX 22 1 23 2 24 3 20 5 21 6 19 7 16 8 17 9 98 10 18 11 97 12
REMARK SMILES IDX 99 13 15 14 11 15 12 16 100 17 13 18 14 19 10 20 8 21 9 22
REMARK SMILES IDX 7 24 6 25 5 26 4 27 3 28 2 29 1 30 25 31 26 32 27 33 28 34
REMARK SMILES IDX 29 35 30 36 31 37 32 38 33 40 34 41 35 42 96 43 36 44 95 45
REMARK SMILES IDX 37 46 38 47 39 48 89 49 40 50 94 51 88 52 90 53 41 54 93 55
REMARK SMILES IDX 87 56 86 57 42 59 74 60 54 61 73 62 55 63 58 64 72 65 91 66
REMARK SMILES IDX 56 67 57 68 71 70 92 71 59 72 43 73 44 74 52 75 45 76 46 77
REMARK SMILES IDX 50 78 53 79 47 80 48 81 51 82 49 83 75 84 76 85 84 86 77 87
REMARK SMILES IDX 78 88 82 89 85 90 79 91 80 92 83 93 81 94 60 95 61 96 69 97
REMARK SMILES IDX 62 98 63 99 67 100 70 101 64 102 65 103 68 104 66 105
REMARK H PARENT 24 4 10 23 31 39 90 58 58 69
REMARK Flexibility Score: inf
ROOT
ATOM      1  C   UNL A   1      41.764  25.091  28.122  1.00  0.00     0.227 C 
ATOM      2  O   UNL A   1      42.852  25.556  28.485  1.00  0.00    -0.274 OA
ATOM      3  N   UNL A   1      41.663  23.735  28.097  1.00  0.00    -0.356 N 
ATOM      4  H   UNL A   1      42.451  23.264  28.456  1.00  0.00     0.163 HD
ENDROOT
BRANCH   1   5
ATOM      5  C   UNL A   1      40.615  26.039  27.745  1.00  0.00     0.105 C 
ATOM      6  C   UNL A   1      40.778  26.697  26.376  1.00  0.00     0.023 C 
BRANCH   5   7
ATOM      7  C   UNL A   1      40.185  26.958  28.877  1.00  0.00    -0.033 A 
ATOM      8  C   UNL A   1      39.304  28.825  30.856  1.00  0.00     0.018 A 
ATOM      9  C   UNL A   1      38.793  27.522  30.802  1.00  0.00     0.012 A 
ATOM     10  C   UNL A   1      40.310  29.145  29.929  1.00  0.00     0.131 A 
ATOM     11  C   UNL A   1      39.247  26.598  29.851  1.00  0.00     0.005 A 
ATOM     12  C   UNL A   1      40.728  28.247  28.947  1.00  0.00     0.044 A 
ATOM     13  F   UNL A   1      40.905  30.349  29.957  1.00  0.00    -0.206 F 
BRANCH   8  14
ATOM     14  C   UNL A   1      38.781  29.813  31.821  1.00  0.00    -0.013 A 
ATOM     15  C   UNL A   1      36.906  31.146  32.661  1.00  0.00     0.045 A 
ATOM     16  C   UNL A   1      37.745  31.776  33.574  1.00  0.00     0.026 A 
ATOM     17  C   UNL A   1      37.424  30.169  31.805  1.00  0.00     0.035 A 
ATOM     18  C   UNL A   1      39.084  31.394  33.657  1.00  0.00     0.003 A 
ATOM     19  C   UNL A   1      39.597  30.429  32.783  1.00  0.00     0.009 A 
BRANCH  15  20
ATOM     20  N   UNL A   1      35.578  31.578  32.547  1.00  0.00    -0.291 N 
ATOM     21  C   UNL A   1      35.148  32.805  32.114  1.00  0.00     0.411 C 
ATOM     22  O   UNL A   1      34.074  33.263  32.463  1.00  0.00    -0.224 OA
ATOM     23  H   UNL A   1      34.881  30.933  32.807  1.00  0.00     0.173 HD
BRANCH  21  24
ATOM     24  O   UNL A   1      35.979  33.350  31.186  1.00  0.00    -0.449 OA
BRANCH  24  25
ATOM     25  C   UNL A   1      35.495  33.514  29.844  1.00  0.00     0.235 C 
BRANCH  25  26
ATOM     26  C   UNL A   1      36.597  33.290  28.802  1.00  0.00     0.042 C 
BRANCH  26  27
ATOM     27  C   UNL A   1      37.762  32.399  29.251  1.00  0.00     0.003 C 
BRANCH  27  28
ATOM     28  C   UNL A   1      39.089  33.134  29.477  1.00  0.00    -0.000 C 
BRANCH  28  29
ATOM     29  C   UNL A   1      38.970  34.459  30.229  1.00  0.00    -0.003 C 
ATOM     30  C   UNL A   1      39.513  34.378  31.646  1.00  0.00     0.004 C 
ENDBRANCH  28  29
ENDBRANCH  27  28
ENDBRANCH  26  27
ENDBRANCH  25  26
ENDBRANCH  24  25
ENDBRANCH  21  24
ENDBRANCH  15  20
ENDBRANCH   8  14
ENDBRANCH   5   7
ENDBRANCH   1   5
BRANCH   3  31
ATOM     31  C   UNL A   1      40.606  22.861  27.638  1.00  0.00     0.116 C 
BRANCH  31  32
ATOM     32  C   UNL A   1      40.863  22.364  26.214  1.00  0.00     0.021 C 
BRANCH  32  33
ATOM     33  C   UNL A   1      42.318  21.961  25.956  1.00  0.00     0.002 C 
BRANCH  33  34
ATOM     34  C   UNL A   1      43.120  22.945  25.093  1.00  0.00     0.002 C 
BRANCH  34  35
ATOM     35  C   UNL A   1      44.626  22.987  25.371  1.00  0.00     0.021 C 
BRANCH  35  36
ATOM     36  C   UNL A   1      45.127  24.301  25.964  1.00  0.00     0.116 C 
BRANCH  36  37
ATOM     37  N   UNL A   1      45.972  25.027  25.027  1.00  0.00    -0.352 N 
ATOM     38  C   UNL A   1      46.188  26.375  24.900  1.00  0.00     0.251 C 
ATOM     39  H   UNL A   1      46.465  24.463  24.387  1.00  0.00     0.163 HD
ATOM     40  O   UNL A   1      46.745  26.819  23.901  1.00  0.00    -0.269 OA
BRANCH  38  41
ATOM     41  C   UNL A   1      45.743  27.302  25.962  1.00  0.00     0.039 A 
ATOM     42  C   UNL A   1      44.395  27.665  26.021  1.00  0.00     0.014 A 
ATOM     43  C   UNL A   1      46.656  27.838  26.875  1.00  0.00     0.014 A 
ATOM     44  C   UNL A   1      43.951  28.516  27.036  1.00  0.00     0.010 A 
ATOM     45  C   UNL A   1      46.202  28.632  27.925  1.00  0.00     0.010 A 
ATOM     46  C   UNL A   1      44.845  28.979  28.016  1.00  0.00    -0.014 A 
BRANCH  46  47
ATOM     47  C   UNL A   1      44.375  29.810  29.152  1.00  0.00     0.031 A 
ATOM     48  C   UNL A   1      44.293  31.305  29.017  1.00  0.00     0.074 A 
ATOM     49  C   UNL A   1      44.090  29.220  30.329  1.00  0.00     0.049 A 
ATOM     50  N   UNL A   1      43.977  32.201  29.918  1.00  0.00    -0.248 NA
ATOM     51  C   UNL A   1      44.635  31.869  27.703  1.00  0.00     0.031 C 
ATOM     52  C   UNL A   1      44.177  27.784  30.596  1.00  0.00     0.029 A 
ATOM     53  N   UNL A   1      43.682  29.757  31.525  1.00  0.00    -0.354 N 
ATOM     54  C   UNL A   1      44.093  33.431  29.285  1.00  0.00     0.074 A 
ATOM     55  C   UNL A   1      44.558  33.171  27.939  1.00  0.00     0.031 C 
ATOM     56  C   UNL A   1      43.815  27.550  31.867  1.00  0.00     0.029 A 
ATOM     57  C   UNL A   1      43.509  28.821  32.516  1.00  0.00     0.049 A 
ATOM     58  H   UNL A   1      43.528  30.719  31.659  1.00  0.00     0.167 HD
ATOM     59  C   UNL A   1      43.816  34.663  29.776  1.00  0.00     0.037 A 
ATOM     60  C   UNL A   1      43.155  28.974  33.806  1.00  0.00     0.037 A 
ATOM     61  C   UNL A   1      43.335  34.914  31.109  1.00  0.00     0.049 A 
ATOM     62  C   UNL A   1      42.867  30.354  34.329  1.00  0.00     0.074 A 
ATOM     63  C   UNL A   1      42.964  36.118  31.681  1.00  0.00     0.029 A 
ATOM     64  N   UNL A   1      43.163  33.940  32.084  1.00  0.00    -0.354 N 
ATOM     65  N   UNL A   1      42.912  31.503  33.701  1.00  0.00    -0.248 NA
ATOM     66  C   UNL A   1      42.474  30.457  35.741  1.00  0.00     0.031 C 
ATOM     67  C   UNL A   1      42.616  35.881  33.015  1.00  0.00     0.029 A 
ATOM     68  C   UNL A   1      42.718  34.522  33.261  1.00  0.00     0.049 A 
ATOM     69  H   UNL A   1      43.332  32.979  31.957  1.00  0.00     0.167 HD
ATOM     70  C   UNL A   1      42.532  32.462  34.630  1.00  0.00     0.074 A 
ATOM     71  C   UNL A   1      42.242  31.757  35.861  1.00  0.00     0.031 C 
ATOM     72  C   UNL A   1      42.435  33.805  34.478  1.00  0.00     0.037 A 
BRANCH  59  73
ATOM     73  C   UNL A   1      44.026  35.839  28.865  1.00  0.00     0.064 A 
ATOM     74  C   UNL A   1      45.291  36.426  28.700  1.00  0.00     0.173 A 
ATOM     75  C   UNL A   1      42.960  36.359  28.116  1.00  0.00     0.173 A 
ATOM     76  F   UNL A   1      46.341  35.973  29.401  1.00  0.00    -0.203 F 
ATOM     77  C   UNL A   1      45.473  37.507  27.842  1.00  0.00     0.198 A 
ATOM     78  C   UNL A   1      43.152  37.421  27.235  1.00  0.00     0.198 A 
ATOM     79  F   UNL A   1      41.732  35.832  28.231  1.00  0.00    -0.203 F 
ATOM     80  F   UNL A   1      46.679  38.082  27.738  1.00  0.00    -0.200 F 
ATOM     81  C   UNL A   1      44.406  37.999  27.105  1.00  0.00     0.200 A 
ATOM     82  F   UNL A   1      42.123  37.886  26.514  1.00  0.00    -0.200 F 
ATOM     83  F   UNL A   1      44.585  39.035  26.274  1.00  0.00    -0.200 F 
ENDBRANCH  59  73
BRANCH  60  84
ATOM     84  C   UNL A   1      43.037  27.783  34.688  1.00  0.00     0.064 A 
ATOM     85  C   UNL A   1      41.858  27.025  34.718  1.00  0.00     0.173 A 
ATOM     86  C   UNL A   1      44.094  27.380  35.516  1.00  0.00     0.173 A 
ATOM     87  F   UNL A   1      40.813  27.383  33.958  1.00  0.00    -0.203 F 
ATOM     88  C   UNL A   1      41.733  25.921  35.558  1.00  0.00     0.198 A 
ATOM     89  C   UNL A   1      43.979  26.258  36.334  1.00  0.00     0.198 A 
ATOM     90  F   UNL A   1      45.245  28.067  35.521  1.00  0.00    -0.203 F 
ATOM     91  F   UNL A   1      40.580  25.240  35.601  1.00  0.00    -0.200 F 
ATOM     92  C   UNL A   1      42.796  25.534  36.362  1.00  0.00     0.200 A 
ATOM     93  F   UNL A   1      45.013  25.878  37.096  1.00  0.00    -0.200 F 
ATOM     94  F   UNL A   1      42.679  24.469  37.165  1.00  0.00    -0.200 F 
ENDBRANCH  60  84
BRANCH  72  95
ATOM     95  C   UNL A   1      41.974  34.598  35.667  1.00  0.00     0.064 A 
ATOM     96  C   UNL A   1      42.885  35.142  36.584  1.00  0.00     0.173 A 
ATOM     97  C   UNL A   1      40.608  34.845  35.872  1.00  0.00     0.173 A 
ATOM     98  F   UNL A   1      44.201  34.921  36.442  1.00  0.00    -0.203 F 
ATOM     99  C   UNL A   1      42.443  35.882  37.679  1.00  0.00     0.198 A 
ATOM    100  C   UNL A   1      40.172  35.611  36.949  1.00  0.00     0.198 A 
ATOM    101  F   UNL A   1      39.697  34.352  35.021  1.00  0.00    -0.203 F 
ATOM    102  F   UNL A   1      43.329  36.350  38.570  1.00  0.00    -0.200 F 
ATOM    103  C   UNL A   1      41.089  36.122  37.855  1.00  0.00     0.200 A 
ATOM    104  F   UNL A   1      38.864  35.853  37.111  1.00  0.00    -0.200 F 
ATOM    105  F   UNL A   1      40.666  36.840  38.905  1.00  0.00    -0.200 F 
ENDBRANCH  72  95
ENDBRANCH  46  47
ENDBRANCH  38  41
ENDBRANCH  36  37
ENDBRANCH  35  36
ENDBRANCH  34  35
ENDBRANCH  33  34
ENDBRANCH  32  33
ENDBRANCH  31  32
ENDBRANCH   3  31
TORSDOF 22
ENDMDL
MODEL 3
REMARK VINA RESULT:     -10.6      4.681      8.524
REMARK SMILES CCCCCCOC(=O)Nc1cccc(-c2ccc([C@@H](C)C(=O)NCCCCCCNC(=O)c3ccc(-c4c5nc(c(-c6c(F)c(F)c(F)c(F)c6F)c6ccc([nH]6)c(-c6c(F)c(F)c(F)c(F)c6F)c6nc(c(-c7c(F)c(F)c(F)c(F)c7F)c7ccc4[nH]7)C=C6)C=C5)cc3)cc2F)c1
REMARK SMILES IDX 22 1 23 2 24 3 20 5 21 6 19 7 16 8 17 9 98 10 18 11 97 12
REMARK SMILES IDX 99 13 15 14 11 15 12 16 100 17 13 18 14 19 10 20 8 21 9 22
REMARK SMILES IDX 7 24 6 25 5 26 4 27 3 28 2 29 1 30 25 31 26 32 27 33 28 34
REMARK SMILES IDX 29 35 30 36 31 37 32 38 33 40 34 41 35 42 96 43 36 44 95 45
REMARK SMILES IDX 37 46 38 47 39 48 89 49 40 50 94 51 88 52 90 53 41 54 93 55
REMARK SMILES IDX 87 56 86 57 42 59 74 60 54 61 73 62 55 63 58 64 72 65 91 66
REMARK SMILES IDX 56 67 57 68 71 70 92 71 59 72 43 73 44 74 52 75 45 76 46 77
REMARK SMILES IDX 50 78 53 79 47 80 48 81 51 82 49 83 75 84 76 85 84 86 77 87
REMARK SMILES IDX 78 88 82 89 85 90 79 91 80 92 83 93 81 94 60 95 61 96 69 97
REMARK SMILES IDX 62 98 63 99 67 100 70 101 64 102 65 103 68 104 66 105
REMARK H PARENT 24 4 10 23 31 39 90 58 58 69
REMARK Flexibility Score: inf
ROOT
ATOM      1  C   UNL A   1      40.808  24.906  26.905  1.00  0.00     0.227 C 
ATOM      2  O   UNL A   1      39.603  25.184  26.949  1.00  0.00    -0.274 OA
ATOM      3  N   UNL A   1      41.145  23.788  26.206  1.00  0.00    -0.356 N 
ATOM      4  H   UNL A   1      40.392  23.362  25.736  1.00  0.00     0.163 HD
ENDROOT
BRANCH   1   5
ATOM      5  C   UNL A   1      41.830  25.815  27.603  1.00  0.00     0.105 C 
ATOM      6  C   UNL A   1      42.855  25.062  28.450  1.00  0.00     0.023 C 
BRANCH   5   7
ATOM      7  C   UNL A   1      41.212  27.046  28.247  1.00  0.00    -0.033 A 
ATOM      8  C   UNL A   1      40.241  29.397  29.555  1.00  0.00     0.018 A 
ATOM      9  C   UNL A   1      40.256  29.291  28.158  1.00  0.00     0.012 A 
ATOM     10  C   UNL A   1      40.671  28.270  30.276  1.00  0.00     0.131 A 
ATOM     11  C   UNL A   1      40.703  28.127  27.518  1.00  0.00     0.005 A 
ATOM     12  C   UNL A   1      41.167  27.129  29.644  1.00  0.00     0.044 A 
ATOM     13  F   UNL A   1      40.623  28.260  31.618  1.00  0.00    -0.206 F 
BRANCH   8  14
ATOM     14  C   UNL A   1      39.824  30.646  30.223  1.00  0.00    -0.013 A 
ATOM     15  C   UNL A   1      38.441  31.776  31.899  1.00  0.00     0.045 A 
ATOM     16  C   UNL A   1      38.907  33.014  31.469  1.00  0.00     0.026 A 
ATOM     17  C   UNL A   1      38.906  30.609  31.284  1.00  0.00     0.035 A 
ATOM     18  C   UNL A   1      39.869  33.076  30.462  1.00  0.00     0.003 A 
ATOM     19  C   UNL A   1      40.315  31.904  29.840  1.00  0.00     0.009 A 
BRANCH  15  20
ATOM     20  N   UNL A   1      37.432  31.729  32.871  1.00  0.00    -0.291 N 
ATOM     21  C   UNL A   1      36.107  32.030  32.695  1.00  0.00     0.411 C 
ATOM     22  O   UNL A   1      35.412  32.407  33.622  1.00  0.00    -0.224 OA
ATOM     23  H   UNL A   1      37.705  31.451  33.776  1.00  0.00     0.173 HD
BRANCH  21  24
ATOM     24  O   UNL A   1      35.668  31.737  31.442  1.00  0.00    -0.449 OA
BRANCH  24  25
ATOM     25  C   UNL A   1      34.920  32.732  30.727  1.00  0.00     0.235 C 
BRANCH  25  26
ATOM     26  C   UNL A   1      35.827  33.654  29.904  1.00  0.00     0.042 C 
BRANCH  26  27
ATOM     27  C   UNL A   1      35.861  33.375  28.396  1.00  0.00     0.003 C 
BRANCH  27  28
ATOM     28  C   UNL A   1      35.624  31.911  28.004  1.00  0.00    -0.000 C 
BRANCH  28  29
ATOM     29  C   UNL A   1      36.845  31.003  28.140  1.00  0.00    -0.003 C 
ATOM     30  C   UNL A   1      36.493  29.626  28.679  1.00  0.00     0.004 C 
ENDBRANCH  28  29
ENDBRANCH  27  28
ENDBRANCH  26  27
ENDBRANCH  25  26
ENDBRANCH  24  25
ENDBRANCH  21  24
ENDBRANCH  15  20
ENDBRANCH   8  14
ENDBRANCH   5   7
ENDBRANCH   1   5
BRANCH   3  31
ATOM     31  C   UNL A   1      42.413  23.114  26.031  1.00  0.00     0.116 C 
BRANCH  31  32
ATOM     32  C   UNL A   1      43.232  23.735  24.899  1.00  0.00     0.021 C 
BRANCH  32  33
ATOM     33  C   UNL A   1      44.426  22.882  24.462  1.00  0.00     0.002 C 
BRANCH  33  34
ATOM     34  C   UNL A   1      45.793  23.571  24.575  1.00  0.00     0.002 C 
BRANCH  34  35
ATOM     35  C   UNL A   1      46.279  23.835  26.004  1.00  0.00     0.021 C 
BRANCH  35  36
ATOM     36  C   UNL A   1      47.443  24.818  26.108  1.00  0.00     0.116 C 
BRANCH  36  37
ATOM     37  N   UNL A   1      47.536  25.670  24.932  1.00  0.00    -0.352 N 
ATOM     38  C   UNL A   1      46.979  26.900  24.690  1.00  0.00     0.251 C 
ATOM     39  H   UNL A   1      48.083  25.309  24.197  1.00  0.00     0.163 HD
ATOM     40  O   UNL A   1      46.967  27.359  23.553  1.00  0.00    -0.269 OA
BRANCH  38  41
ATOM     41  C   UNL A   1      46.380  27.674  25.798  1.00  0.00     0.039 A 
ATOM     42  C   UNL A   1      44.990  27.689  25.939  1.00  0.00     0.014 A 
ATOM     43  C   UNL A   1      47.183  28.411  26.674  1.00  0.00     0.014 A 
ATOM     44  C   UNL A   1      44.409  28.392  26.998  1.00  0.00     0.010 A 
ATOM     45  C   UNL A   1      46.608  29.055  27.766  1.00  0.00     0.010 A 
ATOM     46  C   UNL A   1      45.215  29.052  27.939  1.00  0.00    -0.014 A 
BRANCH  46  47
ATOM     47  C   UNL A   1      44.621  29.727  29.120  1.00  0.00     0.031 A 
ATOM     48  C   UNL A   1      44.346  31.204  29.091  1.00  0.00     0.074 A 
ATOM     49  C   UNL A   1      44.396  29.017  30.242  1.00  0.00     0.049 A 
ATOM     50  N   UNL A   1      43.900  31.981  30.046  1.00  0.00    -0.248 NA
ATOM     51  C   UNL A   1      44.633  31.906  27.831  1.00  0.00     0.031 C 
ATOM     52  C   UNL A   1      44.667  27.589  30.406  1.00  0.00     0.029 A 
ATOM     53  N   UNL A   1      43.901  29.405  31.463  1.00  0.00    -0.354 N 
ATOM     54  C   UNL A   1      43.864  33.260  29.507  1.00  0.00     0.074 A 
ATOM     55  C   UNL A   1      44.382  33.165  28.159  1.00  0.00     0.031 C 
ATOM     56  C   UNL A   1      44.316  27.214  31.647  1.00  0.00     0.029 A 
ATOM     57  C   UNL A   1      43.836  28.383  32.378  1.00  0.00     0.049 A 
ATOM     58  H   UNL A   1      43.620  30.327  31.662  1.00  0.00     0.167 HD
ATOM     59  C   UNL A   1      43.420  34.405  30.079  1.00  0.00     0.037 A 
ATOM     60  C   UNL A   1      43.442  28.390  33.666  1.00  0.00     0.037 A 
ATOM     61  C   UNL A   1      42.887  34.490  31.414  1.00  0.00     0.049 A 
ATOM     62  C   UNL A   1      42.967  29.678  34.280  1.00  0.00     0.074 A 
ATOM     63  C   UNL A   1      42.352  35.589  32.061  1.00  0.00     0.029 A 
ATOM     64  N   UNL A   1      42.828  33.432  32.310  1.00  0.00    -0.354 N 
ATOM     65  N   UNL A   1      42.872  30.868  33.738  1.00  0.00    -0.248 NA
ATOM     66  C   UNL A   1      42.540  29.623  35.685  1.00  0.00     0.031 C 
ATOM     67  C   UNL A   1      42.015  35.210  33.365  1.00  0.00     0.029 A 
ATOM     68  C   UNL A   1      42.291  33.860  33.514  1.00  0.00     0.049 A 
ATOM     69  H   UNL A   1      43.124  32.513  32.118  1.00  0.00     0.167 HD
ATOM     70  C   UNL A   1      42.353  31.697  34.724  1.00  0.00     0.074 A 
ATOM     71  C   UNL A   1      42.137  30.869  35.893  1.00  0.00     0.031 C 
ATOM     72  C   UNL A   1      42.083  33.023  34.667  1.00  0.00     0.037 A 
BRANCH  59  73
ATOM     73  C   UNL A   1      43.490  35.664  29.262  1.00  0.00     0.064 A 
ATOM     74  C   UNL A   1      42.423  36.073  28.446  1.00  0.00     0.173 A 
ATOM     75  C   UNL A   1      44.620  36.493  29.326  1.00  0.00     0.173 A 
ATOM     76  F   UNL A   1      41.324  35.310  28.341  1.00  0.00    -0.203 F 
ATOM     77  C   UNL A   1      42.497  37.248  27.704  1.00  0.00     0.198 A 
ATOM     78  C   UNL A   1      44.678  37.684  28.606  1.00  0.00     0.198 A 
ATOM     79  F   UNL A   1      45.666  36.153  30.095  1.00  0.00    -0.203 F 
ATOM     80  F   UNL A   1      41.486  37.592  26.894  1.00  0.00    -0.200 F 
ATOM     81  C   UNL A   1      43.621  38.057  27.790  1.00  0.00     0.200 A 
ATOM     82  F   UNL A   1      45.758  38.470  28.701  1.00  0.00    -0.200 F 
ATOM     83  F   UNL A   1      43.687  39.191  27.081  1.00  0.00    -0.200 F 
ENDBRANCH  59  73
BRANCH  60  84
ATOM     84  C   UNL A   1      43.466  27.131  34.455  1.00  0.00     0.064 A 
ATOM     85  C   UNL A   1      44.661  26.655  35.014  1.00  0.00     0.173 A 
ATOM     86  C   UNL A   1      42.302  26.379  34.667  1.00  0.00     0.173 A 
ATOM     87  F   UNL A   1      45.804  27.330  34.822  1.00  0.00    -0.203 F 
ATOM     88  C   UNL A   1      44.695  25.465  35.736  1.00  0.00     0.198 A 
ATOM     89  C   UNL A   1      42.331  25.204  35.415  1.00  0.00     0.198 A 
ATOM     90  F   UNL A   1      41.132  26.793  34.159  1.00  0.00    -0.203 F 
ATOM     91  F   UNL A   1      45.858  25.009  36.220  1.00  0.00    -0.200 F 
ATOM     92  C   UNL A   1      43.528  24.742  35.941  1.00  0.00     0.200 A 
ATOM     93  F   UNL A   1      41.199  24.518  35.624  1.00  0.00    -0.200 F 
ATOM     94  F   UNL A   1      43.559  23.601  36.641  1.00  0.00    -0.200 F 
ENDBRANCH  60  84
BRANCH  72  95
ATOM     95  C   UNL A   1      41.503  33.658  35.899  1.00  0.00     0.064 A 
ATOM     96  C   UNL A   1      42.317  34.263  36.866  1.00  0.00     0.173 A 
ATOM     97  C   UNL A   1      40.114  33.690  36.094  1.00  0.00     0.173 A 
ATOM     98  F   UNL A   1      43.652  34.245  36.733  1.00  0.00    -0.203 F 
ATOM     99  C   UNL A   1      41.763  34.855  37.999  1.00  0.00     0.198 A 
ATOM    100  C   UNL A   1      39.562  34.309  37.212  1.00  0.00     0.198 A 
ATOM    101  F   UNL A   1      39.290  33.130  35.196  1.00  0.00    -0.203 F 
ATOM    102  F   UNL A   1      42.564  35.383  38.936  1.00  0.00    -0.200 F 
ATOM    103  C   UNL A   1      40.387  34.884  38.167  1.00  0.00     0.200 A 
ATOM    104  F   UNL A   1      38.231  34.348  37.366  1.00  0.00    -0.200 F 
ATOM    105  F   UNL A   1      39.856  35.459  39.254  1.00  0.00    -0.200 F 
ENDBRANCH  72  95
ENDBRANCH  46  47
ENDBRANCH  38  41
ENDBRANCH  36  37
ENDBRANCH  35  36
ENDBRANCH  34  35
ENDBRANCH  33  34
ENDBRANCH  32  33
ENDBRANCH  31  32
ENDBRANCH   3  31
TORSDOF 22
ENDMDL
