MODEL 1
REMARK VINA RESULT:     -10.9      0.000      0.000
REMARK SMILES C[C@H](NC(=O)c1cc(S(=O)(=O)N(C)C)cs1)C(=O)NCCCCCCNC(=O)c1ccc(-c2c3nc(c(-c4c(F)c(F)c(F)c(F)c4F)c4ccc([nH]4)c(-c4c(F)c(F)c(F)c(F)c4F)c4nc(c(-c5c(F)c(F)c(F)c(F)c5F)c5ccc2[nH]5)C=C4)C=C3)cc1
REMARK SMILES IDX 21 1 20 2 19 3 17 4 18 5 2 7 1 8 3 9 4 10 5 12 6 13 7 14
REMARK SMILES IDX 16 15 8 16 15 17 9 18 10 19 11 20 12 21 13 22 14 23 22 24
REMARK SMILES IDX 23 25 24 26 25 27 26 28 27 29 28 31 29 32 30 33 91 34 31 35
REMARK SMILES IDX 90 36 32 37 33 38 34 39 84 40 35 41 89 42 83 43 85 44 36 45
REMARK SMILES IDX 88 46 82 47 81 48 37 50 69 51 49 52 68 53 50 54 53 55 67 56
REMARK SMILES IDX 86 57 51 58 52 59 66 61 87 62 54 63 38 64 39 65 47 66 40 67
REMARK SMILES IDX 41 68 45 69 48 70 42 71 43 72 46 73 44 74 70 75 71 76 79 77
REMARK SMILES IDX 72 78 73 79 77 80 80 81 74 82 75 83 78 84 76 85 55 86 56 87
REMARK SMILES IDX 64 88 57 89 58 90 62 91 65 92 59 93 60 94 63 95 61 96
REMARK H PARENT 19 6 3 11 26 30 85 49 53 60
REMARK Flexibility Score: inf
ROOT
ATOM      1  C   UNL A   1      40.812  21.806  27.581  1.00  0.00     0.021 C 
ENDROOT
BRANCH   1   2
ATOM      2  C   UNL A   1      39.920  22.710  26.737  1.00  0.00     0.116 C 
BRANCH   2   3
ATOM      3  N   UNL A   1      39.077  21.933  25.847  1.00  0.00    -0.354 N 
ATOM      4  C   UNL A   1      37.836  22.192  25.350  1.00  0.00     0.242 C 
ATOM      5  O   UNL A   1      37.391  21.428  24.491  1.00  0.00    -0.273 OA
ATOM      6  H   UNL A   1      39.466  21.078  25.555  1.00  0.00     0.163 HD
BRANCH   4   7
ATOM      7  C   UNL A   1      37.064  23.456  25.758  1.00  0.00     0.168 C 
ATOM      8  C   UNL A   1      38.024  24.444  26.422  1.00  0.00     0.041 C 
BRANCH   7   9
ATOM      9  N   UNL A   1      35.899  23.115  26.581  1.00  0.00    -0.340 N 
ATOM     10  C   UNL A   1      34.556  23.237  26.319  1.00  0.00     0.262 C 
ATOM     11  H   UNL A   1      36.114  22.735  27.463  1.00  0.00     0.164 HD
ATOM     12  O   UNL A   1      33.781  23.041  27.255  1.00  0.00    -0.268 OA
BRANCH  10  13
ATOM     13  C   UNL A   1      34.137  23.591  24.979  1.00  0.00     0.093 A 
ATOM     14  C   UNL A   1      33.904  24.842  24.446  1.00  0.00     0.047 A 
ATOM     15  S   UNL A   1      33.880  22.361  23.814  1.00  0.00    -0.137 S 
ATOM     16  C   UNL A   1      33.388  24.781  23.122  1.00  0.00     0.094 A 
ATOM     17  C   UNL A   1      33.322  23.490  22.650  1.00  0.00     0.087 A 
BRANCH  16  18
ATOM     18  S   UNL A   1      32.838  26.165  22.237  1.00  0.00     0.243 S 
ATOM     19  O   UNL A   1      34.028  26.701  21.625  1.00  0.00    -0.207 OA
ATOM     20  O   UNL A   1      31.738  25.626  21.460  1.00  0.00    -0.207 OA
BRANCH  18  21
ATOM     21  N   UNL A   1      32.213  27.316  23.335  1.00  0.00    -0.204 NA
ATOM     22  C   UNL A   1      32.126  28.699  22.812  1.00  0.00     0.124 C 
ATOM     23  C   UNL A   1      30.939  26.899  23.964  1.00  0.00     0.124 C 
ENDBRANCH  18  21
ENDBRANCH  16  18
ENDBRANCH  10  13
ENDBRANCH   7   9
ENDBRANCH   4   7
ENDBRANCH   2   3
ENDBRANCH   1   2
BRANCH   1  24
ATOM     24  C   UNL A   1      40.874  20.350  27.102  1.00  0.00     0.002 C 
BRANCH  24  25
ATOM     25  C   UNL A   1      41.948  19.487  27.771  1.00  0.00     0.002 C 
BRANCH  25  26
ATOM     26  C   UNL A   1      42.739  18.577  26.827  1.00  0.00     0.021 C 
BRANCH  26  27
ATOM     27  C   UNL A   1      42.764  19.024  25.370  1.00  0.00     0.116 C 
BRANCH  27  28
ATOM     28  N   UNL A   1      43.992  18.648  24.692  1.00  0.00    -0.352 N 
ATOM     29  C   UNL A   1      45.056  19.435  24.329  1.00  0.00     0.251 C 
ATOM     30  H   UNL A   1      44.072  17.695  24.461  1.00  0.00     0.163 HD
ATOM     31  O   UNL A   1      45.956  18.977  23.635  1.00  0.00    -0.269 OA
BRANCH  29  32
ATOM     32  C   UNL A   1      45.101  20.851  24.753  1.00  0.00     0.039 A 
ATOM     33  C   UNL A   1      45.451  21.143  26.074  1.00  0.00     0.014 A 
ATOM     34  C   UNL A   1      44.790  21.882  23.862  1.00  0.00     0.014 A 
ATOM     35  C   UNL A   1      45.542  22.473  26.488  1.00  0.00     0.010 A 
ATOM     36  C   UNL A   1      44.937  23.209  24.260  1.00  0.00     0.010 A 
ATOM     37  C   UNL A   1      45.312  23.515  25.577  1.00  0.00    -0.014 A 
BRANCH  37  38
ATOM     38  C   UNL A   1      45.447  24.935  25.986  1.00  0.00     0.031 A 
ATOM     39  C   UNL A   1      46.779  25.622  25.892  1.00  0.00     0.074 A 
ATOM     40  C   UNL A   1      44.383  25.587  26.494  1.00  0.00     0.049 A 
ATOM     41  N   UNL A   1      47.121  26.825  26.277  1.00  0.00    -0.248 NA
ATOM     42  C   UNL A   1      47.883  24.843  25.308  1.00  0.00     0.031 C 
ATOM     43  C   UNL A   1      43.047  25.017  26.672  1.00  0.00     0.029 A 
ATOM     44  N   UNL A   1      44.264  26.870  26.969  1.00  0.00    -0.354 N 
ATOM     45  C   UNL A   1      48.475  26.943  25.997  1.00  0.00     0.074 A 
ATOM     46  C   UNL A   1      48.906  25.675  25.449  1.00  0.00     0.031 C 
ATOM     47  C   UNL A   1      42.240  25.948  27.207  1.00  0.00     0.029 A 
ATOM     48  C   UNL A   1      43.007  27.168  27.437  1.00  0.00     0.049 A 
ATOM     49  H   UNL A   1      45.008  27.514  26.973  1.00  0.00     0.167 HD
ATOM     50  C   UNL A   1      49.281  28.018  26.162  1.00  0.00     0.037 A 
ATOM     51  C   UNL A   1      42.533  28.297  27.998  1.00  0.00     0.037 A 
ATOM     52  C   UNL A   1      48.846  29.288  26.680  1.00  0.00     0.049 A 
ATOM     53  C   UNL A   1      43.450  29.479  28.159  1.00  0.00     0.074 A 
ATOM     54  C   UNL A   1      49.579  30.450  26.848  1.00  0.00     0.029 A 
ATOM     55  N   UNL A   1      47.556  29.563  27.108  1.00  0.00    -0.354 N 
ATOM     56  N   UNL A   1      44.716  29.593  27.845  1.00  0.00    -0.248 NA
ATOM     57  C   UNL A   1      42.867  30.695  28.746  1.00  0.00     0.031 C 
ATOM     58  C   UNL A   1      48.740  31.420  27.403  1.00  0.00     0.029 A 
ATOM     59  C   UNL A   1      47.475  30.874  27.547  1.00  0.00     0.049 A 
ATOM     60  H   UNL A   1      46.810  28.922  27.102  1.00  0.00     0.167 HD
ATOM     61  C   UNL A   1      45.075  30.894  28.169  1.00  0.00     0.074 A 
ATOM     62  C   UNL A   1      43.888  31.537  28.693  1.00  0.00     0.031 C 
ATOM     63  C   UNL A   1      46.280  31.501  28.047  1.00  0.00     0.037 A 
BRANCH  50  64
ATOM     64  C   UNL A   1      50.720  27.874  25.765  1.00  0.00     0.064 A 
ATOM     65  C   UNL A   1      51.124  28.006  24.428  1.00  0.00     0.173 A 
ATOM     66  C   UNL A   1      51.710  27.652  26.733  1.00  0.00     0.173 A 
ATOM     67  F   UNL A   1      50.212  28.207  23.464  1.00  0.00    -0.203 F 
ATOM     68  C   UNL A   1      52.466  27.901  24.072  1.00  0.00     0.198 A 
ATOM     69  C   UNL A   1      53.054  27.573  26.376  1.00  0.00     0.198 A 
ATOM     70  F   UNL A   1      51.375  27.522  28.025  1.00  0.00    -0.203 F 
ATOM     71  F   UNL A   1      52.826  27.994  22.785  1.00  0.00    -0.200 F 
ATOM     72  C   UNL A   1      53.430  27.692  25.047  1.00  0.00     0.200 A 
ATOM     73  F   UNL A   1      53.986  27.381  27.321  1.00  0.00    -0.200 F 
ATOM     74  F   UNL A   1      54.722  27.603  24.705  1.00  0.00    -0.200 F 
ENDBRANCH  50  64
BRANCH  51  75
ATOM     75  C   UNL A   1      41.115  28.373  28.432  1.00  0.00     0.064 A 
ATOM     76  C   UNL A   1      40.130  28.890  27.579  1.00  0.00     0.173 A 
ATOM     77  C   UNL A   1      40.719  27.949  29.708  1.00  0.00     0.173 A 
ATOM     78  F   UNL A   1      40.465  29.328  26.357  1.00  0.00    -0.203 F 
ATOM     79  C   UNL A   1      38.805  29.003  27.997  1.00  0.00     0.198 A 
ATOM     80  C   UNL A   1      39.390  28.039  30.115  1.00  0.00     0.198 A 
ATOM     81  F   UNL A   1      41.625  27.444  30.559  1.00  0.00    -0.203 F 
ATOM     82  F   UNL A   1      37.892  29.545  27.180  1.00  0.00    -0.200 F 
ATOM     83  C   UNL A   1      38.436  28.574  29.263  1.00  0.00     0.200 A 
ATOM     84  F   UNL A   1      39.035  27.613  31.334  1.00  0.00    -0.200 F 
ATOM     85  F   UNL A   1      37.163  28.684  29.664  1.00  0.00    -0.200 F 
ENDBRANCH  51  75
BRANCH  63  86
ATOM     86  C   UNL A   1      46.366  32.943  28.450  1.00  0.00     0.064 A 
ATOM     87  C   UNL A   1      46.122  33.977  27.535  1.00  0.00     0.173 A 
ATOM     88  C   UNL A   1      46.656  33.291  29.778  1.00  0.00     0.173 A 
ATOM     89  F   UNL A   1      45.856  33.693  26.252  1.00  0.00    -0.203 F 
ATOM     90  C   UNL A   1      46.186  35.310  27.930  1.00  0.00     0.198 A 
ATOM     91  C   UNL A   1      46.695  34.624  30.175  1.00  0.00     0.198 A 
ATOM     92  F   UNL A   1      46.892  32.337  30.691  1.00  0.00    -0.203 F 
ATOM     93  F   UNL A   1      45.988  36.283  27.030  1.00  0.00    -0.200 F 
ATOM     94  C   UNL A   1      46.465  35.632  29.251  1.00  0.00     0.200 A 
ATOM     95  F   UNL A   1      46.955  34.934  31.453  1.00  0.00    -0.200 F 
ATOM     96  F   UNL A   1      46.521  36.916  29.630  1.00  0.00    -0.200 F 
ENDBRANCH  63  86
ENDBRANCH  37  38
ENDBRANCH  29  32
ENDBRANCH  27  28
ENDBRANCH  26  27
ENDBRANCH  25  26
ENDBRANCH  24  25
ENDBRANCH   1  24
TORSDOF 17
ENDMDL
MODEL 2
REMARK VINA RESULT:     -10.9      6.854     12.645
REMARK SMILES C[C@H](NC(=O)c1cc(S(=O)(=O)N(C)C)cs1)C(=O)NCCCCCCNC(=O)c1ccc(-c2c3nc(c(-c4c(F)c(F)c(F)c(F)c4F)c4ccc([nH]4)c(-c4c(F)c(F)c(F)c(F)c4F)c4nc(c(-c5c(F)c(F)c(F)c(F)c5F)c5ccc2[nH]5)C=C4)C=C3)cc1
REMARK SMILES IDX 21 1 20 2 19 3 17 4 18 5 2 7 1 8 3 9 4 10 5 12 6 13 7 14
REMARK SMILES IDX 16 15 8 16 15 17 9 18 10 19 11 20 12 21 13 22 14 23 22 24
REMARK SMILES IDX 23 25 24 26 25 27 26 28 27 29 28 31 29 32 30 33 91 34 31 35
REMARK SMILES IDX 90 36 32 37 33 38 34 39 84 40 35 41 89 42 83 43 85 44 36 45
REMARK SMILES IDX 88 46 82 47 81 48 37 50 69 51 49 52 68 53 50 54 53 55 67 56
REMARK SMILES IDX 86 57 51 58 52 59 66 61 87 62 54 63 38 64 39 65 47 66 40 67
REMARK SMILES IDX 41 68 45 69 48 70 42 71 43 72 46 73 44 74 70 75 71 76 79 77
REMARK SMILES IDX 72 78 73 79 77 80 80 81 74 82 75 83 78 84 76 85 55 86 56 87
REMARK SMILES IDX 64 88 57 89 58 90 62 91 65 92 59 93 60 94 63 95 61 96
REMARK H PARENT 19 6 3 11 26 30 85 49 53 60
REMARK Flexibility Score: inf
ROOT
ATOM      1  C   UNL A   1      34.774  31.501  27.916  1.00  0.00     0.021 C 
ENDROOT
BRANCH   1   2
ATOM      2  C   UNL A   1      33.607  30.707  27.339  1.00  0.00     0.116 C 
BRANCH   2   3
ATOM      3  N   UNL A   1      33.995  30.010  26.127  1.00  0.00    -0.354 N 
ATOM      4  C   UNL A   1      33.241  29.372  25.190  1.00  0.00     0.242 C 
ATOM      5  O   UNL A   1      33.806  28.978  24.167  1.00  0.00    -0.273 OA
ATOM      6  H   UNL A   1      34.964  29.996  25.953  1.00  0.00     0.163 HD
BRANCH   4   7
ATOM      7  C   UNL A   1      31.717  29.249  25.346  1.00  0.00     0.168 C 
ATOM      8  C   UNL A   1      31.383  27.921  26.027  1.00  0.00     0.041 C 
BRANCH   7   9
ATOM      9  N   UNL A   1      31.043  29.443  24.059  1.00  0.00    -0.340 N 
ATOM     10  C   UNL A   1      30.754  28.546  23.058  1.00  0.00     0.262 C 
ATOM     11  H   UNL A   1      30.747  30.365  23.882  1.00  0.00     0.164 HD
ATOM     12  O   UNL A   1      30.337  29.005  21.995  1.00  0.00    -0.268 OA
BRANCH  10  13
ATOM     13  C   UNL A   1      30.962  27.135  23.307  1.00  0.00     0.093 A 
ATOM     14  C   UNL A   1      32.111  26.387  23.148  1.00  0.00     0.047 A 
ATOM     15  S   UNL A   1      29.671  26.174  23.894  1.00  0.00    -0.137 S 
ATOM     16  C   UNL A   1      31.894  25.001  23.382  1.00  0.00     0.094 A 
ATOM     17  C   UNL A   1      30.607  24.740  23.796  1.00  0.00     0.087 A 
BRANCH  16  18
ATOM     18  S   UNL A   1      33.089  23.778  23.105  1.00  0.00     0.243 S 
ATOM     19  O   UNL A   1      32.329  22.584  22.831  1.00  0.00    -0.207 OA
ATOM     20  O   UNL A   1      33.950  24.395  22.115  1.00  0.00    -0.207 OA
BRANCH  18  21
ATOM     21  N   UNL A   1      33.990  23.546  24.538  1.00  0.00    -0.204 NA
ATOM     22  C   UNL A   1      33.837  24.613  25.554  1.00  0.00     0.124 C 
ATOM     23  C   UNL A   1      33.810  22.204  25.137  1.00  0.00     0.124 C 
ENDBRANCH  18  21
ENDBRANCH  16  18
ENDBRANCH  10  13
ENDBRANCH   7   9
ENDBRANCH   4   7
ENDBRANCH   2   3
ENDBRANCH   1   2
BRANCH   1  24
ATOM     24  C   UNL A   1      34.422  32.338  29.152  1.00  0.00     0.002 C 
BRANCH  24  25
ATOM     25  C   UNL A   1      34.584  33.852  28.985  1.00  0.00     0.002 C 
BRANCH  25  26
ATOM     26  C   UNL A   1      33.279  34.650  28.950  1.00  0.00     0.021 C 
BRANCH  26  27
ATOM     27  C   UNL A   1      33.368  36.057  29.529  1.00  0.00     0.116 C 
BRANCH  27  28
ATOM     28  N   UNL A   1      32.450  36.265  30.636  1.00  0.00    -0.352 N 
ATOM     29  C   UNL A   1      32.523  35.790  31.921  1.00  0.00     0.251 C 
ATOM     30  H   UNL A   1      31.666  36.825  30.435  1.00  0.00     0.163 HD
ATOM     31  O   UNL A   1      31.584  35.949  32.693  1.00  0.00    -0.269 OA
BRANCH  29  32
ATOM     32  C   UNL A   1      33.728  35.058  32.366  1.00  0.00     0.039 A 
ATOM     33  C   UNL A   1      33.601  33.711  32.716  1.00  0.00     0.014 A 
ATOM     34  C   UNL A   1      34.969  35.695  32.451  1.00  0.00     0.014 A 
ATOM     35  C   UNL A   1      34.732  32.986  33.099  1.00  0.00     0.010 A 
ATOM     36  C   UNL A   1      36.105  34.957  32.778  1.00  0.00     0.010 A 
ATOM     37  C   UNL A   1      35.995  33.597  33.106  1.00  0.00    -0.014 A 
BRANCH  37  38
ATOM     38  C   UNL A   1      37.214  32.833  33.468  1.00  0.00     0.031 A 
ATOM     39  C   UNL A   1      37.928  33.123  34.758  1.00  0.00     0.074 A 
ATOM     40  C   UNL A   1      37.709  31.919  32.611  1.00  0.00     0.049 A 
ATOM     41  N   UNL A   1      39.051  32.627  35.213  1.00  0.00    -0.248 NA
ATOM     42  C   UNL A   1      37.310  34.122  35.644  1.00  0.00     0.031 C 
ATOM     43  C   UNL A   1      37.128  31.576  31.312  1.00  0.00     0.029 A 
ATOM     44  N   UNL A   1      38.823  31.122  32.699  1.00  0.00    -0.354 N 
ATOM     45  C   UNL A   1      39.280  33.262  36.427  1.00  0.00     0.074 A 
ATOM     46  C   UNL A   1      38.204  34.209  36.619  1.00  0.00     0.031 C 
ATOM     47  C   UNL A   1      37.884  30.632  30.729  1.00  0.00     0.029 A 
ATOM     48  C   UNL A   1      39.017  30.325  31.597  1.00  0.00     0.049 A 
ATOM     49  H   UNL A   1      39.425  31.121  33.477  1.00  0.00     0.167 HD
ATOM     50  C   UNL A   1      40.285  33.055  37.311  1.00  0.00     0.037 A 
ATOM     51  C   UNL A   1      40.004  29.452  31.317  1.00  0.00     0.037 A 
ATOM     52  C   UNL A   1      41.338  32.092  37.132  1.00  0.00     0.049 A 
ATOM     53  C   UNL A   1      41.102  29.237  32.322  1.00  0.00     0.074 A 
ATOM     54  C   UNL A   1      42.380  31.782  37.990  1.00  0.00     0.029 A 
ATOM     55  N   UNL A   1      41.479  31.276  36.020  1.00  0.00    -0.354 N 
ATOM     56  N   UNL A   1      41.281  29.808  33.487  1.00  0.00    -0.248 NA
ATOM     57  C   UNL A   1      42.133  28.247  31.975  1.00  0.00     0.031 C 
ATOM     58  C   UNL A   1      43.167  30.798  37.384  1.00  0.00     0.029 A 
ATOM     59  C   UNL A   1      42.595  30.468  36.167  1.00  0.00     0.049 A 
ATOM     60  H   UNL A   1      40.877  31.272  35.242  1.00  0.00     0.167 HD
ATOM     61  C   UNL A   1      42.423  29.231  34.024  1.00  0.00     0.074 A 
ATOM     62  C   UNL A   1      42.890  28.254  33.063  1.00  0.00     0.031 C 
ATOM     63  C   UNL A   1      43.033  29.489  35.206  1.00  0.00     0.037 A 
BRANCH  50  64
ATOM     64  C   UNL A   1      40.288  33.881  38.562  1.00  0.00     0.064 A 
ATOM     65  C   UNL A   1      39.598  33.466  39.711  1.00  0.00     0.173 A 
ATOM     66  C   UNL A   1      41.027  35.071  38.631  1.00  0.00     0.173 A 
ATOM     67  F   UNL A   1      38.867  32.341  39.690  1.00  0.00    -0.203 F 
ATOM     68  C   UNL A   1      39.632  34.224  40.879  1.00  0.00     0.198 A 
ATOM     69  C   UNL A   1      41.078  35.813  39.809  1.00  0.00     0.198 A 
ATOM     70  F   UNL A   1      41.707  35.509  37.561  1.00  0.00    -0.203 F 
ATOM     71  F   UNL A   1      38.935  33.828  41.952  1.00  0.00    -0.200 F 
ATOM     72  C   UNL A   1      40.377  35.392  40.929  1.00  0.00     0.200 A 
ATOM     73  F   UNL A   1      41.808  36.936  39.860  1.00  0.00    -0.200 F 
ATOM     74  F   UNL A   1      40.418  36.114  42.057  1.00  0.00    -0.200 F 
ENDBRANCH  50  64
BRANCH  51  75
ATOM     75  C   UNL A   1      39.991  28.701  30.036  1.00  0.00     0.064 A 
ATOM     76  C   UNL A   1      39.407  27.429  29.955  1.00  0.00     0.173 A 
ATOM     77  C   UNL A   1      40.575  29.228  28.875  1.00  0.00     0.173 A 
ATOM     78  F   UNL A   1      38.856  26.875  31.045  1.00  0.00    -0.203 F 
ATOM     79  C   UNL A   1      39.430  26.702  28.767  1.00  0.00     0.198 A 
ATOM     80  C   UNL A   1      40.574  28.510  27.681  1.00  0.00     0.198 A 
ATOM     81  F   UNL A   1      41.143  30.443  28.901  1.00  0.00    -0.203 F 
ATOM     82  F   UNL A   1      38.908  25.469  28.729  1.00  0.00    -0.200 F 
ATOM     83  C   UNL A   1      40.010  27.244  27.630  1.00  0.00     0.200 A 
ATOM     84  F   UNL A   1      41.125  29.043  26.583  1.00  0.00    -0.200 F 
ATOM     85  F   UNL A   1      40.033  26.544  26.489  1.00  0.00    -0.200 F 
ENDBRANCH  51  75
BRANCH  63  86
ATOM     86  C   UNL A   1      44.248  28.678  35.543  1.00  0.00     0.064 A 
ATOM     87  C   UNL A   1      44.152  27.471  36.250  1.00  0.00     0.173 A 
ATOM     88  C   UNL A   1      45.518  29.095  35.118  1.00  0.00     0.173 A 
ATOM     89  F   UNL A   1      42.960  27.040  36.689  1.00  0.00    -0.203 F 
ATOM     90  C   UNL A   1      45.287  26.719  36.537  1.00  0.00     0.198 A 
ATOM     91  C   UNL A   1      46.648  28.329  35.386  1.00  0.00     0.198 A 
ATOM     92  F   UNL A   1      45.661  30.240  34.435  1.00  0.00    -0.203 F 
ATOM     93  F   UNL A   1      45.178  25.588  37.247  1.00  0.00    -0.200 F 
ATOM     94  C   UNL A   1      46.534  27.145  36.098  1.00  0.00     0.200 A 
ATOM     95  F   UNL A   1      47.850  28.736  34.954  1.00  0.00    -0.200 F 
ATOM     96  F   UNL A   1      47.625  26.417  36.372  1.00  0.00    -0.200 F 
ENDBRANCH  63  86
ENDBRANCH  37  38
ENDBRANCH  29  32
ENDBRANCH  27  28
ENDBRANCH  26  27
ENDBRANCH  25  26
ENDBRANCH  24  25
ENDBRANCH   1  24
TORSDOF 17
ENDMDL
MODEL 3
REMARK VINA RESULT:     -10.8      1.536      2.519
REMARK SMILES C[C@H](NC(=O)c1cc(S(=O)(=O)N(C)C)cs1)C(=O)NCCCCCCNC(=O)c1ccc(-c2c3nc(c(-c4c(F)c(F)c(F)c(F)c4F)c4ccc([nH]4)c(-c4c(F)c(F)c(F)c(F)c4F)c4nc(c(-c5c(F)c(F)c(F)c(F)c5F)c5ccc2[nH]5)C=C4)C=C3)cc1
REMARK SMILES IDX 21 1 20 2 19 3 17 4 18 5 2 7 1 8 3 9 4 10 5 12 6 13 7 14
REMARK SMILES IDX 16 15 8 16 15 17 9 18 10 19 11 20 12 21 13 22 14 23 22 24
REMARK SMILES IDX 23 25 24 26 25 27 26 28 27 29 28 31 29 32 30 33 91 34 31 35
REMARK SMILES IDX 90 36 32 37 33 38 34 39 84 40 35 41 89 42 83 43 85 44 36 45
REMARK SMILES IDX 88 46 82 47 81 48 37 50 69 51 49 52 68 53 50 54 53 55 67 56
REMARK SMILES IDX 86 57 51 58 52 59 66 61 87 62 54 63 38 64 39 65 47 66 40 67
REMARK SMILES IDX 41 68 45 69 48 70 42 71 43 72 46 73 44 74 70 75 71 76 79 77
REMARK SMILES IDX 72 78 73 79 77 80 80 81 74 82 75 83 78 84 76 85 55 86 56 87
REMARK SMILES IDX 64 88 57 89 58 90 62 91 65 92 59 93 60 94 63 95 61 96
REMARK H PARENT 19 6 3 11 26 30 85 49 53 60
REMARK Flexibility Score: inf
ROOT
ATOM      1  C   UNL A   1      38.922  23.684  26.658  1.00  0.00     0.021 C 
ENDROOT
BRANCH   1   2
ATOM      2  C   UNL A   1      37.498  23.788  26.122  1.00  0.00     0.116 C 
BRANCH   2   3
ATOM      3  N   UNL A   1      37.456  23.536  24.694  1.00  0.00    -0.354 N 
ATOM      4  C   UNL A   1      36.521  22.904  23.932  1.00  0.00     0.242 C 
ATOM      5  O   UNL A   1      36.653  22.949  22.706  1.00  0.00    -0.273 OA
ATOM      6  H   UNL A   1      38.230  23.879  24.193  1.00  0.00     0.163 HD
BRANCH   4   7
ATOM      7  C   UNL A   1      35.282  22.256  24.568  1.00  0.00     0.168 C 
ATOM      8  C   UNL A   1      35.686  20.949  25.250  1.00  0.00     0.041 C 
BRANCH   7   9
ATOM      9  N   UNL A   1      34.207  22.105  23.583  1.00  0.00    -0.340 N 
ATOM     10  C   UNL A   1      32.990  22.736  23.487  1.00  0.00     0.262 C 
ATOM     11  H   UNL A   1      34.386  21.446  22.874  1.00  0.00     0.164 HD
ATOM     12  O   UNL A   1      32.192  22.294  22.660  1.00  0.00    -0.268 OA
BRANCH  10  13
ATOM     13  C   UNL A   1      32.718  23.861  24.355  1.00  0.00     0.093 A 
ATOM     14  C   UNL A   1      32.989  25.199  24.151  1.00  0.00     0.047 A 
ATOM     15  S   UNL A   1      31.942  23.608  25.862  1.00  0.00    -0.137 S 
ATOM     16  C   UNL A   1      32.680  25.996  25.287  1.00  0.00     0.094 A 
ATOM     17  C   UNL A   1      32.102  25.259  26.296  1.00  0.00     0.087 A 
BRANCH  16  18
ATOM     18  S   UNL A   1      33.057  27.682  25.414  1.00  0.00     0.243 S 
ATOM     19  O   UNL A   1      33.628  27.829  26.729  1.00  0.00    -0.207 OA
ATOM     20  O   UNL A   1      33.817  27.928  24.203  1.00  0.00    -0.207 OA
BRANCH  18  21
ATOM     21  N   UNL A   1      31.607  28.584  25.335  1.00  0.00    -0.204 NA
ATOM     22  C   UNL A   1      31.778  30.053  25.414  1.00  0.00     0.124 C 
ATOM     23  C   UNL A   1      30.738  28.205  24.198  1.00  0.00     0.124 C 
ENDBRANCH  18  21
ENDBRANCH  16  18
ENDBRANCH  10  13
ENDBRANCH   7   9
ENDBRANCH   4   7
ENDBRANCH   2   3
ENDBRANCH   1   2
BRANCH   1  24
ATOM     24  C   UNL A   1      39.578  22.313  26.455  1.00  0.00     0.002 C 
BRANCH  24  25
ATOM     25  C   UNL A   1      40.528  21.871  27.573  1.00  0.00     0.002 C 
BRANCH  25  26
ATOM     26  C   UNL A   1      41.006  20.419  27.490  1.00  0.00     0.021 C 
BRANCH  26  27
ATOM     27  C   UNL A   1      40.846  19.764  26.123  1.00  0.00     0.116 C 
BRANCH  27  28
ATOM     28  N   UNL A   1      42.035  19.042  25.707  1.00  0.00    -0.352 N 
ATOM     29  C   UNL A   1      43.295  19.524  25.455  1.00  0.00     0.251 C 
ATOM     30  H   UNL A   1      41.922  18.072  25.590  1.00  0.00     0.163 HD
ATOM     31  O   UNL A   1      44.153  18.791  24.975  1.00  0.00    -0.269 OA
BRANCH  29  32
ATOM     32  C   UNL A   1      43.610  20.941  25.736  1.00  0.00     0.039 A 
ATOM     33  C   UNL A   1      43.305  21.900  24.766  1.00  0.00     0.014 A 
ATOM     34  C   UNL A   1      44.212  21.322  26.938  1.00  0.00     0.014 A 
ATOM     35  C   UNL A   1      43.553  23.249  25.025  1.00  0.00     0.010 A 
ATOM     36  C   UNL A   1      44.406  22.672  27.219  1.00  0.00     0.010 A 
ATOM     37  C   UNL A   1      44.080  23.647  26.263  1.00  0.00    -0.014 A 
BRANCH  37  38
ATOM     38  C   UNL A   1      44.310  25.080  26.573  1.00  0.00     0.031 A 
ATOM     39  C   UNL A   1      45.670  25.684  26.370  1.00  0.00     0.074 A 
ATOM     40  C   UNL A   1      43.310  25.820  27.090  1.00  0.00     0.049 A 
ATOM     41  N   UNL A   1      46.094  26.888  26.661  1.00  0.00    -0.248 NA
ATOM     42  C   UNL A   1      46.700  24.810  25.785  1.00  0.00     0.031 C 
ATOM     43  C   UNL A   1      41.957  25.338  27.369  1.00  0.00     0.029 A 
ATOM     44  N   UNL A   1      43.284  27.134  27.486  1.00  0.00    -0.354 N 
ATOM     45  C   UNL A   1      47.437  26.911  26.308  1.00  0.00     0.074 A 
ATOM     46  C   UNL A   1      47.770  25.591  25.822  1.00  0.00     0.031 C 
ATOM     47  C   UNL A   1      41.230  26.344  27.882  1.00  0.00     0.029 A 
ATOM     48  C   UNL A   1      42.071  27.531  27.995  1.00  0.00     0.049 A 
ATOM     49  H   UNL A   1      44.060  27.735  27.413  1.00  0.00     0.167 HD
ATOM     50  C   UNL A   1      48.306  27.948  26.364  1.00  0.00     0.037 A 
ATOM     51  C   UNL A   1      41.688  28.717  28.505  1.00  0.00     0.037 A 
ATOM     52  C   UNL A   1      47.966  29.269  26.821  1.00  0.00     0.049 A 
ATOM     53  C   UNL A   1      42.672  29.854  28.545  1.00  0.00     0.074 A 
ATOM     54  C   UNL A   1      48.768  30.396  26.877  1.00  0.00     0.029 A 
ATOM     55  N   UNL A   1      46.717  29.642  27.292  1.00  0.00    -0.354 N 
ATOM     56  N   UNL A   1      43.925  29.877  28.163  1.00  0.00    -0.248 NA
ATOM     57  C   UNL A   1      42.186  31.134  29.081  1.00  0.00     0.031 C 
ATOM     58  C   UNL A   1      48.011  31.445  27.410  1.00  0.00     0.029 A 
ATOM     59  C   UNL A   1      46.728  30.981  27.649  1.00  0.00     0.049 A 
ATOM     60  H   UNL A   1      45.938  29.045  27.363  1.00  0.00     0.167 HD
ATOM     61  C   UNL A   1      44.368  31.173  28.385  1.00  0.00     0.074 A 
ATOM     62  C   UNL A   1      43.245  31.913  28.924  1.00  0.00     0.031 C 
ATOM     63  C   UNL A   1      45.596  31.703  28.166  1.00  0.00     0.037 A 
BRANCH  50  64
ATOM     64  C   UNL A   1      49.712  27.699  25.907  1.00  0.00     0.064 A 
ATOM     65  C   UNL A   1      50.749  27.479  26.826  1.00  0.00     0.173 A 
ATOM     66  C   UNL A   1      50.018  27.628  24.540  1.00  0.00     0.173 A 
ATOM     67  F   UNL A   1      50.509  27.549  28.145  1.00  0.00    -0.203 F 
ATOM     68  C   UNL A   1      52.046  27.218  26.393  1.00  0.00     0.198 A 
ATOM     69  C   UNL A   1      51.312  27.341  24.111  1.00  0.00     0.198 A 
ATOM     70  F   UNL A   1      49.061  27.826  23.622  1.00  0.00    -0.203 F 
ATOM     71  F   UNL A   1      53.029  27.049  27.289  1.00  0.00    -0.200 F 
ATOM     72  C   UNL A   1      52.325  27.142  25.037  1.00  0.00     0.200 A 
ATOM     73  F   UNL A   1      51.578  27.257  22.800  1.00  0.00    -0.200 F 
ATOM     74  F   UNL A   1      53.571  26.879  24.622  1.00  0.00    -0.200 F 
ENDBRANCH  50  64
BRANCH  51  75
ATOM     75  C   UNL A   1      40.300  28.899  29.002  1.00  0.00     0.064 A 
ATOM     76  C   UNL A   1      39.996  28.731  30.360  1.00  0.00     0.173 A 
ATOM     77  C   UNL A   1      39.250  29.226  28.133  1.00  0.00     0.173 A 
ATOM     78  F   UNL A   1      40.963  28.396  31.226  1.00  0.00    -0.203 F 
ATOM     79  C   UNL A   1      38.689  28.859  30.826  1.00  0.00     0.198 A 
ATOM     80  C   UNL A   1      37.948  29.380  28.603  1.00  0.00     0.198 A 
ATOM     81  F   UNL A   1      39.492  29.402  26.825  1.00  0.00    -0.203 F 
ATOM     82  F   UNL A   1      38.417  28.646  32.120  1.00  0.00    -0.200 F 
ATOM     83  C   UNL A   1      37.667  29.187  29.947  1.00  0.00     0.200 A 
ATOM     84  F   UNL A   1      36.966  29.707  27.754  1.00  0.00    -0.200 F 
ATOM     85  F   UNL A   1      36.410  29.308  30.395  1.00  0.00    -0.200 F 
ENDBRANCH  51  75
BRANCH  63  86
ATOM     86  C   UNL A   1      45.778  33.160  28.471  1.00  0.00     0.064 A 
ATOM     87  C   UNL A   1      45.502  34.150  27.518  1.00  0.00     0.173 A 
ATOM     88  C   UNL A   1      46.197  33.569  29.746  1.00  0.00     0.173 A 
ATOM     89  F   UNL A   1      45.114  33.805  26.281  1.00  0.00    -0.203 F 
ATOM     90  C   UNL A   1      45.658  35.499  27.823  1.00  0.00     0.198 A 
ATOM     91  C   UNL A   1      46.327  34.919  30.056  1.00  0.00     0.198 A 
ATOM     92  F   UNL A   1      46.468  32.659  30.694  1.00  0.00    -0.203 F 
ATOM     93  F   UNL A   1      45.426  36.427  26.885  1.00  0.00    -0.200 F 
ATOM     94  C   UNL A   1      46.063  35.882  29.094  1.00  0.00     0.200 A 
ATOM     95  F   UNL A   1      46.710  35.289  31.286  1.00  0.00    -0.200 F 
ATOM     96  F   UNL A   1      46.207  37.182  29.387  1.00  0.00    -0.200 F 
ENDBRANCH  63  86
ENDBRANCH  37  38
ENDBRANCH  29  32
ENDBRANCH  27  28
ENDBRANCH  26  27
ENDBRANCH  25  26
ENDBRANCH  24  25
ENDBRANCH   1  24
TORSDOF 17
ENDMDL
