MODEL 1
REMARK VINA RESULT:     -11.8      0.000      0.000
REMARK SMILES CC(C)Cc1ccc([C@H](CF)C(=O)NCCCCCCNC(=O)c2ccc(-c3c4nc(c(-c5c(F)c(F)c(F)c(F)c5F)c5ccc([nH]5)c(-c5c(F)c(F)c(F)c(F)c5F)c5nc(c(-c6c(F)c(F)c(F)c(F)c6F)c6ccc3[nH]6)C=C5)C=C4)cc2)cc1
REMARK SMILES IDX 17 1 16 2 15 3 14 4 12 5 13 6 9 8 8 9 5 10 6 11 88 12 7 13
REMARK SMILES IDX 87 14 4 15 2 16 1 17 3 18 10 19 11 20 18 21 19 22 20 23
REMARK SMILES IDX 21 24 22 25 23 27 24 28 25 29 86 30 26 31 85 32 27 33 28 34
REMARK SMILES IDX 29 35 79 36 30 37 84 38 78 39 80 40 31 41 83 42 77 43 76 44
REMARK SMILES IDX 32 46 64 47 44 48 63 49 45 50 48 51 62 52 81 53 46 54 47 55
REMARK SMILES IDX 61 57 82 58 49 59 33 60 34 61 42 62 35 63 36 64 40 65 43 66
REMARK SMILES IDX 37 67 38 68 41 69 39 70 65 71 66 72 74 73 67 74 68 75 72 76
REMARK SMILES IDX 75 77 69 78 70 79 73 80 71 81 50 82 51 83 59 84 52 85 53 86
REMARK SMILES IDX 57 87 60 88 54 89 55 90 58 91 56 92
REMARK H PARENT 14 7 21 26 80 45 48 56
REMARK Flexibility Score: inf
ROOT
ATOM      1  C   UNL A   1      32.416  29.927  27.216  1.00  0.00     0.002 C 
ENDROOT
BRANCH   1   2
ATOM      2  C   UNL A   1      31.803  28.587  27.638  1.00  0.00     0.021 C 
BRANCH   2   3
ATOM      3  C   UNL A   1      32.046  27.458  26.646  1.00  0.00     0.116 C 
BRANCH   3   4
ATOM      4  N   UNL A   1      31.191  26.317  26.921  1.00  0.00    -0.355 N 
ATOM      5  C   UNL A   1      30.709  25.356  26.081  1.00  0.00     0.230 C 
ATOM      6  O   UNL A   1      30.090  24.419  26.592  1.00  0.00    -0.274 OA
ATOM      7  H   UNL A   1      30.917  26.220  27.862  1.00  0.00     0.163 HD
BRANCH   5   8
ATOM      8  C   UNL A   1      30.884  25.448  24.569  1.00  0.00     0.139 C 
BRANCH   8   9
ATOM      9  C   UNL A   1      30.094  26.558  23.877  1.00  0.00    -0.033 A 
ATOM     10  C   UNL A   1      28.689  28.706  22.676  1.00  0.00    -0.048 A 
ATOM     11  C   UNL A   1      28.001  27.714  23.376  1.00  0.00     0.004 A 
ATOM     12  C   UNL A   1      30.080  28.623  22.578  1.00  0.00     0.004 A 
ATOM     13  C   UNL A   1      28.699  26.676  23.995  1.00  0.00     0.005 A 
ATOM     14  C   UNL A   1      30.772  27.564  23.172  1.00  0.00     0.005 A 
BRANCH  10  15
ATOM     15  C   UNL A   1      27.947  29.906  22.143  1.00  0.00     0.038 C 
BRANCH  15  16
ATOM     16  C   UNL A   1      28.750  31.210  22.327  1.00  0.00    -0.013 C 
ATOM     17  C   UNL A   1      28.180  32.362  21.493  1.00  0.00     0.008 C 
ATOM     18  C   UNL A   1      28.784  31.603  23.804  1.00  0.00     0.008 C 
ENDBRANCH  15  16
ENDBRANCH  10  15
ENDBRANCH   8   9
BRANCH   8  19
ATOM     19  C   UNL A   1      30.708  24.037  23.996  1.00  0.00     0.232 C 
ATOM     20  F   UNL A   1      30.995  24.031  22.663  1.00  0.00    -0.250 F 
ENDBRANCH   8  19
ENDBRANCH   5   8
ENDBRANCH   3   4
ENDBRANCH   2   3
ENDBRANCH   1   2
BRANCH   1  21
ATOM     21  C   UNL A   1      31.590  30.736  26.211  1.00  0.00     0.002 C 
BRANCH  21  22
ATOM     22  C   UNL A   1      31.453  32.227  26.531  1.00  0.00     0.021 C 
BRANCH  22  23
ATOM     23  C   UNL A   1      32.636  32.827  27.280  1.00  0.00     0.116 C 
BRANCH  23  24
ATOM     24  N   UNL A   1      32.406  34.212  27.658  1.00  0.00    -0.352 N 
ATOM     25  C   UNL A   1      33.012  34.950  28.641  1.00  0.00     0.251 C 
ATOM     26  H   UNL A   1      31.719  34.685  27.135  1.00  0.00     0.163 HD
ATOM     27  O   UNL A   1      32.576  36.059  28.942  1.00  0.00    -0.269 OA
BRANCH  25  28
ATOM     28  C   UNL A   1      34.179  34.398  29.357  1.00  0.00     0.039 A 
ATOM     29  C   UNL A   1      33.974  33.714  30.557  1.00  0.00     0.014 A 
ATOM     30  C   UNL A   1      35.472  34.556  28.848  1.00  0.00     0.014 A 
ATOM     31  C   UNL A   1      35.061  33.144  31.222  1.00  0.00     0.010 A 
ATOM     32  C   UNL A   1      36.543  33.923  29.470  1.00  0.00     0.010 A 
ATOM     33  C   UNL A   1      36.350  33.218  30.669  1.00  0.00    -0.014 A 
BRANCH  33  34
ATOM     34  C   UNL A   1      37.512  32.585  31.341  1.00  0.00     0.031 A 
ATOM     35  C   UNL A   1      38.240  31.452  30.671  1.00  0.00     0.074 A 
ATOM     36  C   UNL A   1      37.884  32.999  32.569  1.00  0.00     0.049 A 
ATOM     37  N   UNL A   1      39.224  30.716  31.123  1.00  0.00    -0.248 NA
ATOM     38  C   UNL A   1      37.786  31.080  29.321  1.00  0.00     0.031 C 
ATOM     39  C   UNL A   1      37.238  34.066  33.335  1.00  0.00     0.029 A 
ATOM     40  N   UNL A   1      38.892  32.564  33.393  1.00  0.00    -0.354 N 
ATOM     41  C   UNL A   1      39.503  29.801  30.117  1.00  0.00     0.074 A 
ATOM     42  C   UNL A   1      38.545  30.027  29.058  1.00  0.00     0.031 C 
ATOM     43  C   UNL A   1      37.877  34.216  34.506  1.00  0.00     0.029 A 
ATOM     44  C   UNL A   1      38.949  33.230  34.593  1.00  0.00     0.049 A 
ATOM     45  H   UNL A   1      39.515  31.843  33.147  1.00  0.00     0.167 HD
ATOM     46  C   UNL A   1      40.493  28.877  30.066  1.00  0.00     0.037 A 
ATOM     47  C   UNL A   1      39.767  33.054  35.648  1.00  0.00     0.037 A 
ATOM     48  C   UNL A   1      41.455  28.664  31.115  1.00  0.00     0.049 A 
ATOM     49  C   UNL A   1      40.832  31.990  35.577  1.00  0.00     0.074 A 
ATOM     50  C   UNL A   1      42.503  27.760  31.154  1.00  0.00     0.029 A 
ATOM     51  N   UNL A   1      41.489  29.369  32.308  1.00  0.00    -0.354 N 
ATOM     52  N   UNL A   1      41.117  31.163  34.600  1.00  0.00    -0.248 NA
ATOM     53  C   UNL A   1      41.697  31.840  36.756  1.00  0.00     0.031 C 
ATOM     54  C   UNL A   1      43.149  27.893  32.386  1.00  0.00     0.029 A 
ATOM     55  C   UNL A   1      42.537  28.915  33.093  1.00  0.00     0.049 A 
ATOM     56  H   UNL A   1      40.863  30.085  32.560  1.00  0.00     0.167 HD
ATOM     57  C   UNL A   1      42.215  30.429  35.028  1.00  0.00     0.074 A 
ATOM     58  C   UNL A   1      42.556  30.918  36.347  1.00  0.00     0.031 C 
ATOM     59  C   UNL A   1      42.882  29.438  34.389  1.00  0.00     0.037 A 
BRANCH  46  60
ATOM     60  C   UNL A   1      40.602  28.041  28.825  1.00  0.00     0.064 A 
ATOM     61  C   UNL A   1      39.899  26.833  28.695  1.00  0.00     0.173 A 
ATOM     62  C   UNL A   1      41.364  28.477  27.730  1.00  0.00     0.173 A 
ATOM     63  F   UNL A   1      39.167  26.366  29.717  1.00  0.00    -0.203 F 
ATOM     64  C   UNL A   1      39.969  26.084  27.523  1.00  0.00     0.198 A 
ATOM     65  C   UNL A   1      41.407  27.741  26.549  1.00  0.00     0.198 A 
ATOM     66  F   UNL A   1      42.052  29.625  27.799  1.00  0.00    -0.203 F 
ATOM     67  F   UNL A   1      39.318  24.916  27.438  1.00  0.00    -0.200 F 
ATOM     68  C   UNL A   1      40.713  26.543  26.448  1.00  0.00     0.200 A 
ATOM     69  F   UNL A   1      42.116  28.192  25.505  1.00  0.00    -0.200 F 
ATOM     70  F   UNL A   1      40.765  25.831  25.315  1.00  0.00    -0.200 F 
ENDBRANCH  46  60
BRANCH  47  71
ATOM     71  C   UNL A   1      39.630  33.899  36.865  1.00  0.00     0.064 A 
ATOM     72  C   UNL A   1      38.855  33.475  37.955  1.00  0.00     0.173 A 
ATOM     73  C   UNL A   1      40.219  35.169  36.943  1.00  0.00     0.173 A 
ATOM     74  F   UNL A   1      38.254  32.275  37.922  1.00  0.00    -0.203 F 
ATOM     75  C   UNL A   1      38.638  34.304  39.052  1.00  0.00     0.198 A 
ATOM     76  C   UNL A   1      40.031  35.984  38.058  1.00  0.00     0.198 A 
ATOM     77  F   UNL A   1      40.976  35.623  35.934  1.00  0.00    -0.203 F 
ATOM     78  F   UNL A   1      37.831  33.902  40.044  1.00  0.00    -0.200 F 
ATOM     79  C   UNL A   1      39.227  35.558  39.105  1.00  0.00     0.200 A 
ATOM     80  F   UNL A   1      40.615  37.189  38.110  1.00  0.00    -0.200 F 
ATOM     81  F   UNL A   1      39.008  36.361  40.154  1.00  0.00    -0.200 F 
ENDBRANCH  47  71
BRANCH  59  82
ATOM     82  C   UNL A   1      44.086  28.860  35.076  1.00  0.00     0.064 A 
ATOM     83  C   UNL A   1      45.362  29.423  34.933  1.00  0.00     0.173 A 
ATOM     84  C   UNL A   1      43.949  27.745  35.918  1.00  0.00     0.173 A 
ATOM     85  F   UNL A   1      45.547  30.481  34.128  1.00  0.00    -0.203 F 
ATOM     86  C   UNL A   1      46.463  28.874  35.584  1.00  0.00     0.198 A 
ATOM     87  C   UNL A   1      45.047  27.220  36.594  1.00  0.00     0.198 A 
ATOM     88  F   UNL A   1      42.749  27.174  36.096  1.00  0.00    -0.203 F 
ATOM     89  F   UNL A   1      47.682  29.395  35.390  1.00  0.00    -0.200 F 
ATOM     90  C   UNL A   1      46.303  27.779  36.420  1.00  0.00     0.200 A 
ATOM     91  F   UNL A   1      44.887  26.171  37.414  1.00  0.00    -0.200 F 
ATOM     92  F   UNL A   1      47.364  27.255  37.051  1.00  0.00    -0.200 F 
ENDBRANCH  59  82
ENDBRANCH  33  34
ENDBRANCH  25  28
ENDBRANCH  23  24
ENDBRANCH  22  23
ENDBRANCH  21  22
ENDBRANCH   1  21
TORSDOF 17
ENDMDL
MODEL 2
REMARK VINA RESULT:     -11.8      6.035     11.484
REMARK SMILES CC(C)Cc1ccc([C@H](CF)C(=O)NCCCCCCNC(=O)c2ccc(-c3c4nc(c(-c5c(F)c(F)c(F)c(F)c5F)c5ccc([nH]5)c(-c5c(F)c(F)c(F)c(F)c5F)c5nc(c(-c6c(F)c(F)c(F)c(F)c6F)c6ccc3[nH]6)C=C5)C=C4)cc2)cc1
REMARK SMILES IDX 17 1 16 2 15 3 14 4 12 5 13 6 9 8 8 9 5 10 6 11 88 12 7 13
REMARK SMILES IDX 87 14 4 15 2 16 1 17 3 18 10 19 11 20 18 21 19 22 20 23
REMARK SMILES IDX 21 24 22 25 23 27 24 28 25 29 86 30 26 31 85 32 27 33 28 34
REMARK SMILES IDX 29 35 79 36 30 37 84 38 78 39 80 40 31 41 83 42 77 43 76 44
REMARK SMILES IDX 32 46 64 47 44 48 63 49 45 50 48 51 62 52 81 53 46 54 47 55
REMARK SMILES IDX 61 57 82 58 49 59 33 60 34 61 42 62 35 63 36 64 40 65 43 66
REMARK SMILES IDX 37 67 38 68 41 69 39 70 65 71 66 72 74 73 67 74 68 75 72 76
REMARK SMILES IDX 75 77 69 78 70 79 73 80 71 81 50 82 51 83 59 84 52 85 53 86
REMARK SMILES IDX 57 87 60 88 54 89 55 90 58 91 56 92
REMARK H PARENT 14 7 21 26 80 45 48 56
REMARK Flexibility Score: inf
ROOT
ATOM      1  C   UNL A   1      36.915  21.927  24.319  1.00  0.00     0.002 C 
ENDROOT
BRANCH   1   2
ATOM      2  C   UNL A   1      36.884  23.132  25.266  1.00  0.00     0.021 C 
BRANCH   2   3
ATOM      3  C   UNL A   1      35.609  23.960  25.170  1.00  0.00     0.116 C 
BRANCH   3   4
ATOM      4  N   UNL A   1      35.152  24.072  23.796  1.00  0.00    -0.355 N 
ATOM      5  C   UNL A   1      33.904  23.914  23.270  1.00  0.00     0.230 C 
ATOM      6  O   UNL A   1      33.759  24.180  22.073  1.00  0.00    -0.274 OA
ATOM      7  H   UNL A   1      35.852  24.298  23.142  1.00  0.00     0.163 HD
BRANCH   5   8
ATOM      8  C   UNL A   1      32.738  23.392  24.102  1.00  0.00     0.139 C 
BRANCH   8   9
ATOM      9  C   UNL A   1      32.703  21.879  24.315  1.00  0.00    -0.033 A 
ATOM     10  C   UNL A   1      32.770  19.077  24.734  1.00  0.00    -0.048 A 
ATOM     11  C   UNL A   1      32.446  19.597  23.481  1.00  0.00     0.004 A 
ATOM     12  C   UNL A   1      33.060  19.959  25.778  1.00  0.00     0.004 A 
ATOM     13  C   UNL A   1      32.448  20.977  23.268  1.00  0.00     0.005 A 
ATOM     14  C   UNL A   1      33.029  21.341  25.569  1.00  0.00     0.005 A 
BRANCH  10  15
ATOM     15  C   UNL A   1      32.919  17.587  24.918  1.00  0.00     0.038 C 
BRANCH  15  16
ATOM     16  C   UNL A   1      34.288  17.079  24.420  1.00  0.00    -0.013 C 
ATOM     17  C   UNL A   1      34.833  15.942  25.291  1.00  0.00     0.008 C 
ATOM     18  C   UNL A   1      34.181  16.616  22.967  1.00  0.00     0.008 C 
ENDBRANCH  15  16
ENDBRANCH  10  15
ENDBRANCH   8   9
BRANCH   8  19
ATOM     19  C   UNL A   1      31.455  24.025  23.554  1.00  0.00     0.232 C 
ATOM     20  F   UNL A   1      30.420  23.815  24.415  1.00  0.00    -0.250 F 
ENDBRANCH   8  19
ENDBRANCH   5   8
ENDBRANCH   3   4
ENDBRANCH   2   3
ENDBRANCH   1   2
BRANCH   1  21
ATOM     21  C   UNL A   1      36.636  20.571  24.977  1.00  0.00     0.002 C 
BRANCH  21  22
ATOM     22  C   UNL A   1      37.813  19.593  24.976  1.00  0.00     0.021 C 
BRANCH  22  23
ATOM     23  C   UNL A   1      39.047  20.083  25.722  1.00  0.00     0.116 C 
BRANCH  23  24
ATOM     24  N   UNL A   1      40.060  19.049  25.856  1.00  0.00    -0.352 N 
ATOM     25  C   UNL A   1      41.406  19.182  26.077  1.00  0.00     0.251 C 
ATOM     26  H   UNL A   1      39.732  18.124  25.778  1.00  0.00     0.163 HD
ATOM     27  O   UNL A   1      42.149  18.206  25.992  1.00  0.00    -0.269 OA
BRANCH  25  28
ATOM     28  C   UNL A   1      41.968  20.510  26.393  1.00  0.00     0.039 A 
ATOM     29  C   UNL A   1      42.304  21.368  25.344  1.00  0.00     0.014 A 
ATOM     30  C   UNL A   1      42.166  20.906  27.719  1.00  0.00     0.014 A 
ATOM     31  C   UNL A   1      42.790  22.646  25.626  1.00  0.00     0.010 A 
ATOM     32  C   UNL A   1      42.579  22.205  27.999  1.00  0.00     0.010 A 
ATOM     33  C   UNL A   1      42.904  23.085  26.955  1.00  0.00    -0.014 A 
BRANCH  33  34
ATOM     34  C   UNL A   1      43.384  24.454  27.274  1.00  0.00     0.031 A 
ATOM     35  C   UNL A   1      42.421  25.481  27.804  1.00  0.00     0.074 A 
ATOM     36  C   UNL A   1      44.670  24.784  27.046  1.00  0.00     0.049 A 
ATOM     37  N   UNL A   1      42.622  26.747  28.067  1.00  0.00    -0.248 NA
ATOM     38  C   UNL A   1      41.041  25.031  28.048  1.00  0.00     0.031 C 
ATOM     39  C   UNL A   1      45.692  23.886  26.505  1.00  0.00     0.029 A 
ATOM     40  N   UNL A   1      45.338  25.969  27.233  1.00  0.00    -0.354 N 
ATOM     41  C   UNL A   1      41.400  27.240  28.506  1.00  0.00     0.074 A 
ATOM     42  C   UNL A   1      40.447  26.158  28.412  1.00  0.00     0.031 C 
ATOM     43  C   UNL A   1      46.859  24.545  26.423  1.00  0.00     0.029 A 
ATOM     44  C   UNL A   1      46.660  25.921  26.864  1.00  0.00     0.049 A 
ATOM     45  H   UNL A   1      44.909  26.776  27.597  1.00  0.00     0.167 HD
ATOM     46  C   UNL A   1      41.107  28.475  28.979  1.00  0.00     0.037 A 
ATOM     47  C   UNL A   1      47.600  26.885  26.870  1.00  0.00     0.037 A 
ATOM     48  C   UNL A   1      42.061  29.547  29.086  1.00  0.00     0.049 A 
ATOM     49  C   UNL A   1      47.233  28.262  27.363  1.00  0.00     0.074 A 
ATOM     50  C   UNL A   1      41.866  30.832  29.563  1.00  0.00     0.029 A 
ATOM     51  N   UNL A   1      43.395  29.455  28.717  1.00  0.00    -0.354 N 
ATOM     52  N   UNL A   1      46.085  28.701  27.821  1.00  0.00    -0.248 NA
ATOM     53  C   UNL A   1      48.296  29.276  27.348  1.00  0.00     0.031 C 
ATOM     54  C   UNL A   1      43.072  31.529  29.448  1.00  0.00     0.029 A 
ATOM     55  C   UNL A   1      44.031  30.663  28.949  1.00  0.00     0.049 A 
ATOM     56  H   UNL A   1      43.824  28.652  28.346  1.00  0.00     0.167 HD
ATOM     57  C   UNL A   1      46.301  30.023  28.187  1.00  0.00     0.074 A 
ATOM     58  C   UNL A   1      47.692  30.311  27.912  1.00  0.00     0.031 C 
ATOM     59  C   UNL A   1      45.426  30.921  28.701  1.00  0.00     0.037 A 
BRANCH  46  60
ATOM     60  C   UNL A   1      39.703  28.730  29.440  1.00  0.00     0.064 A 
ATOM     61  C   UNL A   1      39.314  28.481  30.766  1.00  0.00     0.173 A 
ATOM     62  C   UNL A   1      38.751  29.287  28.572  1.00  0.00     0.173 A 
ATOM     63  F   UNL A   1      40.182  27.938  31.632  1.00  0.00    -0.203 F 
ATOM     64  C   UNL A   1      38.022  28.763  31.200  1.00  0.00     0.198 A 
ATOM     65  C   UNL A   1      37.468  29.595  29.018  1.00  0.00     0.198 A 
ATOM     66  F   UNL A   1      39.070  29.549  27.296  1.00  0.00    -0.203 F 
ATOM     67  F   UNL A   1      37.664  28.481  32.461  1.00  0.00    -0.200 F 
ATOM     68  C   UNL A   1      37.103  29.329  30.330  1.00  0.00     0.200 A 
ATOM     69  F   UNL A   1      36.586  30.156  28.179  1.00  0.00    -0.200 F 
ATOM     70  F   UNL A   1      35.865  29.616  30.754  1.00  0.00    -0.200 F 
ENDBRANCH  46  60
BRANCH  47  71
ATOM     71  C   UNL A   1      48.984  26.599  26.403  1.00  0.00     0.064 A 
ATOM     72  C   UNL A   1      49.960  26.122  27.290  1.00  0.00     0.173 A 
ATOM     73  C   UNL A   1      49.376  26.850  25.081  1.00  0.00     0.173 A 
ATOM     74  F   UNL A   1      49.641  25.884  28.572  1.00  0.00    -0.203 F 
ATOM     75  C   UNL A   1      51.282  25.952  26.885  1.00  0.00     0.198 A 
ATOM     76  C   UNL A   1      50.690  26.645  24.667  1.00  0.00     0.198 A 
ATOM     77  F   UNL A   1      48.482  27.300  24.188  1.00  0.00    -0.203 F 
ATOM     78  F   UNL A   1      52.209  25.568  27.773  1.00  0.00    -0.200 F 
ATOM     79  C   UNL A   1      51.646  26.211  25.572  1.00  0.00     0.200 A 
ATOM     80  F   UNL A   1      51.034  26.883  23.393  1.00  0.00    -0.200 F 
ATOM     81  F   UNL A   1      52.919  26.060  25.185  1.00  0.00    -0.200 F 
ENDBRANCH  47  71
BRANCH  59  82
ATOM     82  C   UNL A   1      45.960  32.276  29.063  1.00  0.00     0.064 A 
ATOM     83  C   UNL A   1      45.939  33.348  28.159  1.00  0.00     0.173 A 
ATOM     84  C   UNL A   1      46.468  32.513  30.350  1.00  0.00     0.173 A 
ATOM     85  F   UNL A   1      45.477  33.169  26.912  1.00  0.00    -0.203 F 
ATOM     86  C   UNL A   1      46.435  34.597  28.518  1.00  0.00     0.198 A 
ATOM     87  C   UNL A   1      46.931  33.774  30.717  1.00  0.00     0.198 A 
ATOM     88  F   UNL A   1      46.503  31.525  31.257  1.00  0.00    -0.203 F 
ATOM     89  F   UNL A   1      46.455  35.592  27.620  1.00  0.00    -0.200 F 
ATOM     90  C   UNL A   1      46.923  34.812  29.799  1.00  0.00     0.200 A 
ATOM     91  F   UNL A   1      47.387  33.982  31.960  1.00  0.00    -0.200 F 
ATOM     92  F   UNL A   1      47.393  36.018  30.146  1.00  0.00    -0.200 F 
ENDBRANCH  59  82
ENDBRANCH  33  34
ENDBRANCH  25  28
ENDBRANCH  23  24
ENDBRANCH  22  23
ENDBRANCH  21  22
ENDBRANCH   1  21
TORSDOF 17
ENDMDL
MODEL 3
REMARK VINA RESULT:     -11.7      0.980      7.431
REMARK SMILES CC(C)Cc1ccc([C@H](CF)C(=O)NCCCCCCNC(=O)c2ccc(-c3c4nc(c(-c5c(F)c(F)c(F)c(F)c5F)c5ccc([nH]5)c(-c5c(F)c(F)c(F)c(F)c5F)c5nc(c(-c6c(F)c(F)c(F)c(F)c6F)c6ccc3[nH]6)C=C5)C=C4)cc2)cc1
REMARK SMILES IDX 17 1 16 2 15 3 14 4 12 5 13 6 9 8 8 9 5 10 6 11 88 12 7 13
REMARK SMILES IDX 87 14 4 15 2 16 1 17 3 18 10 19 11 20 18 21 19 22 20 23
REMARK SMILES IDX 21 24 22 25 23 27 24 28 25 29 86 30 26 31 85 32 27 33 28 34
REMARK SMILES IDX 29 35 79 36 30 37 84 38 78 39 80 40 31 41 83 42 77 43 76 44
REMARK SMILES IDX 32 46 64 47 44 48 63 49 45 50 48 51 62 52 81 53 46 54 47 55
REMARK SMILES IDX 61 57 82 58 49 59 33 60 34 61 42 62 35 63 36 64 40 65 43 66
REMARK SMILES IDX 37 67 38 68 41 69 39 70 65 71 66 72 74 73 67 74 68 75 72 76
REMARK SMILES IDX 75 77 69 78 70 79 73 80 71 81 50 82 51 83 59 84 52 85 53 86
REMARK SMILES IDX 57 87 60 88 54 89 55 90 58 91 56 92
REMARK H PARENT 14 7 21 26 80 45 48 56
REMARK Flexibility Score: inf
ROOT
ATOM      1  C   UNL A   1      32.251  29.669  26.751  1.00  0.00     0.002 C 
ENDROOT
BRANCH   1   2
ATOM      2  C   UNL A   1      31.423  28.407  27.018  1.00  0.00     0.021 C 
BRANCH   2   3
ATOM      3  C   UNL A   1      32.205  27.109  26.855  1.00  0.00     0.116 C 
BRANCH   3   4
ATOM      4  N   UNL A   1      31.318  25.963  26.771  1.00  0.00    -0.355 N 
ATOM      5  C   UNL A   1      31.003  25.172  25.705  1.00  0.00     0.230 C 
ATOM      6  O   UNL A   1      30.303  24.180  25.927  1.00  0.00    -0.274 OA
ATOM      7  H   UNL A   1      30.876  25.717  27.615  1.00  0.00     0.163 HD
BRANCH   5   8
ATOM      8  C   UNL A   1      31.453  25.513  24.289  1.00  0.00     0.139 C 
BRANCH   8   9
ATOM      9  C   UNL A   1      30.830  26.769  23.680  1.00  0.00    -0.033 A 
ATOM     10  C   UNL A   1      29.736  29.171  22.649  1.00  0.00    -0.048 A 
ATOM     11  C   UNL A   1      28.903  28.178  23.165  1.00  0.00     0.004 A 
ATOM     12  C   UNL A   1      31.117  28.961  22.649  1.00  0.00     0.004 A 
ATOM     13  C   UNL A   1      29.446  27.011  23.704  1.00  0.00     0.005 A 
ATOM     14  C   UNL A   1      31.655  27.777  23.160  1.00  0.00     0.005 A 
BRANCH  10  15
ATOM     15  C   UNL A   1      29.155  30.493  22.212  1.00  0.00     0.038 C 
BRANCH  15  16
ATOM     16  C   UNL A   1      28.824  31.402  23.413  1.00  0.00    -0.013 C 
ATOM     17  C   UNL A   1      29.139  32.874  23.125  1.00  0.00     0.008 C 
ATOM     18  C   UNL A   1      27.353  31.250  23.800  1.00  0.00     0.008 C 
ENDBRANCH  15  16
ENDBRANCH  10  15
ENDBRANCH   8   9
BRANCH   8  19
ATOM     19  C   UNL A   1      31.349  24.235  23.449  1.00  0.00     0.232 C 
ATOM     20  F   UNL A   1      30.076  24.076  22.988  1.00  0.00    -0.250 F 
ENDBRANCH   8  19
ENDBRANCH   5   8
ENDBRANCH   3   4
ENDBRANCH   2   3
ENDBRANCH   1   2
BRANCH   1  21
ATOM     21  C   UNL A   1      31.493  30.817  26.075  1.00  0.00     0.002 C 
BRANCH  21  22
ATOM     22  C   UNL A   1      31.411  32.110  26.889  1.00  0.00     0.021 C 
BRANCH  22  23
ATOM     23  C   UNL A   1      32.670  32.967  26.848  1.00  0.00     0.116 C 
BRANCH  23  24
ATOM     24  N   UNL A   1      32.513  34.216  27.575  1.00  0.00    -0.352 N 
ATOM     25  C   UNL A   1      33.167  34.650  28.698  1.00  0.00     0.251 C 
ATOM     26  H   UNL A   1      31.842  34.837  27.209  1.00  0.00     0.163 HD
ATOM     27  O   UNL A   1      32.790  35.661  29.286  1.00  0.00    -0.269 OA
BRANCH  25  28
ATOM     28  C   UNL A   1      34.316  33.882  29.218  1.00  0.00     0.039 A 
ATOM     29  C   UNL A   1      35.609  34.311  28.912  1.00  0.00     0.014 A 
ATOM     30  C   UNL A   1      34.119  32.741  30.003  1.00  0.00     0.014 A 
ATOM     31  C   UNL A   1      36.707  33.625  29.435  1.00  0.00     0.010 A 
ATOM     32  C   UNL A   1      35.211  32.105  30.585  1.00  0.00     0.010 A 
ATOM     33  C   UNL A   1      36.516  32.535  30.299  1.00  0.00    -0.014 A 
BRANCH  33  34
ATOM     34  C   UNL A   1      37.670  31.816  30.897  1.00  0.00     0.031 A 
ATOM     35  C   UNL A   1      38.124  32.155  32.290  1.00  0.00     0.074 A 
ATOM     36  C   UNL A   1      38.334  30.895  30.171  1.00  0.00     0.049 A 
ATOM     37  N   UNL A   1      39.154  31.702  32.959  1.00  0.00    -0.248 NA
ATOM     38  C   UNL A   1      37.328  33.154  33.021  1.00  0.00     0.031 C 
ATOM     39  C   UNL A   1      38.010  30.502  28.799  1.00  0.00     0.029 A 
ATOM     40  N   UNL A   1      39.428  30.125  30.486  1.00  0.00    -0.354 N 
ATOM     41  C   UNL A   1      39.127  32.358  34.183  1.00  0.00     0.074 A 
ATOM     42  C   UNL A   1      38.022  33.288  34.142  1.00  0.00     0.031 C 
ATOM     43  C   UNL A   1      38.872  29.553  28.397  1.00  0.00     0.029 A 
ATOM     44  C   UNL A   1      39.833  29.300  29.465  1.00  0.00     0.049 A 
ATOM     45  H   UNL A   1      39.878  30.163  31.360  1.00  0.00     0.167 HD
ATOM     46  C   UNL A   1      39.932  32.176  35.257  1.00  0.00     0.037 A 
ATOM     47  C   UNL A   1      40.872  28.447  29.397  1.00  0.00     0.037 A 
ATOM     48  C   UNL A   1      41.023  31.239  35.301  1.00  0.00     0.049 A 
ATOM     49  C   UNL A   1      41.774  28.296  30.595  1.00  0.00     0.074 A 
ATOM     50  C   UNL A   1      41.890  30.972  36.347  1.00  0.00     0.029 A 
ATOM     51  N   UNL A   1      41.392  30.409  34.253  1.00  0.00    -0.354 N 
ATOM     52  N   UNL A   1      41.708  28.888  31.764  1.00  0.00    -0.248 NA
ATOM     53  C   UNL A   1      42.893  27.352  30.467  1.00  0.00     0.031 C 
ATOM     54  C   UNL A   1      42.807  30.007  35.919  1.00  0.00     0.029 A 
ATOM     55  C   UNL A   1      42.479  29.636  34.626  1.00  0.00     0.049 A 
ATOM     56  H   UNL A   1      40.948  30.376  33.376  1.00  0.00     0.167 HD
ATOM     57  C   UNL A   1      42.745  28.356  32.520  1.00  0.00     0.074 A 
ATOM     58  C   UNL A   1      43.415  27.384  31.684  1.00  0.00     0.031 C 
ATOM     59  C   UNL A   1      43.112  28.647  33.791  1.00  0.00     0.037 A 
BRANCH  46  60
ATOM     60  C   UNL A   1      39.649  32.989  36.486  1.00  0.00     0.064 A 
ATOM     61  C   UNL A   1      40.302  34.211  36.718  1.00  0.00     0.173 A 
ATOM     62  C   UNL A   1      38.674  32.582  37.408  1.00  0.00     0.173 A 
ATOM     63  F   UNL A   1      41.251  34.639  35.873  1.00  0.00    -0.203 F 
ATOM     64  C   UNL A   1      40.001  34.984  37.836  1.00  0.00     0.198 A 
ATOM     65  C   UNL A   1      38.355  33.372  38.510  1.00  0.00     0.198 A 
ATOM     66  F   UNL A   1      38.017  31.426  37.233  1.00  0.00    -0.203 F 
ATOM     67  F   UNL A   1      40.665  36.127  38.056  1.00  0.00    -0.200 F 
ATOM     68  C   UNL A   1      39.022  34.570  38.725  1.00  0.00     0.200 A 
ATOM     69  F   UNL A   1      37.398  32.978  39.361  1.00  0.00    -0.200 F 
ATOM     70  F   UNL A   1      38.722  35.323  39.792  1.00  0.00    -0.200 F 
ENDBRANCH  46  60
BRANCH  47  71
ATOM     71  C   UNL A   1      41.126  27.656  28.162  1.00  0.00     0.064 A 
ATOM     72  C   UNL A   1      40.600  26.365  28.011  1.00  0.00     0.173 A 
ATOM     73  C   UNL A   1      41.944  28.148  27.135  1.00  0.00     0.173 A 
ATOM     74  F   UNL A   1      39.827  25.840  28.974  1.00  0.00    -0.203 F 
ATOM     75  C   UNL A   1      40.919  25.580  26.905  1.00  0.00     0.198 A 
ATOM     76  C   UNL A   1      42.233  27.376  26.012  1.00  0.00     0.198 A 
ATOM     77  F   UNL A   1      42.468  29.380  27.223  1.00  0.00    -0.203 F 
ATOM     78  F   UNL A   1      40.464  24.323  26.824  1.00  0.00    -0.200 F 
ATOM     79  C   UNL A   1      41.734  26.087  25.905  1.00  0.00     0.200 A 
ATOM     80  F   UNL A   1      43.009  27.876  25.040  1.00  0.00    -0.200 F 
ATOM     81  F   UNL A   1      42.052  25.329  24.847  1.00  0.00    -0.200 F 
ENDBRANCH  47  71
BRANCH  59  82
ATOM     82  C   UNL A   1      44.247  27.861  34.380  1.00  0.00     0.064 A 
ATOM     83  C   UNL A   1      45.571  28.320  34.330  1.00  0.00     0.173 A 
ATOM     84  C   UNL A   1      43.998  26.646  35.037  1.00  0.00     0.173 A 
ATOM     85  F   UNL A   1      45.864  29.469  33.701  1.00  0.00    -0.203 F 
ATOM     86  C   UNL A   1      46.608  27.577  34.887  1.00  0.00     0.198 A 
ATOM     87  C   UNL A   1      45.032  25.923  35.624  1.00  0.00     0.198 A 
ATOM     88  F   UNL A   1      42.747  26.167  35.121  1.00  0.00    -0.203 F 
ATOM     89  F   UNL A   1      47.872  28.008  34.779  1.00  0.00    -0.200 F 
ATOM     90  C   UNL A   1      46.337  26.384  35.540  1.00  0.00     0.200 A 
ATOM     91  F   UNL A   1      44.766  24.778  36.268  1.00  0.00    -0.200 F 
ATOM     92  F   UNL A   1      47.335  25.673  36.083  1.00  0.00    -0.200 F 
ENDBRANCH  59  82
ENDBRANCH  33  34
ENDBRANCH  25  28
ENDBRANCH  23  24
ENDBRANCH  22  23
ENDBRANCH  21  22
ENDBRANCH   1  21
TORSDOF 17
ENDMDL
