MODEL 1
REMARK VINA RESULT:     -12.7      0.000      0.000
REMARK SMILES N#C/C(=C/c1ccc(-c2cccc(C(=O)NCCCCCCNC(=O)c3ccc(-c4c5nc(c(-c6c(F)c(F)c(F)c(F)c6F)c6ccc([nH]6)c(-c6c(F)c(F)c(F)c(F)c6F)c6nc(c(-c7c(F)c(F)c(F)c(F)c7F)c7ccc4[nH]7)C=C6)C=C5)cc3)c2)o1)c1ccc(F)cc1
REMARK SMILES IDX 19 1 18 2 17 3 16 4 14 5 15 6 13 8 9 9 10 10 89 11 11 12
REMARK SMILES IDX 12 13 8 14 5 15 6 16 90 17 7 18 4 19 3 20 2 21 1 22 91 23
REMARK SMILES IDX 92 24 97 25 93 26 96 27 94 28 95 29 20 30 21 31 22 32 23 33
REMARK SMILES IDX 24 34 25 36 26 37 27 38 88 39 28 40 87 41 29 42 30 43 31 44
REMARK SMILES IDX 81 45 32 46 86 47 80 48 82 49 33 50 85 51 79 52 78 53 34 55
REMARK SMILES IDX 66 56 46 57 65 58 47 59 50 60 64 61 83 62 48 63 49 64 63 66
REMARK SMILES IDX 84 67 51 68 35 69 36 70 44 71 37 72 38 73 42 74 45 75 39 76
REMARK SMILES IDX 40 77 43 78 41 79 67 80 68 81 76 82 69 83 70 84 74 85 77 86
REMARK SMILES IDX 71 87 72 88 75 89 73 90 52 91 53 92 61 93 54 94 55 95 59 96
REMARK SMILES IDX 62 97 56 98 57 99 60 100 58 101
REMARK H PARENT 16 7 23 35 82 54 50 65
REMARK Flexibility Score: inf
ROOT
ATOM      1  C   UNL A   1      32.264  29.978  27.385  1.00  0.00     0.002 C 
ENDROOT
BRANCH   1   2
ATOM      2  C   UNL A   1      32.806  28.625  26.934  1.00  0.00     0.021 C 
BRANCH   2   3
ATOM      3  C   UNL A   1      34.149  28.632  26.214  1.00  0.00     0.116 C 
BRANCH   3   4
ATOM      4  N   UNL A   1      34.111  29.113  24.840  1.00  0.00    -0.352 N 
ATOM      5  C   UNL A   1      33.297  28.767  23.776  1.00  0.00     0.251 C 
ATOM      6  O   UNL A   1      33.476  29.312  22.689  1.00  0.00    -0.269 OA
ATOM      7  H   UNL A   1      34.781  29.805  24.632  1.00  0.00     0.163 HD
BRANCH   5   8
ATOM      8  C   UNL A   1      32.255  27.708  23.896  1.00  0.00     0.040 A 
ATOM      9  C   UNL A   1      31.652  25.361  23.723  1.00  0.00     0.018 A 
ATOM     10  C   UNL A   1      30.303  25.715  23.646  1.00  0.00     0.012 A 
ATOM     11  C   UNL A   1      32.593  26.363  23.985  1.00  0.00     0.025 A 
ATOM     12  C   UNL A   1      29.927  27.060  23.765  1.00  0.00     0.002 A 
ATOM     13  C   UNL A   1      30.904  28.058  23.850  1.00  0.00     0.014 A 
BRANCH   9  14
ATOM     14  C   UNL A   1      32.164  24.035  23.401  1.00  0.00     0.134 A 
ATOM     15  C   UNL A   1      32.174  21.814  23.579  1.00  0.00     0.128 A 
ATOM     16  C   UNL A   1      32.845  22.159  22.409  1.00  0.00     0.051 A 
ATOM     17  O   UNL A   1      31.727  22.985  24.160  1.00  0.00    -0.457 OA
ATOM     18  C   UNL A   1      32.896  23.563  22.334  1.00  0.00     0.051 A 
BRANCH  15  19
ATOM     19  C   UNL A   1      32.014  20.515  24.155  1.00  0.00     0.067 C 
ATOM     20  C   UNL A   1      32.980  19.968  24.923  1.00  0.00     0.063 C 
BRANCH  20  21
ATOM     21  C   UNL A   1      32.872  18.545  25.446  1.00  0.00     0.100 C 
ATOM     22  N   UNL A   1      32.783  17.364  25.880  1.00  0.00    -0.192 NA
ENDBRANCH  20  21
BRANCH  20  23
ATOM     23  C   UNL A   1      34.216  20.707  25.330  1.00  0.00    -0.007 A 
ATOM     24  C   UNL A   1      34.141  21.837  26.171  1.00  0.00     0.012 A 
ATOM     25  C   UNL A   1      35.473  20.327  24.833  1.00  0.00     0.012 A 
ATOM     26  C   UNL A   1      35.268  22.625  26.416  1.00  0.00     0.040 A 
ATOM     27  C   UNL A   1      36.607  21.100  25.108  1.00  0.00     0.040 A 
ATOM     28  C   UNL A   1      36.489  22.253  25.875  1.00  0.00     0.123 A 
ATOM     29  F   UNL A   1      37.564  23.022  26.085  1.00  0.00    -0.207 F 
ENDBRANCH  20  23
ENDBRANCH  15  19
ENDBRANCH   9  14
ENDBRANCH   5   8
ENDBRANCH   3   4
ENDBRANCH   2   3
ENDBRANCH   1   2
BRANCH   1  30
ATOM     30  C   UNL A   1      31.487  30.786  26.343  1.00  0.00     0.002 C 
BRANCH  30  31
ATOM     31  C   UNL A   1      31.459  32.305  26.536  1.00  0.00     0.021 C 
BRANCH  31  32
ATOM     32  C   UNL A   1      32.654  32.907  27.268  1.00  0.00     0.116 C 
BRANCH  32  33
ATOM     33  N   UNL A   1      32.421  34.273  27.701  1.00  0.00    -0.352 N 
ATOM     34  C   UNL A   1      33.031  34.999  28.695  1.00  0.00     0.251 C 
ATOM     35  H   UNL A   1      31.718  34.753  27.206  1.00  0.00     0.163 HD
ATOM     36  O   UNL A   1      32.587  36.096  29.012  1.00  0.00    -0.269 OA
BRANCH  34  37
ATOM     37  C   UNL A   1      34.210  34.455  29.406  1.00  0.00     0.039 A 
ATOM     38  C   UNL A   1      34.012  33.796  30.623  1.00  0.00     0.014 A 
ATOM     39  C   UNL A   1      35.503  34.612  28.900  1.00  0.00     0.014 A 
ATOM     40  C   UNL A   1      35.102  33.242  31.300  1.00  0.00     0.010 A 
ATOM     41  C   UNL A   1      36.580  33.998  29.540  1.00  0.00     0.010 A 
ATOM     42  C   UNL A   1      36.391  33.309  30.748  1.00  0.00    -0.014 A 
BRANCH  42  43
ATOM     43  C   UNL A   1      37.548  32.658  31.419  1.00  0.00     0.031 A 
ATOM     44  C   UNL A   1      38.247  31.494  30.770  1.00  0.00     0.074 A 
ATOM     45  C   UNL A   1      37.931  33.078  32.641  1.00  0.00     0.049 A 
ATOM     46  N   UNL A   1      39.228  30.758  31.228  1.00  0.00    -0.248 NA
ATOM     47  C   UNL A   1      37.763  31.086  29.441  1.00  0.00     0.031 C 
ATOM     48  C   UNL A   1      37.304  34.162  33.398  1.00  0.00     0.029 A 
ATOM     49  N   UNL A   1      38.932  32.632  33.471  1.00  0.00    -0.354 N 
ATOM     50  C   UNL A   1      39.463  29.793  30.257  1.00  0.00     0.074 A 
ATOM     51  C   UNL A   1      38.496  30.007  29.203  1.00  0.00     0.031 C 
ATOM     52  C   UNL A   1      37.940  34.307  34.570  1.00  0.00     0.029 A 
ATOM     53  C   UNL A   1      38.993  33.302  34.669  1.00  0.00     0.049 A 
ATOM     54  H   UNL A   1      39.546  31.902  33.230  1.00  0.00     0.167 HD
ATOM     55  C   UNL A   1      40.414  28.829  30.238  1.00  0.00     0.037 A 
ATOM     56  C   UNL A   1      39.798  33.118  35.734  1.00  0.00     0.037 A 
ATOM     57  C   UNL A   1      41.399  28.641  31.272  1.00  0.00     0.049 A 
ATOM     58  C   UNL A   1      40.850  32.042  35.680  1.00  0.00     0.074 A 
ATOM     59  C   UNL A   1      42.452  27.743  31.304  1.00  0.00     0.029 A 
ATOM     60  N   UNL A   1      41.448  29.358  32.457  1.00  0.00    -0.354 N 
ATOM     61  N   UNL A   1      41.117  31.191  34.718  1.00  0.00    -0.248 NA
ATOM     62  C   UNL A   1      41.721  31.906  36.856  1.00  0.00     0.031 C 
ATOM     63  C   UNL A   1      43.104  27.878  32.534  1.00  0.00     0.029 A 
ATOM     64  C   UNL A   1      42.496  28.902  33.241  1.00  0.00     0.049 A 
ATOM     65  H   UNL A   1      40.831  30.084  32.705  1.00  0.00     0.167 HD
ATOM     66  C   UNL A   1      42.200  30.443  35.159  1.00  0.00     0.074 A 
ATOM     67  C   UNL A   1      42.555  30.952  36.467  1.00  0.00     0.031 C 
ATOM     68  C   UNL A   1      42.844  29.425  34.537  1.00  0.00     0.037 A 
BRANCH  55  69
ATOM     69  C   UNL A   1      40.448  27.893  29.063  1.00  0.00     0.064 A 
ATOM     70  C   UNL A   1      39.688  26.715  29.035  1.00  0.00     0.173 A 
ATOM     71  C   UNL A   1      41.194  28.219  27.920  1.00  0.00     0.173 A 
ATOM     72  F   UNL A   1      38.965  26.351  30.106  1.00  0.00    -0.203 F 
ATOM     73  C   UNL A   1      39.685  25.890  27.913  1.00  0.00     0.198 A 
ATOM     74  C   UNL A   1      41.166  27.408  26.789  1.00  0.00     0.198 A 
ATOM     75  F   UNL A   1      41.934  29.339  27.892  1.00  0.00    -0.203 F 
ATOM     76  F   UNL A   1      38.980  24.751  27.923  1.00  0.00    -0.200 F 
ATOM     77  C   UNL A   1      40.415  26.242  26.787  1.00  0.00     0.200 A 
ATOM     78  F   UNL A   1      41.859  27.758  25.696  1.00  0.00    -0.200 F 
ATOM     79  F   UNL A   1      40.397  25.457  25.702  1.00  0.00    -0.200 F 
ENDBRANCH  55  69
BRANCH  56  80
ATOM     80  C   UNL A   1      39.645  33.968  36.945  1.00  0.00     0.064 A 
ATOM     81  C   UNL A   1      38.853  33.557  38.026  1.00  0.00     0.173 A 
ATOM     82  C   UNL A   1      40.260  35.226  37.031  1.00  0.00     0.173 A 
ATOM     83  F   UNL A   1      38.227  32.371  37.984  1.00  0.00    -0.203 F 
ATOM     84  C   UNL A   1      38.656  34.383  39.131  1.00  0.00     0.198 A 
ATOM     85  C   UNL A   1      40.091  36.037  38.152  1.00  0.00     0.198 A 
ATOM     86  F   UNL A   1      41.034  35.667  36.028  1.00  0.00    -0.203 F 
ATOM     87  F   UNL A   1      37.843  33.990  40.121  1.00  0.00    -0.200 F 
ATOM     88  C   UNL A   1      39.278  35.620  39.194  1.00  0.00     0.200 A 
ATOM     89  F   UNL A   1      40.708  37.224  38.216  1.00  0.00    -0.200 F 
ATOM     90  F   UNL A   1      39.086  36.416  40.255  1.00  0.00    -0.200 F 
ENDBRANCH  56  80
BRANCH  68  91
ATOM     91  C   UNL A   1      44.023  28.818  35.243  1.00  0.00     0.064 A 
ATOM     92  C   UNL A   1      43.881  27.729  36.115  1.00  0.00     0.173 A 
ATOM     93  C   UNL A   1      45.316  29.310  35.012  1.00  0.00     0.173 A 
ATOM     94  F   UNL A   1      42.664  27.231  36.382  1.00  0.00    -0.203 F 
ATOM     95  C   UNL A   1      44.988  27.173  36.751  1.00  0.00     0.198 A 
ATOM     96  C   UNL A   1      46.424  28.730  35.623  1.00  0.00     0.198 A 
ATOM     97  F   UNL A   1      45.508  30.346  34.180  1.00  0.00    -0.203 F 
ATOM     98  F   UNL A   1      44.823  26.168  37.622  1.00  0.00    -0.200 F 
ATOM     99  C   UNL A   1      46.259  27.669  36.499  1.00  0.00     0.200 A 
ATOM    100  F   UNL A   1      47.653  29.199  35.363  1.00  0.00    -0.200 F 
ATOM    101  F   UNL A   1      47.323  27.127  37.106  1.00  0.00    -0.200 F 
ENDBRANCH  68  91
ENDBRANCH  42  43
ENDBRANCH  34  37
ENDBRANCH  32  33
ENDBRANCH  31  32
ENDBRANCH  30  31
ENDBRANCH   1  30
TORSDOF 17
ENDMDL
MODEL 2
REMARK VINA RESULT:     -12.5      5.266     10.840
REMARK SMILES N#C/C(=C/c1ccc(-c2cccc(C(=O)NCCCCCCNC(=O)c3ccc(-c4c5nc(c(-c6c(F)c(F)c(F)c(F)c6F)c6ccc([nH]6)c(-c6c(F)c(F)c(F)c(F)c6F)c6nc(c(-c7c(F)c(F)c(F)c(F)c7F)c7ccc4[nH]7)C=C6)C=C5)cc3)c2)o1)c1ccc(F)cc1
REMARK SMILES IDX 19 1 18 2 17 3 16 4 14 5 15 6 13 8 9 9 10 10 89 11 11 12
REMARK SMILES IDX 12 13 8 14 5 15 6 16 90 17 7 18 4 19 3 20 2 21 1 22 91 23
REMARK SMILES IDX 92 24 97 25 93 26 96 27 94 28 95 29 20 30 21 31 22 32 23 33
REMARK SMILES IDX 24 34 25 36 26 37 27 38 88 39 28 40 87 41 29 42 30 43 31 44
REMARK SMILES IDX 81 45 32 46 86 47 80 48 82 49 33 50 85 51 79 52 78 53 34 55
REMARK SMILES IDX 66 56 46 57 65 58 47 59 50 60 64 61 83 62 48 63 49 64 63 66
REMARK SMILES IDX 84 67 51 68 35 69 36 70 44 71 37 72 38 73 42 74 45 75 39 76
REMARK SMILES IDX 40 77 43 78 41 79 67 80 68 81 76 82 69 83 70 84 74 85 77 86
REMARK SMILES IDX 71 87 72 88 75 89 73 90 52 91 53 92 61 93 54 94 55 95 59 96
REMARK SMILES IDX 62 97 56 98 57 99 60 100 58 101
REMARK H PARENT 16 7 23 35 82 54 50 65
REMARK Flexibility Score: inf
ROOT
ATOM      1  C   UNL A   1      35.531  20.978  25.333  1.00  0.00     0.002 C 
ENDROOT
BRANCH   1   2
ATOM      2  C   UNL A   1      35.191  21.963  26.448  1.00  0.00     0.021 C 
BRANCH   2   3
ATOM      3  C   UNL A   1      34.352  21.427  27.601  1.00  0.00     0.116 C 
BRANCH   3   4
ATOM      4  N   UNL A   1      33.079  22.103  27.806  1.00  0.00    -0.352 N 
ATOM      5  C   UNL A   1      32.118  22.527  26.905  1.00  0.00     0.251 C 
ATOM      6  O   UNL A   1      31.118  23.101  27.330  1.00  0.00    -0.269 OA
ATOM      7  H   UNL A   1      32.865  22.291  28.749  1.00  0.00     0.163 HD
BRANCH   5   8
ATOM      8  C   UNL A   1      32.293  22.364  25.435  1.00  0.00     0.040 A 
ATOM      9  C   UNL A   1      32.409  23.382  23.232  1.00  0.00     0.018 A 
ATOM     10  C   UNL A   1      32.155  22.141  22.646  1.00  0.00     0.012 A 
ATOM     11  C   UNL A   1      32.609  23.441  24.616  1.00  0.00     0.025 A 
ATOM     12  C   UNL A   1      32.041  20.999  23.451  1.00  0.00     0.002 A 
ATOM     13  C   UNL A   1      32.070  21.117  24.845  1.00  0.00     0.014 A 
BRANCH   9  14
ATOM     14  C   UNL A   1      32.334  24.650  22.517  1.00  0.00     0.134 A 
ATOM     15  C   UNL A   1      31.589  26.731  22.237  1.00  0.00     0.128 A 
ATOM     16  C   UNL A   1      32.750  26.581  21.484  1.00  0.00     0.051 A 
ATOM     17  O   UNL A   1      31.368  25.539  22.900  1.00  0.00    -0.457 OA
ATOM     18  C   UNL A   1      33.181  25.248  21.609  1.00  0.00     0.051 A 
BRANCH  15  19
ATOM     19  C   UNL A   1      30.712  27.860  22.293  1.00  0.00     0.067 C 
ATOM     20  C   UNL A   1      30.697  28.679  23.367  1.00  0.00     0.063 C 
BRANCH  20  21
ATOM     21  C   UNL A   1      29.692  29.813  23.490  1.00  0.00     0.100 C 
ATOM     22  N   UNL A   1      28.858  30.753  23.592  1.00  0.00    -0.192 NA
ENDBRANCH  20  21
BRANCH  20  23
ATOM     23  C   UNL A   1      31.659  28.550  24.506  1.00  0.00    -0.007 A 
ATOM     24  C   UNL A   1      31.333  27.794  25.650  1.00  0.00     0.012 A 
ATOM     25  C   UNL A   1      32.887  29.233  24.484  1.00  0.00     0.012 A 
ATOM     26  C   UNL A   1      32.155  27.809  26.779  1.00  0.00     0.040 A 
ATOM     27  C   UNL A   1      33.724  29.219  25.605  1.00  0.00     0.040 A 
ATOM     28  C   UNL A   1      33.339  28.529  26.748  1.00  0.00     0.123 A 
ATOM     29  F   UNL A   1      34.115  28.568  27.839  1.00  0.00    -0.207 F 
ENDBRANCH  20  23
ENDBRANCH  15  19
ENDBRANCH   9  14
ENDBRANCH   5   8
ENDBRANCH   3   4
ENDBRANCH   2   3
ENDBRANCH   1   2
BRANCH   1  30
ATOM     30  C   UNL A   1      36.919  21.113  24.701  1.00  0.00     0.002 C 
BRANCH  30  31
ATOM     31  C   UNL A   1      37.896  19.959  24.944  1.00  0.00     0.021 C 
BRANCH  31  32
ATOM     32  C   UNL A   1      38.990  20.215  25.975  1.00  0.00     0.116 C 
BRANCH  32  33
ATOM     33  N   UNL A   1      40.048  19.222  25.934  1.00  0.00    -0.352 N 
ATOM     34  C   UNL A   1      41.408  19.378  26.051  1.00  0.00     0.251 C 
ATOM     35  H   UNL A   1      39.745  18.295  25.803  1.00  0.00     0.163 HD
ATOM     36  O   UNL A   1      42.153  18.430  25.836  1.00  0.00    -0.269 OA
BRANCH  34  37
ATOM     37  C   UNL A   1      41.984  20.693  26.411  1.00  0.00     0.039 A 
ATOM     38  C   UNL A   1      42.328  21.577  25.384  1.00  0.00     0.014 A 
ATOM     39  C   UNL A   1      42.214  21.049  27.743  1.00  0.00     0.014 A 
ATOM     40  C   UNL A   1      42.843  22.839  25.695  1.00  0.00     0.010 A 
ATOM     41  C   UNL A   1      42.660  22.334  28.053  1.00  0.00     0.010 A 
ATOM     42  C   UNL A   1      42.982  23.241  27.032  1.00  0.00    -0.014 A 
BRANCH  42  43
ATOM     43  C   UNL A   1      43.455  24.608  27.378  1.00  0.00     0.031 A 
ATOM     44  C   UNL A   1      42.488  25.641  27.891  1.00  0.00     0.074 A 
ATOM     45  C   UNL A   1      44.747  24.937  27.173  1.00  0.00     0.049 A 
ATOM     46  N   UNL A   1      42.699  26.900  28.182  1.00  0.00    -0.248 NA
ATOM     47  C   UNL A   1      41.094  25.210  28.076  1.00  0.00     0.031 C 
ATOM     48  C   UNL A   1      45.771  24.042  26.634  1.00  0.00     0.029 A 
ATOM     49  N   UNL A   1      45.416  26.119  27.379  1.00  0.00    -0.354 N 
ATOM     50  C   UNL A   1      41.466  27.413  28.564  1.00  0.00     0.074 A 
ATOM     51  C   UNL A   1      40.502  26.343  28.427  1.00  0.00     0.031 C 
ATOM     52  C   UNL A   1      46.939  24.699  26.565  1.00  0.00     0.029 A 
ATOM     53  C   UNL A   1      46.740  26.073  27.014  1.00  0.00     0.049 A 
ATOM     54  H   UNL A   1      44.987  26.923  27.751  1.00  0.00     0.167 HD
ATOM     55  C   UNL A   1      41.172  28.657  29.009  1.00  0.00     0.037 A 
ATOM     56  C   UNL A   1      47.684  27.034  27.027  1.00  0.00     0.037 A 
ATOM     57  C   UNL A   1      42.141  29.709  29.178  1.00  0.00     0.049 A 
ATOM     58  C   UNL A   1      47.326  28.407  27.534  1.00  0.00     0.074 A 
ATOM     59  C   UNL A   1      41.951  30.978  29.698  1.00  0.00     0.029 A 
ATOM     60  N   UNL A   1      43.478  29.616  28.826  1.00  0.00    -0.354 N 
ATOM     61  N   UNL A   1      46.174  28.854  27.973  1.00  0.00    -0.248 NA
ATOM     62  C   UNL A   1      48.403  29.407  27.556  1.00  0.00     0.031 C 
ATOM     63  C   UNL A   1      43.161  31.672  29.607  1.00  0.00     0.029 A 
ATOM     64  C   UNL A   1      44.119  30.816  29.090  1.00  0.00     0.049 A 
ATOM     65  H   UNL A   1      43.908  28.816  28.447  1.00  0.00     0.167 HD
ATOM     66  C   UNL A   1      46.395  30.172  28.350  1.00  0.00     0.074 A 
ATOM     67  C   UNL A   1      47.794  30.448  28.107  1.00  0.00     0.031 C 
ATOM     68  C   UNL A   1      45.516  31.073  28.852  1.00  0.00     0.037 A 
BRANCH  55  69
ATOM     69  C   UNL A   1      39.741  28.965  29.349  1.00  0.00     0.064 A 
ATOM     70  C   UNL A   1      38.834  29.426  28.384  1.00  0.00     0.173 A 
ATOM     71  C   UNL A   1      39.253  28.722  30.643  1.00  0.00     0.173 A 
ATOM     72  F   UNL A   1      39.251  29.684  27.135  1.00  0.00    -0.203 F 
ATOM     73  C   UNL A   1      37.497  29.649  28.703  1.00  0.00     0.198 A 
ATOM     74  C   UNL A   1      37.910  28.917  30.952  1.00  0.00     0.198 A 
ATOM     75  F   UNL A   1      40.077  28.274  31.603  1.00  0.00    -0.203 F 
ATOM     76  F   UNL A   1      36.658  30.124  27.774  1.00  0.00    -0.200 F 
ATOM     77  C   UNL A   1      37.034  29.384  29.984  1.00  0.00     0.200 A 
ATOM     78  F   UNL A   1      37.460  28.645  32.185  1.00  0.00    -0.200 F 
ATOM     79  F   UNL A   1      35.743  29.581  30.285  1.00  0.00    -0.200 F 
ENDBRANCH  55  69
BRANCH  56  80
ATOM     80  C   UNL A   1      49.060  26.739  26.547  1.00  0.00     0.064 A 
ATOM     81  C   UNL A   1      50.042  26.244  27.416  1.00  0.00     0.173 A 
ATOM     82  C   UNL A   1      49.433  26.978  25.216  1.00  0.00     0.173 A 
ATOM     83  F   UNL A   1      49.743  26.017  28.705  1.00  0.00    -0.203 F 
ATOM     84  C   UNL A   1      51.350  26.031  26.983  1.00  0.00     0.198 A 
ATOM     85  C   UNL A   1      50.731  26.732  24.774  1.00  0.00     0.198 A 
ATOM     86  F   UNL A   1      48.532  27.446  24.339  1.00  0.00    -0.203 F 
ATOM     87  F   UNL A   1      52.282  25.618  27.851  1.00  0.00    -0.200 F 
ATOM     88  C   UNL A   1      51.692  26.272  25.661  1.00  0.00     0.200 A 
ATOM     89  F   UNL A   1      51.052  26.950  23.492  1.00  0.00    -0.200 F 
ATOM     90  F   UNL A   1      52.949  26.070  25.244  1.00  0.00    -0.200 F 
ENDBRANCH  56  80
BRANCH  68  91
ATOM     91  C   UNL A   1      46.048  32.432  29.210  1.00  0.00     0.064 A 
ATOM     92  C   UNL A   1      46.596  32.702  30.473  1.00  0.00     0.173 A 
ATOM     93  C   UNL A   1      46.048  33.465  28.261  1.00  0.00     0.173 A 
ATOM     94  F   UNL A   1      46.607  31.752  31.421  1.00  0.00    -0.203 F 
ATOM     95  C   UNL A   1      47.095  33.964  30.781  1.00  0.00     0.198 A 
ATOM     96  C   UNL A   1      46.578  34.716  28.562  1.00  0.00     0.198 A 
ATOM     97  F   UNL A   1      45.543  33.258  27.035  1.00  0.00    -0.203 F 
ATOM     98  F   UNL A   1      47.564  34.214  32.012  1.00  0.00    -0.200 F 
ATOM     99  C   UNL A   1      47.094  34.967  29.824  1.00  0.00     0.200 A 
ATOM    100  F   UNL A   1      46.592  35.678  27.628  1.00  0.00    -0.200 F 
ATOM    101  F   UNL A   1      47.582  36.179  30.120  1.00  0.00    -0.200 F 
ENDBRANCH  68  91
ENDBRANCH  42  43
ENDBRANCH  34  37
ENDBRANCH  32  33
ENDBRANCH  31  32
ENDBRANCH  30  31
ENDBRANCH   1  30
TORSDOF 17
ENDMDL
MODEL 3
REMARK VINA RESULT:     -12.3      0.982      1.911
REMARK SMILES N#C/C(=C/c1ccc(-c2cccc(C(=O)NCCCCCCNC(=O)c3ccc(-c4c5nc(c(-c6c(F)c(F)c(F)c(F)c6F)c6ccc([nH]6)c(-c6c(F)c(F)c(F)c(F)c6F)c6nc(c(-c7c(F)c(F)c(F)c(F)c7F)c7ccc4[nH]7)C=C6)C=C5)cc3)c2)o1)c1ccc(F)cc1
REMARK SMILES IDX 19 1 18 2 17 3 16 4 14 5 15 6 13 8 9 9 10 10 89 11 11 12
REMARK SMILES IDX 12 13 8 14 5 15 6 16 90 17 7 18 4 19 3 20 2 21 1 22 91 23
REMARK SMILES IDX 92 24 97 25 93 26 96 27 94 28 95 29 20 30 21 31 22 32 23 33
REMARK SMILES IDX 24 34 25 36 26 37 27 38 88 39 28 40 87 41 29 42 30 43 31 44
REMARK SMILES IDX 81 45 32 46 86 47 80 48 82 49 33 50 85 51 79 52 78 53 34 55
REMARK SMILES IDX 66 56 46 57 65 58 47 59 50 60 64 61 83 62 48 63 49 64 63 66
REMARK SMILES IDX 84 67 51 68 35 69 36 70 44 71 37 72 38 73 42 74 45 75 39 76
REMARK SMILES IDX 40 77 43 78 41 79 67 80 68 81 76 82 69 83 70 84 74 85 77 86
REMARK SMILES IDX 71 87 72 88 75 89 73 90 52 91 53 92 61 93 54 94 55 95 59 96
REMARK SMILES IDX 62 97 56 98 57 99 60 100 58 101
REMARK H PARENT 16 7 23 35 82 54 50 65
REMARK Flexibility Score: inf
ROOT
ATOM      1  C   UNL A   1      32.584  30.249  27.248  1.00  0.00     0.002 C 
ENDROOT
BRANCH   1   2
ATOM      2  C   UNL A   1      32.773  28.773  26.912  1.00  0.00     0.021 C 
BRANCH   2   3
ATOM      3  C   UNL A   1      33.939  28.424  25.996  1.00  0.00     0.116 C 
BRANCH   3   4
ATOM      4  N   UNL A   1      33.788  28.852  24.613  1.00  0.00    -0.352 N 
ATOM      5  C   UNL A   1      32.778  28.626  23.695  1.00  0.00     0.251 C 
ATOM      6  O   UNL A   1      32.891  29.086  22.561  1.00  0.00    -0.269 OA
ATOM      7  H   UNL A   1      34.534  29.397  24.271  1.00  0.00     0.163 HD
BRANCH   5   8
ATOM      8  C   UNL A   1      31.592  27.786  24.024  1.00  0.00     0.040 A 
ATOM      9  C   UNL A   1      30.699  25.726  24.953  1.00  0.00     0.018 A 
ATOM     10  C   UNL A   1      29.499  25.941  24.272  1.00  0.00     0.012 A 
ATOM     11  C   UNL A   1      31.675  26.729  24.922  1.00  0.00     0.025 A 
ATOM     12  C   UNL A   1      29.321  27.113  23.525  1.00  0.00     0.002 A 
ATOM     13  C   UNL A   1      30.379  28.014  23.368  1.00  0.00     0.014 A 
BRANCH   9  14
ATOM     14  C   UNL A   1      31.066  24.460  25.576  1.00  0.00     0.134 A 
ATOM     15  C   UNL A   1      31.687  22.322  25.510  1.00  0.00     0.128 A 
ATOM     16  C   UNL A   1      31.996  22.825  26.770  1.00  0.00     0.051 A 
ATOM     17  O   UNL A   1      31.147  23.357  24.772  1.00  0.00    -0.457 OA
ATOM     18  C   UNL A   1      31.542  24.155  26.831  1.00  0.00     0.051 A 
BRANCH  15  19
ATOM     19  C   UNL A   1      31.814  20.977  25.040  1.00  0.00     0.067 C 
ATOM     20  C   UNL A   1      32.986  20.516  24.553  1.00  0.00     0.063 C 
BRANCH  20  21
ATOM     21  C   UNL A   1      33.106  19.128  23.946  1.00  0.00     0.100 C 
ATOM     22  N   UNL A   1      33.206  17.976  23.442  1.00  0.00    -0.192 NA
ENDBRANCH  20  21
BRANCH  20  23
ATOM     23  C   UNL A   1      34.251  21.315  24.579  1.00  0.00    -0.007 A 
ATOM     24  C   UNL A   1      35.258  21.050  25.530  1.00  0.00     0.012 A 
ATOM     25  C   UNL A   1      34.438  22.388  23.691  1.00  0.00     0.012 A 
ATOM     26  C   UNL A   1      36.360  21.896  25.664  1.00  0.00     0.040 A 
ATOM     27  C   UNL A   1      35.561  23.215  23.807  1.00  0.00     0.040 A 
ATOM     28  C   UNL A   1      36.496  22.977  24.806  1.00  0.00     0.123 A 
ATOM     29  F   UNL A   1      37.537  23.806  24.950  1.00  0.00    -0.207 F 
ENDBRANCH  20  23
ENDBRANCH  15  19
ENDBRANCH   9  14
ENDBRANCH   5   8
ENDBRANCH   3   4
ENDBRANCH   2   3
ENDBRANCH   1   2
BRANCH   1  30
ATOM     30  C   UNL A   1      31.477  30.987  26.490  1.00  0.00     0.002 C 
BRANCH  30  31
ATOM     31  C   UNL A   1      31.459  32.513  26.619  1.00  0.00     0.021 C 
BRANCH  31  32
ATOM     32  C   UNL A   1      32.683  33.142  27.277  1.00  0.00     0.116 C 
BRANCH  32  33
ATOM     33  N   UNL A   1      32.414  34.460  27.824  1.00  0.00    -0.352 N 
ATOM     34  C   UNL A   1      33.031  35.128  28.853  1.00  0.00     0.251 C 
ATOM     35  H   UNL A   1      31.678  34.948  27.391  1.00  0.00     0.163 HD
ATOM     36  O   UNL A   1      32.558  36.179  29.270  1.00  0.00    -0.269 OA
BRANCH  34  37
ATOM     37  C   UNL A   1      34.253  34.577  29.482  1.00  0.00     0.039 A 
ATOM     38  C   UNL A   1      34.120  33.815  30.646  1.00  0.00     0.014 A 
ATOM     39  C   UNL A   1      35.522  34.827  28.952  1.00  0.00     0.014 A 
ATOM     40  C   UNL A   1      35.253  33.252  31.243  1.00  0.00     0.010 A 
ATOM     41  C   UNL A   1      36.642  34.207  29.507  1.00  0.00     0.010 A 
ATOM     42  C   UNL A   1      36.519  33.416  30.660  1.00  0.00    -0.014 A 
BRANCH  42  43
ATOM     43  C   UNL A   1      37.721  32.761  31.240  1.00  0.00     0.031 A 
ATOM     44  C   UNL A   1      38.322  31.550  30.578  1.00  0.00     0.074 A 
ATOM     45  C   UNL A   1      38.237  33.220  32.398  1.00  0.00     0.049 A 
ATOM     46  N   UNL A   1      39.325  30.805  30.969  1.00  0.00    -0.248 NA
ATOM     47  C   UNL A   1      37.696  31.100  29.324  1.00  0.00     0.031 C 
ATOM     48  C   UNL A   1      37.716  34.354  33.164  1.00  0.00     0.029 A 
ATOM     49  N   UNL A   1      39.305  32.781  33.143  1.00  0.00    -0.354 N 
ATOM     50  C   UNL A   1      39.437  29.793  30.023  1.00  0.00     0.074 A 
ATOM     51  C   UNL A   1      38.373  29.991  29.063  1.00  0.00     0.031 C 
ATOM     52  C   UNL A   1      38.471  34.530  34.259  1.00  0.00     0.029 A 
ATOM     53  C   UNL A   1      39.504  33.499  34.297  1.00  0.00     0.049 A 
ATOM     54  H   UNL A   1      39.873  32.023  32.875  1.00  0.00     0.167 HD
ATOM     55  C   UNL A   1      40.357  28.802  29.954  1.00  0.00     0.037 A 
ATOM     56  C   UNL A   1      40.407  33.337  35.283  1.00  0.00     0.037 A 
ATOM     57  C   UNL A   1      41.436  28.629  30.891  1.00  0.00     0.049 A 
ATOM     58  C   UNL A   1      41.422  32.229  35.173  1.00  0.00     0.074 A 
ATOM     59  C   UNL A   1      42.464  27.703  30.858  1.00  0.00     0.029 A 
ATOM     60  N   UNL A   1      41.622  29.394  32.032  1.00  0.00    -0.354 N 
ATOM     61  N   UNL A   1      41.568  31.330  34.228  1.00  0.00    -0.248 NA
ATOM     62  C   UNL A   1      42.404  32.117  36.260  1.00  0.00     0.031 C 
ATOM     63  C   UNL A   1      43.240  27.870  32.009  1.00  0.00     0.029 A 
ATOM     64  C   UNL A   1      42.733  28.941  32.726  1.00  0.00     0.049 A 
ATOM     65  H   UNL A   1      41.052  30.148  32.307  1.00  0.00     0.167 HD
ATOM     66  C   UNL A   1      42.672  30.571  34.593  1.00  0.00     0.074 A 
ATOM     67  C   UNL A   1      43.170  31.124  35.833  1.00  0.00     0.031 C 
ATOM     68  C   UNL A   1      43.223  29.508  33.956  1.00  0.00     0.037 A 
BRANCH  55  69
ATOM     69  C   UNL A   1      40.248  27.816  28.825  1.00  0.00     0.064 A 
ATOM     70  C   UNL A   1      40.909  28.016  27.604  1.00  0.00     0.173 A 
ATOM     71  C   UNL A   1      39.535  26.619  28.996  1.00  0.00     0.173 A 
ATOM     72  F   UNL A   1      41.597  29.147  27.385  1.00  0.00    -0.203 F 
ATOM     73  C   UNL A   1      40.846  27.063  26.590  1.00  0.00     0.198 A 
ATOM     74  C   UNL A   1      39.498  25.656  27.992  1.00  0.00     0.198 A 
ATOM     75  F   UNL A   1      38.889  26.376  30.147  1.00  0.00    -0.203 F 
ATOM     76  F   UNL A   1      41.455  27.291  25.419  1.00  0.00    -0.200 F 
ATOM     77  C   UNL A   1      40.151  25.879  26.789  1.00  0.00     0.200 A 
ATOM     78  F   UNL A   1      38.839  24.506  28.192  1.00  0.00    -0.200 F 
ATOM     79  F   UNL A   1      40.106  24.955  25.819  1.00  0.00    -0.200 F 
ENDBRANCH  55  69
BRANCH  56  80
ATOM     80  C   UNL A   1      40.399  34.242  36.463  1.00  0.00     0.064 A 
ATOM     81  C   UNL A   1      41.228  35.372  36.517  1.00  0.00     0.173 A 
ATOM     82  C   UNL A   1      39.589  33.977  37.577  1.00  0.00     0.173 A 
ATOM     83  F   UNL A   1      42.036  35.659  35.486  1.00  0.00    -0.203 F 
ATOM     84  C   UNL A   1      41.270  36.183  37.651  1.00  0.00     0.198 A 
ATOM     85  C   UNL A   1      39.606  34.807  38.696  1.00  0.00     0.198 A 
ATOM     86  F   UNL A   1      38.774  32.912  37.578  1.00  0.00    -0.203 F 
ATOM     87  F   UNL A   1      42.117  37.219  37.698  1.00  0.00    -0.200 F 
ATOM     88  C   UNL A   1      40.457  35.901  38.737  1.00  0.00     0.200 A 
ATOM     89  F   UNL A   1      38.806  34.541  39.737  1.00  0.00    -0.200 F 
ATOM     90  F   UNL A   1      40.500  36.678  39.828  1.00  0.00    -0.200 F 
ENDBRANCH  56  80
BRANCH  68  91
ATOM     91  C   UNL A   1      44.452  28.898  34.568  1.00  0.00     0.064 A 
ATOM     92  C   UNL A   1      44.375  27.823  35.465  1.00  0.00     0.173 A 
ATOM     93  C   UNL A   1      45.726  29.371  34.218  1.00  0.00     0.173 A 
ATOM     94  F   UNL A   1      43.180  27.343  35.842  1.00  0.00    -0.203 F 
ATOM     95  C   UNL A   1      45.527  27.263  36.011  1.00  0.00     0.198 A 
ATOM     96  C   UNL A   1      46.876  28.787  34.741  1.00  0.00     0.198 A 
ATOM     97  F   UNL A   1      45.857  30.393  33.358  1.00  0.00    -0.203 F 
ATOM     98  F   UNL A   1      45.426  26.272  36.908  1.00  0.00    -0.200 F 
ATOM     99  C   UNL A   1      46.776  27.740  35.643  1.00  0.00     0.200 A 
ATOM    100  F   UNL A   1      48.083  29.238  34.369  1.00  0.00    -0.200 F 
ATOM    101  F   UNL A   1      47.882  27.194  36.165  1.00  0.00    -0.200 F 
ENDBRANCH  68  91
ENDBRANCH  42  43
ENDBRANCH  34  37
ENDBRANCH  32  33
ENDBRANCH  31  32
ENDBRANCH  30  31
ENDBRANCH   1  30
TORSDOF 17
ENDMDL
