MODEL 1
REMARK VINA RESULT:     -11.8      0.000      0.000
REMARK SMILES C[C@H]1CCCC/C1=C\C(=O)NCCCCCCNC(=O)c1ccc(-c2c3nc(c(-c4c(F)c(F)c(F)c(F)c4F)c4ccc([nH]4)c(-c4c(F)c(F)c(F)c(F)c4F)c4nc(c(-c5c(F)c(F)c(F)c(F)c5F)c5ccc2[nH]5)C=C4)C=C3)cc1
REMARK SMILES IDX 15 1 14 2 13 3 12 4 11 5 9 6 10 7 8 9 1 10 2 11 3 12 7 13
REMARK SMILES IDX 4 14 6 15 5 16 16 17 17 18 18 19 19 20 20 22 21 23 22 24
REMARK SMILES IDX 83 25 23 26 82 27 24 28 25 29 26 30 76 31 27 32 81 33 75 34
REMARK SMILES IDX 77 35 28 36 80 37 74 38 73 39 29 41 61 42 41 43 60 44 42 45
REMARK SMILES IDX 45 46 59 47 78 48 43 49 44 50 58 52 79 53 46 54 30 55 31 56
REMARK SMILES IDX 39 57 32 58 33 59 37 60 40 61 34 62 35 63 38 64 36 65 62 66
REMARK SMILES IDX 63 67 71 68 64 69 65 70 69 71 72 72 66 73 67 74 70 75 68 76
REMARK SMILES IDX 47 77 48 78 56 79 49 80 50 81 54 82 57 83 51 84 52 85 55 86
REMARK SMILES IDX 53 87
REMARK H PARENT 11 8 18 21 77 40 45 51
REMARK Flexibility Score: inf
ROOT
ATOM      1  C   UNL A   1      31.313  31.016  25.711  1.00  0.00     0.002 C 
ENDROOT
BRANCH   1   2
ATOM      2  C   UNL A   1      32.401  29.954  25.917  1.00  0.00     0.002 C 
BRANCH   2   3
ATOM      3  C   UNL A   1      32.018  28.659  26.636  1.00  0.00     0.021 C 
BRANCH   3   4
ATOM      4  C   UNL A   1      31.329  27.581  25.815  1.00  0.00     0.116 C 
BRANCH   4   5
ATOM      5  N   UNL A   1      31.757  27.347  24.468  1.00  0.00    -0.353 N 
ATOM      6  C   UNL A   1      31.089  27.657  23.319  1.00  0.00     0.243 C 
ATOM      7  O   UNL A   1      31.638  27.414  22.242  1.00  0.00    -0.270 OA
ATOM      8  H   UNL A   1      32.634  26.910  24.359  1.00  0.00     0.163 HD
BRANCH   6   9
ATOM      9  C   UNL A   1      29.662  28.138  23.284  1.00  0.00     0.070 C 
ATOM     10  C   UNL A   1      26.621  28.251  23.549  1.00  0.00     0.012 C 
ATOM     11  C   UNL A   1      27.455  29.368  22.923  1.00  0.00     0.012 C 
ATOM     12  C   UNL A   1      27.344  30.676  23.724  1.00  0.00     0.008 C 
ATOM     13  C   UNL A   1      28.953  29.122  22.683  1.00  0.00    -0.062 C 
ATOM     14  C   UNL A   1      27.938  31.857  22.941  1.00  0.00     0.001 C 
ATOM     15  C   UNL A   1      29.450  30.186  21.731  1.00  0.00     0.031 C 
ATOM     16  C   UNL A   1      29.337  31.574  22.385  1.00  0.00     0.004 C 
ENDBRANCH   6   9
ENDBRANCH   4   5
ENDBRANCH   3   4
ENDBRANCH   2   3
ENDBRANCH   1   2
BRANCH   1  17
ATOM     17  C   UNL A   1      31.215  32.154  26.732  1.00  0.00     0.021 C 
BRANCH  17  18
ATOM     18  C   UNL A   1      32.514  32.859  27.106  1.00  0.00     0.116 C 
BRANCH  18  19
ATOM     19  N   UNL A   1      32.316  34.222  27.569  1.00  0.00    -0.352 N 
ATOM     20  C   UNL A   1      32.963  34.936  28.544  1.00  0.00     0.251 C 
ATOM     21  H   UNL A   1      31.598  34.713  27.109  1.00  0.00     0.163 HD
ATOM     22  O   UNL A   1      32.542  36.052  28.860  1.00  0.00    -0.269 OA
BRANCH  20  23
ATOM     23  C   UNL A   1      34.146  34.386  29.245  1.00  0.00     0.039 A 
ATOM     24  C   UNL A   1      33.949  33.689  30.442  1.00  0.00     0.014 A 
ATOM     25  C   UNL A   1      35.442  34.583  28.764  1.00  0.00     0.014 A 
ATOM     26  C   UNL A   1      35.039  33.140  31.121  1.00  0.00     0.010 A 
ATOM     27  C   UNL A   1      36.524  33.974  29.403  1.00  0.00     0.010 A 
ATOM     28  C   UNL A   1      36.334  33.247  30.589  1.00  0.00    -0.014 A 
BRANCH  28  29
ATOM     29  C   UNL A   1      37.496  32.605  31.258  1.00  0.00     0.031 A 
ATOM     30  C   UNL A   1      38.230  31.474  30.591  1.00  0.00     0.074 A 
ATOM     31  C   UNL A   1      37.857  33.003  32.494  1.00  0.00     0.049 A 
ATOM     32  N   UNL A   1      39.221  30.746  31.043  1.00  0.00    -0.248 NA
ATOM     33  C   UNL A   1      37.772  31.093  29.246  1.00  0.00     0.031 C 
ATOM     34  C   UNL A   1      37.204  34.064  33.263  1.00  0.00     0.029 A 
ATOM     35  N   UNL A   1      38.854  32.556  33.325  1.00  0.00    -0.354 N 
ATOM     36  C   UNL A   1      39.497  29.821  30.045  1.00  0.00     0.074 A 
ATOM     37  C   UNL A   1      38.533  30.039  28.989  1.00  0.00     0.031 C 
ATOM     38  C   UNL A   1      37.832  34.202  34.441  1.00  0.00     0.029 A 
ATOM     39  C   UNL A   1      38.902  33.213  34.531  1.00  0.00     0.049 A 
ATOM     40  H   UNL A   1      39.477  31.834  33.081  1.00  0.00     0.167 HD
ATOM     41  C   UNL A   1      40.481  28.889  30.004  1.00  0.00     0.037 A 
ATOM     42  C   UNL A   1      39.709  33.031  35.593  1.00  0.00     0.037 A 
ATOM     43  C   UNL A   1      41.447  28.682  31.052  1.00  0.00     0.049 A 
ATOM     44  C   UNL A   1      40.775  31.969  35.534  1.00  0.00     0.074 A 
ATOM     45  C   UNL A   1      42.510  27.797  31.084  1.00  0.00     0.029 A 
ATOM     46  N   UNL A   1      41.464  29.370  32.257  1.00  0.00    -0.354 N 
ATOM     47  N   UNL A   1      41.067  31.142  34.559  1.00  0.00    -0.248 NA
ATOM     48  C   UNL A   1      41.625  31.819  36.723  1.00  0.00     0.031 C 
ATOM     49  C   UNL A   1      43.136  27.909  32.330  1.00  0.00     0.029 A 
ATOM     50  C   UNL A   1      42.503  28.908  33.051  1.00  0.00     0.049 A 
ATOM     51  H   UNL A   1      40.832  30.079  32.512  1.00  0.00     0.167 HD
ATOM     52  C   UNL A   1      42.152  30.398  35.002  1.00  0.00     0.074 A 
ATOM     53  C   UNL A   1      42.477  30.882  36.327  1.00  0.00     0.031 C 
ATOM     54  C   UNL A   1      42.821  29.404  34.367  1.00  0.00     0.037 A 
BRANCH  41  55
ATOM     55  C   UNL A   1      40.560  28.016  28.783  1.00  0.00     0.064 A 
ATOM     56  C   UNL A   1      39.869  26.796  28.703  1.00  0.00     0.173 A 
ATOM     57  C   UNL A   1      41.309  28.416  27.666  1.00  0.00     0.173 A 
ATOM     58  F   UNL A   1      39.144  26.361  29.745  1.00  0.00    -0.203 F 
ATOM     59  C   UNL A   1      39.953  25.996  27.567  1.00  0.00     0.198 A 
ATOM     60  C   UNL A   1      41.364  27.629  26.517  1.00  0.00     0.198 A 
ATOM     61  F   UNL A   1      41.985  29.575  27.684  1.00  0.00    -0.203 F 
ATOM     62  F   UNL A   1      39.330  24.810  27.536  1.00  0.00    -0.200 F 
ATOM     63  C   UNL A   1      40.694  26.416  26.472  1.00  0.00     0.200 A 
ATOM     64  F   UNL A   1      42.068  28.044  25.455  1.00  0.00    -0.200 F 
ATOM     65  F   UNL A   1      40.769  25.648  25.377  1.00  0.00    -0.200 F 
ENDBRANCH  41  55
BRANCH  42  66
ATOM     66  C   UNL A   1      39.558  33.889  36.798  1.00  0.00     0.064 A 
ATOM     67  C   UNL A   1      40.203  35.131  36.884  1.00  0.00     0.173 A 
ATOM     68  C   UNL A   1      38.779  33.483  37.893  1.00  0.00     0.173 A 
ATOM     69  F   UNL A   1      40.977  35.554  35.873  1.00  0.00    -0.203 F 
ATOM     70  C   UNL A   1      40.093  35.924  38.025  1.00  0.00     0.198 A 
ATOM     71  C   UNL A   1      38.643  34.291  39.020  1.00  0.00     0.198 A 
ATOM     72  F   UNL A   1      38.137  32.306  37.861  1.00  0.00    -0.203 F 
ATOM     73  F   UNL A   1      40.761  37.083  38.099  1.00  0.00    -0.200 F 
ATOM     74  C   UNL A   1      39.308  35.506  39.089  1.00  0.00     0.200 A 
ATOM     75  F   UNL A   1      37.873  33.891  40.039  1.00  0.00    -0.200 F 
ATOM     76  F   UNL A   1      39.200  36.270  40.185  1.00  0.00    -0.200 F 
ENDBRANCH  42  66
BRANCH  54  77
ATOM     77  C   UNL A   1      43.997  28.799  35.078  1.00  0.00     0.064 A 
ATOM     78  C   UNL A   1      45.298  29.296  34.913  1.00  0.00     0.173 A 
ATOM     79  C   UNL A   1      43.812  27.727  35.966  1.00  0.00     0.173 A 
ATOM     80  F   UNL A   1      45.531  30.309  34.065  1.00  0.00    -0.203 F 
ATOM     81  C   UNL A   1      46.374  28.724  35.590  1.00  0.00     0.198 A 
ATOM     82  C   UNL A   1      44.885  27.181  36.665  1.00  0.00     0.198 A 
ATOM     83  F   UNL A   1      42.587  27.217  36.166  1.00  0.00    -0.203 F 
ATOM     84  F   UNL A   1      47.615  29.182  35.376  1.00  0.00    -0.200 F 
ATOM     85  C   UNL A   1      46.165  27.673  36.470  1.00  0.00     0.200 A 
ATOM     86  F   UNL A   1      44.678  26.176  37.528  1.00  0.00    -0.200 F 
ATOM     87  F   UNL A   1      47.200  27.131  37.126  1.00  0.00    -0.200 F 
ENDBRANCH  54  77
ENDBRANCH  28  29
ENDBRANCH  20  23
ENDBRANCH  18  19
ENDBRANCH  17  18
ENDBRANCH   1  17
TORSDOF 13
ENDMDL
MODEL 2
REMARK VINA RESULT:     -11.5      6.608     10.596
REMARK SMILES C[C@H]1CCCC/C1=C\C(=O)NCCCCCCNC(=O)c1ccc(-c2c3nc(c(-c4c(F)c(F)c(F)c(F)c4F)c4ccc([nH]4)c(-c4c(F)c(F)c(F)c(F)c4F)c4nc(c(-c5c(F)c(F)c(F)c(F)c5F)c5ccc2[nH]5)C=C4)C=C3)cc1
REMARK SMILES IDX 15 1 14 2 13 3 12 4 11 5 9 6 10 7 8 9 1 10 2 11 3 12 7 13
REMARK SMILES IDX 4 14 6 15 5 16 16 17 17 18 18 19 19 20 20 22 21 23 22 24
REMARK SMILES IDX 83 25 23 26 82 27 24 28 25 29 26 30 76 31 27 32 81 33 75 34
REMARK SMILES IDX 77 35 28 36 80 37 74 38 73 39 29 41 61 42 41 43 60 44 42 45
REMARK SMILES IDX 45 46 59 47 78 48 43 49 44 50 58 52 79 53 46 54 30 55 31 56
REMARK SMILES IDX 39 57 32 58 33 59 37 60 40 61 34 62 35 63 38 64 36 65 62 66
REMARK SMILES IDX 63 67 71 68 64 69 65 70 69 71 72 72 66 73 67 74 70 75 68 76
REMARK SMILES IDX 47 77 48 78 56 79 49 80 50 81 54 82 57 83 51 84 52 85 55 86
REMARK SMILES IDX 53 87
REMARK H PARENT 11 8 18 21 77 40 45 51
REMARK Flexibility Score: inf
ROOT
ATOM      1  C   UNL A   1      36.573  20.146  25.001  1.00  0.00     0.002 C 
ENDROOT
BRANCH   1   2
ATOM      2  C   UNL A   1      36.600  21.626  25.405  1.00  0.00     0.002 C 
BRANCH   2   3
ATOM      3  C   UNL A   1      36.074  22.656  24.405  1.00  0.00     0.021 C 
BRANCH   3   4
ATOM      4  C   UNL A   1      34.677  22.439  23.845  1.00  0.00     0.116 C 
BRANCH   4   5
ATOM      5  N   UNL A   1      33.565  22.374  24.746  1.00  0.00    -0.353 N 
ATOM      6  C   UNL A   1      32.669  21.353  24.888  1.00  0.00     0.243 C 
ATOM      7  O   UNL A   1      31.796  21.460  25.751  1.00  0.00    -0.270 OA
ATOM      8  H   UNL A   1      33.430  23.156  25.330  1.00  0.00     0.163 HD
BRANCH   6   9
ATOM      9  C   UNL A   1      32.590  20.173  23.953  1.00  0.00     0.070 C 
ATOM     10  C   UNL A   1      32.153  18.453  21.467  1.00  0.00     0.012 C 
ATOM     11  C   UNL A   1      32.512  17.879  22.838  1.00  0.00     0.012 C 
ATOM     12  C   UNL A   1      33.874  17.163  22.814  1.00  0.00     0.008 C 
ATOM     13  C   UNL A   1      32.532  18.825  24.049  1.00  0.00    -0.062 C 
ATOM     14  C   UNL A   1      34.093  16.347  24.096  1.00  0.00     0.001 C 
ATOM     15  C   UNL A   1      32.528  17.975  25.300  1.00  0.00     0.031 C 
ATOM     16  C   UNL A   1      33.821  17.144  25.376  1.00  0.00     0.004 C 
ENDBRANCH   6   9
ENDBRANCH   4   5
ENDBRANCH   3   4
ENDBRANCH   2   3
ENDBRANCH   1   2
BRANCH   1  17
ATOM     17  C   UNL A   1      37.901  19.383  24.972  1.00  0.00     0.021 C 
BRANCH  17  18
ATOM     18  C   UNL A   1      39.063  19.991  25.751  1.00  0.00     0.116 C 
BRANCH  18  19
ATOM     19  N   UNL A   1      40.198  19.094  25.883  1.00  0.00    -0.352 N 
ATOM     20  C   UNL A   1      41.520  19.358  26.129  1.00  0.00     0.251 C 
ATOM     21  H   UNL A   1      39.983  18.139  25.775  1.00  0.00     0.163 HD
ATOM     22  O   UNL A   1      42.343  18.440  26.076  1.00  0.00    -0.269 OA
BRANCH  20  23
ATOM     23  C   UNL A   1      41.987  20.729  26.436  1.00  0.00     0.039 A 
ATOM     24  C   UNL A   1      42.210  21.613  25.375  1.00  0.00     0.014 A 
ATOM     25  C   UNL A   1      42.249  21.141  27.745  1.00  0.00     0.014 A 
ATOM     26  C   UNL A   1      42.632  22.920  25.627  1.00  0.00     0.010 A 
ATOM     27  C   UNL A   1      42.602  22.466  28.002  1.00  0.00     0.010 A 
ATOM     28  C   UNL A   1      42.799  23.370  26.946  1.00  0.00    -0.014 A 
BRANCH  28  29
ATOM     29  C   UNL A   1      43.175  24.778  27.236  1.00  0.00     0.031 A 
ATOM     30  C   UNL A   1      44.576  25.262  26.981  1.00  0.00     0.074 A 
ATOM     31  C   UNL A   1      42.267  25.611  27.782  1.00  0.00     0.049 A 
ATOM     32  N   UNL A   1      45.109  26.432  27.231  1.00  0.00    -0.248 NA
ATOM     33  C   UNL A   1      45.510  24.291  26.390  1.00  0.00     0.031 C 
ATOM     34  C   UNL A   1      40.886  25.256  28.111  1.00  0.00     0.029 A 
ATOM     35  N   UNL A   1      42.371  26.926  28.168  1.00  0.00    -0.354 N 
ATOM     36  C   UNL A   1      46.438  26.334  26.837  1.00  0.00     0.074 A 
ATOM     37  C   UNL A   1      46.645  24.975  26.386  1.00  0.00     0.031 C 
ATOM     38  C   UNL A   1      40.266  26.329  28.625  1.00  0.00     0.029 A 
ATOM     39  C   UNL A   1      41.214  27.436  28.704  1.00  0.00     0.049 A 
ATOM     40  H   UNL A   1      43.198  27.452  28.069  1.00  0.00     0.167 HD
ATOM     41  C   UNL A   1      47.391  27.298  26.829  1.00  0.00     0.037 A 
ATOM     42  C   UNL A   1      40.951  28.655  29.212  1.00  0.00     0.037 A 
ATOM     43  C   UNL A   1      47.178  28.653  27.267  1.00  0.00     0.049 A 
ATOM     44  C   UNL A   1      42.036  29.699  29.220  1.00  0.00     0.074 A 
ATOM     45  C   UNL A   1      48.065  29.715  27.254  1.00  0.00     0.029 A 
ATOM     46  N   UNL A   1      45.990  29.133  27.802  1.00  0.00    -0.354 N 
ATOM     47  N   UNL A   1      43.270  29.614  28.786  1.00  0.00    -0.248 NA
ATOM     48  C   UNL A   1      41.688  31.010  29.785  1.00  0.00     0.031 C 
ATOM     49  C   UNL A   1      47.434  30.821  27.833  1.00  0.00     0.029 A 
ATOM     50  C   UNL A   1      46.133  30.468  28.148  1.00  0.00     0.049 A 
ATOM     51  H   UNL A   1      45.169  28.604  27.919  1.00  0.00     0.167 HD
ATOM     52  C   UNL A   1      43.836  30.864  28.994  1.00  0.00     0.074 A 
ATOM     53  C   UNL A   1      42.805  31.696  29.580  1.00  0.00     0.031 C 
ATOM     54  C   UNL A   1      45.095  31.287  28.723  1.00  0.00     0.037 A 
BRANCH  41  55
ATOM     55  C   UNL A   1      48.759  26.918  26.334  1.00  0.00     0.064 A 
ATOM     56  C   UNL A   1      49.739  26.404  27.196  1.00  0.00     0.173 A 
ATOM     57  C   UNL A   1      49.084  27.040  24.974  1.00  0.00     0.173 A 
ATOM     58  F   UNL A   1      49.484  26.273  28.507  1.00  0.00    -0.203 F 
ATOM     59  C   UNL A   1      51.003  26.059  26.724  1.00  0.00     0.198 A 
ATOM     60  C   UNL A   1      50.338  26.663  24.498  1.00  0.00     0.198 A 
ATOM     61  F   UNL A   1      48.184  27.521  24.103  1.00  0.00    -0.203 F 
ATOM     62  F   UNL A   1      51.939  25.622  27.577  1.00  0.00    -0.200 F 
ATOM     63  C   UNL A   1      51.299  26.181  25.375  1.00  0.00     0.200 A 
ATOM     64  F   UNL A   1      50.618  26.768  23.192  1.00  0.00    -0.200 F 
ATOM     65  F   UNL A   1      52.513  25.843  24.920  1.00  0.00    -0.200 F 
ENDBRANCH  41  55
BRANCH  42  66
ATOM     66  C   UNL A   1      39.595  28.966  29.736  1.00  0.00     0.064 A 
ATOM     67  C   UNL A   1      38.601  29.490  28.898  1.00  0.00     0.173 A 
ATOM     68  C   UNL A   1      39.266  28.758  31.085  1.00  0.00     0.173 A 
ATOM     69  F   UNL A   1      38.872  29.727  27.606  1.00  0.00    -0.203 F 
ATOM     70  C   UNL A   1      37.338  29.815  29.391  1.00  0.00     0.198 A 
ATOM     71  C   UNL A   1      37.993  29.053  31.570  1.00  0.00     0.198 A 
ATOM     72  F   UNL A   1      40.179  28.255  31.929  1.00  0.00    -0.203 F 
ATOM     73  F   UNL A   1      36.425  30.361  28.578  1.00  0.00    -0.200 F 
ATOM     74  C   UNL A   1      37.034  29.590  30.725  1.00  0.00     0.200 A 
ATOM     75  F   UNL A   1      37.699  28.821  32.856  1.00  0.00    -0.200 F 
ATOM     76  F   UNL A   1      35.819  29.901  31.199  1.00  0.00    -0.200 F 
ENDBRANCH  42  66
BRANCH  54  77
ATOM     77  C   UNL A   1      45.420  32.724  29.019  1.00  0.00     0.064 A 
ATOM     78  C   UNL A   1      45.186  33.744  28.084  1.00  0.00     0.173 A 
ATOM     79  C   UNL A   1      45.941  33.088  30.271  1.00  0.00     0.173 A 
ATOM     80  F   UNL A   1      44.704  33.447  26.869  1.00  0.00    -0.203 F 
ATOM     81  C   UNL A   1      45.487  35.070  28.383  1.00  0.00     0.198 A 
ATOM     82  C   UNL A   1      46.209  34.420  30.577  1.00  0.00     0.198 A 
ATOM     83  F   UNL A   1      46.178  32.154  31.204  1.00  0.00    -0.203 F 
ATOM     84  F   UNL A   1      45.305  36.021  27.455  1.00  0.00    -0.200 F 
ATOM     85  C   UNL A   1      45.990  35.408  29.630  1.00  0.00     0.200 A 
ATOM     86  F   UNL A   1      46.679  34.745  31.789  1.00  0.00    -0.200 F 
ATOM     87  F   UNL A   1      46.271  36.686  29.917  1.00  0.00    -0.200 F 
ENDBRANCH  54  77
ENDBRANCH  28  29
ENDBRANCH  20  23
ENDBRANCH  18  19
ENDBRANCH  17  18
ENDBRANCH   1  17
TORSDOF 13
ENDMDL
MODEL 3
REMARK VINA RESULT:     -11.4      6.603     11.797
REMARK SMILES C[C@H]1CCCC/C1=C\C(=O)NCCCCCCNC(=O)c1ccc(-c2c3nc(c(-c4c(F)c(F)c(F)c(F)c4F)c4ccc([nH]4)c(-c4c(F)c(F)c(F)c(F)c4F)c4nc(c(-c5c(F)c(F)c(F)c(F)c5F)c5ccc2[nH]5)C=C4)C=C3)cc1
REMARK SMILES IDX 15 1 14 2 13 3 12 4 11 5 9 6 10 7 8 9 1 10 2 11 3 12 7 13
REMARK SMILES IDX 4 14 6 15 5 16 16 17 17 18 18 19 19 20 20 22 21 23 22 24
REMARK SMILES IDX 83 25 23 26 82 27 24 28 25 29 26 30 76 31 27 32 81 33 75 34
REMARK SMILES IDX 77 35 28 36 80 37 74 38 73 39 29 41 61 42 41 43 60 44 42 45
REMARK SMILES IDX 45 46 59 47 78 48 43 49 44 50 58 52 79 53 46 54 30 55 31 56
REMARK SMILES IDX 39 57 32 58 33 59 37 60 40 61 34 62 35 63 38 64 36 65 62 66
REMARK SMILES IDX 63 67 71 68 64 69 65 70 69 71 72 72 66 73 67 74 70 75 68 76
REMARK SMILES IDX 47 77 48 78 56 79 49 80 50 81 54 82 57 83 51 84 52 85 55 86
REMARK SMILES IDX 53 87
REMARK H PARENT 11 8 18 21 77 40 45 51
REMARK Flexibility Score: inf
ROOT
ATOM      1  C   UNL A   1      36.367  20.056  24.984  1.00  0.00     0.002 C 
ENDROOT
BRANCH   1   2
ATOM      2  C   UNL A   1      36.428  21.554  25.306  1.00  0.00     0.002 C 
BRANCH   2   3
ATOM      3  C   UNL A   1      36.086  22.546  24.193  1.00  0.00     0.021 C 
BRANCH   3   4
ATOM      4  C   UNL A   1      34.653  22.562  23.685  1.00  0.00     0.116 C 
BRANCH   4   5
ATOM      5  N   UNL A   1      33.577  22.486  24.627  1.00  0.00    -0.353 N 
ATOM      6  C   UNL A   1      32.731  21.436  24.837  1.00  0.00     0.243 C 
ATOM      7  O   UNL A   1      31.883  21.539  25.727  1.00  0.00    -0.270 OA
ATOM      8  H   UNL A   1      33.429  23.284  25.186  1.00  0.00     0.163 HD
BRANCH   6   9
ATOM      9  C   UNL A   1      32.670  20.218  23.951  1.00  0.00     0.070 C 
ATOM     10  C   UNL A   1      32.276  18.397  21.531  1.00  0.00     0.012 C 
ATOM     11  C   UNL A   1      32.618  17.881  22.928  1.00  0.00     0.012 C 
ATOM     12  C   UNL A   1      33.983  17.171  22.952  1.00  0.00     0.008 C 
ATOM     13  C   UNL A   1      32.616  18.874  24.100  1.00  0.00    -0.062 C 
ATOM     14  C   UNL A   1      34.187  16.409  24.270  1.00  0.00     0.001 C 
ATOM     15  C   UNL A   1      32.599  18.076  25.384  1.00  0.00     0.031 C 
ATOM     16  C   UNL A   1      33.894  17.255  25.512  1.00  0.00     0.004 C 
ENDBRANCH   6   9
ENDBRANCH   4   5
ENDBRANCH   3   4
ENDBRANCH   2   3
ENDBRANCH   1   2
BRANCH   1  17
ATOM     17  C   UNL A   1      37.674  19.258  25.019  1.00  0.00     0.021 C 
BRANCH  17  18
ATOM     18  C   UNL A   1      38.921  19.998  25.491  1.00  0.00     0.116 C 
BRANCH  18  19
ATOM     19  N   UNL A   1      40.045  19.116  25.760  1.00  0.00    -0.352 N 
ATOM     20  C   UNL A   1      41.331  19.401  26.137  1.00  0.00     0.251 C 
ATOM     21  H   UNL A   1      39.850  18.157  25.654  1.00  0.00     0.163 HD
ATOM     22  O   UNL A   1      42.163  18.491  26.191  1.00  0.00    -0.269 OA
BRANCH  20  23
ATOM     23  C   UNL A   1      41.752  20.783  26.458  1.00  0.00     0.039 A 
ATOM     24  C   UNL A   1      42.041  21.101  27.790  1.00  0.00     0.014 A 
ATOM     25  C   UNL A   1      41.825  21.776  25.479  1.00  0.00     0.014 A 
ATOM     26  C   UNL A   1      42.460  22.390  28.128  1.00  0.00     0.010 A 
ATOM     27  C   UNL A   1      42.311  23.043  25.805  1.00  0.00     0.010 A 
ATOM     28  C   UNL A   1      42.633  23.365  27.133  1.00  0.00    -0.014 A 
BRANCH  28  29
ATOM     29  C   UNL A   1      43.149  24.718  27.464  1.00  0.00     0.031 A 
ATOM     30  C   UNL A   1      42.237  25.760  28.052  1.00  0.00     0.074 A 
ATOM     31  C   UNL A   1      44.430  25.029  27.183  1.00  0.00     0.049 A 
ATOM     32  N   UNL A   1      42.487  27.012  28.345  1.00  0.00    -0.248 NA
ATOM     33  C   UNL A   1      40.853  25.345  28.324  1.00  0.00     0.031 C 
ATOM     34  C   UNL A   1      45.407  24.121  26.580  1.00  0.00     0.029 A 
ATOM     35  N   UNL A   1      45.129  26.199  27.358  1.00  0.00    -0.354 N 
ATOM     36  C   UNL A   1      41.292  27.533  28.825  1.00  0.00     0.074 A 
ATOM     37  C   UNL A   1      40.304  26.480  28.730  1.00  0.00     0.031 C 
ATOM     38  C   UNL A   1      46.582  24.758  26.456  1.00  0.00     0.029 A 
ATOM     39  C   UNL A   1      46.433  26.131  26.930  1.00  0.00     0.049 A 
ATOM     40  H   UNL A   1      44.733  27.010  27.752  1.00  0.00     0.167 HD
ATOM     41  C   UNL A   1      41.047  28.770  29.323  1.00  0.00     0.037 A 
ATOM     42  C   UNL A   1      47.396  27.072  26.913  1.00  0.00     0.037 A 
ATOM     43  C   UNL A   1      42.037  29.812  29.428  1.00  0.00     0.049 A 
ATOM     44  C   UNL A   1      47.091  28.447  27.443  1.00  0.00     0.074 A 
ATOM     45  C   UNL A   1      41.900  31.082  29.961  1.00  0.00     0.029 A 
ATOM     46  N   UNL A   1      43.348  29.703  28.987  1.00  0.00    -0.354 N 
ATOM     47  N   UNL A   1      45.975  28.910  27.953  1.00  0.00    -0.248 NA
ATOM     48  C   UNL A   1      48.182  29.430  27.398  1.00  0.00     0.031 C 
ATOM     49  C   UNL A   1      43.112  31.761  29.791  1.00  0.00     0.029 A 
ATOM     50  C   UNL A   1      44.023  30.894  29.210  1.00  0.00     0.049 A 
ATOM     51  H   UNL A   1      43.741  28.901  28.575  1.00  0.00     0.167 HD
ATOM     52  C   UNL A   1      46.237  30.223  28.319  1.00  0.00     0.074 A 
ATOM     53  C   UNL A   1      47.623  30.479  27.987  1.00  0.00     0.031 C 
ATOM     54  C   UNL A   1      45.406  31.134  28.882  1.00  0.00     0.037 A 
BRANCH  41  55
ATOM     55  C   UNL A   1      39.650  29.068  29.789  1.00  0.00     0.064 A 
ATOM     56  C   UNL A   1      38.680  29.594  28.922  1.00  0.00     0.173 A 
ATOM     57  C   UNL A   1      39.266  28.796  31.111  1.00  0.00     0.173 A 
ATOM     58  F   UNL A   1      38.995  29.881  27.650  1.00  0.00    -0.203 F 
ATOM     59  C   UNL A   1      37.390  29.868  29.369  1.00  0.00     0.198 A 
ATOM     60  C   UNL A   1      37.965  29.039  31.546  1.00  0.00     0.198 A 
ATOM     61  F   UNL A   1      40.150  28.287  31.983  1.00  0.00    -0.203 F 
ATOM     62  F   UNL A   1      36.497  30.421  28.537  1.00  0.00    -0.200 F 
ATOM     63  C   UNL A   1      37.030  29.583  30.678  1.00  0.00     0.200 A 
ATOM     64  F   UNL A   1      37.616  28.749  32.807  1.00  0.00    -0.200 F 
ATOM     65  F   UNL A   1      35.787  29.841  31.105  1.00  0.00    -0.200 F 
ENDBRANCH  41  55
BRANCH  42  66
ATOM     66  C   UNL A   1      48.750  26.741  26.394  1.00  0.00     0.064 A 
ATOM     67  C   UNL A   1      49.091  26.994  25.058  1.00  0.00     0.173 A 
ATOM     68  C   UNL A   1      49.726  26.156  27.215  1.00  0.00     0.173 A 
ATOM     69  F   UNL A   1      48.186  27.533  24.227  1.00  0.00    -0.203 F 
ATOM     70  C   UNL A   1      50.347  26.656  24.557  1.00  0.00     0.198 A 
ATOM     71  C   UNL A   1      50.992  25.847  26.722  1.00  0.00     0.198 A 
ATOM     72  F   UNL A   1      49.453  25.897  28.503  1.00  0.00    -0.203 F 
ATOM     73  F   UNL A   1      50.627  26.863  23.264  1.00  0.00    -0.200 F 
ATOM     74  C   UNL A   1      51.298  26.088  25.391  1.00  0.00     0.200 A 
ATOM     75  F   UNL A   1      51.913  25.313  27.535  1.00  0.00    -0.200 F 
ATOM     76  F   UNL A   1      52.507  25.764  24.910  1.00  0.00    -0.200 F 
ENDBRANCH  42  66
BRANCH  54  77
ATOM     77  C   UNL A   1      45.981  32.482  29.212  1.00  0.00     0.064 A 
ATOM     78  C   UNL A   1      46.605  32.739  30.442  1.00  0.00     0.173 A 
ATOM     79  C   UNL A   1      45.935  33.521  28.269  1.00  0.00     0.173 A 
ATOM     80  F   UNL A   1      46.662  31.785  31.382  1.00  0.00    -0.203 F 
ATOM     81  C   UNL A   1      47.139  33.995  30.724  1.00  0.00     0.198 A 
ATOM     82  C   UNL A   1      46.500  34.764  28.543  1.00  0.00     0.198 A 
ATOM     83  F   UNL A   1      45.355  33.328  27.075  1.00  0.00    -0.203 F 
ATOM     84  F   UNL A   1      47.684  34.232  31.925  1.00  0.00    -0.200 F 
ATOM     85  C   UNL A   1      47.093  35.002  29.773  1.00  0.00     0.200 A 
ATOM     86  F   UNL A   1      46.469  35.731  27.616  1.00  0.00    -0.200 F 
ATOM     87  F   UNL A   1      47.615  36.206  30.044  1.00  0.00    -0.200 F 
ENDBRANCH  54  77
ENDBRANCH  28  29
ENDBRANCH  20  23
ENDBRANCH  18  19
ENDBRANCH  17  18
ENDBRANCH   1  17
TORSDOF 13
ENDMDL
