MODEL 1
REMARK VINA RESULT:     -11.9      0.000      0.000
REMARK SMILES O=C(NCCCCCCNC(=O)c1ccc(-c2c3nc(c(-c4c(F)c(F)c(F)c(F)c4F)c4ccc([nH]4)c(-c4c(F)c(F)c(F)c(F)c4F)c4nc(c(-c5c(F)c(F)c(F)c(F)c5F)c5ccc2[nH]5)C=C4)C=C3)cc1)C1=Cc2ccc(Cl)c(Cl)c2O[C@@H]1C(F)(F)F
REMARK SMILES IDX 7 1 6 2 5 3 4 4 3 5 1 6 2 7 76 9 77 10 87 11 78 12 86 13
REMARK SMILES IDX 79 14 85 15 80 16 83 17 81 18 84 19 82 20 88 21 89 22 90 23
REMARK SMILES IDX 91 24 8 25 9 26 10 27 11 28 12 30 13 31 14 32 75 33 15 34
REMARK SMILES IDX 74 35 16 36 17 37 18 38 68 39 19 40 73 41 67 42 69 43 20 44
REMARK SMILES IDX 72 45 66 46 65 47 21 49 53 50 33 51 52 52 34 53 37 54 51 55
REMARK SMILES IDX 70 56 35 57 36 58 50 60 71 61 38 62 22 63 23 64 31 65 24 66
REMARK SMILES IDX 25 67 29 68 32 69 26 70 27 71 30 72 28 73 54 74 55 75 63 76
REMARK SMILES IDX 56 77 57 78 61 79 64 80 58 81 59 82 62 83 60 84 39 85 40 86
REMARK SMILES IDX 48 87 41 88 42 89 46 90 49 91 43 92 44 93 47 94 45 95
REMARK H PARENT 3 8 10 29 69 48 37 59
REMARK Flexibility Score: inf
ROOT
ATOM      1  C   UNL A   1      32.065  28.315  25.013  1.00  0.00     0.002 C 
ENDROOT
BRANCH   1   2
ATOM      2  C   UNL A   1      31.049  27.173  24.885  1.00  0.00     0.002 C 
BRANCH   2   3
ATOM      3  C   UNL A   1      30.646  26.453  26.172  1.00  0.00     0.021 C 
BRANCH   3   4
ATOM      4  C   UNL A   1      30.152  25.017  26.025  1.00  0.00     0.116 C 
BRANCH   4   5
ATOM      5  N   UNL A   1      30.820  24.043  26.875  1.00  0.00    -0.352 N 
ATOM      6  O   UNL A   1      32.470  22.688  27.588  1.00  0.00    -0.270 OA
ATOM      7  C   UNL A   1      31.982  23.343  26.669  1.00  0.00     0.251 C 
ATOM      8  H   UNL A   1      30.369  23.860  27.731  1.00  0.00     0.163 HD
BRANCH   7   9
ATOM      9  C   UNL A   1      32.739  23.443  25.386  1.00  0.00     0.067 C 
ATOM     10  C   UNL A   1      33.790  24.269  25.279  1.00  0.00     0.025 C 
ATOM     11  C   UNL A   1      32.717  22.171  24.580  1.00  0.00     0.314 C 
ATOM     12  C   UNL A   1      35.075  23.588  25.073  1.00  0.00     0.019 A 
ATOM     13  O   UNL A   1      33.974  21.456  24.662  1.00  0.00    -0.474 OA
ATOM     14  C   UNL A   1      36.244  24.295  25.378  1.00  0.00     0.013 A 
ATOM     15  C   UNL A   1      35.112  22.194  24.903  1.00  0.00     0.148 A 
ATOM     16  C   UNL A   1      37.433  23.601  25.595  1.00  0.00     0.023 A 
ATOM     17  C   UNL A   1      36.314  21.499  25.108  1.00  0.00     0.102 A 
ATOM     18  C   UNL A   1      37.465  22.207  25.482  1.00  0.00     0.063 A 
ATOM     19  Cl  UNL A   1      36.324  19.768  25.000  1.00  0.00    -0.079 Cl
ATOM     20  Cl  UNL A   1      38.946  21.418  25.904  1.00  0.00    -0.083 Cl
BRANCH  11  21
ATOM     21  C   UNL A   1      32.322  22.456  23.118  1.00  0.00     0.429 C 
ATOM     22  F   UNL A   1      33.394  22.814  22.375  1.00  0.00    -0.167 F 
ATOM     23  F   UNL A   1      31.774  21.369  22.524  1.00  0.00    -0.167 F 
ATOM     24  F   UNL A   1      31.413  23.458  23.020  1.00  0.00    -0.167 F 
ENDBRANCH  11  21
ENDBRANCH   7   9
ENDBRANCH   4   5
ENDBRANCH   3   4
ENDBRANCH   2   3
ENDBRANCH   1   2
BRANCH   1  25
ATOM     25  C   UNL A   1      33.500  27.942  25.400  1.00  0.00     0.021 C 
BRANCH  25  26
ATOM     26  C   UNL A   1      33.895  28.155  26.861  1.00  0.00     0.116 C 
BRANCH  26  27
ATOM     27  N   UNL A   1      33.724  29.524  27.309  1.00  0.00    -0.352 N 
ATOM     28  C   UNL A   1      34.576  30.349  28.002  1.00  0.00     0.251 C 
ATOM     29  H   UNL A   1      32.856  29.928  27.080  1.00  0.00     0.163 HD
ATOM     30  O   UNL A   1      34.178  31.449  28.373  1.00  0.00    -0.269 OA
BRANCH  28  31
ATOM     31  C   UNL A   1      35.961  29.933  28.333  1.00  0.00     0.039 A 
ATOM     32  C   UNL A   1      36.951  30.094  27.355  1.00  0.00     0.014 A 
ATOM     33  C   UNL A   1      36.289  29.335  29.552  1.00  0.00     0.014 A 
ATOM     34  C   UNL A   1      38.267  29.703  27.615  1.00  0.00     0.010 A 
ATOM     35  C   UNL A   1      37.615  28.999  29.834  1.00  0.00     0.010 A 
ATOM     36  C   UNL A   1      38.618  29.175  28.867  1.00  0.00    -0.014 A 
BRANCH  36  37
ATOM     37  C   UNL A   1      40.024  28.797  29.171  1.00  0.00     0.031 A 
ATOM     38  C   UNL A   1      40.921  29.742  29.921  1.00  0.00     0.074 A 
ATOM     39  C   UNL A   1      40.508  27.619  28.736  1.00  0.00     0.049 A 
ATOM     40  N   UNL A   1      42.190  29.617  30.226  1.00  0.00    -0.248 NA
ATOM     41  C   UNL A   1      40.321  31.008  30.369  1.00  0.00     0.031 C 
ATOM     42  C   UNL A   1      39.753  26.628  27.967  1.00  0.00     0.029 A 
ATOM     43  N   UNL A   1      41.755  27.058  28.867  1.00  0.00    -0.354 N 
ATOM     44  C   UNL A   1      42.538  30.784  30.893  1.00  0.00     0.074 A 
ATOM     45  C   UNL A   1      41.363  31.629  30.902  1.00  0.00     0.031 C 
ATOM     46  C   UNL A   1      40.547  25.578  27.705  1.00  0.00     0.029 A 
ATOM     47  C   UNL A   1      41.874  25.833  28.257  1.00  0.00     0.049 A 
ATOM     48  H   UNL A   1      42.493  27.492  29.352  1.00  0.00     0.167 HD
ATOM     49  C   UNL A   1      43.723  31.113  31.464  1.00  0.00     0.037 A 
ATOM     50  C   UNL A   1      42.937  25.012  28.145  1.00  0.00     0.037 A 
ATOM     51  C   UNL A   1      44.886  30.265  31.472  1.00  0.00     0.049 A 
ATOM     52  C   UNL A   1      44.243  25.403  28.782  1.00  0.00     0.074 A 
ATOM     53  C   UNL A   1      46.119  30.494  32.058  1.00  0.00     0.029 A 
ATOM     54  N   UNL A   1      44.961  29.021  30.861  1.00  0.00    -0.354 N 
ATOM     55  N   UNL A   1      44.543  26.487  29.454  1.00  0.00    -0.248 NA
ATOM     56  C   UNL A   1      45.355  24.450  28.652  1.00  0.00     0.031 C 
ATOM     57  C   UNL A   1      46.952  29.407  31.771  1.00  0.00     0.029 A 
ATOM     58  C   UNL A   1      46.223  28.479  31.044  1.00  0.00     0.049 A 
ATOM     59  H   UNL A   1      44.226  28.588  30.371  1.00  0.00     0.167 HD
ATOM     60  C   UNL A   1      45.866  26.338  29.847  1.00  0.00     0.074 A 
ATOM     61  C   UNL A   1      46.308  25.051  29.353  1.00  0.00     0.031 C 
ATOM     62  C   UNL A   1      46.647  27.193  30.553  1.00  0.00     0.037 A 
BRANCH  49  63
ATOM     63  C   UNL A   1      43.818  32.451  32.139  1.00  0.00     0.064 A 
ATOM     64  C   UNL A   1      44.211  33.600  31.437  1.00  0.00     0.173 A 
ATOM     65  C   UNL A   1      43.473  32.595  33.492  1.00  0.00     0.173 A 
ATOM     66  F   UNL A   1      44.561  33.514  30.145  1.00  0.00    -0.203 F 
ATOM     67  C   UNL A   1      44.283  34.838  32.071  1.00  0.00     0.198 A 
ATOM     68  C   UNL A   1      43.518  33.839  34.115  1.00  0.00     0.198 A 
ATOM     69  F   UNL A   1      43.084  31.529  34.209  1.00  0.00    -0.203 F 
ATOM     70  F   UNL A   1      44.707  35.913  31.391  1.00  0.00    -0.200 F 
ATOM     71  C   UNL A   1      43.929  34.958  33.406  1.00  0.00     0.200 A 
ATOM     72  F   UNL A   1      43.165  33.957  35.402  1.00  0.00    -0.200 F 
ATOM     73  F   UNL A   1      43.993  36.152  34.013  1.00  0.00    -0.200 F 
ENDBRANCH  49  63
BRANCH  50  74
ATOM     74  C   UNL A   1      42.805  23.728  27.409  1.00  0.00     0.064 A 
ATOM     75  C   UNL A   1      42.301  22.582  28.041  1.00  0.00     0.173 A 
ATOM     76  C   UNL A   1      43.185  23.617  26.064  1.00  0.00     0.173 A 
ATOM     77  F   UNL A   1      41.947  22.632  29.333  1.00  0.00    -0.203 F 
ATOM     78  C   UNL A   1      42.202  21.370  27.361  1.00  0.00     0.198 A 
ATOM     79  C   UNL A   1      43.060  22.412  25.377  1.00  0.00     0.198 A 
ATOM     80  F   UNL A   1      43.672  24.685  25.414  1.00  0.00    -0.203 F 
ATOM     81  F   UNL A   1      41.762  20.279  28.002  1.00  0.00    -0.200 F 
ATOM     82  C   UNL A   1      42.576  21.287  26.028  1.00  0.00     0.200 A 
ATOM     83  F   UNL A   1      43.412  22.339  24.086  1.00  0.00    -0.200 F 
ATOM     84  F   UNL A   1      42.478  20.122  25.374  1.00  0.00    -0.200 F 
ENDBRANCH  50  74
BRANCH  62  85
ATOM     85  C   UNL A   1      48.047  26.752  30.861  1.00  0.00     0.064 A 
ATOM     86  C   UNL A   1      49.131  27.128  30.055  1.00  0.00     0.173 A 
ATOM     87  C   UNL A   1      48.313  25.974  31.998  1.00  0.00     0.173 A 
ATOM     88  F   UNL A   1      48.928  27.859  28.947  1.00  0.00    -0.203 F 
ATOM     89  C   UNL A   1      50.427  26.722  30.362  1.00  0.00     0.198 A 
ATOM     90  C   UNL A   1      49.613  25.594  32.318  1.00  0.00     0.198 A 
ATOM     91  F   UNL A   1      47.312  25.593  32.806  1.00  0.00    -0.203 F 
ATOM     92  F   UNL A   1      51.442  27.056  29.552  1.00  0.00    -0.200 F 
ATOM     93  C   UNL A   1      50.668  25.962  31.497  1.00  0.00     0.200 A 
ATOM     94  F   UNL A   1      49.846  24.870  33.422  1.00  0.00    -0.200 F 
ATOM     95  F   UNL A   1      51.917  25.578  31.795  1.00  0.00    -0.200 F 
ENDBRANCH  62  85
ENDBRANCH  36  37
ENDBRANCH  28  31
ENDBRANCH  26  27
ENDBRANCH  25  26
ENDBRANCH   1  25
TORSDOF 14
ENDMDL
MODEL 2
REMARK VINA RESULT:     -11.8      1.746      2.655
REMARK SMILES O=C(NCCCCCCNC(=O)c1ccc(-c2c3nc(c(-c4c(F)c(F)c(F)c(F)c4F)c4ccc([nH]4)c(-c4c(F)c(F)c(F)c(F)c4F)c4nc(c(-c5c(F)c(F)c(F)c(F)c5F)c5ccc2[nH]5)C=C4)C=C3)cc1)C1=Cc2ccc(Cl)c(Cl)c2O[C@@H]1C(F)(F)F
REMARK SMILES IDX 7 1 6 2 5 3 4 4 3 5 1 6 2 7 76 9 77 10 87 11 78 12 86 13
REMARK SMILES IDX 79 14 85 15 80 16 83 17 81 18 84 19 82 20 88 21 89 22 90 23
REMARK SMILES IDX 91 24 8 25 9 26 10 27 11 28 12 30 13 31 14 32 75 33 15 34
REMARK SMILES IDX 74 35 16 36 17 37 18 38 68 39 19 40 73 41 67 42 69 43 20 44
REMARK SMILES IDX 72 45 66 46 65 47 21 49 53 50 33 51 52 52 34 53 37 54 51 55
REMARK SMILES IDX 70 56 35 57 36 58 50 60 71 61 38 62 22 63 23 64 31 65 24 66
REMARK SMILES IDX 25 67 29 68 32 69 26 70 27 71 30 72 28 73 54 74 55 75 63 76
REMARK SMILES IDX 56 77 57 78 61 79 64 80 58 81 59 82 62 83 60 84 39 85 40 86
REMARK SMILES IDX 48 87 41 88 42 89 46 90 49 91 43 92 44 93 47 94 45 95
REMARK H PARENT 3 8 10 29 69 48 37 59
REMARK Flexibility Score: inf
ROOT
ATOM      1  C   UNL A   1      31.938  27.478  26.644  1.00  0.00     0.002 C 
ENDROOT
BRANCH   1   2
ATOM      2  C   UNL A   1      31.269  26.607  25.574  1.00  0.00     0.002 C 
BRANCH   2   3
ATOM      3  C   UNL A   1      30.209  25.614  26.048  1.00  0.00     0.021 C 
BRANCH   3   4
ATOM      4  C   UNL A   1      30.463  24.142  25.734  1.00  0.00     0.116 C 
BRANCH   4   5
ATOM      5  N   UNL A   1      31.265  23.430  26.717  1.00  0.00    -0.352 N 
ATOM      6  O   UNL A   1      33.126  22.629  27.697  1.00  0.00    -0.270 OA
ATOM      7  C   UNL A   1      32.594  23.085  26.688  1.00  0.00     0.251 C 
ATOM      8  H   UNL A   1      30.781  23.154  27.528  1.00  0.00     0.163 HD
BRANCH   7   9
ATOM      9  C   UNL A   1      33.446  23.356  25.492  1.00  0.00     0.067 C 
ATOM     10  C   UNL A   1      34.508  24.170  25.584  1.00  0.00     0.025 C 
ATOM     11  C   UNL A   1      33.476  22.214  24.511  1.00  0.00     0.314 C 
ATOM     12  C   UNL A   1      35.800  23.502  25.378  1.00  0.00     0.019 A 
ATOM     13  O   UNL A   1      34.718  21.472  24.581  1.00  0.00    -0.474 OA
ATOM     14  C   UNL A   1      36.947  24.136  25.867  1.00  0.00     0.013 A 
ATOM     15  C   UNL A   1      35.840  22.147  25.010  1.00  0.00     0.148 A 
ATOM     16  C   UNL A   1      38.112  23.397  26.068  1.00  0.00     0.023 A 
ATOM     17  C   UNL A   1      37.018  21.408  25.201  1.00  0.00     0.102 A 
ATOM     18  C   UNL A   1      38.142  22.033  25.757  1.00  0.00     0.063 A 
ATOM     19  Cl  UNL A   1      37.023  19.710  24.844  1.00  0.00    -0.079 Cl
ATOM     20  Cl  UNL A   1      39.581  21.165  26.168  1.00  0.00    -0.083 Cl
BRANCH  11  21
ATOM     21  C   UNL A   1      33.195  22.714  23.080  1.00  0.00     0.429 C 
ATOM     22  F   UNL A   1      32.645  21.743  22.315  1.00  0.00    -0.167 F 
ATOM     23  F   UNL A   1      32.333  23.759  23.074  1.00  0.00    -0.167 F 
ATOM     24  F   UNL A   1      34.323  23.129  22.453  1.00  0.00    -0.167 F 
ENDBRANCH  11  21
ENDBRANCH   7   9
ENDBRANCH   4   5
ENDBRANCH   3   4
ENDBRANCH   2   3
ENDBRANCH   1   2
BRANCH   1  25
ATOM     25  C   UNL A   1      33.467  27.574  26.622  1.00  0.00     0.021 C 
BRANCH  25  26
ATOM     26  C   UNL A   1      34.071  28.743  25.846  1.00  0.00     0.116 C 
BRANCH  26  27
ATOM     27  N   UNL A   1      33.748  30.038  26.413  1.00  0.00    -0.352 N 
ATOM     28  C   UNL A   1      34.354  30.748  27.420  1.00  0.00     0.251 C 
ATOM     29  H   UNL A   1      32.966  30.481  26.010  1.00  0.00     0.163 HD
ATOM     30  O   UNL A   1      33.840  31.791  27.814  1.00  0.00    -0.269 OA
BRANCH  28  31
ATOM     31  C   UNL A   1      35.605  30.272  28.060  1.00  0.00     0.039 A 
ATOM     32  C   UNL A   1      36.805  30.410  27.351  1.00  0.00     0.014 A 
ATOM     33  C   UNL A   1      35.612  29.642  29.307  1.00  0.00     0.014 A 
ATOM     34  C   UNL A   1      38.007  29.963  27.906  1.00  0.00     0.010 A 
ATOM     35  C   UNL A   1      36.820  29.249  29.888  1.00  0.00     0.010 A 
ATOM     36  C   UNL A   1      38.030  29.402  29.192  1.00  0.00    -0.014 A 
BRANCH  36  37
ATOM     37  C   UNL A   1      39.309  28.964  29.813  1.00  0.00     0.031 A 
ATOM     38  C   UNL A   1      39.867  29.693  31.003  1.00  0.00     0.074 A 
ATOM     39  C   UNL A   1      39.992  27.934  29.279  1.00  0.00     0.049 A 
ATOM     40  N   UNL A   1      40.994  29.499  31.643  1.00  0.00    -0.248 NA
ATOM     41  C   UNL A   1      39.062  30.804  31.534  1.00  0.00     0.031 C 
ATOM     42  C   UNL A   1      39.579  27.166  28.104  1.00  0.00     0.029 A 
ATOM     43  N   UNL A   1      41.185  27.362  29.648  1.00  0.00    -0.354 N 
ATOM     44  C   UNL A   1      41.036  30.462  32.642  1.00  0.00     0.074 A 
ATOM     45  C   UNL A   1      39.847  31.274  32.492  1.00  0.00     0.031 C 
ATOM     46  C   UNL A   1      40.496  26.217  27.855  1.00  0.00     0.029 A 
ATOM     47  C   UNL A   1      41.577  26.330  28.830  1.00  0.00     0.049 A 
ATOM     48  H   UNL A   1      41.710  27.663  30.424  1.00  0.00     0.167 HD
ATOM     49  C   UNL A   1      41.969  30.641  33.609  1.00  0.00     0.037 A 
ATOM     50  C   UNL A   1      42.687  25.566  28.856  1.00  0.00     0.037 A 
ATOM     51  C   UNL A   1      43.142  29.822  33.770  1.00  0.00     0.049 A 
ATOM     52  C   UNL A   1      43.711  25.789  29.936  1.00  0.00     0.074 A 
ATOM     53  C   UNL A   1      44.124  29.900  34.743  1.00  0.00     0.029 A 
ATOM     54  N   UNL A   1      43.492  28.771  32.934  1.00  0.00    -0.354 N 
ATOM     55  N   UNL A   1      43.712  26.671  30.905  1.00  0.00    -0.248 NA
ATOM     56  C   UNL A   1      44.884  24.903  29.930  1.00  0.00     0.031 C 
ATOM     57  C   UNL A   1      45.088  28.923  34.473  1.00  0.00     0.029 A 
ATOM     58  C   UNL A   1      44.683  28.205  33.359  1.00  0.00     0.049 A 
ATOM     59  H   UNL A   1      42.972  28.473  32.153  1.00  0.00     0.167 HD
ATOM     60  C   UNL A   1      44.867  26.432  31.637  1.00  0.00     0.074 A 
ATOM     61  C   UNL A   1      45.536  25.311  31.010  1.00  0.00     0.031 C 
ATOM     62  C   UNL A   1      45.334  27.085  32.730  1.00  0.00     0.037 A 
BRANCH  49  63
ATOM     63  C   UNL A   1      41.754  31.767  34.579  1.00  0.00     0.064 A 
ATOM     64  C   UNL A   1      40.969  31.602  35.730  1.00  0.00     0.173 A 
ATOM     65  C   UNL A   1      42.372  33.010  34.379  1.00  0.00     0.173 A 
ATOM     66  F   UNL A   1      40.348  30.436  35.963  1.00  0.00    -0.203 F 
ATOM     67  C   UNL A   1      40.788  32.650  36.631  1.00  0.00     0.198 A 
ATOM     68  C   UNL A   1      42.213  34.046  35.296  1.00  0.00     0.198 A 
ATOM     69  F   UNL A   1      43.139  33.219  33.297  1.00  0.00    -0.203 F 
ATOM     70  F   UNL A   1      39.995  32.483  37.699  1.00  0.00    -0.200 F 
ATOM     71  C   UNL A   1      41.415  33.867  36.416  1.00  0.00     0.200 A 
ATOM     72  F   UNL A   1      42.829  35.219  35.094  1.00  0.00    -0.200 F 
ATOM     73  F   UNL A   1      41.245  34.873  37.287  1.00  0.00    -0.200 F 
ENDBRANCH  49  63
BRANCH  50  74
ATOM     74  C   UNL A   1      42.880  24.507  27.832  1.00  0.00     0.064 A 
ATOM     75  C   UNL A   1      42.552  23.171  28.103  1.00  0.00     0.173 A 
ATOM     76  C   UNL A   1      43.404  24.807  26.565  1.00  0.00     0.173 A 
ATOM     77  F   UNL A   1      42.070  22.833  29.308  1.00  0.00    -0.203 F 
ATOM     78  C   UNL A   1      42.758  22.174  27.153  1.00  0.00     0.198 A 
ATOM     79  C   UNL A   1      43.584  23.812  25.608  1.00  0.00     0.198 A 
ATOM     80  F   UNL A   1      43.733  26.070  26.257  1.00  0.00    -0.203 F 
ATOM     81  F   UNL A   1      42.480  20.898  27.454  1.00  0.00    -0.200 F 
ATOM     82  C   UNL A   1      43.269  22.495  25.905  1.00  0.00     0.200 A 
ATOM     83  F   UNL A   1      44.067  24.129  24.398  1.00  0.00    -0.200 F 
ATOM     84  F   UNL A   1      43.465  21.534  24.991  1.00  0.00    -0.200 F 
ENDBRANCH  50  74
BRANCH  62  85
ATOM     85  C   UNL A   1      46.611  26.584  33.337  1.00  0.00     0.064 A 
ATOM     86  C   UNL A   1      46.617  25.573  34.310  1.00  0.00     0.173 A 
ATOM     87  C   UNL A   1      47.848  27.092  32.912  1.00  0.00     0.173 A 
ATOM     88  F   UNL A   1      45.459  25.064  34.761  1.00  0.00    -0.203 F 
ATOM     89  C   UNL A   1      47.811  25.109  34.853  1.00  0.00     0.198 A 
ATOM     90  C   UNL A   1      49.042  26.606  33.436  1.00  0.00     0.198 A 
ATOM     91  F   UNL A   1      47.898  28.055  31.978  1.00  0.00    -0.203 F 
ATOM     92  F   UNL A   1      47.790  24.175  35.815  1.00  0.00    -0.200 F 
ATOM     93  C   UNL A   1      49.023  25.620  34.411  1.00  0.00     0.200 A 
ATOM     94  F   UNL A   1      50.211  27.092  32.999  1.00  0.00    -0.200 F 
ATOM     95  F   UNL A   1      50.172  25.166  34.931  1.00  0.00    -0.200 F 
ENDBRANCH  62  85
ENDBRANCH  36  37
ENDBRANCH  28  31
ENDBRANCH  26  27
ENDBRANCH  25  26
ENDBRANCH   1  25
TORSDOF 14
ENDMDL
MODEL 3
REMARK VINA RESULT:     -11.8      3.754      8.569
REMARK SMILES O=C(NCCCCCCNC(=O)c1ccc(-c2c3nc(c(-c4c(F)c(F)c(F)c(F)c4F)c4ccc([nH]4)c(-c4c(F)c(F)c(F)c(F)c4F)c4nc(c(-c5c(F)c(F)c(F)c(F)c5F)c5ccc2[nH]5)C=C4)C=C3)cc1)C1=Cc2ccc(Cl)c(Cl)c2O[C@@H]1C(F)(F)F
REMARK SMILES IDX 7 1 6 2 5 3 4 4 3 5 1 6 2 7 76 9 77 10 87 11 78 12 86 13
REMARK SMILES IDX 79 14 85 15 80 16 83 17 81 18 84 19 82 20 88 21 89 22 90 23
REMARK SMILES IDX 91 24 8 25 9 26 10 27 11 28 12 30 13 31 14 32 75 33 15 34
REMARK SMILES IDX 74 35 16 36 17 37 18 38 68 39 19 40 73 41 67 42 69 43 20 44
REMARK SMILES IDX 72 45 66 46 65 47 21 49 53 50 33 51 52 52 34 53 37 54 51 55
REMARK SMILES IDX 70 56 35 57 36 58 50 60 71 61 38 62 22 63 23 64 31 65 24 66
REMARK SMILES IDX 25 67 29 68 32 69 26 70 27 71 30 72 28 73 54 74 55 75 63 76
REMARK SMILES IDX 56 77 57 78 61 79 64 80 58 81 59 82 62 83 60 84 39 85 40 86
REMARK SMILES IDX 48 87 41 88 42 89 46 90 49 91 43 92 44 93 47 94 45 95
REMARK H PARENT 3 8 10 29 69 48 37 59
REMARK Flexibility Score: inf
ROOT
ATOM      1  C   UNL A   1      31.371  30.834  26.063  1.00  0.00     0.002 C 
ENDROOT
BRANCH   1   2
ATOM      2  C   UNL A   1      32.376  29.929  26.785  1.00  0.00     0.002 C 
BRANCH   2   3
ATOM      3  C   UNL A   1      31.846  28.607  27.341  1.00  0.00     0.021 C 
BRANCH   3   4
ATOM      4  C   UNL A   1      31.397  27.567  26.317  1.00  0.00     0.116 C 
BRANCH   4   5
ATOM      5  N   UNL A   1      31.092  26.254  26.863  1.00  0.00    -0.352 N 
ATOM      6  O   UNL A   1      31.347  24.052  27.251  1.00  0.00    -0.270 OA
ATOM      7  C   UNL A   1      31.622  25.026  26.554  1.00  0.00     0.251 C 
ATOM      8  H   UNL A   1      30.398  26.244  27.562  1.00  0.00     0.163 HD
BRANCH   7   9
ATOM      9  C   UNL A   1      32.621  24.859  25.458  1.00  0.00     0.067 C 
ATOM     10  C   UNL A   1      33.862  24.427  25.727  1.00  0.00     0.025 C 
ATOM     11  C   UNL A   1      31.997  24.522  24.129  1.00  0.00     0.314 C 
ATOM     12  C   UNL A   1      34.182  23.112  25.154  1.00  0.00     0.019 A 
ATOM     13  O   UNL A   1      32.165  23.124  23.790  1.00  0.00    -0.474 OA
ATOM     14  C   UNL A   1      35.244  22.397  25.716  1.00  0.00     0.013 A 
ATOM     15  C   UNL A   1      33.257  22.469  24.314  1.00  0.00     0.148 A 
ATOM     16  C   UNL A   1      35.337  21.021  25.508  1.00  0.00     0.023 A 
ATOM     17  C   UNL A   1      33.361  21.086  24.094  1.00  0.00     0.102 A 
ATOM     18  C   UNL A   1      34.388  20.364  24.717  1.00  0.00     0.063 A 
ATOM     19  Cl  UNL A   1      32.153  20.284  23.142  1.00  0.00    -0.079 Cl
ATOM     20  Cl  UNL A   1      34.500  18.640  24.626  1.00  0.00    -0.083 Cl
BRANCH  11  21
ATOM     21  C   UNL A   1      32.540  25.444  23.019  1.00  0.00     0.429 C 
ATOM     22  F   UNL A   1      33.656  24.932  22.453  1.00  0.00    -0.167 F 
ATOM     23  F   UNL A   1      31.636  25.620  22.026  1.00  0.00    -0.167 F 
ATOM     24  F   UNL A   1      32.857  26.676  23.488  1.00  0.00    -0.167 F 
ENDBRANCH  11  21
ENDBRANCH   7   9
ENDBRANCH   4   5
ENDBRANCH   3   4
ENDBRANCH   2   3
ENDBRANCH   1   2
BRANCH   1  25
ATOM     25  C   UNL A   1      31.301  32.301  26.501  1.00  0.00     0.021 C 
BRANCH  25  26
ATOM     26  C   UNL A   1      32.576  32.904  27.089  1.00  0.00     0.116 C 
BRANCH  26  27
ATOM     27  N   UNL A   1      32.383  34.233  27.639  1.00  0.00    -0.352 N 
ATOM     28  C   UNL A   1      33.048  34.887  28.647  1.00  0.00     0.251 C 
ATOM     29  H   UNL A   1      31.657  34.751  27.221  1.00  0.00     0.163 HD
ATOM     30  O   UNL A   1      32.642  35.982  29.024  1.00  0.00    -0.269 OA
BRANCH  28  31
ATOM     31  C   UNL A   1      34.234  34.289  29.309  1.00  0.00     0.039 A 
ATOM     32  C   UNL A   1      34.027  33.484  30.436  1.00  0.00     0.014 A 
ATOM     33  C   UNL A   1      35.538  34.554  28.882  1.00  0.00     0.014 A 
ATOM     34  C   UNL A   1      35.114  32.911  31.101  1.00  0.00     0.010 A 
ATOM     35  C   UNL A   1      36.621  33.933  29.511  1.00  0.00     0.010 A 
ATOM     36  C   UNL A   1      36.421  33.109  30.629  1.00  0.00    -0.014 A 
BRANCH  36  37
ATOM     37  C   UNL A   1      37.582  32.468  31.302  1.00  0.00     0.031 A 
ATOM     38  C   UNL A   1      38.322  31.341  30.634  1.00  0.00     0.074 A 
ATOM     39  C   UNL A   1      37.947  32.871  32.534  1.00  0.00     0.049 A 
ATOM     40  N   UNL A   1      39.318  30.619  31.087  1.00  0.00    -0.248 NA
ATOM     41  C   UNL A   1      37.870  30.960  29.288  1.00  0.00     0.031 C 
ATOM     42  C   UNL A   1      37.290  33.926  33.305  1.00  0.00     0.029 A 
ATOM     43  N   UNL A   1      38.953  32.431  33.360  1.00  0.00    -0.354 N 
ATOM     44  C   UNL A   1      39.605  29.699  30.087  1.00  0.00     0.074 A 
ATOM     45  C   UNL A   1      38.645  29.918  29.026  1.00  0.00     0.031 C 
ATOM     46  C   UNL A   1      37.916  34.061  34.485  1.00  0.00     0.029 A 
ATOM     47  C   UNL A   1      38.995  33.082  34.569  1.00  0.00     0.049 A 
ATOM     48  H   UNL A   1      39.584  31.718  33.109  1.00  0.00     0.167 HD
ATOM     49  C   UNL A   1      40.591  28.769  30.048  1.00  0.00     0.037 A 
ATOM     50  C   UNL A   1      39.806  32.903  35.630  1.00  0.00     0.037 A 
ATOM     51  C   UNL A   1      41.558  28.563  31.095  1.00  0.00     0.049 A 
ATOM     52  C   UNL A   1      40.889  31.860  35.564  1.00  0.00     0.074 A 
ATOM     53  C   UNL A   1      42.618  27.674  31.130  1.00  0.00     0.029 A 
ATOM     54  N   UNL A   1      41.581  29.258  32.297  1.00  0.00    -0.354 N 
ATOM     55  N   UNL A   1      41.181  31.031  34.592  1.00  0.00    -0.248 NA
ATOM     56  C   UNL A   1      41.761  31.735  36.741  1.00  0.00     0.031 C 
ATOM     57  C   UNL A   1      43.260  27.803  32.367  1.00  0.00     0.029 A 
ATOM     58  C   UNL A   1      42.627  28.805  33.085  1.00  0.00     0.049 A 
ATOM     59  H   UNL A   1      40.948  29.967  32.551  1.00  0.00     0.167 HD
ATOM     60  C   UNL A   1      42.282  30.305  35.027  1.00  0.00     0.074 A 
ATOM     61  C   UNL A   1      42.616  30.802  36.346  1.00  0.00     0.031 C 
ATOM     62  C   UNL A   1      42.953  29.314  34.392  1.00  0.00     0.037 A 
BRANCH  49  63
ATOM     63  C   UNL A   1      40.680  27.905  28.823  1.00  0.00     0.064 A 
ATOM     64  C   UNL A   1      39.942  26.718  28.709  1.00  0.00     0.173 A 
ATOM     65  C   UNL A   1      41.479  28.288  27.735  1.00  0.00     0.173 A 
ATOM     66  F   UNL A   1      39.170  26.302  29.725  1.00  0.00    -0.203 F 
ATOM     67  C   UNL A   1      40.022  25.931  27.562  1.00  0.00     0.198 A 
ATOM     68  C   UNL A   1      41.534  27.514  26.579  1.00  0.00     0.198 A 
ATOM     69  F   UNL A   1      42.201  29.418  27.790  1.00  0.00    -0.203 F 
ATOM     70  F   UNL A   1      39.344  24.777  27.495  1.00  0.00    -0.200 F 
ATOM     71  C   UNL A   1      40.812  26.334  26.497  1.00  0.00     0.200 A 
ATOM     72  F   UNL A   1      42.289  27.910  25.545  1.00  0.00    -0.200 F 
ATOM     73  F   UNL A   1      40.883  25.579  25.391  1.00  0.00    -0.200 F 
ENDBRANCH  49  63
BRANCH  50  74
ATOM     74  C   UNL A   1      39.632  33.743  36.844  1.00  0.00     0.064 A 
ATOM     75  C   UNL A   1      38.823  33.316  37.907  1.00  0.00     0.173 A 
ATOM     76  C   UNL A   1      40.263  34.989  36.962  1.00  0.00     0.173 A 
ATOM     77  F   UNL A   1      38.180  32.142  37.828  1.00  0.00    -0.203 F 
ATOM     78  C   UNL A   1      38.637  34.114  39.033  1.00  0.00     0.198 A 
ATOM     79  C   UNL A   1      40.098  35.774  38.102  1.00  0.00     0.198 A 
ATOM     80  F   UNL A   1      41.049  35.441  35.973  1.00  0.00    -0.203 F 
ATOM     81  F   UNL A   1      37.821  33.704  40.014  1.00  0.00    -0.200 F 
ATOM     82  C   UNL A   1      39.278  35.339  39.132  1.00  0.00     0.200 A 
ATOM     83  F   UNL A   1      40.729  36.952  38.199  1.00  0.00    -0.200 F 
ATOM     84  F   UNL A   1      39.101  36.105  40.217  1.00  0.00    -0.200 F 
ENDBRANCH  50  74
BRANCH  62  85
ATOM     85  C   UNL A   1      44.136  28.722  35.099  1.00  0.00     0.064 A 
ATOM     86  C   UNL A   1      45.426  29.251  34.944  1.00  0.00     0.173 A 
ATOM     87  C   UNL A   1      43.973  27.637  35.974  1.00  0.00     0.173 A 
ATOM     88  F   UNL A   1      45.638  30.279  34.108  1.00  0.00    -0.203 F 
ATOM     89  C   UNL A   1      46.512  28.699  35.619  1.00  0.00     0.198 A 
ATOM     90  C   UNL A   1      45.055  27.107  36.669  1.00  0.00     0.198 A 
ATOM     91  F   UNL A   1      42.758  27.099  36.164  1.00  0.00    -0.203 F 
ATOM     92  F   UNL A   1      47.743  29.192  35.420  1.00  0.00    -0.200 F 
ATOM     93  C   UNL A   1      46.325  27.633  36.487  1.00  0.00     0.200 A 
ATOM     94  F   UNL A   1      44.871  26.084  37.516  1.00  0.00    -0.200 F 
ATOM     95  F   UNL A   1      47.371  27.108  37.140  1.00  0.00    -0.200 F 
ENDBRANCH  62  85
ENDBRANCH  36  37
ENDBRANCH  28  31
ENDBRANCH  26  27
ENDBRANCH  25  26
ENDBRANCH   1  25
TORSDOF 14
ENDMDL
