MODEL 1
REMARK VINA RESULT:     -11.8      0.000      0.000
REMARK SMILES CCCN(C(=O)Cc1c(C(=O)NCCCCCCNC(=O)c2ccc(-c3c4nc(c(-c5c(F)c(F)c(F)c(F)c5F)c5ccc([nH]5)c(-c5c(F)c(F)c(F)c(F)c5F)c5nc(c(-c6c(F)c(F)c(F)c(F)c6F)c6ccc3[nH]6)C=C5)C=C4)cc2)c(C)cn1CC)c1cccc(Cl)c1
REMARK SMILES IDX 14 1 13 2 12 3 10 4 11 5 9 7 8 8 88 9 85 10 87 11 86 12 7 13
REMARK SMILES IDX 5 14 6 15 4 16 3 17 2 18 1 19 91 20 92 21 97 22 93 23 95 24
REMARK SMILES IDX 94 25 96 26 89 27 90 28 15 29 16 30 17 31 18 32 19 33 20 34
REMARK SMILES IDX 21 36 22 37 23 38 84 39 24 40 83 41 25 42 26 43 27 44 77 45
REMARK SMILES IDX 28 46 82 47 76 48 78 49 29 50 81 51 75 52 74 53 30 55 62 56
REMARK SMILES IDX 42 57 61 58 43 59 46 60 60 61 79 62 44 63 45 64 59 66 80 67
REMARK SMILES IDX 47 68 31 69 32 70 40 71 33 72 34 73 38 74 41 75 35 76 36 77
REMARK SMILES IDX 39 78 37 79 63 80 64 81 72 82 65 83 66 84 70 85 73 86 67 87
REMARK SMILES IDX 68 88 71 89 69 90 48 91 49 92 57 93 50 94 51 95 55 96 58 97
REMARK SMILES IDX 52 98 53 99 56 100 54 101
REMARK H PARENT 12 6 19 35 78 54 46 65
REMARK Flexibility Score: inf
ROOT
ATOM      1  C   UNL A   1      39.541  21.544  26.120  1.00  0.00     0.021 C 
ENDROOT
BRANCH   1   2
ATOM      2  C   UNL A   1      38.124  22.037  25.839  1.00  0.00     0.116 C 
BRANCH   2   3
ATOM      3  N   UNL A   1      37.774  22.374  24.482  1.00  0.00    -0.352 N 
ATOM      4  C   UNL A   1      36.534  22.580  23.916  1.00  0.00     0.253 C 
ATOM      5  O   UNL A   1      36.522  22.908  22.728  1.00  0.00    -0.269 OA
ATOM      6  H   UNL A   1      38.536  22.472  23.866  1.00  0.00     0.163 HD
BRANCH   4   7
ATOM      7  C   UNL A   1      35.277  22.351  24.657  1.00  0.00     0.064 A 
ATOM      8  C   UNL A   1      34.539  23.393  25.262  1.00  0.00     0.040 A 
ATOM      9  N   UNL A   1      33.572  22.807  26.054  1.00  0.00    -0.350 N 
ATOM     10  C   UNL A   1      34.596  21.122  25.008  1.00  0.00    -0.020 A 
ATOM     11  C   UNL A   1      33.518  21.469  25.794  1.00  0.00     0.090 A 
ATOM     12  C   UNL A   1      34.923  19.702  24.702  1.00  0.00     0.047 C 
BRANCH   8  13
ATOM     13  C   UNL A   1      34.733  24.894  25.223  1.00  0.00     0.155 C 
BRANCH  13  14
ATOM     14  C   UNL A   1      33.781  25.583  24.232  1.00  0.00     0.232 C 
ATOM     15  O   UNL A   1      33.799  25.229  23.045  1.00  0.00    -0.274 OA
BRANCH  14  16
ATOM     16  N   UNL A   1      32.919  26.582  24.691  1.00  0.00    -0.312 N 
BRANCH  16  17
ATOM     17  C   UNL A   1      33.080  27.330  25.950  1.00  0.00     0.125 C 
BRANCH  17  18
ATOM     18  C   UNL A   1      33.938  28.587  25.825  1.00  0.00     0.019 C 
ATOM     19  C   UNL A   1      33.496  29.754  26.700  1.00  0.00     0.006 C 
ENDBRANCH  17  18
ENDBRANCH  16  17
BRANCH  16  20
ATOM     20  C   UNL A   1      31.640  26.742  24.083  1.00  0.00     0.045 A 
ATOM     21  C   UNL A   1      30.693  25.722  24.213  1.00  0.00     0.026 A 
ATOM     22  C   UNL A   1      31.252  27.993  23.595  1.00  0.00     0.046 A 
ATOM     23  C   UNL A   1      29.348  25.982  23.941  1.00  0.00     0.004 A 
ATOM     24  C   UNL A   1      29.907  28.251  23.343  1.00  0.00     0.043 A 
ATOM     25  C   UNL A   1      28.950  27.256  23.533  1.00  0.00     0.020 A 
ATOM     26  Cl  UNL A   1      29.418  29.837  22.887  1.00  0.00    -0.084 Cl
ENDBRANCH  16  20
ENDBRANCH  14  16
ENDBRANCH  13  14
ENDBRANCH   8  13
BRANCH   9  27
ATOM     27  C   UNL A   1      32.772  23.426  27.104  1.00  0.00     0.118 C 
ATOM     28  C   UNL A   1      31.282  23.162  26.922  1.00  0.00     0.027 C 
ENDBRANCH   9  27
ENDBRANCH   4   7
ENDBRANCH   2   3
ENDBRANCH   1   2
BRANCH   1  29
ATOM     29  C   UNL A   1      40.170  21.826  27.480  1.00  0.00     0.002 C 
BRANCH  29  30
ATOM     30  C   UNL A   1      41.638  21.443  27.681  1.00  0.00     0.002 C 
BRANCH  30  31
ATOM     31  C   UNL A   1      42.083  20.047  27.231  1.00  0.00     0.021 C 
BRANCH  31  32
ATOM     32  C   UNL A   1      42.106  19.824  25.728  1.00  0.00     0.116 C 
BRANCH  32  33
ATOM     33  N   UNL A   1      43.444  19.585  25.194  1.00  0.00    -0.352 N 
ATOM     34  C   UNL A   1      44.380  20.524  24.810  1.00  0.00     0.251 C 
ATOM     35  H   UNL A   1      43.710  18.642  25.096  1.00  0.00     0.163 HD
ATOM     36  O   UNL A   1      45.303  20.227  24.054  1.00  0.00    -0.269 OA
BRANCH  34  37
ATOM     37  C   UNL A   1      44.257  21.900  25.318  1.00  0.00     0.039 A 
ATOM     38  C   UNL A   1      43.327  22.796  24.786  1.00  0.00     0.014 A 
ATOM     39  C   UNL A   1      45.083  22.279  26.373  1.00  0.00     0.014 A 
ATOM     40  C   UNL A   1      43.185  24.051  25.377  1.00  0.00     0.010 A 
ATOM     41  C   UNL A   1      44.824  23.438  27.057  1.00  0.00     0.010 A 
ATOM     42  C   UNL A   1      43.928  24.358  26.526  1.00  0.00    -0.014 A 
BRANCH  42  43
ATOM     43  C   UNL A   1      43.729  25.617  27.237  1.00  0.00     0.031 A 
ATOM     44  C   UNL A   1      44.682  26.707  26.889  1.00  0.00     0.074 A 
ATOM     45  C   UNL A   1      42.628  25.861  27.981  1.00  0.00     0.049 A 
ATOM     46  N   UNL A   1      45.524  27.307  27.665  1.00  0.00    -0.248 NA
ATOM     47  C   UNL A   1      44.773  27.122  25.480  1.00  0.00     0.031 C 
ATOM     48  C   UNL A   1      41.439  25.017  28.163  1.00  0.00     0.029 A 
ATOM     49  N   UNL A   1      42.291  26.992  28.655  1.00  0.00    -0.354 N 
ATOM     50  C   UNL A   1      46.134  28.292  26.891  1.00  0.00     0.074 A 
ATOM     51  C   UNL A   1      45.750  28.030  25.529  1.00  0.00     0.031 C 
ATOM     52  C   UNL A   1      40.435  25.754  28.685  1.00  0.00     0.029 A 
ATOM     53  C   UNL A   1      40.961  27.055  29.046  1.00  0.00     0.049 A 
ATOM     54  H   UNL A   1      42.939  27.709  28.850  1.00  0.00     0.167 HD
ATOM     55  C   UNL A   1      46.724  29.378  27.467  1.00  0.00     0.037 A 
ATOM     56  C   UNL A   1      40.329  28.114  29.605  1.00  0.00     0.037 A 
ATOM     57  C   UNL A   1      46.991  29.143  28.865  1.00  0.00     0.049 A 
ATOM     58  C   UNL A   1      41.376  29.004  30.164  1.00  0.00     0.074 A 
ATOM     59  C   UNL A   1      47.744  28.221  29.567  1.00  0.00     0.029 A 
ATOM     60  N   UNL A   1      46.144  29.703  29.789  1.00  0.00    -0.354 N 
ATOM     61  N   UNL A   1      42.136  28.685  31.175  1.00  0.00    -0.248 NA
ATOM     62  C   UNL A   1      41.884  30.066  29.310  1.00  0.00     0.031 C 
ATOM     63  C   UNL A   1      46.967  27.920  30.726  1.00  0.00     0.029 A 
ATOM     64  C   UNL A   1      45.824  28.720  30.690  1.00  0.00     0.049 A 
ATOM     65  H   UNL A   1      45.827  30.634  29.803  1.00  0.00     0.167 HD
ATOM     66  C   UNL A   1      43.386  29.186  30.846  1.00  0.00     0.074 A 
ATOM     67  C   UNL A   1      43.149  30.106  29.736  1.00  0.00     0.031 C 
ATOM     68  C   UNL A   1      44.527  28.596  31.311  1.00  0.00     0.037 A 
BRANCH  55  69
ATOM     69  C   UNL A   1      46.725  30.770  26.879  1.00  0.00     0.064 A 
ATOM     70  C   UNL A   1      47.925  31.514  26.879  1.00  0.00     0.173 A 
ATOM     71  C   UNL A   1      45.556  31.512  26.606  1.00  0.00     0.173 A 
ATOM     72  F   UNL A   1      49.099  30.917  27.134  1.00  0.00    -0.203 F 
ATOM     73  C   UNL A   1      47.935  32.902  26.720  1.00  0.00     0.198 A 
ATOM     74  C   UNL A   1      45.578  32.890  26.393  1.00  0.00     0.198 A 
ATOM     75  F   UNL A   1      44.336  30.966  26.647  1.00  0.00    -0.203 F 
ATOM     76  F   UNL A   1      49.082  33.580  26.868  1.00  0.00    -0.200 F 
ATOM     77  C   UNL A   1      46.760  33.591  26.487  1.00  0.00     0.200 A 
ATOM     78  F   UNL A   1      44.424  33.541  26.182  1.00  0.00    -0.200 F 
ATOM     79  F   UNL A   1      46.758  34.927  26.404  1.00  0.00    -0.200 F 
ENDBRANCH  55  69
BRANCH  56  80
ATOM     80  C   UNL A   1      38.923  28.539  29.427  1.00  0.00     0.064 A 
ATOM     81  C   UNL A   1      38.079  28.733  30.531  1.00  0.00     0.173 A 
ATOM     82  C   UNL A   1      38.461  29.030  28.188  1.00  0.00     0.173 A 
ATOM     83  F   UNL A   1      38.465  28.336  31.751  1.00  0.00    -0.203 F 
ATOM     84  C   UNL A   1      36.857  29.405  30.409  1.00  0.00     0.198 A 
ATOM     85  C   UNL A   1      37.239  29.694  28.067  1.00  0.00     0.198 A 
ATOM     86  F   UNL A   1      39.231  28.963  27.093  1.00  0.00    -0.203 F 
ATOM     87  F   UNL A   1      36.107  29.629  31.497  1.00  0.00    -0.200 F 
ATOM     88  C   UNL A   1      36.443  29.892  29.180  1.00  0.00     0.200 A 
ATOM     89  F   UNL A   1      36.871  30.196  26.880  1.00  0.00    -0.200 F 
ATOM     90  F   UNL A   1      35.305  30.593  29.076  1.00  0.00    -0.200 F 
ENDBRANCH  56  80
BRANCH  68  91
ATOM     91  C   UNL A   1      44.392  27.555  32.388  1.00  0.00     0.064 A 
ATOM     92  C   UNL A   1      44.252  26.178  32.140  1.00  0.00     0.173 A 
ATOM     93  C   UNL A   1      44.565  27.950  33.721  1.00  0.00     0.173 A 
ATOM     94  F   UNL A   1      44.181  25.706  30.889  1.00  0.00    -0.203 F 
ATOM     95  C   UNL A   1      44.248  25.249  33.178  1.00  0.00     0.198 A 
ATOM     96  C   UNL A   1      44.597  27.018  34.754  1.00  0.00     0.198 A 
ATOM     97  F   UNL A   1      44.761  29.245  34.017  1.00  0.00    -0.203 F 
ATOM     98  F   UNL A   1      44.104  23.941  32.911  1.00  0.00    -0.200 F 
ATOM     99  C   UNL A   1      44.429  25.669  34.484  1.00  0.00     0.200 A 
ATOM    100  F   UNL A   1      44.823  27.424  36.011  1.00  0.00    -0.200 F 
ATOM    101  F   UNL A   1      44.469  24.773  35.481  1.00  0.00    -0.200 F 
ENDBRANCH  68  91
ENDBRANCH  42  43
ENDBRANCH  34  37
ENDBRANCH  32  33
ENDBRANCH  31  32
ENDBRANCH  30  31
ENDBRANCH  29  30
ENDBRANCH   1  29
TORSDOF 20
ENDMDL
MODEL 2
REMARK VINA RESULT:     -11.7      2.997      8.766
REMARK SMILES CCCN(C(=O)Cc1c(C(=O)NCCCCCCNC(=O)c2ccc(-c3c4nc(c(-c5c(F)c(F)c(F)c(F)c5F)c5ccc([nH]5)c(-c5c(F)c(F)c(F)c(F)c5F)c5nc(c(-c6c(F)c(F)c(F)c(F)c6F)c6ccc3[nH]6)C=C5)C=C4)cc2)c(C)cn1CC)c1cccc(Cl)c1
REMARK SMILES IDX 14 1 13 2 12 3 10 4 11 5 9 7 8 8 88 9 85 10 87 11 86 12 7 13
REMARK SMILES IDX 5 14 6 15 4 16 3 17 2 18 1 19 91 20 92 21 97 22 93 23 95 24
REMARK SMILES IDX 94 25 96 26 89 27 90 28 15 29 16 30 17 31 18 32 19 33 20 34
REMARK SMILES IDX 21 36 22 37 23 38 84 39 24 40 83 41 25 42 26 43 27 44 77 45
REMARK SMILES IDX 28 46 82 47 76 48 78 49 29 50 81 51 75 52 74 53 30 55 62 56
REMARK SMILES IDX 42 57 61 58 43 59 46 60 60 61 79 62 44 63 45 64 59 66 80 67
REMARK SMILES IDX 47 68 31 69 32 70 40 71 33 72 34 73 38 74 41 75 35 76 36 77
REMARK SMILES IDX 39 78 37 79 63 80 64 81 72 82 65 83 66 84 70 85 73 86 67 87
REMARK SMILES IDX 68 88 71 89 69 90 48 91 49 92 57 93 50 94 51 95 55 96 58 97
REMARK SMILES IDX 52 98 53 99 56 100 54 101
REMARK H PARENT 12 6 19 35 78 54 46 65
REMARK Flexibility Score: inf
ROOT
ATOM      1  C   UNL A   1      32.612  28.512  26.384  1.00  0.00     0.021 C 
ENDROOT
BRANCH   1   2
ATOM      2  C   UNL A   1      31.399  27.868  27.050  1.00  0.00     0.116 C 
BRANCH   2   3
ATOM      3  N   UNL A   1      31.369  26.432  27.170  1.00  0.00    -0.352 N 
ATOM      4  C   UNL A   1      31.508  25.463  26.200  1.00  0.00     0.253 C 
ATOM      5  O   UNL A   1      31.489  24.293  26.588  1.00  0.00    -0.269 OA
ATOM      6  H   UNL A   1      31.227  26.091  28.083  1.00  0.00     0.163 HD
BRANCH   4   7
ATOM      7  C   UNL A   1      31.600  25.788  24.762  1.00  0.00     0.064 A 
ATOM      8  C   UNL A   1      32.825  25.827  24.059  1.00  0.00     0.040 A 
ATOM      9  N   UNL A   1      32.572  26.387  22.822  1.00  0.00    -0.350 N 
ATOM     10  C   UNL A   1      30.583  26.207  23.820  1.00  0.00    -0.020 A 
ATOM     11  C   UNL A   1      31.224  26.482  22.631  1.00  0.00     0.090 A 
ATOM     12  C   UNL A   1      29.118  26.405  23.989  1.00  0.00     0.047 C 
BRANCH   8  13
ATOM     13  C   UNL A   1      34.229  25.463  24.495  1.00  0.00     0.155 C 
BRANCH  13  14
ATOM     14  C   UNL A   1      34.618  24.034  24.084  1.00  0.00     0.232 C 
ATOM     15  O   UNL A   1      34.812  23.790  22.885  1.00  0.00    -0.274 OA
BRANCH  14  16
ATOM     16  N   UNL A   1      34.749  23.050  25.068  1.00  0.00    -0.312 N 
BRANCH  16  17
ATOM     17  C   UNL A   1      35.780  23.031  26.119  1.00  0.00     0.125 C 
BRANCH  17  18
ATOM     18  C   UNL A   1      37.190  23.329  25.616  1.00  0.00     0.019 C 
ATOM     19  C   UNL A   1      38.167  22.164  25.721  1.00  0.00     0.006 C 
ENDBRANCH  17  18
ENDBRANCH  16  17
BRANCH  16  20
ATOM     20  C   UNL A   1      34.039  21.821  24.932  1.00  0.00     0.045 A 
ATOM     21  C   UNL A   1      32.727  21.843  24.451  1.00  0.00     0.026 A 
ATOM     22  C   UNL A   1      34.725  20.607  25.026  1.00  0.00     0.046 A 
ATOM     23  C   UNL A   1      32.138  20.666  23.982  1.00  0.00     0.004 A 
ATOM     24  C   UNL A   1      34.139  19.441  24.540  1.00  0.00     0.043 A 
ATOM     25  C   UNL A   1      32.855  19.469  24.001  1.00  0.00     0.020 A 
ATOM     26  Cl  UNL A   1      35.047  17.978  24.521  1.00  0.00    -0.084 Cl
ENDBRANCH  16  20
ENDBRANCH  14  16
ENDBRANCH  13  14
ENDBRANCH   8  13
BRANCH   9  27
ATOM     27  C   UNL A   1      33.531  26.921  21.863  1.00  0.00     0.118 C 
ATOM     28  C   UNL A   1      33.963  28.340  22.211  1.00  0.00     0.027 C 
ENDBRANCH   9  27
ENDBRANCH   4   7
ENDBRANCH   2   3
ENDBRANCH   1   2
BRANCH   1  29
ATOM     29  C   UNL A   1      33.891  28.703  27.193  1.00  0.00     0.002 C 
BRANCH  29  30
ATOM     30  C   UNL A   1      34.584  30.065  27.122  1.00  0.00     0.002 C 
BRANCH  30  31
ATOM     31  C   UNL A   1      33.821  31.287  27.647  1.00  0.00     0.021 C 
BRANCH  31  32
ATOM     32  C   UNL A   1      34.689  32.442  28.119  1.00  0.00     0.116 C 
BRANCH  32  33
ATOM     33  N   UNL A   1      34.519  32.758  29.535  1.00  0.00    -0.352 N 
ATOM     34  C   UNL A   1      35.206  32.227  30.607  1.00  0.00     0.251 C 
ATOM     35  H   UNL A   1      33.832  33.429  29.750  1.00  0.00     0.163 HD
ATOM     36  O   UNL A   1      34.749  32.285  31.747  1.00  0.00    -0.269 OA
BRANCH  34  37
ATOM     37  C   UNL A   1      36.506  31.578  30.368  1.00  0.00     0.039 A 
ATOM     38  C   UNL A   1      37.690  32.316  30.295  1.00  0.00     0.014 A 
ATOM     39  C   UNL A   1      36.526  30.192  30.242  1.00  0.00     0.014 A 
ATOM     40  C   UNL A   1      38.901  31.637  30.170  1.00  0.00     0.010 A 
ATOM     41  C   UNL A   1      37.721  29.522  30.293  1.00  0.00     0.010 A 
ATOM     42  C   UNL A   1      38.909  30.235  30.188  1.00  0.00    -0.014 A 
BRANCH  42  43
ATOM     43  C   UNL A   1      40.162  29.489  30.169  1.00  0.00     0.031 A 
ATOM     44  C   UNL A   1      40.801  29.275  31.497  1.00  0.00     0.074 A 
ATOM     45  C   UNL A   1      40.600  28.837  29.070  1.00  0.00     0.049 A 
ATOM     46  N   UNL A   1      41.959  29.685  31.900  1.00  0.00    -0.248 NA
ATOM     47  C   UNL A   1      40.017  28.596  32.540  1.00  0.00     0.031 C 
ATOM     48  C   UNL A   1      39.928  28.674  27.773  1.00  0.00     0.029 A 
ATOM     49  N   UNL A   1      41.715  28.074  28.921  1.00  0.00    -0.354 N 
ATOM     50  C   UNL A   1      42.129  29.175  33.185  1.00  0.00     0.074 A 
ATOM     51  C   UNL A   1      40.849  28.649  33.583  1.00  0.00     0.031 C 
ATOM     52  C   UNL A   1      40.524  27.683  27.074  1.00  0.00     0.029 A 
ATOM     53  C   UNL A   1      41.719  27.276  27.785  1.00  0.00     0.049 A 
ATOM     54  H   UNL A   1      42.459  28.086  29.567  1.00  0.00     0.167 HD
ATOM     55  C   UNL A   1      43.371  29.025  33.727  1.00  0.00     0.037 A 
ATOM     56  C   UNL A   1      42.630  26.328  27.464  1.00  0.00     0.037 A 
ATOM     57  C   UNL A   1      44.345  29.818  33.019  1.00  0.00     0.049 A 
ATOM     58  C   UNL A   1      43.852  26.608  28.256  1.00  0.00     0.074 A 
ATOM     59  C   UNL A   1      44.497  31.167  32.763  1.00  0.00     0.029 A 
ATOM     60  N   UNL A   1      45.173  29.181  32.128  1.00  0.00    -0.354 N 
ATOM     61  N   UNL A   1      44.606  27.658  28.081  1.00  0.00    -0.248 NA
ATOM     62  C   UNL A   1      43.983  25.951  29.547  1.00  0.00     0.031 C 
ATOM     63  C   UNL A   1      44.994  31.233  31.426  1.00  0.00     0.029 A 
ATOM     64  C   UNL A   1      45.173  29.925  30.975  1.00  0.00     0.049 A 
ATOM     65  H   UNL A   1      45.674  28.349  32.286  1.00  0.00     0.167 HD
ATOM     66  C   UNL A   1      44.973  28.043  29.362  1.00  0.00     0.074 A 
ATOM     67  C   UNL A   1      44.641  26.904  30.213  1.00  0.00     0.031 C 
ATOM     68  C   UNL A   1      45.245  29.349  29.653  1.00  0.00     0.037 A 
BRANCH  55  69
ATOM     69  C   UNL A   1      43.778  27.897  34.648  1.00  0.00     0.064 A 
ATOM     70  C   UNL A   1      43.566  26.564  34.235  1.00  0.00     0.173 A 
ATOM     71  C   UNL A   1      44.069  28.065  36.018  1.00  0.00     0.173 A 
ATOM     72  F   UNL A   1      43.273  26.282  32.956  1.00  0.00    -0.203 F 
ATOM     73  C   UNL A   1      43.549  25.501  35.142  1.00  0.00     0.198 A 
ATOM     74  C   UNL A   1      44.106  26.994  36.911  1.00  0.00     0.198 A 
ATOM     75  F   UNL A   1      44.217  29.271  36.577  1.00  0.00    -0.203 F 
ATOM     76  F   UNL A   1      43.205  24.275  34.724  1.00  0.00    -0.200 F 
ATOM     77  C   UNL A   1      43.809  25.719  36.482  1.00  0.00     0.200 A 
ATOM     78  F   UNL A   1      44.345  27.229  38.210  1.00  0.00    -0.200 F 
ATOM     79  F   UNL A   1      43.724  24.715  37.365  1.00  0.00    -0.200 F 
ENDBRANCH  55  69
BRANCH  56  80
ATOM     80  C   UNL A   1      42.408  25.050  26.750  1.00  0.00     0.064 A 
ATOM     81  C   UNL A   1      43.133  24.731  25.592  1.00  0.00     0.173 A 
ATOM     82  C   UNL A   1      41.682  23.999  27.347  1.00  0.00     0.173 A 
ATOM     83  F   UNL A   1      43.885  25.663  24.991  1.00  0.00    -0.203 F 
ATOM     84  C   UNL A   1      43.153  23.430  25.076  1.00  0.00     0.198 A 
ATOM     85  C   UNL A   1      41.698  22.704  26.828  1.00  0.00     0.198 A 
ATOM     86  F   UNL A   1      41.025  24.186  28.501  1.00  0.00    -0.203 F 
ATOM     87  F   UNL A   1      43.908  23.148  24.006  1.00  0.00    -0.200 F 
ATOM     88  C   UNL A   1      42.444  22.416  25.700  1.00  0.00     0.200 A 
ATOM     89  F   UNL A   1      41.041  21.724  27.465  1.00  0.00    -0.200 F 
ATOM     90  F   UNL A   1      42.517  21.158  25.245  1.00  0.00    -0.200 F 
ENDBRANCH  56  80
BRANCH  68  91
ATOM     91  C   UNL A   1      45.387  30.312  28.507  1.00  0.00     0.064 A 
ATOM     92  C   UNL A   1      44.318  31.037  27.949  1.00  0.00     0.173 A 
ATOM     93  C   UNL A   1      46.676  30.628  28.058  1.00  0.00     0.173 A 
ATOM     94  F   UNL A   1      43.066  30.868  28.391  1.00  0.00    -0.203 F 
ATOM     95  C   UNL A   1      44.528  32.000  26.965  1.00  0.00     0.198 A 
ATOM     96  C   UNL A   1      46.888  31.617  27.102  1.00  0.00     0.198 A 
ATOM     97  F   UNL A   1      47.742  30.011  28.594  1.00  0.00    -0.203 F 
ATOM     98  F   UNL A   1      43.487  32.671  26.446  1.00  0.00    -0.200 F 
ATOM     99  C   UNL A   1      45.814  32.296  26.548  1.00  0.00     0.200 A 
ATOM    100  F   UNL A   1      48.138  31.934  26.738  1.00  0.00    -0.200 F 
ATOM    101  F   UNL A   1      46.023  33.254  25.633  1.00  0.00    -0.200 F 
ENDBRANCH  68  91
ENDBRANCH  42  43
ENDBRANCH  34  37
ENDBRANCH  32  33
ENDBRANCH  31  32
ENDBRANCH  30  31
ENDBRANCH  29  30
ENDBRANCH   1  29
TORSDOF 20
ENDMDL
MODEL 3
REMARK VINA RESULT:     -11.6      2.987      8.703
REMARK SMILES CCCN(C(=O)Cc1c(C(=O)NCCCCCCNC(=O)c2ccc(-c3c4nc(c(-c5c(F)c(F)c(F)c(F)c5F)c5ccc([nH]5)c(-c5c(F)c(F)c(F)c(F)c5F)c5nc(c(-c6c(F)c(F)c(F)c(F)c6F)c6ccc3[nH]6)C=C5)C=C4)cc2)c(C)cn1CC)c1cccc(Cl)c1
REMARK SMILES IDX 14 1 13 2 12 3 10 4 11 5 9 7 8 8 88 9 85 10 87 11 86 12 7 13
REMARK SMILES IDX 5 14 6 15 4 16 3 17 2 18 1 19 91 20 92 21 97 22 93 23 95 24
REMARK SMILES IDX 94 25 96 26 89 27 90 28 15 29 16 30 17 31 18 32 19 33 20 34
REMARK SMILES IDX 21 36 22 37 23 38 84 39 24 40 83 41 25 42 26 43 27 44 77 45
REMARK SMILES IDX 28 46 82 47 76 48 78 49 29 50 81 51 75 52 74 53 30 55 62 56
REMARK SMILES IDX 42 57 61 58 43 59 46 60 60 61 79 62 44 63 45 64 59 66 80 67
REMARK SMILES IDX 47 68 31 69 32 70 40 71 33 72 34 73 38 74 41 75 35 76 36 77
REMARK SMILES IDX 39 78 37 79 63 80 64 81 72 82 65 83 66 84 70 85 73 86 67 87
REMARK SMILES IDX 68 88 71 89 69 90 48 91 49 92 57 93 50 94 51 95 55 96 58 97
REMARK SMILES IDX 52 98 53 99 56 100 54 101
REMARK H PARENT 12 6 19 35 78 54 46 65
REMARK Flexibility Score: inf
ROOT
ATOM      1  C   UNL A   1      32.631  28.748  26.309  1.00  0.00     0.021 C 
ENDROOT
BRANCH   1   2
ATOM      2  C   UNL A   1      31.406  28.125  26.973  1.00  0.00     0.116 C 
BRANCH   2   3
ATOM      3  N   UNL A   1      31.409  26.704  27.217  1.00  0.00    -0.352 N 
ATOM      4  C   UNL A   1      31.551  25.658  26.331  1.00  0.00     0.253 C 
ATOM      5  O   UNL A   1      31.565  24.526  26.818  1.00  0.00    -0.269 OA
ATOM      6  H   UNL A   1      31.292  26.441  28.159  1.00  0.00     0.163 HD
BRANCH   4   7
ATOM      7  C   UNL A   1      31.609  25.860  24.868  1.00  0.00     0.064 A 
ATOM      8  C   UNL A   1      32.819  25.858  24.139  1.00  0.00     0.040 A 
ATOM      9  N   UNL A   1      32.532  26.305  22.864  1.00  0.00    -0.350 N 
ATOM     10  C   UNL A   1      30.567  26.180  23.915  1.00  0.00    -0.020 A 
ATOM     11  C   UNL A   1      31.179  26.362  22.694  1.00  0.00     0.090 A 
ATOM     12  C   UNL A   1      29.101  26.368  24.098  1.00  0.00     0.047 C 
BRANCH   8  13
ATOM     13  C   UNL A   1      34.237  25.556  24.575  1.00  0.00     0.155 C 
BRANCH  13  14
ATOM     14  C   UNL A   1      34.681  24.137  24.182  1.00  0.00     0.232 C 
ATOM     15  O   UNL A   1      34.931  23.900  22.992  1.00  0.00    -0.274 OA
BRANCH  14  16
ATOM     16  N   UNL A   1      34.797  23.157  25.171  1.00  0.00    -0.312 N 
BRANCH  16  17
ATOM     17  C   UNL A   1      35.844  23.115  26.207  1.00  0.00     0.125 C 
BRANCH  17  18
ATOM     18  C   UNL A   1      37.250  23.398  25.685  1.00  0.00     0.019 C 
ATOM     19  C   UNL A   1      38.157  22.177  25.592  1.00  0.00     0.006 C 
ENDBRANCH  17  18
ENDBRANCH  16  17
BRANCH  16  20
ATOM     20  C   UNL A   1      34.049  21.950  25.055  1.00  0.00     0.045 A 
ATOM     21  C   UNL A   1      32.713  22.013  24.649  1.00  0.00     0.026 A 
ATOM     22  C   UNL A   1      34.706  20.717  25.092  1.00  0.00     0.046 A 
ATOM     23  C   UNL A   1      32.068  20.861  24.195  1.00  0.00     0.004 A 
ATOM     24  C   UNL A   1      34.064  19.575  24.620  1.00  0.00     0.043 A 
ATOM     25  C   UNL A   1      32.753  19.645  24.155  1.00  0.00     0.020 A 
ATOM     26  Cl  UNL A   1      34.929  18.090  24.527  1.00  0.00    -0.084 Cl
ENDBRANCH  16  20
ENDBRANCH  14  16
ENDBRANCH  13  14
ENDBRANCH   8  13
BRANCH   9  27
ATOM     27  C   UNL A   1      33.462  26.770  21.842  1.00  0.00     0.118 C 
ATOM     28  C   UNL A   1      33.952  28.187  22.113  1.00  0.00     0.027 C 
ENDBRANCH   9  27
ENDBRANCH   4   7
ENDBRANCH   2   3
ENDBRANCH   1   2
BRANCH   1  29
ATOM     29  C   UNL A   1      34.018  28.423  26.854  1.00  0.00     0.002 C 
BRANCH  29  30
ATOM     30  C   UNL A   1      34.901  29.590  27.302  1.00  0.00     0.002 C 
BRANCH  30  31
ATOM     31  C   UNL A   1      34.225  30.939  27.569  1.00  0.00     0.021 C 
BRANCH  31  32
ATOM     32  C   UNL A   1      35.157  32.058  28.005  1.00  0.00     0.116 C 
BRANCH  32  33
ATOM     33  N   UNL A   1      34.982  32.452  29.401  1.00  0.00    -0.352 N 
ATOM     34  C   UNL A   1      35.589  31.907  30.514  1.00  0.00     0.251 C 
ATOM     35  H   UNL A   1      34.357  33.194  29.567  1.00  0.00     0.163 HD
ATOM     36  O   UNL A   1      35.111  32.060  31.636  1.00  0.00    -0.269 OA
BRANCH  34  37
ATOM     37  C   UNL A   1      36.826  31.129  30.340  1.00  0.00     0.039 A 
ATOM     38  C   UNL A   1      38.063  31.753  30.153  1.00  0.00     0.014 A 
ATOM     39  C   UNL A   1      36.734  29.741  30.394  1.00  0.00     0.014 A 
ATOM     40  C   UNL A   1      39.213  30.967  30.099  1.00  0.00     0.010 A 
ATOM     41  C   UNL A   1      37.873  28.988  30.513  1.00  0.00     0.010 A 
ATOM     42  C   UNL A   1      39.110  29.582  30.298  1.00  0.00    -0.014 A 
BRANCH  42  43
ATOM     43  C   UNL A   1      40.300  28.740  30.356  1.00  0.00     0.031 A 
ATOM     44  C   UNL A   1      40.832  28.476  31.721  1.00  0.00     0.074 A 
ATOM     45  C   UNL A   1      40.756  28.057  29.283  1.00  0.00     0.049 A 
ATOM     46  N   UNL A   1      41.990  28.793  32.201  1.00  0.00    -0.248 NA
ATOM     47  C   UNL A   1      39.930  27.859  32.707  1.00  0.00     0.031 C 
ATOM     48  C   UNL A   1      40.159  27.948  27.945  1.00  0.00     0.029 A 
ATOM     49  N   UNL A   1      41.815  27.208  29.203  1.00  0.00    -0.354 N 
ATOM     50  C   UNL A   1      42.035  28.270  33.491  1.00  0.00     0.074 A 
ATOM     51  C   UNL A   1      40.695  27.846  33.802  1.00  0.00     0.031 C 
ATOM     52  C   UNL A   1      40.719  26.914  27.280  1.00  0.00     0.029 A 
ATOM     53  C   UNL A   1      41.830  26.414  28.065  1.00  0.00     0.049 A 
ATOM     54  H   UNL A   1      42.514  27.161  29.895  1.00  0.00     0.167 HD
ATOM     55  C   UNL A   1      43.223  28.022  34.112  1.00  0.00     0.037 A 
ATOM     56  C   UNL A   1      42.683  25.397  27.797  1.00  0.00     0.037 A 
ATOM     57  C   UNL A   1      44.301  28.737  33.473  1.00  0.00     0.049 A 
ATOM     58  C   UNL A   1      43.870  25.580  28.669  1.00  0.00     0.074 A 
ATOM     59  C   UNL A   1      44.575  30.070  33.235  1.00  0.00     0.029 A 
ATOM     60  N   UNL A   1      45.133  28.038  32.634  1.00  0.00    -0.354 N 
ATOM     61  N   UNL A   1      44.713  26.567  28.550  1.00  0.00    -0.248 NA
ATOM     62  C   UNL A   1      43.864  24.914  29.962  1.00  0.00     0.031 C 
ATOM     63  C   UNL A   1      45.161  30.098  31.934  1.00  0.00     0.029 A 
ATOM     64  C   UNL A   1      45.266  28.780  31.488  1.00  0.00     0.049 A 
ATOM     65  H   UNL A   1      45.556  27.169  32.820  1.00  0.00     0.167 HD
ATOM     66  C   UNL A   1      45.025  26.922  29.854  1.00  0.00     0.074 A 
ATOM     67  C   UNL A   1      44.549  25.812  30.675  1.00  0.00     0.031 C 
ATOM     68  C   UNL A   1      45.379  28.202  30.170  1.00  0.00     0.037 A 
BRANCH  55  69
ATOM     69  C   UNL A   1      43.480  26.865  35.050  1.00  0.00     0.064 A 
ATOM     70  C   UNL A   1      43.908  27.133  36.368  1.00  0.00     0.173 A 
ATOM     71  C   UNL A   1      43.626  25.526  34.629  1.00  0.00     0.173 A 
ATOM     72  F   UNL A   1      43.826  28.372  36.876  1.00  0.00    -0.203 F 
ATOM     73  C   UNL A   1      44.524  26.159  37.159  1.00  0.00     0.198 A 
ATOM     74  C   UNL A   1      44.191  24.544  35.443  1.00  0.00     0.198 A 
ATOM     75  F   UNL A   1      43.339  25.132  33.384  1.00  0.00    -0.203 F 
ATOM     76  F   UNL A   1      45.039  26.497  38.349  1.00  0.00    -0.200 F 
ATOM     77  C   UNL A   1      44.674  24.868  36.691  1.00  0.00     0.200 A 
ATOM     78  F   UNL A   1      44.341  23.300  34.963  1.00  0.00    -0.200 F 
ATOM     79  F   UNL A   1      45.326  23.951  37.418  1.00  0.00    -0.200 F 
ENDBRANCH  55  69
BRANCH  56  80
ATOM     80  C   UNL A   1      42.409  24.141  27.064  1.00  0.00     0.064 A 
ATOM     81  C   UNL A   1      43.233  23.724  26.007  1.00  0.00     0.173 A 
ATOM     82  C   UNL A   1      41.498  23.189  27.565  1.00  0.00     0.173 A 
ATOM     83  F   UNL A   1      44.156  24.556  25.505  1.00  0.00    -0.203 F 
ATOM     84  C   UNL A   1      43.169  22.421  25.500  1.00  0.00     0.198 A 
ATOM     85  C   UNL A   1      41.432  21.892  27.054  1.00  0.00     0.198 A 
ATOM     86  F   UNL A   1      40.727  23.468  28.625  1.00  0.00    -0.203 F 
ATOM     87  F   UNL A   1      44.017  22.039  24.535  1.00  0.00    -0.200 F 
ATOM     88  C   UNL A   1      42.277  21.504  26.030  1.00  0.00     0.200 A 
ATOM     89  F   UNL A   1      40.593  21.003  27.604  1.00  0.00    -0.200 F 
ATOM     90  F   UNL A   1      42.262  20.238  25.590  1.00  0.00    -0.200 F 
ENDBRANCH  56  80
BRANCH  68  91
ATOM     91  C   UNL A   1      45.670  29.152  29.041  1.00  0.00     0.064 A 
ATOM     92  C   UNL A   1      46.913  29.242  28.388  1.00  0.00     0.173 A 
ATOM     93  C   UNL A   1      44.608  29.889  28.500  1.00  0.00     0.173 A 
ATOM     94  F   UNL A   1      47.953  28.497  28.778  1.00  0.00    -0.203 F 
ATOM     95  C   UNL A   1      47.089  30.058  27.273  1.00  0.00     0.198 A 
ATOM     96  C   UNL A   1      44.778  30.675  27.364  1.00  0.00     0.198 A 
ATOM     97  F   UNL A   1      43.384  29.800  29.045  1.00  0.00    -0.203 F 
ATOM     98  F   UNL A   1      48.289  30.130  26.674  1.00  0.00    -0.200 F 
ATOM     99  C   UNL A   1      46.019  30.768  26.757  1.00  0.00     0.200 A 
ATOM    100  F   UNL A   1      43.727  31.321  26.839  1.00  0.00    -0.200 F 
ATOM    101  F   UNL A   1      46.177  31.520  25.657  1.00  0.00    -0.200 F 
ENDBRANCH  68  91
ENDBRANCH  42  43
ENDBRANCH  34  37
ENDBRANCH  32  33
ENDBRANCH  31  32
ENDBRANCH  30  31
ENDBRANCH  29  30
ENDBRANCH   1  29
TORSDOF 20
ENDMDL
