MODEL 1
REMARK VINA RESULT:     -12.3      0.000      0.000
REMARK SMILES Cc1nn(-c2ccccc2)c(C)c1CNC(=O)CCCC(=O)NCCCCCCNC(=O)c1ccc(-c2c3nc(c(-c4c(F)c(F)c(F)c(F)c4F)c4ccc([nH]4)c(-c4c(F)c(F)c(F)c(F)c4F)c4nc(c(-c5c(F)c(F)c(F)c(F)c5F)c5ccc2[nH]5)C=C4)C=C3)cc1
REMARK SMILES IDX 24 1 23 2 21 3 22 4 20 6 19 7 18 8 16 9 15 10 17 12 14 13
REMARK SMILES IDX 13 14 1 15 2 16 3 17 4 18 11 19 12 20 5 21 6 22 10 23 7 24
REMARK SMILES IDX 9 25 8 26 25 27 26 28 27 29 28 30 29 31 30 32 31 33 32 35
REMARK SMILES IDX 33 36 34 37 95 38 35 39 94 40 36 41 37 42 38 43 88 44 39 45
REMARK SMILES IDX 93 46 87 47 89 48 40 49 92 50 86 51 85 52 41 54 73 55 53 56
REMARK SMILES IDX 72 57 54 58 57 59 71 60 90 61 55 62 56 63 70 65 91 66 58 67
REMARK SMILES IDX 42 68 43 69 51 70 44 71 45 72 49 73 52 74 46 75 47 76 50 77
REMARK SMILES IDX 48 78 74 79 75 80 83 81 76 82 77 83 81 84 84 85 78 86 79 87
REMARK SMILES IDX 82 88 80 89 59 90 60 91 68 92 61 93 62 94 66 95 69 96 63 97
REMARK SMILES IDX 64 98 67 99 65 100
REMARK H PARENT 23 5 15 11 30 34 89 53 57 64
REMARK Flexibility Score: inf
ROOT
ATOM      1  C   UNL A   1      33.207  29.050  22.737  1.00  0.00     0.116 C 
ENDROOT
BRANCH   1   2
ATOM      2  N   UNL A   1      31.958  29.290  22.063  1.00  0.00    -0.356 N 
ATOM      3  C   UNL A   1      30.685  28.977  22.414  1.00  0.00     0.220 C 
ATOM      4  O   UNL A   1      29.791  29.352  21.651  1.00  0.00    -0.275 OA
ATOM      5  H   UNL A   1      32.041  29.761  21.203  1.00  0.00     0.163 HD
BRANCH   3   6
ATOM      6  C   UNL A   1      30.332  28.302  23.729  1.00  0.00     0.100 C 
BRANCH   6   7
ATOM      7  C   UNL A   1      29.509  27.023  23.755  1.00  0.00     0.020 C 
BRANCH   7   8
ATOM      8  C   UNL A   1      30.078  25.655  24.145  1.00  0.00     0.100 C 
BRANCH   8   9
ATOM      9  C   UNL A   1      30.583  25.153  25.509  1.00  0.00     0.220 C 
ATOM     10  N   UNL A   1      31.275  24.037  25.817  1.00  0.00    -0.352 N 
ATOM     11  H   UNL A   1      31.474  24.007  26.781  1.00  0.00     0.163 HD
ATOM     12  O   UNL A   1      30.262  25.824  26.505  1.00  0.00    -0.275 OA
BRANCH  10  13
ATOM     13  C   UNL A   1      31.811  22.871  25.144  1.00  0.00     0.155 C 
BRANCH  13  14
ATOM     14  C   UNL A   1      33.264  22.988  24.833  1.00  0.00     0.016 A 
ATOM     15  C   UNL A   1      33.054  23.881  22.373  1.00  0.00     0.069 C 
ATOM     16  C   UNL A   1      33.798  23.471  23.597  1.00  0.00     0.065 A 
ATOM     17  N   UNL A   1      35.126  23.604  23.638  1.00  0.00    -0.173 NA
ATOM     18  N   UNL A   1      35.484  23.091  24.834  1.00  0.00    -0.237 N 
ATOM     19  C   UNL A   1      34.383  22.843  25.641  1.00  0.00     0.046 A 
ATOM     20  C   UNL A   1      34.538  22.632  27.107  1.00  0.00     0.067 C 
BRANCH  18  21
ATOM     21  C   UNL A   1      36.836  22.995  25.240  1.00  0.00     0.065 A 
ATOM     22  C   UNL A   1      37.430  24.056  25.924  1.00  0.00     0.028 A 
ATOM     23  C   UNL A   1      37.511  21.775  25.089  1.00  0.00     0.028 A 
ATOM     24  C   UNL A   1      38.656  23.843  26.557  1.00  0.00     0.002 A 
ATOM     25  C   UNL A   1      38.735  21.575  25.716  1.00  0.00     0.002 A 
ATOM     26  C   UNL A   1      39.295  22.602  26.471  1.00  0.00     0.000 A 
ENDBRANCH  18  21
ENDBRANCH  13  14
ENDBRANCH  10  13
ENDBRANCH   8   9
ENDBRANCH   7   8
ENDBRANCH   6   7
ENDBRANCH   3   6
ENDBRANCH   1   2
BRANCH   1  27
ATOM     27  C   UNL A   1      33.434  27.577  23.042  1.00  0.00     0.021 C 
BRANCH  27  28
ATOM     28  C   UNL A   1      33.670  27.315  24.524  1.00  0.00     0.002 C 
BRANCH  28  29
ATOM     29  C   UNL A   1      34.042  28.555  25.351  1.00  0.00     0.002 C 
BRANCH  29  30
ATOM     30  C   UNL A   1      33.102  28.921  26.512  1.00  0.00     0.021 C 
BRANCH  30  31
ATOM     31  C   UNL A   1      33.793  29.622  27.673  1.00  0.00     0.116 C 
BRANCH  31  32
ATOM     32  N   UNL A   1      34.195  30.983  27.328  1.00  0.00    -0.352 N 
ATOM     33  C   UNL A   1      35.339  31.673  27.681  1.00  0.00     0.251 C 
ATOM     34  H   UNL A   1      33.561  31.479  26.764  1.00  0.00     0.163 HD
ATOM     35  O   UNL A   1      35.395  32.885  27.591  1.00  0.00    -0.269 OA
BRANCH  33  36
ATOM     36  C   UNL A   1      36.494  30.909  28.178  1.00  0.00     0.039 A 
ATOM     37  C   UNL A   1      36.636  29.554  27.874  1.00  0.00     0.014 A 
ATOM     38  C   UNL A   1      37.458  31.581  28.924  1.00  0.00     0.014 A 
ATOM     39  C   UNL A   1      37.804  28.903  28.257  1.00  0.00     0.010 A 
ATOM     40  C   UNL A   1      38.668  30.985  29.163  1.00  0.00     0.010 A 
ATOM     41  C   UNL A   1      38.829  29.634  28.880  1.00  0.00    -0.014 A 
BRANCH  41  42
ATOM     42  C   UNL A   1      40.123  29.015  29.138  1.00  0.00     0.031 A 
ATOM     43  C   UNL A   1      40.445  28.850  30.580  1.00  0.00     0.074 A 
ATOM     44  C   UNL A   1      40.872  28.448  28.168  1.00  0.00     0.049 A 
ATOM     45  N   UNL A   1      41.361  29.460  31.256  1.00  0.00    -0.248 NA
ATOM     46  C   UNL A   1      39.561  28.010  31.407  1.00  0.00     0.031 C 
ATOM     47  C   UNL A   1      40.510  28.241  26.759  1.00  0.00     0.029 A 
ATOM     48  N   UNL A   1      42.082  27.827  28.258  1.00  0.00    -0.354 N 
ATOM     49  C   UNL A   1      41.312  28.925  32.542  1.00  0.00     0.074 A 
ATOM     50  C   UNL A   1      40.080  28.187  32.625  1.00  0.00     0.031 C 
ATOM     51  C   UNL A   1      41.349  27.344  26.200  1.00  0.00     0.029 A 
ATOM     52  C   UNL A   1      42.413  27.066  27.144  1.00  0.00     0.049 A 
ATOM     53  H   UNL A   1      42.670  27.911  29.044  1.00  0.00     0.167 HD
ATOM     54  C   UNL A   1      42.431  28.901  33.318  1.00  0.00     0.037 A 
ATOM     55  C   UNL A   1      43.486  26.254  27.007  1.00  0.00     0.037 A 
ATOM     56  C   UNL A   1      43.457  29.734  32.746  1.00  0.00     0.049 A 
ATOM     57  C   UNL A   1      44.504  26.697  27.985  1.00  0.00     0.074 A 
ATOM     58  C   UNL A   1      43.707  31.083  32.628  1.00  0.00     0.029 A 
ATOM     59  N   UNL A   1      44.231  29.090  31.818  1.00  0.00    -0.354 N 
ATOM     60  N   UNL A   1      45.111  27.849  27.921  1.00  0.00    -0.248 NA
ATOM     61  C   UNL A   1      44.614  26.004  29.263  1.00  0.00     0.031 C 
ATOM     62  C   UNL A   1      44.507  31.232  31.454  1.00  0.00     0.029 A 
ATOM     63  C   UNL A   1      44.756  29.970  30.915  1.00  0.00     0.049 A 
ATOM     64  H   UNL A   1      44.388  28.118  31.804  1.00  0.00     0.167 HD
ATOM     65  C   UNL A   1      45.290  28.214  29.241  1.00  0.00     0.074 A 
ATOM     66  C   UNL A   1      45.147  26.980  30.001  1.00  0.00     0.031 C 
ATOM     67  C   UNL A   1      45.206  29.523  29.617  1.00  0.00     0.037 A 
BRANCH  54  68
ATOM     68  C   UNL A   1      42.816  27.781  34.269  1.00  0.00     0.064 A 
ATOM     69  C   UNL A   1      43.243  26.548  33.727  1.00  0.00     0.173 A 
ATOM     70  C   UNL A   1      42.460  27.748  35.634  1.00  0.00     0.173 A 
ATOM     71  F   UNL A   1      43.590  26.453  32.434  1.00  0.00    -0.203 F 
ATOM     72  C   UNL A   1      43.230  25.365  34.473  1.00  0.00     0.198 A 
ATOM     73  C   UNL A   1      42.498  26.575  36.388  1.00  0.00     0.198 A 
ATOM     74  F   UNL A   1      41.948  28.810  36.265  1.00  0.00    -0.203 F 
ATOM     75  F   UNL A   1      43.519  24.198  33.880  1.00  0.00    -0.200 F 
ATOM     76  C   UNL A   1      42.851  25.379  35.802  1.00  0.00     0.200 A 
ATOM     77  F   UNL A   1      42.102  26.604  37.669  1.00  0.00    -0.200 F 
ATOM     78  F   UNL A   1      42.774  24.240  36.502  1.00  0.00    -0.200 F 
ENDBRANCH  54  68
BRANCH  55  79
ATOM     79  C   UNL A   1      43.600  24.984  26.256  1.00  0.00     0.064 A 
ATOM     80  C   UNL A   1      44.577  24.815  25.263  1.00  0.00     0.173 A 
ATOM     81  C   UNL A   1      42.946  23.819  26.703  1.00  0.00     0.173 A 
ATOM     82  F   UNL A   1      45.266  25.871  24.808  1.00  0.00    -0.203 F 
ATOM     83  C   UNL A   1      44.916  23.547  24.779  1.00  0.00     0.198 A 
ATOM     84  C   UNL A   1      43.283  22.555  26.216  1.00  0.00     0.198 A 
ATOM     85  F   UNL A   1      42.043  23.876  27.692  1.00  0.00    -0.203 F 
ATOM     86  F   UNL A   1      45.906  23.416  23.885  1.00  0.00    -0.200 F 
ATOM     87  C   UNL A   1      44.280  22.418  25.268  1.00  0.00     0.200 A 
ATOM     88  F   UNL A   1      42.685  21.467  26.722  1.00  0.00    -0.200 F 
ATOM     89  F   UNL A   1      44.656  21.197  24.860  1.00  0.00    -0.200 F 
ENDBRANCH  55  79
BRANCH  67  90
ATOM     90  C   UNL A   1      45.441  30.557  28.559  1.00  0.00     0.064 A 
ATOM     91  C   UNL A   1      46.704  30.964  28.103  1.00  0.00     0.173 A 
ATOM     92  C   UNL A   1      44.316  31.104  27.925  1.00  0.00     0.173 A 
ATOM     93  F   UNL A   1      47.824  30.428  28.602  1.00  0.00    -0.203 F 
ATOM     94  C   UNL A   1      46.831  31.910  27.087  1.00  0.00     0.198 A 
ATOM     95  C   UNL A   1      44.446  32.018  26.887  1.00  0.00     0.198 A 
ATOM     96  F   UNL A   1      43.084  30.719  28.295  1.00  0.00    -0.203 F 
ATOM     97  F   UNL A   1      48.049  32.302  26.682  1.00  0.00    -0.200 F 
ATOM     98  C   UNL A   1      45.702  32.431  26.476  1.00  0.00     0.200 A 
ATOM     99  F   UNL A   1      43.350  32.485  26.272  1.00  0.00    -0.200 F 
ATOM    100  F   UNL A   1      45.824  33.315  25.477  1.00  0.00    -0.200 F 
ENDBRANCH  67  90
ENDBRANCH  41  42
ENDBRANCH  33  36
ENDBRANCH  31  32
ENDBRANCH  30  31
ENDBRANCH  29  30
ENDBRANCH  28  29
ENDBRANCH  27  28
ENDBRANCH   1  27
TORSDOF 19
ENDMDL
MODEL 2
REMARK VINA RESULT:     -12.0      3.098      8.875
REMARK SMILES Cc1nn(-c2ccccc2)c(C)c1CNC(=O)CCCC(=O)NCCCCCCNC(=O)c1ccc(-c2c3nc(c(-c4c(F)c(F)c(F)c(F)c4F)c4ccc([nH]4)c(-c4c(F)c(F)c(F)c(F)c4F)c4nc(c(-c5c(F)c(F)c(F)c(F)c5F)c5ccc2[nH]5)C=C4)C=C3)cc1
REMARK SMILES IDX 24 1 23 2 21 3 22 4 20 6 19 7 18 8 16 9 15 10 17 12 14 13
REMARK SMILES IDX 13 14 1 15 2 16 3 17 4 18 11 19 12 20 5 21 6 22 10 23 7 24
REMARK SMILES IDX 9 25 8 26 25 27 26 28 27 29 28 30 29 31 30 32 31 33 32 35
REMARK SMILES IDX 33 36 34 37 95 38 35 39 94 40 36 41 37 42 38 43 88 44 39 45
REMARK SMILES IDX 93 46 87 47 89 48 40 49 92 50 86 51 85 52 41 54 73 55 53 56
REMARK SMILES IDX 72 57 54 58 57 59 71 60 90 61 55 62 56 63 70 65 91 66 58 67
REMARK SMILES IDX 42 68 43 69 51 70 44 71 45 72 49 73 52 74 46 75 47 76 50 77
REMARK SMILES IDX 48 78 74 79 75 80 83 81 76 82 77 83 81 84 84 85 78 86 79 87
REMARK SMILES IDX 82 88 80 89 59 90 60 91 68 92 61 93 62 94 66 95 69 96 63 97
REMARK SMILES IDX 64 98 67 99 65 100
REMARK H PARENT 23 5 15 11 30 34 89 53 57 64
REMARK Flexibility Score: inf
ROOT
ATOM      1  C   UNL A   1      38.898  21.389  25.825  1.00  0.00     0.116 C 
ENDROOT
BRANCH   1   2
ATOM      2  N   UNL A   1      38.096  22.558  26.066  1.00  0.00    -0.356 N 
ATOM      3  C   UNL A   1      37.087  23.108  25.343  1.00  0.00     0.220 C 
ATOM      4  O   UNL A   1      36.539  24.105  25.822  1.00  0.00    -0.275 OA
ATOM      5  H   UNL A   1      38.316  23.042  26.894  1.00  0.00     0.163 HD
BRANCH   3   6
ATOM      6  C   UNL A   1      36.552  22.486  24.063  1.00  0.00     0.100 C 
BRANCH   6   7
ATOM      7  C   UNL A   1      35.068  22.196  23.895  1.00  0.00     0.020 C 
BRANCH   7   8
ATOM      8  C   UNL A   1      34.011  23.282  23.668  1.00  0.00     0.100 C 
BRANCH   8   9
ATOM      9  C   UNL A   1      33.072  23.503  22.469  1.00  0.00     0.220 C 
ATOM     10  N   UNL A   1      31.762  23.822  22.445  1.00  0.00    -0.352 N 
ATOM     11  H   UNL A   1      31.445  23.919  21.518  1.00  0.00     0.163 HD
ATOM     12  O   UNL A   1      33.549  23.296  21.340  1.00  0.00    -0.275 OA
BRANCH  10  13
ATOM     13  C   UNL A   1      30.687  24.067  23.385  1.00  0.00     0.155 C 
BRANCH  13  14
ATOM     14  C   UNL A   1      31.026  25.088  24.415  1.00  0.00     0.016 A 
ATOM     15  C   UNL A   1      30.353  23.712  26.548  1.00  0.00     0.069 C 
ATOM     16  C   UNL A   1      30.897  24.897  25.827  1.00  0.00     0.065 A 
ATOM     17  N   UNL A   1      31.403  25.918  26.524  1.00  0.00    -0.173 NA
ATOM     18  N   UNL A   1      31.741  26.834  25.591  1.00  0.00    -0.237 N 
ATOM     19  C   UNL A   1      31.664  26.316  24.306  1.00  0.00     0.046 A 
ATOM     20  C   UNL A   1      32.328  27.000  23.162  1.00  0.00     0.067 C 
BRANCH  18  21
ATOM     21  C   UNL A   1      32.268  28.101  25.934  1.00  0.00     0.065 A 
ATOM     22  C   UNL A   1      31.452  29.232  25.864  1.00  0.00     0.028 A 
ATOM     23  C   UNL A   1      33.552  28.180  26.491  1.00  0.00     0.028 A 
ATOM     24  C   UNL A   1      31.891  30.413  26.465  1.00  0.00     0.002 A 
ATOM     25  C   UNL A   1      33.984  29.363  27.080  1.00  0.00     0.002 A 
ATOM     26  C   UNL A   1      33.142  30.472  27.088  1.00  0.00     0.000 A 
ENDBRANCH  18  21
ENDBRANCH  13  14
ENDBRANCH  10  13
ENDBRANCH   8   9
ENDBRANCH   7   8
ENDBRANCH   6   7
ENDBRANCH   3   6
ENDBRANCH   1   2
BRANCH   1  27
ATOM     27  C   UNL A   1      40.375  21.622  26.110  1.00  0.00     0.021 C 
BRANCH  27  28
ATOM     28  C   UNL A   1      40.820  21.010  27.433  1.00  0.00     0.002 C 
BRANCH  28  29
ATOM     29  C   UNL A   1      41.814  19.846  27.307  1.00  0.00     0.002 C 
BRANCH  29  30
ATOM     30  C   UNL A   1      42.252  19.459  25.885  1.00  0.00     0.021 C 
BRANCH  30  31
ATOM     31  C   UNL A   1      43.643  18.846  25.809  1.00  0.00     0.116 C 
BRANCH  31  32
ATOM     32  N   UNL A   1      44.389  19.326  24.648  1.00  0.00    -0.352 N 
ATOM     33  C   UNL A   1      44.532  20.614  24.170  1.00  0.00     0.251 C 
ATOM     34  H   UNL A   1      44.858  18.631  24.133  1.00  0.00     0.163 HD
ATOM     35  O   UNL A   1      44.912  20.824  23.034  1.00  0.00    -0.269 OA
BRANCH  33  36
ATOM     36  C   UNL A   1      44.207  21.734  25.067  1.00  0.00     0.039 A 
ATOM     37  C   UNL A   1      44.836  21.862  26.306  1.00  0.00     0.014 A 
ATOM     38  C   UNL A   1      43.284  22.681  24.631  1.00  0.00     0.014 A 
ATOM     39  C   UNL A   1      44.591  23.002  27.065  1.00  0.00     0.010 A 
ATOM     40  C   UNL A   1      43.164  23.870  25.301  1.00  0.00     0.010 A 
ATOM     41  C   UNL A   1      43.772  24.015  26.542  1.00  0.00    -0.014 A 
BRANCH  41  42
ATOM     42  C   UNL A   1      43.637  25.287  27.242  1.00  0.00     0.031 A 
ATOM     43  C   UNL A   1      44.652  26.304  26.860  1.00  0.00     0.074 A 
ATOM     44  C   UNL A   1      42.566  25.595  28.005  1.00  0.00     0.049 A 
ATOM     45  N   UNL A   1      45.605  26.775  27.593  1.00  0.00    -0.248 NA
ATOM     46  C   UNL A   1      44.704  26.757  25.460  1.00  0.00     0.031 C 
ATOM     47  C   UNL A   1      41.336  24.812  28.185  1.00  0.00     0.029 A 
ATOM     48  N   UNL A   1      42.297  26.736  28.701  1.00  0.00    -0.354 N 
ATOM     49  C   UNL A   1      46.246  27.741  26.817  1.00  0.00     0.074 A 
ATOM     50  C   UNL A   1      45.777  27.553  25.471  1.00  0.00     0.031 C 
ATOM     51  C   UNL A   1      40.374  25.592  28.722  1.00  0.00     0.029 A 
ATOM     52  C   UNL A   1      40.972  26.857  29.101  1.00  0.00     0.049 A 
ATOM     53  H   UNL A   1      42.982  27.414  28.903  1.00  0.00     0.167 HD
ATOM     54  C   UNL A   1      46.880  28.789  27.414  1.00  0.00     0.037 A 
ATOM     55  C   UNL A   1      40.399  27.928  29.696  1.00  0.00     0.037 A 
ATOM     56  C   UNL A   1      47.026  28.551  28.826  1.00  0.00     0.049 A 
ATOM     57  C   UNL A   1      41.483  28.718  30.321  1.00  0.00     0.074 A 
ATOM     58  C   UNL A   1      47.811  27.764  29.638  1.00  0.00     0.029 A 
ATOM     59  N   UNL A   1      45.940  28.944  29.562  1.00  0.00    -0.354 N 
ATOM     60  N   UNL A   1      42.201  28.289  31.322  1.00  0.00    -0.248 NA
ATOM     61  C   UNL A   1      42.024  29.872  29.614  1.00  0.00     0.031 C 
ATOM     62  C   UNL A   1      47.046  27.535  30.822  1.00  0.00     0.029 A 
ATOM     63  C   UNL A   1      45.837  28.222  30.717  1.00  0.00     0.049 A 
ATOM     64  H   UNL A   1      45.314  29.655  29.293  1.00  0.00     0.167 HD
ATOM     65  C   UNL A   1      43.455  28.820  31.093  1.00  0.00     0.074 A 
ATOM     66  C   UNL A   1      43.241  29.919  30.160  1.00  0.00     0.031 C 
ATOM     67  C   UNL A   1      44.577  28.116  31.417  1.00  0.00     0.037 A 
BRANCH  54  68
ATOM     68  C   UNL A   1      46.911  30.211  26.884  1.00  0.00     0.064 A 
ATOM     69  C   UNL A   1      48.127  30.929  26.937  1.00  0.00     0.173 A 
ATOM     70  C   UNL A   1      45.759  30.995  26.659  1.00  0.00     0.173 A 
ATOM     71  F   UNL A   1      49.286  30.292  27.163  1.00  0.00    -0.203 F 
ATOM     72  C   UNL A   1      48.170  32.325  26.858  1.00  0.00     0.198 A 
ATOM     73  C   UNL A   1      45.812  32.383  26.529  1.00  0.00     0.198 A 
ATOM     74  F   UNL A   1      44.527  30.476  26.676  1.00  0.00    -0.203 F 
ATOM     75  F   UNL A   1      49.330  32.969  27.043  1.00  0.00    -0.200 F 
ATOM     76  C   UNL A   1      47.011  33.051  26.661  1.00  0.00     0.200 A 
ATOM     77  F   UNL A   1      44.674  33.073  26.364  1.00  0.00    -0.200 F 
ATOM     78  F   UNL A   1      47.038  34.390  26.649  1.00  0.00    -0.200 F 
ENDBRANCH  54  68
BRANCH  55  79
ATOM     79  C   UNL A   1      39.016  28.436  29.561  1.00  0.00     0.064 A 
ATOM     80  C   UNL A   1      38.191  28.597  30.685  1.00  0.00     0.173 A 
ATOM     81  C   UNL A   1      38.583  29.048  28.368  1.00  0.00     0.173 A 
ATOM     82  F   UNL A   1      38.551  28.072  31.865  1.00  0.00    -0.203 F 
ATOM     83  C   UNL A   1      37.025  29.367  30.632  1.00  0.00     0.198 A 
ATOM     84  C   UNL A   1      37.417  29.812  28.316  1.00  0.00     0.198 A 
ATOM     85  F   UNL A   1      39.336  28.998  27.260  1.00  0.00    -0.203 F 
ATOM     86  F   UNL A   1      36.302  29.561  31.743  1.00  0.00    -0.200 F 
ATOM     87  C   UNL A   1      36.648  29.987  29.451  1.00  0.00     0.200 A 
ATOM     88  F   UNL A   1      37.081  30.434  27.177  1.00  0.00    -0.200 F 
ATOM     89  F   UNL A   1      35.571  30.785  29.419  1.00  0.00    -0.200 F 
ENDBRANCH  55  79
BRANCH  67  90
ATOM     90  C   UNL A   1      44.441  27.049  32.460  1.00  0.00     0.064 A 
ATOM     91  C   UNL A   1      44.235  25.688  32.190  1.00  0.00     0.173 A 
ATOM     92  C   UNL A   1      44.605  27.427  33.800  1.00  0.00     0.173 A 
ATOM     93  F   UNL A   1      44.149  25.237  30.933  1.00  0.00    -0.203 F 
ATOM     94  C   UNL A   1      44.154  24.755  33.223  1.00  0.00     0.198 A 
ATOM     95  C   UNL A   1      44.563  26.490  34.825  1.00  0.00     0.198 A 
ATOM     96  F   UNL A   1      44.846  28.711  34.111  1.00  0.00    -0.203 F 
ATOM     97  F   UNL A   1      43.934  23.460  32.945  1.00  0.00    -0.200 F 
ATOM     98  C   UNL A   1      44.325  25.156  34.539  1.00  0.00     0.200 A 
ATOM     99  F   UNL A   1      44.771  26.879  36.091  1.00  0.00    -0.200 F 
ATOM    100  F   UNL A   1      44.281  24.255  35.529  1.00  0.00    -0.200 F 
ENDBRANCH  67  90
ENDBRANCH  41  42
ENDBRANCH  33  36
ENDBRANCH  31  32
ENDBRANCH  30  31
ENDBRANCH  29  30
ENDBRANCH  28  29
ENDBRANCH  27  28
ENDBRANCH   1  27
TORSDOF 19
ENDMDL
MODEL 3
REMARK VINA RESULT:     -12.0      3.150      8.325
REMARK SMILES Cc1nn(-c2ccccc2)c(C)c1CNC(=O)CCCC(=O)NCCCCCCNC(=O)c1ccc(-c2c3nc(c(-c4c(F)c(F)c(F)c(F)c4F)c4ccc([nH]4)c(-c4c(F)c(F)c(F)c(F)c4F)c4nc(c(-c5c(F)c(F)c(F)c(F)c5F)c5ccc2[nH]5)C=C4)C=C3)cc1
REMARK SMILES IDX 24 1 23 2 21 3 22 4 20 6 19 7 18 8 16 9 15 10 17 12 14 13
REMARK SMILES IDX 13 14 1 15 2 16 3 17 4 18 11 19 12 20 5 21 6 22 10 23 7 24
REMARK SMILES IDX 9 25 8 26 25 27 26 28 27 29 28 30 29 31 30 32 31 33 32 35
REMARK SMILES IDX 33 36 34 37 95 38 35 39 94 40 36 41 37 42 38 43 88 44 39 45
REMARK SMILES IDX 93 46 87 47 89 48 40 49 92 50 86 51 85 52 41 54 73 55 53 56
REMARK SMILES IDX 72 57 54 58 57 59 71 60 90 61 55 62 56 63 70 65 91 66 58 67
REMARK SMILES IDX 42 68 43 69 51 70 44 71 45 72 49 73 52 74 46 75 47 76 50 77
REMARK SMILES IDX 48 78 74 79 75 80 83 81 76 82 77 83 81 84 84 85 78 86 79 87
REMARK SMILES IDX 82 88 80 89 59 90 60 91 68 92 61 93 62 94 66 95 69 96 63 97
REMARK SMILES IDX 64 98 67 99 65 100
REMARK H PARENT 23 5 15 11 30 34 89 53 57 64
REMARK Flexibility Score: inf
ROOT
ATOM      1  C   UNL A   1      34.565  24.916  24.392  1.00  0.00     0.116 C 
ENDROOT
BRANCH   1   2
ATOM      2  N   UNL A   1      34.111  25.113  23.041  1.00  0.00    -0.356 N 
ATOM      3  C   UNL A   1      33.527  26.185  22.447  1.00  0.00     0.220 C 
ATOM      4  O   UNL A   1      33.279  26.086  21.242  1.00  0.00    -0.275 OA
ATOM      5  H   UNL A   1      34.245  24.340  22.447  1.00  0.00     0.163 HD
BRANCH   3   6
ATOM      6  C   UNL A   1      33.283  27.500  23.170  1.00  0.00     0.100 C 
BRANCH   6   7
ATOM      7  C   UNL A   1      31.873  28.041  23.353  1.00  0.00     0.020 C 
BRANCH   7   8
ATOM      8  C   UNL A   1      31.056  27.866  24.637  1.00  0.00     0.100 C 
BRANCH   8   9
ATOM      9  C   UNL A   1      31.034  26.695  25.636  1.00  0.00     0.220 C 
ATOM     10  N   UNL A   1      30.945  25.369  25.410  1.00  0.00    -0.352 N 
ATOM     11  H   UNL A   1      30.980  24.869  26.257  1.00  0.00     0.163 HD
ATOM     12  O   UNL A   1      31.028  26.990  26.843  1.00  0.00    -0.275 OA
BRANCH  10  13
ATOM     13  C   UNL A   1      30.814  24.465  24.285  1.00  0.00     0.155 C 
BRANCH  13  14
ATOM     14  C   UNL A   1      31.309  23.089  24.574  1.00  0.00     0.016 A 
ATOM     15  C   UNL A   1      30.068  22.713  26.857  1.00  0.00     0.069 C 
ATOM     16  C   UNL A   1      30.938  22.313  25.716  1.00  0.00     0.065 A 
ATOM     17  N   UNL A   1      31.415  21.066  25.656  1.00  0.00    -0.173 NA
ATOM     18  N   UNL A   1      32.201  21.054  24.559  1.00  0.00    -0.237 N 
ATOM     19  C   UNL A   1      32.050  22.207  23.801  1.00  0.00     0.046 A 
ATOM     20  C   UNL A   1      32.520  22.264  22.389  1.00  0.00     0.067 C 
BRANCH  18  21
ATOM     21  C   UNL A   1      32.944  19.912  24.176  1.00  0.00     0.065 A 
ATOM     22  C   UNL A   1      34.208  19.692  24.725  1.00  0.00     0.028 A 
ATOM     23  C   UNL A   1      32.335  18.938  23.373  1.00  0.00     0.028 A 
ATOM     24  C   UNL A   1      34.802  18.440  24.560  1.00  0.00     0.002 A 
ATOM     25  C   UNL A   1      32.938  17.697  23.207  1.00  0.00     0.002 A 
ATOM     26  C   UNL A   1      34.161  17.440  23.821  1.00  0.00     0.000 A 
ENDBRANCH  18  21
ENDBRANCH  13  14
ENDBRANCH  10  13
ENDBRANCH   8   9
ENDBRANCH   7   8
ENDBRANCH   6   7
ENDBRANCH   3   6
ENDBRANCH   1   2
BRANCH   1  27
ATOM     27  C   UNL A   1      35.356  23.628  24.562  1.00  0.00     0.021 C 
BRANCH  27  28
ATOM     28  C   UNL A   1      36.119  23.578  25.880  1.00  0.00     0.002 C 
BRANCH  28  29
ATOM     29  C   UNL A   1      37.649  23.636  25.747  1.00  0.00     0.002 C 
BRANCH  29  30
ATOM     30  C   UNL A   1      38.395  22.292  25.741  1.00  0.00     0.021 C 
BRANCH  30  31
ATOM     31  C   UNL A   1      39.529  22.208  26.752  1.00  0.00     0.116 C 
BRANCH  31  32
ATOM     32  N   UNL A   1      40.839  22.191  26.104  1.00  0.00    -0.352 N 
ATOM     33  C   UNL A   1      41.728  23.228  25.899  1.00  0.00     0.251 C 
ATOM     34  H   UNL A   1      41.129  21.314  25.766  1.00  0.00     0.163 HD
ATOM     35  O   UNL A   1      42.622  23.137  25.080  1.00  0.00    -0.269 OA
BRANCH  33  36
ATOM     36  C   UNL A   1      41.566  24.457  26.692  1.00  0.00     0.039 A 
ATOM     37  C   UNL A   1      42.089  24.547  27.983  1.00  0.00     0.014 A 
ATOM     38  C   UNL A   1      40.911  25.538  26.107  1.00  0.00     0.014 A 
ATOM     39  C   UNL A   1      42.022  25.768  28.646  1.00  0.00     0.010 A 
ATOM     40  C   UNL A   1      40.984  26.773  26.693  1.00  0.00     0.010 A 
ATOM     41  C   UNL A   1      41.490  26.886  27.983  1.00  0.00    -0.014 A 
BRANCH  41  42
ATOM     42  C   UNL A   1      41.564  28.208  28.592  1.00  0.00     0.031 A 
ATOM     43  C   UNL A   1      42.757  28.999  28.190  1.00  0.00     0.074 A 
ATOM     44  C   UNL A   1      40.543  28.754  29.287  1.00  0.00     0.049 A 
ATOM     45  N   UNL A   1      43.756  29.345  28.931  1.00  0.00    -0.248 NA
ATOM     46  C   UNL A   1      42.933  29.334  26.766  1.00  0.00     0.031 C 
ATOM     47  C   UNL A   1      39.187  28.216  29.464  1.00  0.00     0.029 A 
ATOM     48  N   UNL A   1      40.462  29.971  29.895  1.00  0.00    -0.354 N 
ATOM     49  C   UNL A   1      44.583  30.124  28.123  1.00  0.00     0.074 A 
ATOM     50  C   UNL A   1      44.130  29.926  26.773  1.00  0.00     0.031 C 
ATOM     51  C   UNL A   1      38.365  29.190  29.907  1.00  0.00     0.029 A 
ATOM     52  C   UNL A   1      39.168  30.353  30.229  1.00  0.00     0.049 A 
ATOM     53  H   UNL A   1      41.251  30.530  30.082  1.00  0.00     0.167 HD
ATOM     54  C   UNL A   1      45.376  31.083  28.677  1.00  0.00     0.037 A 
ATOM     55  C   UNL A   1      38.779  31.549  30.728  1.00  0.00     0.037 A 
ATOM     56  C   UNL A   1      45.434  30.925  30.107  1.00  0.00     0.049 A 
ATOM     57  C   UNL A   1      39.967  32.177  31.347  1.00  0.00     0.074 A 
ATOM     58  C   UNL A   1      46.039  30.071  31.001  1.00  0.00     0.029 A 
ATOM     59  N   UNL A   1      44.414  31.555  30.768  1.00  0.00    -0.354 N 
ATOM     60  N   UNL A   1      40.565  31.700  32.403  1.00  0.00    -0.248 NA
ATOM     61  C   UNL A   1      40.728  33.164  30.590  1.00  0.00     0.031 C 
ATOM     62  C   UNL A   1      45.209  30.066  32.163  1.00  0.00     0.029 A 
ATOM     63  C   UNL A   1      44.147  30.947  31.962  1.00  0.00     0.049 A 
ATOM     64  H   UNL A   1      43.934  32.345  30.427  1.00  0.00     0.167 HD
ATOM     65  C   UNL A   1      41.901  31.983  32.195  1.00  0.00     0.074 A 
ATOM     66  C   UNL A   1      41.916  33.033  31.185  1.00  0.00     0.031 C 
ATOM     67  C   UNL A   1      42.867  31.116  32.612  1.00  0.00     0.037 A 
BRANCH  54  68
ATOM     68  C   UNL A   1      45.678  32.436  28.058  1.00  0.00     0.064 A 
ATOM     69  C   UNL A   1      44.601  33.300  27.757  1.00  0.00     0.173 A 
ATOM     70  C   UNL A   1      46.906  32.768  27.445  1.00  0.00     0.173 A 
ATOM     71  F   UNL A   1      43.381  33.074  28.268  1.00  0.00    -0.203 F 
ATOM     72  C   UNL A   1      44.727  34.356  26.847  1.00  0.00     0.198 A 
ATOM     73  C   UNL A   1      47.039  33.853  26.578  1.00  0.00     0.198 A 
ATOM     74  F   UNL A   1      47.991  31.996  27.557  1.00  0.00    -0.203 F 
ATOM     75  F   UNL A   1      43.647  35.066  26.495  1.00  0.00    -0.200 F 
ATOM     76  C   UNL A   1      45.946  34.626  26.254  1.00  0.00     0.200 A 
ATOM     77  F   UNL A   1      48.223  34.084  25.992  1.00  0.00    -0.200 F 
ATOM     78  F   UNL A   1      46.057  35.594  25.334  1.00  0.00    -0.200 F 
ENDBRANCH  54  68
BRANCH  55  79
ATOM     79  C   UNL A   1      37.515  32.282  30.501  1.00  0.00     0.064 A 
ATOM     80  C   UNL A   1      37.244  32.893  29.267  1.00  0.00     0.173 A 
ATOM     81  C   UNL A   1      36.429  32.145  31.388  1.00  0.00     0.173 A 
ATOM     82  F   UNL A   1      38.217  33.031  28.355  1.00  0.00    -0.203 F 
ATOM     83  C   UNL A   1      35.951  33.300  28.920  1.00  0.00     0.198 A 
ATOM     84  C   UNL A   1      35.141  32.555  31.042  1.00  0.00     0.198 A 
ATOM     85  F   UNL A   1      36.580  31.520  32.564  1.00  0.00    -0.203 F 
ATOM     86  F   UNL A   1      35.716  33.811  27.703  1.00  0.00    -0.200 F 
ATOM     87  C   UNL A   1      34.899  33.116  29.802  1.00  0.00     0.200 A 
ATOM     88  F   UNL A   1      34.125  32.340  31.890  1.00  0.00    -0.200 F 
ATOM     89  F   UNL A   1      33.648  33.436  29.441  1.00  0.00    -0.200 F 
ENDBRANCH  55  79
BRANCH  67  90
ATOM     90  C   UNL A   1      42.509  30.168  33.715  1.00  0.00     0.064 A 
ATOM     91  C   UNL A   1      41.997  28.875  33.525  1.00  0.00     0.173 A 
ATOM     92  C   UNL A   1      42.775  30.572  35.031  1.00  0.00     0.173 A 
ATOM     93  F   UNL A   1      41.792  28.387  32.296  1.00  0.00    -0.203 F 
ATOM     94  C   UNL A   1      41.723  28.044  34.610  1.00  0.00     0.198 A 
ATOM     95  C   UNL A   1      42.538  29.727  36.108  1.00  0.00     0.198 A 
ATOM     96  F   UNL A   1      43.305  31.784  35.267  1.00  0.00    -0.203 F 
ATOM     97  F   UNL A   1      41.212  26.819  34.407  1.00  0.00    -0.200 F 
ATOM     98  C   UNL A   1      42.001  28.468  35.899  1.00  0.00     0.200 A 
ATOM     99  F   UNL A   1      42.848  30.129  37.349  1.00  0.00    -0.200 F 
ATOM    100  F   UNL A   1      41.769  27.657  36.940  1.00  0.00    -0.200 F 
ENDBRANCH  67  90
ENDBRANCH  41  42
ENDBRANCH  33  36
ENDBRANCH  31  32
ENDBRANCH  30  31
ENDBRANCH  29  30
ENDBRANCH  28  29
ENDBRANCH  27  28
ENDBRANCH   1  27
TORSDOF 19
ENDMDL
