MODEL 1
REMARK VINA RESULT:     -11.8      0.000      0.000
REMARK SMILES CCc1ccc(S(=O)(=O)Cc2noc(C(=O)NCCCCCCNC(=O)c3ccc(-c4c5nc(c(-c6c(F)c(F)c(F)c(F)c6F)c6ccc([nH]6)c(-c6c(F)c(F)c(F)c(F)c6F)c6nc(c(-c7c(F)c(F)c(F)c(F)c7F)c7ccc4[nH]7)C=C6)C=C5)cc3)n2)cc1
REMARK SMILES IDX 19 1 18 2 17 3 15 4 16 5 14 7 11 8 12 9 90 10 13 11 10 12
REMARK SMILES IDX 7 13 8 14 9 15 6 16 3 17 4 18 92 19 5 20 91 21 2 22 1 23
REMARK SMILES IDX 20 24 21 25 22 26 23 27 24 28 25 29 26 31 27 32 28 33 89 34
REMARK SMILES IDX 29 35 88 36 30 37 31 38 32 39 82 40 33 41 87 42 81 43 83 44
REMARK SMILES IDX 34 45 86 46 80 47 79 48 35 50 67 51 47 52 66 53 48 54 51 55
REMARK SMILES IDX 65 56 84 57 49 58 50 59 64 61 85 62 52 63 36 64 37 65 45 66
REMARK SMILES IDX 38 67 39 68 43 69 46 70 40 71 41 72 44 73 42 74 68 75 69 76
REMARK SMILES IDX 77 77 70 78 71 79 75 80 78 81 72 82 73 83 76 84 74 85 53 86
REMARK SMILES IDX 54 87 62 88 55 89 56 90 60 91 63 92 57 93 58 94 61 95 59 96
REMARK H PARENT 17 6 24 30 83 49 51 60
REMARK Flexibility Score: inf
ROOT
ATOM      1  C   UNL A   1      33.662  29.677  27.136  1.00  0.00     0.021 C 
ENDROOT
BRANCH   1   2
ATOM      2  C   UNL A   1      34.117  28.507  26.266  1.00  0.00     0.116 C 
BRANCH   2   3
ATOM      3  N   UNL A   1      34.075  28.846  24.854  1.00  0.00    -0.348 N 
ATOM      4  C   UNL A   1      33.277  28.361  23.834  1.00  0.00     0.309 C 
ATOM      5  O   UNL A   1      33.526  28.793  22.703  1.00  0.00    -0.264 OA
ATOM      6  H   UNL A   1      34.721  29.534  24.576  1.00  0.00     0.163 HD
BRANCH   4   7
ATOM      7  C   UNL A   1      32.212  27.414  24.105  1.00  0.00     0.315 A 
ATOM      8  C   UNL A   1      30.998  25.736  24.482  1.00  0.00     0.187 A 
ATOM      9  N   UNL A   1      30.155  26.760  24.635  1.00  0.00    -0.061 NA
ATOM     10  N   UNL A   1      32.274  26.098  24.135  1.00  0.00    -0.186 NA
ATOM     11  O   UNL A   1      30.962  27.883  24.406  1.00  0.00    -0.329 OA
BRANCH   8  12
ATOM     12  C   UNL A   1      30.637  24.314  24.587  1.00  0.00     0.223 C 
BRANCH  12  13
ATOM     13  S   UNL A   1      31.224  23.482  26.025  1.00  0.00     0.185 S 
ATOM     14  O   UNL A   1      30.376  22.315  26.206  1.00  0.00    -0.223 OA
ATOM     15  O   UNL A   1      31.340  24.458  27.094  1.00  0.00    -0.223 OA
BRANCH  13  16
ATOM     16  C   UNL A   1      32.854  22.830  25.745  1.00  0.00     0.067 A 
ATOM     17  C   UNL A   1      35.491  21.912  25.398  1.00  0.00    -0.048 A 
ATOM     18  C   UNL A   1      35.203  22.931  26.317  1.00  0.00     0.005 A 
ATOM     19  C   UNL A   1      34.430  21.338  24.683  1.00  0.00     0.005 A 
ATOM     20  C   UNL A   1      33.898  23.398  26.482  1.00  0.00     0.020 A 
ATOM     21  C   UNL A   1      33.114  21.784  24.861  1.00  0.00     0.020 A 
BRANCH  17  22
ATOM     22  C   UNL A   1      36.921  21.428  25.283  1.00  0.00     0.032 C 
ATOM     23  C   UNL A   1      37.998  22.414  25.716  1.00  0.00     0.009 C 
ENDBRANCH  17  22
ENDBRANCH  13  16
ENDBRANCH  12  13
ENDBRANCH   8  12
ENDBRANCH   4   7
ENDBRANCH   2   3
ENDBRANCH   1   2
BRANCH   1  24
ATOM     24  C   UNL A   1      32.143  29.875  27.174  1.00  0.00     0.002 C 
BRANCH  24  25
ATOM     25  C   UNL A   1      31.592  30.885  26.161  1.00  0.00     0.002 C 
BRANCH  25  26
ATOM     26  C   UNL A   1      31.400  32.307  26.696  1.00  0.00     0.021 C 
BRANCH  26  27
ATOM     27  C   UNL A   1      32.670  32.963  27.225  1.00  0.00     0.116 C 
BRANCH  27  28
ATOM     28  N   UNL A   1      32.439  34.328  27.667  1.00  0.00    -0.352 N 
ATOM     29  C   UNL A   1      33.005  35.015  28.712  1.00  0.00     0.251 C 
ATOM     30  H   UNL A   1      31.779  34.834  27.140  1.00  0.00     0.163 HD
ATOM     31  O   UNL A   1      32.542  36.097  29.060  1.00  0.00    -0.269 OA
BRANCH  29  32
ATOM     32  C   UNL A   1      34.162  34.443  29.432  1.00  0.00     0.039 A 
ATOM     33  C   UNL A   1      33.935  33.722  30.607  1.00  0.00     0.014 A 
ATOM     34  C   UNL A   1      35.465  34.630  28.965  1.00  0.00     0.014 A 
ATOM     35  C   UNL A   1      35.011  33.144  31.284  1.00  0.00     0.010 A 
ATOM     36  C   UNL A   1      36.528  33.989  29.595  1.00  0.00     0.010 A 
ATOM     37  C   UNL A   1      36.313  33.247  30.766  1.00  0.00    -0.014 A 
BRANCH  37  38
ATOM     38  C   UNL A   1      37.460  32.590  31.442  1.00  0.00     0.031 A 
ATOM     39  C   UNL A   1      38.167  31.436  30.787  1.00  0.00     0.074 A 
ATOM     40  C   UNL A   1      37.831  32.997  32.672  1.00  0.00     0.049 A 
ATOM     41  N   UNL A   1      39.154  30.703  31.239  1.00  0.00    -0.248 NA
ATOM     42  C   UNL A   1      37.681  31.033  29.459  1.00  0.00     0.031 C 
ATOM     43  C   UNL A   1      37.193  34.072  33.434  1.00  0.00     0.029 A 
ATOM     44  N   UNL A   1      38.826  32.547  33.503  1.00  0.00    -0.354 N 
ATOM     45  C   UNL A   1      39.394  29.748  30.260  1.00  0.00     0.074 A 
ATOM     46  C   UNL A   1      38.412  29.956  29.218  1.00  0.00     0.031 C 
ATOM     47  C   UNL A   1      37.828  34.216  34.606  1.00  0.00     0.029 A 
ATOM     48  C   UNL A   1      38.890  33.218  34.699  1.00  0.00     0.049 A 
ATOM     49  H   UNL A   1      39.437  31.813  33.263  1.00  0.00     0.167 HD
ATOM     50  C   UNL A   1      40.362  28.801  30.222  1.00  0.00     0.037 A 
ATOM     51  C   UNL A   1      39.707  33.044  35.755  1.00  0.00     0.037 A 
ATOM     52  C   UNL A   1      41.348  28.611  31.254  1.00  0.00     0.049 A 
ATOM     53  C   UNL A   1      40.769  31.979  35.693  1.00  0.00     0.074 A 
ATOM     54  C   UNL A   1      42.407  27.722  31.283  1.00  0.00     0.029 A 
ATOM     55  N   UNL A   1      41.388  29.319  32.448  1.00  0.00    -0.354 N 
ATOM     56  N   UNL A   1      41.036  31.131  34.730  1.00  0.00    -0.248 NA
ATOM     57  C   UNL A   1      41.647  31.852  36.864  1.00  0.00     0.031 C 
ATOM     58  C   UNL A   1      43.054  27.850  32.517  1.00  0.00     0.029 A 
ATOM     59  C   UNL A   1      42.437  28.865  33.232  1.00  0.00     0.049 A 
ATOM     60  H   UNL A   1      40.765  30.037  32.700  1.00  0.00     0.167 HD
ATOM     61  C   UNL A   1      42.130  30.392  35.162  1.00  0.00     0.074 A 
ATOM     62  C   UNL A   1      42.484  30.903  36.471  1.00  0.00     0.031 C 
ATOM     63  C   UNL A   1      42.781  29.384  34.532  1.00  0.00     0.037 A 
BRANCH  50  64
ATOM     64  C   UNL A   1      40.394  27.891  29.026  1.00  0.00     0.064 A 
ATOM     65  C   UNL A   1      41.167  28.186  27.891  1.00  0.00     0.173 A 
ATOM     66  C   UNL A   1      39.658  26.696  29.021  1.00  0.00     0.173 A 
ATOM     67  F   UNL A   1      41.883  29.320  27.838  1.00  0.00    -0.203 F 
ATOM     68  C   UNL A   1      41.171  27.341  26.784  1.00  0.00     0.198 A 
ATOM     69  C   UNL A   1      39.692  25.835  27.926  1.00  0.00     0.198 A 
ATOM     70  F   UNL A   1      38.907  26.359  30.080  1.00  0.00    -0.203 F 
ATOM     71  F   UNL A   1      41.866  27.678  25.689  1.00  0.00    -0.200 F 
ATOM     72  C   UNL A   1      40.438  26.164  26.805  1.00  0.00     0.200 A 
ATOM     73  F   UNL A   1      38.996  24.690  27.954  1.00  0.00    -0.200 F 
ATOM     74  F   UNL A   1      40.445  25.351  25.740  1.00  0.00    -0.200 F 
ENDBRANCH  50  64
BRANCH  51  75
ATOM     75  C   UNL A   1      39.568  33.919  36.949  1.00  0.00     0.064 A 
ATOM     76  C   UNL A   1      40.196  35.172  37.002  1.00  0.00     0.173 A 
ATOM     77  C   UNL A   1      38.802  33.527  38.056  1.00  0.00     0.173 A 
ATOM     78  F   UNL A   1      40.955  35.583  35.976  1.00  0.00    -0.203 F 
ATOM     79  C   UNL A   1      40.077  35.990  38.123  1.00  0.00     0.198 A 
ATOM     80  C   UNL A   1      38.658  34.359  39.163  1.00  0.00     0.198 A 
ATOM     81  F   UNL A   1      38.175  32.340  38.053  1.00  0.00    -0.203 F 
ATOM     82  F   UNL A   1      40.722  37.163  38.164  1.00  0.00    -0.200 F 
ATOM     83  C   UNL A   1      39.302  35.586  39.200  1.00  0.00     0.200 A 
ATOM     84  F   UNL A   1      37.894  33.972  40.194  1.00  0.00    -0.200 F 
ATOM     85  F   UNL A   1      39.180  36.377  40.274  1.00  0.00    -0.200 F 
ENDBRANCH  51  75
BRANCH  63  86
ATOM     86  C   UNL A   1      43.971  28.789  35.232  1.00  0.00     0.064 A 
ATOM     87  C   UNL A   1      45.270  29.279  35.033  1.00  0.00     0.173 A 
ATOM     88  C   UNL A   1      43.800  27.736  36.144  1.00  0.00     0.173 A 
ATOM     89  F   UNL A   1      45.490  30.274  34.161  1.00  0.00    -0.203 F 
ATOM     90  C   UNL A   1      46.357  28.715  35.697  1.00  0.00     0.198 A 
ATOM     91  C   UNL A   1      44.884  27.198  36.833  1.00  0.00     0.198 A 
ATOM     92  F   UNL A   1      42.578  27.234  36.379  1.00  0.00    -0.203 F 
ATOM     93  F   UNL A   1      47.596  29.164  35.450  1.00  0.00    -0.200 F 
ATOM     94  C   UNL A   1      46.162  27.683  36.603  1.00  0.00     0.200 A 
ATOM     95  F   UNL A   1      44.690  26.212  37.720  1.00  0.00    -0.200 F 
ATOM     96  F   UNL A   1      47.208  27.148  37.247  1.00  0.00    -0.200 F 
ENDBRANCH  63  86
ENDBRANCH  37  38
ENDBRANCH  29  32
ENDBRANCH  27  28
ENDBRANCH  26  27
ENDBRANCH  25  26
ENDBRANCH  24  25
ENDBRANCH   1  24
TORSDOF 17
ENDMDL
MODEL 2
REMARK VINA RESULT:     -11.6      4.840     10.781
REMARK SMILES CCc1ccc(S(=O)(=O)Cc2noc(C(=O)NCCCCCCNC(=O)c3ccc(-c4c5nc(c(-c6c(F)c(F)c(F)c(F)c6F)c6ccc([nH]6)c(-c6c(F)c(F)c(F)c(F)c6F)c6nc(c(-c7c(F)c(F)c(F)c(F)c7F)c7ccc4[nH]7)C=C6)C=C5)cc3)n2)cc1
REMARK SMILES IDX 19 1 18 2 17 3 15 4 16 5 14 7 11 8 12 9 90 10 13 11 10 12
REMARK SMILES IDX 7 13 8 14 9 15 6 16 3 17 4 18 92 19 5 20 91 21 2 22 1 23
REMARK SMILES IDX 20 24 21 25 22 26 23 27 24 28 25 29 26 31 27 32 28 33 89 34
REMARK SMILES IDX 29 35 88 36 30 37 31 38 32 39 82 40 33 41 87 42 81 43 83 44
REMARK SMILES IDX 34 45 86 46 80 47 79 48 35 50 67 51 47 52 66 53 48 54 51 55
REMARK SMILES IDX 65 56 84 57 49 58 50 59 64 61 85 62 52 63 36 64 37 65 45 66
REMARK SMILES IDX 38 67 39 68 43 69 46 70 40 71 41 72 44 73 42 74 68 75 69 76
REMARK SMILES IDX 77 77 70 78 71 79 75 80 78 81 72 82 73 83 76 84 74 85 53 86
REMARK SMILES IDX 54 87 62 88 55 89 56 90 60 91 63 92 57 93 58 94 61 95 59 96
REMARK H PARENT 17 6 24 30 83 49 51 60
REMARK Flexibility Score: inf
ROOT
ATOM      1  C   UNL A   1      37.883  34.063  31.589  1.00  0.00     0.021 C 
ENDROOT
BRANCH   1   2
ATOM      2  C   UNL A   1      37.842  32.614  32.069  1.00  0.00     0.116 C 
BRANCH   2   3
ATOM      3  N   UNL A   1      37.581  32.533  33.496  1.00  0.00    -0.348 N 
ATOM      4  C   UNL A   1      37.936  31.572  34.425  1.00  0.00     0.309 C 
ATOM      5  O   UNL A   1      37.500  31.742  35.569  1.00  0.00    -0.264 OA
ATOM      6  H   UNL A   1      37.065  33.287  33.863  1.00  0.00     0.163 HD
BRANCH   4   7
ATOM      7  C   UNL A   1      38.780  30.452  34.055  1.00  0.00     0.315 A 
ATOM      8  C   UNL A   1      40.324  29.057  33.736  1.00  0.00     0.187 A 
ATOM      9  N   UNL A   1      39.249  28.436  33.245  1.00  0.00    -0.061 NA
ATOM     10  N   UNL A   1      40.079  30.313  34.228  1.00  0.00    -0.186 NA
ATOM     11  O   UNL A   1      38.212  29.352  33.473  1.00  0.00    -0.329 OA
BRANCH   8  12
ATOM     12  C   UNL A   1      41.695  28.528  33.714  1.00  0.00     0.223 C 
BRANCH  12  13
ATOM     13  S   UNL A   1      42.288  27.880  35.242  1.00  0.00     0.185 S 
ATOM     14  O   UNL A   1      41.127  27.703  36.099  1.00  0.00    -0.223 OA
ATOM     15  O   UNL A   1      43.389  28.715  35.688  1.00  0.00    -0.223 OA
BRANCH  13  16
ATOM     16  C   UNL A   1      42.946  26.245  35.011  1.00  0.00     0.067 A 
ATOM     17  C   UNL A   1      43.857  23.599  34.712  1.00  0.00    -0.048 A 
ATOM     18  C   UNL A   1      42.563  23.863  35.185  1.00  0.00     0.005 A 
ATOM     19  C   UNL A   1      44.672  24.684  34.360  1.00  0.00     0.005 A 
ATOM     20  C   UNL A   1      42.113  25.173  35.346  1.00  0.00     0.020 A 
ATOM     21  C   UNL A   1      44.219  26.002  34.496  1.00  0.00     0.020 A 
BRANCH  17  22
ATOM     22  C   UNL A   1      44.279  22.157  34.532  1.00  0.00     0.032 C 
ATOM     23  C   UNL A   1      45.382  21.662  35.458  1.00  0.00     0.009 C 
ENDBRANCH  17  22
ENDBRANCH  13  16
ENDBRANCH  12  13
ENDBRANCH   8  12
ENDBRANCH   4   7
ENDBRANCH   2   3
ENDBRANCH   1   2
BRANCH   1  24
ATOM     24  C   UNL A   1      38.119  34.217  30.083  1.00  0.00     0.002 C 
BRANCH  24  25
ATOM     25  C   UNL A   1      37.432  33.164  29.205  1.00  0.00     0.002 C 
BRANCH  25  26
ATOM     26  C   UNL A   1      35.952  33.424  28.912  1.00  0.00     0.021 C 
BRANCH  26  27
ATOM     27  C   UNL A   1      34.986  32.549  29.704  1.00  0.00     0.116 C 
BRANCH  27  28
ATOM     28  N   UNL A   1      34.294  31.593  28.855  1.00  0.00    -0.352 N 
ATOM     29  C   UNL A   1      34.787  30.496  28.194  1.00  0.00     0.251 C 
ATOM     30  H   UNL A   1      33.330  31.756  28.738  1.00  0.00     0.163 HD
ATOM     31  O   UNL A   1      34.096  29.917  27.361  1.00  0.00    -0.269 OA
BRANCH  29  32
ATOM     32  C   UNL A   1      36.161  30.022  28.469  1.00  0.00     0.039 A 
ATOM     33  C   UNL A   1      37.125  30.130  27.464  1.00  0.00     0.014 A 
ATOM     34  C   UNL A   1      36.494  29.458  29.703  1.00  0.00     0.014 A 
ATOM     35  C   UNL A   1      38.436  29.721  27.714  1.00  0.00     0.010 A 
ATOM     36  C   UNL A   1      37.816  29.124  29.979  1.00  0.00     0.010 A 
ATOM     37  C   UNL A   1      38.799  29.243  28.984  1.00  0.00    -0.014 A 
BRANCH  37  38
ATOM     38  C   UNL A   1      40.201  28.857  29.286  1.00  0.00     0.031 A 
ATOM     39  C   UNL A   1      41.092  29.786  30.063  1.00  0.00     0.074 A 
ATOM     40  C   UNL A   1      40.688  27.694  28.811  1.00  0.00     0.049 A 
ATOM     41  N   UNL A   1      42.355  29.648  30.381  1.00  0.00    -0.248 NA
ATOM     42  C   UNL A   1      40.493  31.049  30.517  1.00  0.00     0.031 C 
ATOM     43  C   UNL A   1      39.939  26.731  28.003  1.00  0.00     0.029 A 
ATOM     44  N   UNL A   1      41.934  27.130  28.930  1.00  0.00    -0.354 N 
ATOM     45  C   UNL A   1      42.702  30.811  31.058  1.00  0.00     0.074 A 
ATOM     46  C   UNL A   1      41.536  31.667  31.051  1.00  0.00     0.031 C 
ATOM     47  C   UNL A   1      40.729  25.685  27.721  1.00  0.00     0.029 A 
ATOM     48  C   UNL A   1      42.052  25.920  28.291  1.00  0.00     0.049 A 
ATOM     49  H   UNL A   1      42.672  27.551  29.426  1.00  0.00     0.167 HD
ATOM     50  C   UNL A   1      43.879  31.124  31.652  1.00  0.00     0.037 A 
ATOM     51  C   UNL A   1      43.111  25.096  28.172  1.00  0.00     0.037 A 
ATOM     52  C   UNL A   1      45.030  30.261  31.671  1.00  0.00     0.049 A 
ATOM     53  C   UNL A   1      44.410  25.470  28.834  1.00  0.00     0.074 A 
ATOM     54  C   UNL A   1      46.247  30.458  32.298  1.00  0.00     0.029 A 
ATOM     55  N   UNL A   1      45.109  29.035  31.023  1.00  0.00    -0.354 N 
ATOM     56  N   UNL A   1      44.704  26.537  29.536  1.00  0.00    -0.248 NA
ATOM     57  C   UNL A   1      45.522  24.521  28.691  1.00  0.00     0.031 C 
ATOM     58  C   UNL A   1      47.083  29.382  31.982  1.00  0.00     0.029 A 
ATOM     59  C   UNL A   1      46.366  28.480  31.211  1.00  0.00     0.049 A 
ATOM     60  H   UNL A   1      44.381  28.622  30.506  1.00  0.00     0.167 HD
ATOM     61  C   UNL A   1      46.021  26.375  29.945  1.00  0.00     0.074 A 
ATOM     62  C   UNL A   1      46.464  25.098  29.423  1.00  0.00     0.031 C 
ATOM     63  C   UNL A   1      46.792  27.207  30.688  1.00  0.00     0.037 A 
BRANCH  50  64
ATOM     64  C   UNL A   1      43.979  32.465  32.325  1.00  0.00     0.064 A 
ATOM     65  C   UNL A   1      43.625  32.646  33.672  1.00  0.00     0.173 A 
ATOM     66  C   UNL A   1      44.456  33.581  31.620  1.00  0.00     0.173 A 
ATOM     67  F   UNL A   1      43.154  31.615  34.391  1.00  0.00    -0.203 F 
ATOM     68  C   UNL A   1      43.706  33.899  34.274  1.00  0.00     0.198 A 
ATOM     69  C   UNL A   1      44.569  34.825  32.236  1.00  0.00     0.198 A 
ATOM     70  F   UNL A   1      44.815  33.466  30.333  1.00  0.00    -0.203 F 
ATOM     71  F   UNL A   1      43.301  34.059  35.542  1.00  0.00    -0.200 F 
ATOM     72  C   UNL A   1      44.184  34.986  33.558  1.00  0.00     0.200 A 
ATOM     73  F   UNL A   1      45.046  35.871  31.547  1.00  0.00    -0.200 F 
ATOM     74  F   UNL A   1      44.264  36.190  34.140  1.00  0.00    -0.200 F 
ENDBRANCH  50  64
BRANCH  51  75
ATOM     75  C   UNL A   1      42.975  23.823  27.417  1.00  0.00     0.064 A 
ATOM     76  C   UNL A   1      42.473  22.668  28.034  1.00  0.00     0.173 A 
ATOM     77  C   UNL A   1      43.335  23.734  26.064  1.00  0.00     0.173 A 
ATOM     78  F   UNL A   1      42.133  22.697  29.331  1.00  0.00    -0.203 F 
ATOM     79  C   UNL A   1      42.354  21.470  27.333  1.00  0.00     0.198 A 
ATOM     80  C   UNL A   1      43.186  22.545  25.356  1.00  0.00     0.198 A 
ATOM     81  F   UNL A   1      43.814  24.812  25.425  1.00  0.00    -0.203 F 
ATOM     82  F   UNL A   1      41.912  20.372  27.959  1.00  0.00    -0.200 F 
ATOM     83  C   UNL A   1      42.704  21.411  25.991  1.00  0.00     0.200 A 
ATOM     84  F   UNL A   1      43.508  22.497  24.055  1.00  0.00    -0.200 F 
ATOM     85  F   UNL A   1      42.580  20.262  25.315  1.00  0.00    -0.200 F 
ENDBRANCH  51  75
BRANCH  63  86
ATOM     86  C   UNL A   1      48.186  26.747  31.013  1.00  0.00     0.064 A 
ATOM     87  C   UNL A   1      48.457  25.929  32.120  1.00  0.00     0.173 A 
ATOM     88  C   UNL A   1      49.260  27.102  30.181  1.00  0.00     0.173 A 
ATOM     89  F   UNL A   1      47.470  25.573  32.955  1.00  0.00    -0.203 F 
ATOM     90  C   UNL A   1      49.756  25.510  32.399  1.00  0.00     0.198 A 
ATOM     91  C   UNL A   1      50.551  26.652  30.444  1.00  0.00     0.198 A 
ATOM     92  F   UNL A   1      49.056  27.877  29.105  1.00  0.00    -0.203 F 
ATOM     93  F   UNL A   1      49.999  24.774  33.493  1.00  0.00    -0.200 F 
ATOM     94  C   UNL A   1      50.799  25.864  31.556  1.00  0.00     0.200 A 
ATOM     95  F   UNL A   1      51.554  26.982  29.619  1.00  0.00    -0.200 F 
ATOM     96  F   UNL A   1      52.047  25.452  31.822  1.00  0.00    -0.200 F 
ENDBRANCH  63  86
ENDBRANCH  37  38
ENDBRANCH  29  32
ENDBRANCH  27  28
ENDBRANCH  26  27
ENDBRANCH  25  26
ENDBRANCH  24  25
ENDBRANCH   1  24
TORSDOF 17
ENDMDL
MODEL 3
REMARK VINA RESULT:     -11.5      1.742      7.543
REMARK SMILES CCc1ccc(S(=O)(=O)Cc2noc(C(=O)NCCCCCCNC(=O)c3ccc(-c4c5nc(c(-c6c(F)c(F)c(F)c(F)c6F)c6ccc([nH]6)c(-c6c(F)c(F)c(F)c(F)c6F)c6nc(c(-c7c(F)c(F)c(F)c(F)c7F)c7ccc4[nH]7)C=C6)C=C5)cc3)n2)cc1
REMARK SMILES IDX 19 1 18 2 17 3 15 4 16 5 14 7 11 8 12 9 90 10 13 11 10 12
REMARK SMILES IDX 7 13 8 14 9 15 6 16 3 17 4 18 92 19 5 20 91 21 2 22 1 23
REMARK SMILES IDX 20 24 21 25 22 26 23 27 24 28 25 29 26 31 27 32 28 33 89 34
REMARK SMILES IDX 29 35 88 36 30 37 31 38 32 39 82 40 33 41 87 42 81 43 83 44
REMARK SMILES IDX 34 45 86 46 80 47 79 48 35 50 67 51 47 52 66 53 48 54 51 55
REMARK SMILES IDX 65 56 84 57 49 58 50 59 64 61 85 62 52 63 36 64 37 65 45 66
REMARK SMILES IDX 38 67 39 68 43 69 46 70 40 71 41 72 44 73 42 74 68 75 69 76
REMARK SMILES IDX 77 77 70 78 71 79 75 80 78 81 72 82 73 83 76 84 74 85 53 86
REMARK SMILES IDX 54 87 62 88 55 89 56 90 60 91 63 92 57 93 58 94 61 95 59 96
REMARK H PARENT 17 6 24 30 83 49 51 60
REMARK Flexibility Score: inf
ROOT
ATOM      1  C   UNL A   1      33.513  31.550  27.398  1.00  0.00     0.021 C 
ENDROOT
BRANCH   1   2
ATOM      2  C   UNL A   1      33.733  30.096  26.987  1.00  0.00     0.116 C 
BRANCH   2   3
ATOM      3  N   UNL A   1      32.779  29.211  27.632  1.00  0.00    -0.348 N 
ATOM      4  C   UNL A   1      31.772  28.428  27.098  1.00  0.00     0.309 C 
ATOM      5  O   UNL A   1      31.063  27.829  27.916  1.00  0.00    -0.264 OA
ATOM      6  H   UNL A   1      32.861  29.160  28.612  1.00  0.00     0.163 HD
BRANCH   4   7
ATOM      7  C   UNL A   1      31.590  28.322  25.663  1.00  0.00     0.315 A 
ATOM      8  C   UNL A   1      31.405  27.731  23.651  1.00  0.00     0.187 A 
ATOM      9  N   UNL A   1      31.060  29.020  23.621  1.00  0.00    -0.061 NA
ATOM     10  N   UNL A   1      31.759  27.266  24.892  1.00  0.00    -0.186 NA
ATOM     11  O   UNL A   1      31.161  29.416  24.962  1.00  0.00    -0.329 OA
BRANCH   8  12
ATOM     12  C   UNL A   1      31.493  26.847  22.480  1.00  0.00     0.223 C 
BRANCH  12  13
ATOM     13  S   UNL A   1      33.118  26.333  22.031  1.00  0.00     0.185 S 
ATOM     14  O   UNL A   1      34.030  27.347  22.536  1.00  0.00    -0.223 OA
ATOM     15  O   UNL A   1      33.114  26.012  20.615  1.00  0.00    -0.223 OA
BRANCH  13  16
ATOM     16  C   UNL A   1      33.560  24.843  22.894  1.00  0.00     0.067 A 
ATOM     17  C   UNL A   1      34.355  22.570  24.351  1.00  0.00    -0.048 A 
ATOM     18  C   UNL A   1      34.767  23.853  24.742  1.00  0.00     0.005 A 
ATOM     19  C   UNL A   1      33.509  22.452  23.238  1.00  0.00     0.005 A 
ATOM     20  C   UNL A   1      34.385  24.980  24.014  1.00  0.00     0.020 A 
ATOM     21  C   UNL A   1      33.102  23.581  22.517  1.00  0.00     0.020 A 
BRANCH  17  22
ATOM     22  C   UNL A   1      34.777  21.388  25.196  1.00  0.00     0.032 C 
ATOM     23  C   UNL A   1      34.048  20.078  24.925  1.00  0.00     0.009 C 
ENDBRANCH  17  22
ENDBRANCH  13  16
ENDBRANCH  12  13
ENDBRANCH   8  12
ENDBRANCH   4   7
ENDBRANCH   2   3
ENDBRANCH   1   2
BRANCH   1  24
ATOM     24  C   UNL A   1      34.503  32.060  28.451  1.00  0.00     0.002 C 
BRANCH  24  25
ATOM     25  C   UNL A   1      34.622  33.586  28.548  1.00  0.00     0.002 C 
BRANCH  25  26
ATOM     26  C   UNL A   1      33.299  34.332  28.740  1.00  0.00     0.021 C 
BRANCH  26  27
ATOM     27  C   UNL A   1      33.449  35.785  29.179  1.00  0.00     0.116 C 
BRANCH  27  28
ATOM     28  N   UNL A   1      32.599  36.103  30.314  1.00  0.00    -0.352 N 
ATOM     29  C   UNL A   1      32.692  35.685  31.618  1.00  0.00     0.251 C 
ATOM     30  H   UNL A   1      31.847  36.708  30.120  1.00  0.00     0.163 HD
ATOM     31  O   UNL A   1      31.769  35.896  32.399  1.00  0.00    -0.269 OA
BRANCH  29  32
ATOM     32  C   UNL A   1      33.896  34.962  32.080  1.00  0.00     0.039 A 
ATOM     33  C   UNL A   1      33.797  33.596  32.357  1.00  0.00     0.014 A 
ATOM     34  C   UNL A   1      35.112  35.627  32.256  1.00  0.00     0.014 A 
ATOM     35  C   UNL A   1      34.930  32.887  32.760  1.00  0.00     0.010 A 
ATOM     36  C   UNL A   1      36.257  34.906  32.581  1.00  0.00     0.010 A 
ATOM     37  C   UNL A   1      36.176  33.530  32.846  1.00  0.00    -0.014 A 
BRANCH  37  38
ATOM     38  C   UNL A   1      37.402  32.780  33.218  1.00  0.00     0.031 A 
ATOM     39  C   UNL A   1      38.117  33.087  34.504  1.00  0.00     0.074 A 
ATOM     40  C   UNL A   1      37.904  31.861  32.370  1.00  0.00     0.049 A 
ATOM     41  N   UNL A   1      39.227  32.577  34.978  1.00  0.00    -0.248 NA
ATOM     42  C   UNL A   1      37.523  34.125  35.358  1.00  0.00     0.031 C 
ATOM     43  C   UNL A   1      37.330  31.509  31.070  1.00  0.00     0.029 A 
ATOM     44  N   UNL A   1      39.016  31.063  32.470  1.00  0.00    -0.354 N 
ATOM     45  C   UNL A   1      39.467  33.242  36.174  1.00  0.00     0.074 A 
ATOM     46  C   UNL A   1      38.424  34.233  36.323  1.00  0.00     0.031 C 
ATOM     47  C   UNL A   1      38.078  30.549  30.506  1.00  0.00     0.029 A 
ATOM     48  C   UNL A   1      39.206  30.247  31.382  1.00  0.00     0.049 A 
ATOM     49  H   UNL A   1      39.620  31.074  33.247  1.00  0.00     0.167 HD
ATOM     50  C   UNL A   1      40.455  33.028  37.076  1.00  0.00     0.037 A 
ATOM     51  C   UNL A   1      40.184  29.360  31.117  1.00  0.00     0.037 A 
ATOM     52  C   UNL A   1      41.480  32.028  36.931  1.00  0.00     0.049 A 
ATOM     53  C   UNL A   1      41.276  29.146  32.131  1.00  0.00     0.074 A 
ATOM     54  C   UNL A   1      42.488  31.690  37.816  1.00  0.00     0.029 A 
ATOM     55  N   UNL A   1      41.634  31.210  35.819  1.00  0.00    -0.354 N 
ATOM     56  N   UNL A   1      41.451  29.726  33.293  1.00  0.00    -0.248 NA
ATOM     57  C   UNL A   1      42.301  28.148  31.798  1.00  0.00     0.031 C 
ATOM     58  C   UNL A   1      43.287  30.709  37.217  1.00  0.00     0.029 A 
ATOM     59  C   UNL A   1      42.739  30.389  35.985  1.00  0.00     0.049 A 
ATOM     60  H   UNL A   1      41.046  31.213  35.031  1.00  0.00     0.167 HD
ATOM     61  C   UNL A   1      42.585  29.144  33.844  1.00  0.00     0.074 A 
ATOM     62  C   UNL A   1      43.048  28.155  32.894  1.00  0.00     0.031 C 
ATOM     63  C   UNL A   1      43.186  29.405  35.031  1.00  0.00     0.037 A 
BRANCH  50  64
ATOM     64  C   UNL A   1      40.476  33.901  38.300  1.00  0.00     0.064 A 
ATOM     65  C   UNL A   1      41.234  35.082  38.355  1.00  0.00     0.173 A 
ATOM     66  C   UNL A   1      39.710  33.564  39.426  1.00  0.00     0.173 A 
ATOM     67  F   UNL A   1      41.992  35.447  37.310  1.00  0.00    -0.203 F 
ATOM     68  C   UNL A   1      41.256  35.869  39.504  1.00  0.00     0.198 A 
ATOM     69  C   UNL A   1      39.707  34.373  40.561  1.00  0.00     0.198 A 
ATOM     70  F   UNL A   1      38.961  32.452  39.428  1.00  0.00    -0.203 F 
ATOM     71  F   UNL A   1      42.038  36.956  39.554  1.00  0.00    -0.200 F 
ATOM     72  C   UNL A   1      40.488  35.517  40.604  1.00  0.00     0.200 A 
ATOM     73  F   UNL A   1      38.952  34.040  41.617  1.00  0.00    -0.200 F 
ATOM     74  F   UNL A   1      40.508  36.277  41.707  1.00  0.00    -0.200 F 
ENDBRANCH  50  64
BRANCH  51  75
ATOM     75  C   UNL A   1      40.158  28.589  29.846  1.00  0.00     0.064 A 
ATOM     76  C   UNL A   1      40.761  29.092  28.684  1.00  0.00     0.173 A 
ATOM     77  C   UNL A   1      39.537  27.333  29.766  1.00  0.00     0.173 A 
ATOM     78  F   UNL A   1      41.351  30.296  28.706  1.00  0.00    -0.203 F 
ATOM     79  C   UNL A   1      40.729  28.378  27.489  1.00  0.00     0.198 A 
ATOM     80  C   UNL A   1      39.533  26.606  28.579  1.00  0.00     0.198 A 
ATOM     81  F   UNL A   1      38.952  26.804  30.851  1.00  0.00    -0.203 F 
ATOM     82  F   UNL A   1      41.277  28.902  26.384  1.00  0.00    -0.200 F 
ATOM     83  C   UNL A   1      40.122  27.132  27.439  1.00  0.00     0.200 A 
ATOM     84  F   UNL A   1      38.961  25.395  28.539  1.00  0.00    -0.200 F 
ATOM     85  F   UNL A   1      40.100  26.441  26.291  1.00  0.00    -0.200 F 
ENDBRANCH  51  75
BRANCH  63  86
ATOM     86  C   UNL A   1      44.392  28.582  35.388  1.00  0.00     0.064 A 
ATOM     87  C   UNL A   1      44.283  27.372  36.089  1.00  0.00     0.173 A 
ATOM     88  C   UNL A   1      45.673  28.994  34.988  1.00  0.00     0.173 A 
ATOM     89  F   UNL A   1      43.084  26.940  36.507  1.00  0.00    -0.203 F 
ATOM     90  C   UNL A   1      45.413  26.622  36.404  1.00  0.00     0.198 A 
ATOM     91  C   UNL A   1      46.798  28.224  35.274  1.00  0.00     0.198 A 
ATOM     92  F   UNL A   1      45.835  30.140  34.308  1.00  0.00    -0.203 F 
ATOM     93  F   UNL A   1      45.289  25.497  37.122  1.00  0.00    -0.200 F 
ATOM     94  C   UNL A   1      46.668  27.043  35.988  1.00  0.00     0.200 A 
ATOM     95  F   UNL A   1      48.006  28.625  34.857  1.00  0.00    -0.200 F 
ATOM     96  F   UNL A   1      47.753  26.316  36.284  1.00  0.00    -0.200 F 
ENDBRANCH  63  86
ENDBRANCH  37  38
ENDBRANCH  29  32
ENDBRANCH  27  28
ENDBRANCH  26  27
ENDBRANCH  25  26
ENDBRANCH  24  25
ENDBRANCH   1  24
TORSDOF 17
ENDMDL
