MODEL 1
REMARK VINA RESULT:     -12.4      0.000      0.000
REMARK SMILES Cc1nn(CC(=O)NCCCCCCNC(=O)c2ccc(-c3c4nc(c(-c5c(F)c(F)c(F)c(F)c5F)c5ccc([nH]5)c(-c5c(F)c(F)c(F)c(F)c5F)c5nc(c(-c6c(F)c(F)c(F)c(F)c6F)c6ccc3[nH]6)C=C5)C=C4)cc2)c(C)c1NC(=O)C(=O)Nc1ccc(F)cc1
REMARK SMILES IDX 10 1 9 2 8 3 6 4 7 5 5 7 4 8 1 9 2 10 3 11 83 12 81 13 82 14
REMARK SMILES IDX 84 15 85 16 86 18 87 19 88 20 89 21 90 23 91 24 96 25 92 26
REMARK SMILES IDX 95 27 93 28 94 29 11 30 12 31 13 32 14 33 15 34 16 35 17 37
REMARK SMILES IDX 18 38 19 39 80 40 20 41 79 42 21 43 22 44 23 45 73 46 24 47
REMARK SMILES IDX 78 48 72 49 74 50 25 51 77 52 71 53 70 54 26 56 58 57 38 58
REMARK SMILES IDX 57 59 39 60 42 61 56 62 75 63 40 64 41 65 55 67 76 68 43 69
REMARK SMILES IDX 27 70 28 71 36 72 29 73 30 74 34 75 37 76 31 77 32 78 35 79
REMARK SMILES IDX 33 80 59 81 60 82 68 83 61 84 62 85 66 86 69 87 63 88 64 89
REMARK SMILES IDX 67 90 65 91 44 92 45 93 53 94 46 95 47 96 51 97 54 98 48 99
REMARK SMILES IDX 49 100 52 101 50 102
REMARK H PARENT 8 6 84 17 89 22 15 36 74 55 42 66
REMARK Flexibility Score: inf
ROOT
ATOM      1  C   UNL A   1      39.083  22.603  26.500  1.00  0.00     0.021 C 
ENDROOT
BRANCH   1   2
ATOM      2  C   UNL A   1      37.895  22.402  25.565  1.00  0.00     0.116 C 
BRANCH   2   3
ATOM      3  N   UNL A   1      36.715  21.946  26.266  1.00  0.00    -0.354 N 
ATOM      4  C   UNL A   1      35.413  21.830  25.882  1.00  0.00     0.241 C 
ATOM      5  O   UNL A   1      34.629  21.424  26.750  1.00  0.00    -0.273 OA
ATOM      6  H   UNL A   1      36.884  21.668  27.197  1.00  0.00     0.163 HD
BRANCH   4   7
ATOM      7  C   UNL A   1      34.930  21.997  24.456  1.00  0.00     0.244 C 
BRANCH   7   8
ATOM      8  N   UNL A   1      34.403  23.306  24.113  1.00  0.00    -0.258 N 
ATOM      9  C   UNL A   1      34.283  26.720  24.962  1.00  0.00     0.071 C 
ATOM     10  C   UNL A   1      34.121  25.381  24.350  1.00  0.00     0.083 A 
ATOM     11  N   UNL A   1      34.768  24.345  24.874  1.00  0.00    -0.175 NA
ATOM     12  C   UNL A   1      33.329  25.016  23.218  1.00  0.00     0.086 A 
ATOM     13  C   UNL A   1      33.527  23.648  23.092  1.00  0.00     0.060 A 
ATOM     14  C   UNL A   1      33.092  22.626  22.099  1.00  0.00     0.069 C 
BRANCH  12  15
ATOM     15  N   UNL A   1      32.614  25.958  22.495  1.00  0.00    -0.315 N 
ATOM     16  C   UNL A   1      31.326  26.429  22.524  1.00  0.00     0.314 C 
ATOM     17  H   UNL A   1      33.159  26.390  21.799  1.00  0.00     0.170 HD
ATOM     18  O   UNL A   1      30.976  27.284  21.712  1.00  0.00    -0.263 OA
BRANCH  16  19
ATOM     19  C   UNL A   1      30.376  25.994  23.617  1.00  0.00     0.314 C 
ATOM     20  O   UNL A   1      29.962  24.837  23.616  1.00  0.00    -0.263 OA
ATOM     21  N   UNL A   1      29.947  26.879  24.594  1.00  0.00    -0.318 N 
ATOM     22  H   UNL A   1      28.977  26.968  24.740  1.00  0.00     0.170 HD
BRANCH  21  23
ATOM     23  C   UNL A   1      30.805  27.658  25.390  1.00  0.00     0.041 A 
ATOM     24  C   UNL A   1      31.182  28.892  24.838  1.00  0.00     0.029 A 
ATOM     25  C   UNL A   1      31.224  27.318  26.675  1.00  0.00     0.029 A 
ATOM     26  C   UNL A   1      31.865  29.827  25.608  1.00  0.00     0.041 A 
ATOM     27  C   UNL A   1      31.930  28.251  27.440  1.00  0.00     0.041 A 
ATOM     28  C   UNL A   1      32.219  29.506  26.911  1.00  0.00     0.123 A 
ATOM     29  F   UNL A   1      32.839  30.419  27.668  1.00  0.00    -0.207 F 
ENDBRANCH  21  23
ENDBRANCH  16  19
ENDBRANCH  12  15
ENDBRANCH   7   8
ENDBRANCH   4   7
ENDBRANCH   2   3
ENDBRANCH   1   2
BRANCH   1  30
ATOM     30  C   UNL A   1      40.276  21.701  26.173  1.00  0.00     0.002 C 
BRANCH  30  31
ATOM     31  C   UNL A   1      41.168  21.311  27.365  1.00  0.00     0.002 C 
BRANCH  31  32
ATOM     32  C   UNL A   1      42.165  20.163  27.146  1.00  0.00     0.021 C 
BRANCH  32  33
ATOM     33  C   UNL A   1      42.288  19.716  25.699  1.00  0.00     0.116 C 
BRANCH  33  34
ATOM     34  N   UNL A   1      43.682  19.610  25.243  1.00  0.00    -0.352 N 
ATOM     35  C   UNL A   1      44.562  20.613  24.851  1.00  0.00     0.251 C 
ATOM     36  H   UNL A   1      44.046  18.696  25.211  1.00  0.00     0.163 HD
ATOM     37  O   UNL A   1      45.537  20.372  24.165  1.00  0.00    -0.269 OA
BRANCH  35  38
ATOM     38  C   UNL A   1      44.293  21.988  25.312  1.00  0.00     0.039 A 
ATOM     39  C   UNL A   1      43.383  22.856  24.701  1.00  0.00     0.014 A 
ATOM     40  C   UNL A   1      44.968  22.374  26.454  1.00  0.00     0.014 A 
ATOM     41  C   UNL A   1      43.161  24.099  25.295  1.00  0.00     0.010 A 
ATOM     42  C   UNL A   1      44.458  23.378  27.208  1.00  0.00     0.010 A 
ATOM     43  C   UNL A   1      43.722  24.345  26.556  1.00  0.00    -0.014 A 
BRANCH  43  44
ATOM     44  C   UNL A   1      43.561  25.577  27.307  1.00  0.00     0.031 A 
ATOM     45  C   UNL A   1      44.529  26.630  26.934  1.00  0.00     0.074 A 
ATOM     46  C   UNL A   1      42.440  25.826  28.027  1.00  0.00     0.049 A 
ATOM     47  N   UNL A   1      45.488  27.107  27.652  1.00  0.00    -0.248 NA
ATOM     48  C   UNL A   1      44.534  27.096  25.537  1.00  0.00     0.031 C 
ATOM     49  C   UNL A   1      41.234  24.993  28.180  1.00  0.00     0.029 A 
ATOM     50  N   UNL A   1      42.095  26.952  28.707  1.00  0.00    -0.354 N 
ATOM     51  C   UNL A   1      46.079  28.095  26.873  1.00  0.00     0.074 A 
ATOM     52  C   UNL A   1      45.611  27.884  25.529  1.00  0.00     0.031 C 
ATOM     53  C   UNL A   1      40.230  25.726  28.712  1.00  0.00     0.029 A 
ATOM     54  C   UNL A   1      40.758  27.019  29.095  1.00  0.00     0.049 A 
ATOM     55  H   UNL A   1      42.742  27.666  28.908  1.00  0.00     0.167 HD
ATOM     56  C   UNL A   1      46.664  29.176  27.455  1.00  0.00     0.037 A 
ATOM     57  C   UNL A   1      40.144  28.086  29.670  1.00  0.00     0.037 A 
ATOM     58  C   UNL A   1      46.903  28.939  28.860  1.00  0.00     0.049 A 
ATOM     59  C   UNL A   1      41.219  28.960  30.209  1.00  0.00     0.074 A 
ATOM     60  C   UNL A   1      47.622  28.002  29.577  1.00  0.00     0.029 A 
ATOM     61  N   UNL A   1      46.022  29.492  29.759  1.00  0.00    -0.354 N 
ATOM     62  N   UNL A   1      41.993  28.619  31.203  1.00  0.00    -0.248 NA
ATOM     63  C   UNL A   1      41.748  29.987  29.324  1.00  0.00     0.031 C 
ATOM     64  C   UNL A   1      46.806  27.694  30.708  1.00  0.00     0.029 A 
ATOM     65  C   UNL A   1      45.678  28.514  30.658  1.00  0.00     0.049 A 
ATOM     66  H   UNL A   1      45.699  30.421  29.760  1.00  0.00     0.167 HD
ATOM     67  C   UNL A   1      43.256  29.060  30.832  1.00  0.00     0.074 A 
ATOM     68  C   UNL A   1      43.030  29.953  29.697  1.00  0.00     0.031 C 
ATOM     69  C   UNL A   1      44.379  28.426  31.283  1.00  0.00     0.037 A 
BRANCH  56  70
ATOM     70  C   UNL A   1      46.639  30.570  26.873  1.00  0.00     0.064 A 
ATOM     71  C   UNL A   1      47.834  31.318  26.864  1.00  0.00     0.173 A 
ATOM     72  C   UNL A   1      45.461  31.306  26.614  1.00  0.00     0.173 A 
ATOM     73  F   UNL A   1      49.012  30.724  27.107  1.00  0.00    -0.203 F 
ATOM     74  C   UNL A   1      47.835  32.705  26.705  1.00  0.00     0.198 A 
ATOM     75  C   UNL A   1      45.473  32.683  26.400  1.00  0.00     0.198 A 
ATOM     76  F   UNL A   1      44.242  30.760  26.671  1.00  0.00    -0.203 F 
ATOM     77  F   UNL A   1      48.979  33.388  26.843  1.00  0.00    -0.200 F 
ATOM     78  C   UNL A   1      46.654  33.388  26.483  1.00  0.00     0.200 A 
ATOM     79  F   UNL A   1      44.314  33.326  26.203  1.00  0.00    -0.200 F 
ATOM     80  F   UNL A   1      46.642  34.724  26.400  1.00  0.00    -0.200 F 
ENDBRANCH  56  70
BRANCH  57  81
ATOM     81  C   UNL A   1      38.748  28.562  29.519  1.00  0.00     0.064 A 
ATOM     82  C   UNL A   1      37.945  28.838  30.640  1.00  0.00     0.173 A 
ATOM     83  C   UNL A   1      38.275  29.039  28.282  1.00  0.00     0.173 A 
ATOM     84  F   UNL A   1      38.344  28.460  31.862  1.00  0.00    -0.203 F 
ATOM     85  C   UNL A   1      36.757  29.573  30.534  1.00  0.00     0.198 A 
ATOM     86  C   UNL A   1      37.087  29.767  28.181  1.00  0.00     0.198 A 
ATOM     87  F   UNL A   1      39.008  28.902  27.167  1.00  0.00    -0.203 F 
ATOM     88  F   UNL A   1      36.054  29.876  31.634  1.00  0.00    -0.200 F 
ATOM     89  C   UNL A   1      36.337  30.048  29.305  1.00  0.00     0.200 A 
ATOM     90  F   UNL A   1      36.707  30.262  26.997  1.00  0.00    -0.200 F 
ATOM     91  F   UNL A   1      35.240  30.813  29.206  1.00  0.00    -0.200 F 
ENDBRANCH  57  81
BRANCH  69  92
ATOM     92  C   UNL A   1      44.210  27.396  32.366  1.00  0.00     0.064 A 
ATOM     93  C   UNL A   1      44.139  26.010  32.135  1.00  0.00     0.173 A 
ATOM     94  C   UNL A   1      44.256  27.819  33.700  1.00  0.00     0.173 A 
ATOM     95  F   UNL A   1      44.189  25.515  30.894  1.00  0.00    -0.203 F 
ATOM     96  C   UNL A   1      44.075  25.098  33.188  1.00  0.00     0.198 A 
ATOM     97  C   UNL A   1      44.226  26.905  34.751  1.00  0.00     0.198 A 
ATOM     98  F   UNL A   1      44.380  29.125  33.984  1.00  0.00    -0.203 F 
ATOM     99  F   UNL A   1      43.997  23.782  32.936  1.00  0.00    -0.200 F 
ATOM    100  C   UNL A   1      44.124  25.548  34.496  1.00  0.00     0.200 A 
ATOM    101  F   UNL A   1      44.323  27.342  36.014  1.00  0.00    -0.200 F 
ATOM    102  F   UNL A   1      44.099  24.672  35.510  1.00  0.00    -0.200 F 
ENDBRANCH  69  92
ENDBRANCH  43  44
ENDBRANCH  35  38
ENDBRANCH  33  34
ENDBRANCH  32  33
ENDBRANCH  31  32
ENDBRANCH  30  31
ENDBRANCH   1  30
TORSDOF 17
ENDMDL
MODEL 2
REMARK VINA RESULT:     -12.1      1.461      2.107
REMARK SMILES Cc1nn(CC(=O)NCCCCCCNC(=O)c2ccc(-c3c4nc(c(-c5c(F)c(F)c(F)c(F)c5F)c5ccc([nH]5)c(-c5c(F)c(F)c(F)c(F)c5F)c5nc(c(-c6c(F)c(F)c(F)c(F)c6F)c6ccc3[nH]6)C=C5)C=C4)cc2)c(C)c1NC(=O)C(=O)Nc1ccc(F)cc1
REMARK SMILES IDX 10 1 9 2 8 3 6 4 7 5 5 7 4 8 1 9 2 10 3 11 83 12 81 13 82 14
REMARK SMILES IDX 84 15 85 16 86 18 87 19 88 20 89 21 90 23 91 24 96 25 92 26
REMARK SMILES IDX 95 27 93 28 94 29 11 30 12 31 13 32 14 33 15 34 16 35 17 37
REMARK SMILES IDX 18 38 19 39 80 40 20 41 79 42 21 43 22 44 23 45 73 46 24 47
REMARK SMILES IDX 78 48 72 49 74 50 25 51 77 52 71 53 70 54 26 56 58 57 38 58
REMARK SMILES IDX 57 59 39 60 42 61 56 62 75 63 40 64 41 65 55 67 76 68 43 69
REMARK SMILES IDX 27 70 28 71 36 72 29 73 30 74 34 75 37 76 31 77 32 78 35 79
REMARK SMILES IDX 33 80 59 81 60 82 68 83 61 84 62 85 66 86 69 87 63 88 64 89
REMARK SMILES IDX 67 90 65 91 44 92 45 93 53 94 46 95 47 96 51 97 54 98 48 99
REMARK SMILES IDX 49 100 52 101 50 102
REMARK H PARENT 8 6 84 17 89 22 15 36 74 55 42 66
REMARK Flexibility Score: inf
ROOT
ATOM      1  C   UNL A   1      40.471  21.555  27.250  1.00  0.00     0.021 C 
ENDROOT
BRANCH   1   2
ATOM      2  C   UNL A   1      39.468  21.668  26.106  1.00  0.00     0.116 C 
BRANCH   2   3
ATOM      3  N   UNL A   1      38.608  22.823  26.242  1.00  0.00    -0.354 N 
ATOM      4  C   UNL A   1      37.598  23.305  25.465  1.00  0.00     0.241 C 
ATOM      5  O   UNL A   1      37.070  24.354  25.857  1.00  0.00    -0.273 OA
ATOM      6  H   UNL A   1      38.785  23.362  27.048  1.00  0.00     0.163 HD
BRANCH   4   7
ATOM      7  C   UNL A   1      36.998  22.558  24.292  1.00  0.00     0.244 C 
BRANCH   7   8
ATOM      8  N   UNL A   1      35.552  22.627  24.166  1.00  0.00    -0.258 N 
ATOM      9  C   UNL A   1      32.840  23.851  22.287  1.00  0.00     0.071 C 
ATOM     10  C   UNL A   1      33.732  23.208  23.279  1.00  0.00     0.083 A 
ATOM     11  N   UNL A   1      35.049  23.284  23.115  1.00  0.00    -0.175 NA
ATOM     12  C   UNL A   1      33.368  22.477  24.452  1.00  0.00     0.086 A 
ATOM     13  C   UNL A   1      34.583  22.116  25.017  1.00  0.00     0.060 A 
ATOM     14  C   UNL A   1      34.973  21.281  26.188  1.00  0.00     0.069 C 
BRANCH  12  15
ATOM     15  N   UNL A   1      32.042  22.238  24.779  1.00  0.00    -0.315 N 
ATOM     16  C   UNL A   1      31.253  22.489  25.873  1.00  0.00     0.314 C 
ATOM     17  H   UNL A   1      31.553  21.782  24.057  1.00  0.00     0.170 HD
ATOM     18  O   UNL A   1      30.079  22.126  25.868  1.00  0.00    -0.263 OA
BRANCH  16  19
ATOM     19  C   UNL A   1      31.784  23.312  27.026  1.00  0.00     0.314 C 
ATOM     20  O   UNL A   1      32.387  22.741  27.933  1.00  0.00    -0.263 OA
ATOM     21  N   UNL A   1      31.577  24.680  27.091  1.00  0.00    -0.318 N 
ATOM     22  H   UNL A   1      31.182  25.048  27.914  1.00  0.00     0.170 HD
BRANCH  21  23
ATOM     23  C   UNL A   1      31.896  25.580  26.057  1.00  0.00     0.041 A 
ATOM     24  C   UNL A   1      33.262  25.853  25.897  1.00  0.00     0.029 A 
ATOM     25  C   UNL A   1      30.971  26.132  25.172  1.00  0.00     0.029 A 
ATOM     26  C   UNL A   1      33.712  26.570  24.793  1.00  0.00     0.041 A 
ATOM     27  C   UNL A   1      31.423  26.870  24.074  1.00  0.00     0.041 A 
ATOM     28  C   UNL A   1      32.789  27.058  23.879  1.00  0.00     0.123 A 
ATOM     29  F   UNL A   1      33.221  27.711  22.793  1.00  0.00    -0.207 F 
ENDBRANCH  21  23
ENDBRANCH  16  19
ENDBRANCH  12  15
ENDBRANCH   7   8
ENDBRANCH   4   7
ENDBRANCH   2   3
ENDBRANCH   1   2
BRANCH   1  30
ATOM     30  C   UNL A   1      40.970  20.126  27.483  1.00  0.00     0.002 C 
BRANCH  30  31
ATOM     31  C   UNL A   1      42.447  19.868  27.137  1.00  0.00     0.002 C 
BRANCH  31  32
ATOM     32  C   UNL A   1      42.741  19.200  25.784  1.00  0.00     0.021 C 
BRANCH  32  33
ATOM     33  C   UNL A   1      44.221  19.084  25.459  1.00  0.00     0.116 C 
BRANCH  33  34
ATOM     34  N   UNL A   1      44.573  19.671  24.157  1.00  0.00    -0.352 N 
ATOM     35  C   UNL A   1      44.506  20.996  23.738  1.00  0.00     0.251 C 
ATOM     36  H   UNL A   1      44.906  19.034  23.485  1.00  0.00     0.163 HD
ATOM     37  O   UNL A   1      44.476  21.289  22.558  1.00  0.00    -0.269 OA
BRANCH  35  38
ATOM     38  C   UNL A   1      44.494  22.048  24.771  1.00  0.00     0.039 A 
ATOM     39  C   UNL A   1      45.520  22.248  25.699  1.00  0.00     0.014 A 
ATOM     40  C   UNL A   1      43.402  22.894  24.743  1.00  0.00     0.014 A 
ATOM     41  C   UNL A   1      45.419  23.339  26.565  1.00  0.00     0.010 A 
ATOM     42  C   UNL A   1      43.517  24.128  25.293  1.00  0.00     0.010 A 
ATOM     43  C   UNL A   1      44.394  24.269  26.348  1.00  0.00    -0.014 A 
BRANCH  43  44
ATOM     44  C   UNL A   1      44.176  25.461  27.148  1.00  0.00     0.031 A 
ATOM     45  C   UNL A   1      45.126  26.555  26.853  1.00  0.00     0.074 A 
ATOM     46  C   UNL A   1      43.027  25.648  27.843  1.00  0.00     0.049 A 
ATOM     47  N   UNL A   1      46.049  27.024  27.621  1.00  0.00    -0.248 NA
ATOM     48  C   UNL A   1      45.160  27.084  25.479  1.00  0.00     0.031 C 
ATOM     49  C   UNL A   1      41.841  24.777  27.920  1.00  0.00     0.029 A 
ATOM     50  N   UNL A   1      42.631  26.732  28.560  1.00  0.00    -0.354 N 
ATOM     51  C   UNL A   1      46.636  28.062  26.905  1.00  0.00     0.074 A 
ATOM     52  C   UNL A   1      46.214  27.899  25.539  1.00  0.00     0.031 C 
ATOM     53  C   UNL A   1      40.801  25.458  28.452  1.00  0.00     0.029 A 
ATOM     54  C   UNL A   1      41.282  26.747  28.909  1.00  0.00     0.049 A 
ATOM     55  H   UNL A   1      43.251  27.454  28.813  1.00  0.00     0.167 HD
ATOM     56  C   UNL A   1      47.172  29.131  27.553  1.00  0.00     0.037 A 
ATOM     57  C   UNL A   1      40.621  27.770  29.511  1.00  0.00     0.037 A 
ATOM     58  C   UNL A   1      47.375  28.837  28.953  1.00  0.00     0.049 A 
ATOM     59  C   UNL A   1      41.654  28.646  30.122  1.00  0.00     0.074 A 
ATOM     60  C   UNL A   1      48.098  27.887  29.650  1.00  0.00     0.029 A 
ATOM     61  N   UNL A   1      46.453  29.324  29.848  1.00  0.00    -0.354 N 
ATOM     62  N   UNL A   1      42.408  28.281  31.124  1.00  0.00    -0.248 NA
ATOM     63  C   UNL A   1      42.181  29.726  29.300  1.00  0.00     0.031 C 
ATOM     64  C   UNL A   1      47.257  27.507  30.740  1.00  0.00     0.029 A 
ATOM     65  C   UNL A   1      46.108  28.298  30.691  1.00  0.00     0.049 A 
ATOM     66  H   UNL A   1      46.104  30.244  29.879  1.00  0.00     0.167 HD
ATOM     67  C   UNL A   1      43.668  28.771  30.813  1.00  0.00     0.074 A 
ATOM     68  C   UNL A   1      43.452  29.709  29.713  1.00  0.00     0.031 C 
ATOM     69  C   UNL A   1      44.794  28.148  31.271  1.00  0.00     0.037 A 
BRANCH  56  70
ATOM     70  C   UNL A   1      47.126  30.549  27.034  1.00  0.00     0.064 A 
ATOM     71  C   UNL A   1      48.302  31.323  27.085  1.00  0.00     0.173 A 
ATOM     72  C   UNL A   1      45.937  31.268  26.780  1.00  0.00     0.173 A 
ATOM     73  F   UNL A   1      49.489  30.747  27.329  1.00  0.00    -0.203 F 
ATOM     74  C   UNL A   1      48.273  32.716  26.988  1.00  0.00     0.198 A 
ATOM     75  C   UNL A   1      45.920  32.652  26.628  1.00  0.00     0.198 A 
ATOM     76  F   UNL A   1      44.731  30.691  26.785  1.00  0.00    -0.203 F 
ATOM     77  F   UNL A   1      49.398  33.418  27.183  1.00  0.00    -0.200 F 
ATOM     78  C   UNL A   1      47.081  33.381  26.769  1.00  0.00     0.200 A 
ATOM     79  F   UNL A   1      44.750  33.277  26.434  1.00  0.00    -0.200 F 
ATOM     80  F   UNL A   1      47.039  34.719  26.746  1.00  0.00    -0.200 F 
ENDBRANCH  56  70
BRANCH  57  81
ATOM     81  C   UNL A   1      39.217  28.215  29.337  1.00  0.00     0.064 A 
ATOM     82  C   UNL A   1      38.360  28.376  30.441  1.00  0.00     0.173 A 
ATOM     83  C   UNL A   1      38.780  28.776  28.123  1.00  0.00     0.173 A 
ATOM     84  F   UNL A   1      38.721  27.912  31.646  1.00  0.00    -0.203 F 
ATOM     85  C   UNL A   1      37.154  29.082  30.342  1.00  0.00     0.198 A 
ATOM     86  C   UNL A   1      37.574  29.475  28.029  1.00  0.00     0.198 A 
ATOM     87  F   UNL A   1      39.563  28.751  27.034  1.00  0.00    -0.203 F 
ATOM     88  F   UNL A   1      36.397  29.274  31.431  1.00  0.00    -0.200 F 
ATOM     89  C   UNL A   1      36.770  29.642  29.137  1.00  0.00     0.200 A 
ATOM     90  F   UNL A   1      37.228  30.052  26.872  1.00  0.00    -0.200 F 
ATOM     91  F   UNL A   1      35.654  30.380  29.052  1.00  0.00    -0.200 F 
ENDBRANCH  57  81
BRANCH  69  92
ATOM     92  C   UNL A   1      44.621  27.065  32.301  1.00  0.00     0.064 A 
ATOM     93  C   UNL A   1      44.472  25.700  31.996  1.00  0.00     0.173 A 
ATOM     94  C   UNL A   1      44.745  27.407  33.653  1.00  0.00     0.173 A 
ATOM     95  F   UNL A   1      44.443  25.276  30.728  1.00  0.00    -0.203 F 
ATOM     96  C   UNL A   1      44.407  24.732  32.998  1.00  0.00     0.198 A 
ATOM     97  C   UNL A   1      44.716  26.437  34.651  1.00  0.00     0.198 A 
ATOM     98  F   UNL A   1      44.946  28.687  34.004  1.00  0.00    -0.203 F 
ATOM     99  F   UNL A   1      44.254  23.439  32.677  1.00  0.00    -0.200 F 
ATOM    100  C   UNL A   1      44.535  25.102  34.325  1.00  0.00     0.200 A 
ATOM    101  F   UNL A   1      44.888  26.794  35.931  1.00  0.00    -0.200 F 
ATOM    102  F   UNL A   1      44.511  24.171  35.289  1.00  0.00    -0.200 F 
ENDBRANCH  69  92
ENDBRANCH  43  44
ENDBRANCH  35  38
ENDBRANCH  33  34
ENDBRANCH  32  33
ENDBRANCH  31  32
ENDBRANCH  30  31
ENDBRANCH   1  30
TORSDOF 17
ENDMDL
MODEL 3
REMARK VINA RESULT:     -11.9      2.533      3.499
REMARK SMILES Cc1nn(CC(=O)NCCCCCCNC(=O)c2ccc(-c3c4nc(c(-c5c(F)c(F)c(F)c(F)c5F)c5ccc([nH]5)c(-c5c(F)c(F)c(F)c(F)c5F)c5nc(c(-c6c(F)c(F)c(F)c(F)c6F)c6ccc3[nH]6)C=C5)C=C4)cc2)c(C)c1NC(=O)C(=O)Nc1ccc(F)cc1
REMARK SMILES IDX 10 1 9 2 8 3 6 4 7 5 5 7 4 8 1 9 2 10 3 11 83 12 81 13 82 14
REMARK SMILES IDX 84 15 85 16 86 18 87 19 88 20 89 21 90 23 91 24 96 25 92 26
REMARK SMILES IDX 95 27 93 28 94 29 11 30 12 31 13 32 14 33 15 34 16 35 17 37
REMARK SMILES IDX 18 38 19 39 80 40 20 41 79 42 21 43 22 44 23 45 73 46 24 47
REMARK SMILES IDX 78 48 72 49 74 50 25 51 77 52 71 53 70 54 26 56 58 57 38 58
REMARK SMILES IDX 57 59 39 60 42 61 56 62 75 63 40 64 41 65 55 67 76 68 43 69
REMARK SMILES IDX 27 70 28 71 36 72 29 73 30 74 34 75 37 76 31 77 32 78 35 79
REMARK SMILES IDX 33 80 59 81 60 82 68 83 61 84 62 85 66 86 69 87 63 88 64 89
REMARK SMILES IDX 67 90 65 91 44 92 45 93 53 94 46 95 47 96 51 97 54 98 48 99
REMARK SMILES IDX 49 100 52 101 50 102
REMARK H PARENT 8 6 84 17 89 22 15 36 74 55 42 66
REMARK Flexibility Score: inf
ROOT
ATOM      1  C   UNL A   1      35.528  23.952  26.295  1.00  0.00     0.021 C 
ENDROOT
BRANCH   1   2
ATOM      2  C   UNL A   1      34.594  22.806  26.673  1.00  0.00     0.116 C 
BRANCH   2   3
ATOM      3  N   UNL A   1      34.735  21.669  25.791  1.00  0.00    -0.354 N 
ATOM      4  C   UNL A   1      33.823  20.806  25.262  1.00  0.00     0.241 C 
ATOM      5  O   UNL A   1      34.284  19.904  24.550  1.00  0.00    -0.273 OA
ATOM      6  H   UNL A   1      35.665  21.483  25.522  1.00  0.00     0.163 HD
BRANCH   4   7
ATOM      7  C   UNL A   1      32.323  20.993  25.355  1.00  0.00     0.244 C 
BRANCH   7   8
ATOM      8  N   UNL A   1      31.818  22.294  24.952  1.00  0.00    -0.258 N 
ATOM      9  C   UNL A   1      30.253  25.268  25.994  1.00  0.00     0.071 C 
ATOM     10  C   UNL A   1      30.900  24.167  25.244  1.00  0.00     0.083 A 
ATOM     11  N   UNL A   1      31.298  23.082  25.900  1.00  0.00    -0.175 NA
ATOM     12  C   UNL A   1      31.178  24.094  23.845  1.00  0.00     0.086 A 
ATOM     13  C   UNL A   1      31.772  22.850  23.682  1.00  0.00     0.060 A 
ATOM     14  C   UNL A   1      32.390  22.142  22.525  1.00  0.00     0.069 C 
BRANCH  12  15
ATOM     15  N   UNL A   1      30.887  25.145  22.989  1.00  0.00    -0.315 N 
ATOM     16  C   UNL A   1      31.612  26.163  22.422  1.00  0.00     0.314 C 
ATOM     17  H   UNL A   1      29.939  25.165  22.726  1.00  0.00     0.170 HD
ATOM     18  O   UNL A   1      31.046  26.977  21.696  1.00  0.00    -0.263 OA
BRANCH  16  19
ATOM     19  C   UNL A   1      33.114  26.217  22.588  1.00  0.00     0.314 C 
ATOM     20  O   UNL A   1      33.825  26.071  21.596  1.00  0.00    -0.263 OA
ATOM     21  N   UNL A   1      33.696  26.397  23.832  1.00  0.00    -0.318 N 
ATOM     22  H   UNL A   1      34.382  25.751  24.118  1.00  0.00     0.170 HD
BRANCH  21  23
ATOM     23  C   UNL A   1      33.372  27.444  24.715  1.00  0.00     0.041 A 
ATOM     24  C   UNL A   1      33.530  27.151  26.078  1.00  0.00     0.029 A 
ATOM     25  C   UNL A   1      32.991  28.726  24.322  1.00  0.00     0.029 A 
ATOM     26  C   UNL A   1      33.428  28.160  27.030  1.00  0.00     0.041 A 
ATOM     27  C   UNL A   1      32.868  29.734  25.283  1.00  0.00     0.041 A 
ATOM     28  C   UNL A   1      33.115  29.449  26.623  1.00  0.00     0.123 A 
ATOM     29  F   UNL A   1      33.059  30.430  27.531  1.00  0.00    -0.207 F 
ENDBRANCH  21  23
ENDBRANCH  16  19
ENDBRANCH  12  15
ENDBRANCH   7   8
ENDBRANCH   4   7
ENDBRANCH   2   3
ENDBRANCH   1   2
BRANCH   1  30
ATOM     30  C   UNL A   1      36.713  23.513  25.431  1.00  0.00     0.002 C 
BRANCH  30  31
ATOM     31  C   UNL A   1      38.104  23.680  26.068  1.00  0.00     0.002 C 
BRANCH  31  32
ATOM     32  C   UNL A   1      38.970  22.418  26.197  1.00  0.00     0.021 C 
BRANCH  32  33
ATOM     33  C   UNL A   1      40.052  22.514  27.260  1.00  0.00     0.116 C 
BRANCH  33  34
ATOM     34  N   UNL A   1      41.410  22.355  26.718  1.00  0.00    -0.352 N 
ATOM     35  C   UNL A   1      42.284  23.319  26.227  1.00  0.00     0.251 C 
ATOM     36  H   UNL A   1      41.751  21.432  26.701  1.00  0.00     0.163 HD
ATOM     37  O   UNL A   1      43.204  23.027  25.488  1.00  0.00    -0.269 OA
BRANCH  35  38
ATOM     38  C   UNL A   1      42.076  24.718  26.645  1.00  0.00     0.039 A 
ATOM     39  C   UNL A   1      41.236  25.618  25.982  1.00  0.00     0.014 A 
ATOM     40  C   UNL A   1      42.734  25.096  27.799  1.00  0.00     0.014 A 
ATOM     41  C   UNL A   1      41.063  26.887  26.539  1.00  0.00     0.010 A 
ATOM     42  C   UNL A   1      42.255  26.146  28.511  1.00  0.00     0.010 A 
ATOM     43  C   UNL A   1      41.595  27.134  27.812  1.00  0.00    -0.014 A 
BRANCH  43  44
ATOM     44  C   UNL A   1      41.478  28.393  28.527  1.00  0.00     0.031 A 
ATOM     45  C   UNL A   1      42.528  29.373  28.178  1.00  0.00     0.074 A 
ATOM     46  C   UNL A   1      40.343  28.729  29.187  1.00  0.00     0.049 A 
ATOM     47  N   UNL A   1      43.480  29.807  28.931  1.00  0.00    -0.248 NA
ATOM     48  C   UNL A   1      42.627  29.803  26.773  1.00  0.00     0.031 C 
ATOM     49  C   UNL A   1      39.081  27.977  29.299  1.00  0.00     0.029 A 
ATOM     50  N   UNL A   1      40.040  29.891  29.824  1.00  0.00    -0.354 N 
ATOM     51  C   UNL A   1      44.169  30.736  28.159  1.00  0.00     0.074 A 
ATOM     52  C   UNL A   1      43.752  30.522  26.800  1.00  0.00     0.031 C 
ATOM     53  C   UNL A   1      38.101  28.784  29.767  1.00  0.00     0.029 A 
ATOM     54  C   UNL A   1      38.693  30.051  30.146  1.00  0.00     0.049 A 
ATOM     55  H   UNL A   1      40.720  30.568  30.041  1.00  0.00     0.167 HD
ATOM     56  C   UNL A   1      44.793  31.793  28.745  1.00  0.00     0.037 A 
ATOM     57  C   UNL A   1      38.122  31.168  30.668  1.00  0.00     0.037 A 
ATOM     58  C   UNL A   1      44.951  31.577  30.165  1.00  0.00     0.049 A 
ATOM     59  C   UNL A   1      39.223  31.986  31.239  1.00  0.00     0.074 A 
ATOM     60  C   UNL A   1      45.575  30.614  30.936  1.00  0.00     0.029 A 
ATOM     61  N   UNL A   1      44.067  32.205  31.009  1.00  0.00    -0.354 N 
ATOM     62  N   UNL A   1      39.928  31.622  32.276  1.00  0.00    -0.248 NA
ATOM     63  C   UNL A   1      39.857  32.955  30.357  1.00  0.00     0.031 C 
ATOM     64  C   UNL A   1      44.690  30.386  32.033  1.00  0.00     0.029 A 
ATOM     65  C   UNL A   1      43.619  31.273  31.911  1.00  0.00     0.049 A 
ATOM     66  H   UNL A   1      43.803  33.153  30.973  1.00  0.00     0.167 HD
ATOM     67  C   UNL A   1      41.231  31.973  31.957  1.00  0.00     0.074 A 
ATOM     68  C   UNL A   1      41.116  32.851  30.793  1.00  0.00     0.031 C 
ATOM     69  C   UNL A   1      42.290  31.283  32.475  1.00  0.00     0.037 A 
BRANCH  56  70
ATOM     70  C   UNL A   1      44.885  33.171  28.133  1.00  0.00     0.064 A 
ATOM     71  C   UNL A   1      46.156  33.676  27.796  1.00  0.00     0.173 A 
ATOM     72  C   UNL A   1      43.839  34.122  28.147  1.00  0.00     0.173 A 
ATOM     73  F   UNL A   1      47.225  32.865  27.761  1.00  0.00    -0.203 F 
ATOM     74  C   UNL A   1      46.378  35.039  27.586  1.00  0.00     0.198 A 
ATOM     75  C   UNL A   1      44.055  35.472  27.882  1.00  0.00     0.198 A 
ATOM     76  F   UNL A   1      42.594  33.818  28.528  1.00  0.00    -0.203 F 
ATOM     77  F   UNL A   1      47.627  35.489  27.407  1.00  0.00    -0.200 F 
ATOM     78  C   UNL A   1      45.329  35.937  27.639  1.00  0.00     0.200 A 
ATOM     79  F   UNL A   1      43.026  36.328  27.955  1.00  0.00    -0.200 F 
ATOM     80  F   UNL A   1      45.547  37.252  27.509  1.00  0.00    -0.200 F 
ENDBRANCH  56  70
BRANCH  57  81
ATOM     81  C   UNL A   1      36.767  31.726  30.439  1.00  0.00     0.064 A 
ATOM     82  C   UNL A   1      35.936  32.090  31.514  1.00  0.00     0.173 A 
ATOM     83  C   UNL A   1      36.379  32.191  29.168  1.00  0.00     0.173 A 
ATOM     84  F   UNL A   1      36.257  31.729  32.764  1.00  0.00    -0.203 F 
ATOM     85  C   UNL A   1      34.804  32.895  31.333  1.00  0.00     0.198 A 
ATOM     86  C   UNL A   1      35.247  32.989  28.992  1.00  0.00     0.198 A 
ATOM     87  F   UNL A   1      37.149  31.970  28.092  1.00  0.00    -0.203 F 
ATOM     88  F   UNL A   1      34.075  33.279  32.390  1.00  0.00    -0.200 F 
ATOM     89  C   UNL A   1      34.469  33.354  30.072  1.00  0.00     0.200 A 
ATOM     90  F   UNL A   1      34.951  33.467  27.777  1.00  0.00    -0.200 F 
ATOM     91  F   UNL A   1      33.430  34.183  29.900  1.00  0.00    -0.200 F 
ENDBRANCH  57  81
BRANCH  69  92
ATOM     92  C   UNL A   1      42.005  30.292  33.571  1.00  0.00     0.064 A 
ATOM     93  C   UNL A   1      41.685  28.940  33.351  1.00  0.00     0.173 A 
ATOM     94  C   UNL A   1      42.196  30.695  34.898  1.00  0.00     0.173 A 
ATOM     95  F   UNL A   1      41.581  28.449  32.111  1.00  0.00    -0.203 F 
ATOM     96  C   UNL A   1      41.522  28.048  34.410  1.00  0.00     0.198 A 
ATOM     97  C   UNL A   1      42.067  29.796  35.954  1.00  0.00     0.198 A 
ATOM     98  F   UNL A   1      42.557  31.959  35.168  1.00  0.00    -0.203 F 
ATOM     99  F   UNL A   1      41.205  26.767  34.170  1.00  0.00    -0.200 F 
ATOM    100  C   UNL A   1      41.719  28.477  35.711  1.00  0.00     0.200 A 
ATOM    101  F   UNL A   1      42.306  30.204  37.207  1.00  0.00    -0.200 F 
ATOM    102  F   UNL A   1      41.599  27.614  36.730  1.00  0.00    -0.200 F 
ENDBRANCH  69  92
ENDBRANCH  43  44
ENDBRANCH  35  38
ENDBRANCH  33  34
ENDBRANCH  32  33
ENDBRANCH  31  32
ENDBRANCH  30  31
ENDBRANCH   1  30
TORSDOF 17
ENDMDL
