MODEL 1
REMARK VINA RESULT:     -12.1      0.000      0.000
REMARK SMILES CCn1cccc1C(=O)N1CC[C@H](C(=O)NCCCCCCNC(=O)c2ccc(-c3c4nc(c(-c5c(F)c(F)c(F)c(F)c5F)c5ccc([nH]5)c(-c5c(F)c(F)c(F)c(F)c5F)c5nc(c(-c6c(F)c(F)c(F)c(F)c6F)c6ccc3[nH]6)C=C5)C=C4)cc2)[C@H]1C
REMARK SMILES IDX 19 1 18 2 17 3 16 4 14 5 15 6 13 8 10 9 11 10 89 11 12 12
REMARK SMILES IDX 90 13 8 14 9 15 7 16 3 17 4 18 5 19 6 20 2 21 1 22 20 23
REMARK SMILES IDX 21 24 22 25 23 26 24 27 25 29 26 30 27 31 88 32 28 33 87 34
REMARK SMILES IDX 29 35 30 36 31 37 81 38 32 39 86 40 80 41 82 42 33 43 85 44
REMARK SMILES IDX 79 45 78 46 34 48 66 49 46 50 65 51 47 52 50 53 64 54 83 55
REMARK SMILES IDX 48 56 49 57 63 59 84 60 51 61 35 62 36 63 44 64 37 65 38 66
REMARK SMILES IDX 42 67 45 68 39 69 40 70 43 71 41 72 67 73 68 74 76 75 69 76
REMARK SMILES IDX 70 77 74 78 77 79 71 80 72 81 75 82 73 83 52 84 53 85 61 86
REMARK SMILES IDX 54 87 55 88 59 89 62 90 56 91 57 92 60 93 58 94
REMARK H PARENT 16 7 23 28 82 47 50 58
REMARK Flexibility Score: inf
ROOT
ATOM      1  C   UNL A   1      36.298  21.367  25.742  1.00  0.00     0.002 C 
ENDROOT
BRANCH   1   2
ATOM      2  C   UNL A   1      34.835  21.498  26.173  1.00  0.00     0.021 C 
BRANCH   2   3
ATOM      3  C   UNL A   1      33.846  20.701  25.326  1.00  0.00     0.116 C 
BRANCH   3   4
ATOM      4  N   UNL A   1      32.478  20.964  25.712  1.00  0.00    -0.356 N 
ATOM      5  C   UNL A   1      31.647  21.993  25.440  1.00  0.00     0.225 C 
ATOM      6  O   UNL A   1      30.508  21.920  25.915  1.00  0.00    -0.275 OA
ATOM      7  H   UNL A   1      32.078  20.265  26.278  1.00  0.00     0.163 HD
BRANCH   5   8
ATOM      8  C   UNL A   1      31.982  23.148  24.512  1.00  0.00     0.102 C 
ATOM      9  N   UNL A   1      31.362  25.444  24.887  1.00  0.00    -0.334 N 
ATOM     10  C   UNL A   1      30.469  24.922  23.866  1.00  0.00     0.121 C 
ATOM     11  C   UNL A   1      32.303  24.406  25.329  1.00  0.00     0.094 C 
ATOM     12  C   UNL A   1      31.038  23.592  23.408  1.00  0.00     0.037 C 
ATOM     13  C   UNL A   1      33.760  24.790  25.098  1.00  0.00     0.032 C 
BRANCH   9  14
ATOM     14  C   UNL A   1      30.771  26.268  25.846  1.00  0.00     0.270 C 
ATOM     15  O   UNL A   1      29.793  25.855  26.474  1.00  0.00    -0.267 OA
BRANCH  14  16
ATOM     16  C   UNL A   1      31.298  27.610  26.062  1.00  0.00     0.107 A 
ATOM     17  N   UNL A   1      31.494  28.677  25.198  1.00  0.00    -0.344 N 
ATOM     18  C   UNL A   1      31.944  29.774  25.907  1.00  0.00     0.086 A 
ATOM     19  C   UNL A   1      32.023  29.440  27.234  1.00  0.00     0.020 A 
ATOM     20  C   UNL A   1      31.617  28.097  27.332  1.00  0.00     0.033 A 
BRANCH  17  21
ATOM     21  C   UNL A   1      31.184  28.782  23.781  1.00  0.00     0.119 C 
ATOM     22  C   UNL A   1      29.925  29.597  23.505  1.00  0.00     0.027 C 
ENDBRANCH  17  21
ENDBRANCH  14  16
ENDBRANCH   9  14
ENDBRANCH   5   8
ENDBRANCH   3   4
ENDBRANCH   2   3
ENDBRANCH   1   2
BRANCH   1  23
ATOM     23  C   UNL A   1      36.697  22.201  24.521  1.00  0.00     0.002 C 
BRANCH  23  24
ATOM     24  C   UNL A   1      37.031  23.672  24.804  1.00  0.00     0.021 C 
BRANCH  24  25
ATOM     25  C   UNL A   1      37.447  23.949  26.248  1.00  0.00     0.116 C 
BRANCH  25  26
ATOM     26  N   UNL A   1      38.732  23.342  26.546  1.00  0.00    -0.352 N 
ATOM     27  C   UNL A   1      39.943  23.919  26.827  1.00  0.00     0.251 C 
ATOM     28  H   UNL A   1      38.734  22.357  26.546  1.00  0.00     0.163 HD
ATOM     29  O   UNL A   1      40.967  23.270  26.650  1.00  0.00    -0.269 OA
BRANCH  27  30
ATOM     30  C   UNL A   1      40.047  25.297  27.352  1.00  0.00     0.039 A 
ATOM     31  C   UNL A   1      39.649  25.519  28.679  1.00  0.00     0.014 A 
ATOM     32  C   UNL A   1      40.398  26.378  26.536  1.00  0.00     0.014 A 
ATOM     33  C   UNL A   1      39.636  26.811  29.192  1.00  0.00     0.010 A 
ATOM     34  C   UNL A   1      40.421  27.667  27.054  1.00  0.00     0.010 A 
ATOM     35  C   UNL A   1      40.040  27.880  28.381  1.00  0.00    -0.014 A 
BRANCH  35  36
ATOM     36  C   UNL A   1      40.260  29.199  29.006  1.00  0.00     0.031 A 
ATOM     37  C   UNL A   1      38.916  29.970  29.116  1.00  0.00     0.074 A 
ATOM     38  C   UNL A   1      41.552  29.507  29.354  1.00  0.00     0.049 A 
ATOM     39  N   UNL A   1      38.686  31.243  29.194  1.00  0.00    -0.248 NA
ATOM     40  C   UNL A   1      37.625  29.215  29.090  1.00  0.00     0.031 C 
ATOM     41  C   UNL A   1      42.707  28.579  29.247  1.00  0.00     0.029 A 
ATOM     42  N   UNL A   1      42.175  30.632  29.866  1.00  0.00    -0.354 N 
ATOM     43  C   UNL A   1      37.300  31.429  29.433  1.00  0.00     0.074 A 
ATOM     44  C   UNL A   1      36.686  30.154  29.237  1.00  0.00     0.031 C 
ATOM     45  C   UNL A   1      43.866  29.189  29.592  1.00  0.00     0.029 A 
ATOM     46  C   UNL A   1      43.601  30.563  29.965  1.00  0.00     0.049 A 
ATOM     47  H   UNL A   1      41.669  31.429  30.144  1.00  0.00     0.167 HD
ATOM     48  C   UNL A   1      36.791  32.600  29.929  1.00  0.00     0.037 A 
ATOM     49  C   UNL A   1      44.493  31.557  30.292  1.00  0.00     0.037 A 
ATOM     50  C   UNL A   1      37.849  33.540  30.061  1.00  0.00     0.049 A 
ATOM     51  C   UNL A   1      43.639  32.653  30.742  1.00  0.00     0.074 A 
ATOM     52  C   UNL A   1      38.590  34.206  29.121  1.00  0.00     0.029 A 
ATOM     53  N   UNL A   1      38.508  33.546  31.265  1.00  0.00    -0.354 N 
ATOM     54  N   UNL A   1      43.053  32.679  31.898  1.00  0.00    -0.248 NA
ATOM     55  C   UNL A   1      43.390  33.777  29.836  1.00  0.00     0.031 C 
ATOM     56  C   UNL A   1      39.888  34.126  29.652  1.00  0.00     0.029 A 
ATOM     57  C   UNL A   1      39.836  33.715  30.990  1.00  0.00     0.049 A 
ATOM     58  H   UNL A   1      38.102  33.447  32.156  1.00  0.00     0.167 HD
ATOM     59  C   UNL A   1      42.088  33.627  31.691  1.00  0.00     0.074 A 
ATOM     60  C   UNL A   1      42.549  34.467  30.602  1.00  0.00     0.031 C 
ATOM     61  C   UNL A   1      40.802  33.299  31.971  1.00  0.00     0.037 A 
BRANCH  48  62
ATOM     62  C   UNL A   1      35.488  32.983  30.583  1.00  0.00     0.064 A 
ATOM     63  C   UNL A   1      34.748  34.052  30.006  1.00  0.00     0.173 A 
ATOM     64  C   UNL A   1      35.158  32.651  31.900  1.00  0.00     0.173 A 
ATOM     65  F   UNL A   1      34.942  34.414  28.726  1.00  0.00    -0.203 F 
ATOM     66  C   UNL A   1      33.874  34.839  30.752  1.00  0.00     0.198 A 
ATOM     67  C   UNL A   1      34.237  33.412  32.631  1.00  0.00     0.198 A 
ATOM     68  F   UNL A   1      35.787  31.660  32.544  1.00  0.00    -0.203 F 
ATOM     69  F   UNL A   1      33.333  35.939  30.208  1.00  0.00    -0.200 F 
ATOM     70  C   UNL A   1      33.636  34.531  32.074  1.00  0.00     0.200 A 
ATOM     71  F   UNL A   1      33.994  33.104  33.913  1.00  0.00    -0.200 F 
ATOM     72  F   UNL A   1      32.859  35.326  32.821  1.00  0.00    -0.200 F 
ENDBRANCH  48  62
BRANCH  49  73
ATOM     73  C   UNL A   1      45.975  31.896  30.323  1.00  0.00     0.064 A 
ATOM     74  C   UNL A   1      46.716  32.490  29.298  1.00  0.00     0.173 A 
ATOM     75  C   UNL A   1      46.710  31.729  31.544  1.00  0.00     0.173 A 
ATOM     76  F   UNL A   1      46.206  32.614  28.069  1.00  0.00    -0.203 F 
ATOM     77  C   UNL A   1      48.023  32.985  29.519  1.00  0.00     0.198 A 
ATOM     78  C   UNL A   1      47.968  32.278  31.781  1.00  0.00     0.198 A 
ATOM     79  F   UNL A   1      46.221  31.030  32.577  1.00  0.00    -0.203 F 
ATOM     80  F   UNL A   1      48.699  33.552  28.510  1.00  0.00    -0.200 F 
ATOM     81  C   UNL A   1      48.623  32.926  30.768  1.00  0.00     0.200 A 
ATOM     82  F   UNL A   1      48.510  32.192  33.005  1.00  0.00    -0.200 F 
ATOM     83  F   UNL A   1      49.824  33.476  30.993  1.00  0.00    -0.200 F 
ENDBRANCH  49  73
BRANCH  61  84
ATOM     84  C   UNL A   1      40.655  32.206  33.022  1.00  0.00     0.064 A 
ATOM     85  C   UNL A   1      41.157  32.424  34.319  1.00  0.00     0.173 A 
ATOM     86  C   UNL A   1      40.179  30.909  32.766  1.00  0.00     0.173 A 
ATOM     87  F   UNL A   1      41.603  33.640  34.666  1.00  0.00    -0.203 F 
ATOM     88  C   UNL A   1      41.223  31.402  35.272  1.00  0.00     0.198 A 
ATOM     89  C   UNL A   1      40.236  29.885  33.720  1.00  0.00     0.198 A 
ATOM     90  F   UNL A   1      39.641  30.600  31.587  1.00  0.00    -0.203 F 
ATOM     91  F   UNL A   1      41.728  31.656  36.487  1.00  0.00    -0.200 F 
ATOM     92  C   UNL A   1      40.767  30.132  34.971  1.00  0.00     0.200 A 
ATOM     93  F   UNL A   1      39.770  28.662  33.422  1.00  0.00    -0.200 F 
ATOM     94  F   UNL A   1      40.821  29.154  35.888  1.00  0.00    -0.200 F 
ENDBRANCH  61  84
ENDBRANCH  35  36
ENDBRANCH  27  30
ENDBRANCH  25  26
ENDBRANCH  24  25
ENDBRANCH  23  24
ENDBRANCH   1  23
TORSDOF 16
ENDMDL
MODEL 2
REMARK VINA RESULT:     -12.1      4.435      9.308
REMARK SMILES CCn1cccc1C(=O)N1CC[C@H](C(=O)NCCCCCCNC(=O)c2ccc(-c3c4nc(c(-c5c(F)c(F)c(F)c(F)c5F)c5ccc([nH]5)c(-c5c(F)c(F)c(F)c(F)c5F)c5nc(c(-c6c(F)c(F)c(F)c(F)c6F)c6ccc3[nH]6)C=C5)C=C4)cc2)[C@H]1C
REMARK SMILES IDX 19 1 18 2 17 3 16 4 14 5 15 6 13 8 10 9 11 10 89 11 12 12
REMARK SMILES IDX 90 13 8 14 9 15 7 16 3 17 4 18 5 19 6 20 2 21 1 22 20 23
REMARK SMILES IDX 21 24 22 25 23 26 24 27 25 29 26 30 27 31 88 32 28 33 87 34
REMARK SMILES IDX 29 35 30 36 31 37 81 38 32 39 86 40 80 41 82 42 33 43 85 44
REMARK SMILES IDX 79 45 78 46 34 48 66 49 46 50 65 51 47 52 50 53 64 54 83 55
REMARK SMILES IDX 48 56 49 57 63 59 84 60 51 61 35 62 36 63 44 64 37 65 38 66
REMARK SMILES IDX 42 67 45 68 39 69 40 70 43 71 41 72 67 73 68 74 76 75 69 76
REMARK SMILES IDX 70 77 74 78 77 79 71 80 72 81 75 82 73 83 52 84 53 85 61 86
REMARK SMILES IDX 54 87 55 88 59 89 62 90 56 91 57 92 60 93 58 94
REMARK H PARENT 16 7 23 28 82 47 50 58
REMARK Flexibility Score: inf
ROOT
ATOM      1  C   UNL A   1      31.237  28.757  25.698  1.00  0.00     0.002 C 
ENDROOT
BRANCH   1   2
ATOM      2  C   UNL A   1      31.530  29.536  24.413  1.00  0.00     0.021 C 
BRANCH   2   3
ATOM      3  C   UNL A   1      30.918  28.938  23.149  1.00  0.00     0.116 C 
BRANCH   3   4
ATOM      4  N   UNL A   1      31.877  28.144  22.415  1.00  0.00    -0.356 N 
ATOM      5  C   UNL A   1      32.387  26.914  22.639  1.00  0.00     0.225 C 
ATOM      6  O   UNL A   1      33.196  26.494  21.804  1.00  0.00    -0.275 OA
ATOM      7  H   UNL A   1      32.222  28.579  21.603  1.00  0.00     0.163 HD
BRANCH   5   8
ATOM      8  C   UNL A   1      31.949  25.992  23.764  1.00  0.00     0.102 C 
ATOM      9  N   UNL A   1      32.325  23.614  23.825  1.00  0.00    -0.334 N 
ATOM     10  C   UNL A   1      30.926  23.817  23.487  1.00  0.00     0.121 C 
ATOM     11  C   UNL A   1      33.007  24.905  23.997  1.00  0.00     0.094 C 
ATOM     12  C   UNL A   1      30.609  25.278  23.744  1.00  0.00     0.037 C 
ATOM     13  C   UNL A   1      33.600  25.079  25.390  1.00  0.00     0.032 C 
BRANCH   9  14
ATOM     14  C   UNL A   1      32.977  22.599  23.124  1.00  0.00     0.270 C 
ATOM     15  O   UNL A   1      32.903  22.572  21.893  1.00  0.00    -0.267 OA
BRANCH  14  16
ATOM     16  C   UNL A   1      33.703  21.570  23.861  1.00  0.00     0.107 A 
ATOM     17  N   UNL A   1      34.970  21.554  24.421  1.00  0.00    -0.344 N 
ATOM     18  C   UNL A   1      35.166  20.363  25.096  1.00  0.00     0.086 A 
ATOM     19  C   UNL A   1      34.026  19.609  25.001  1.00  0.00     0.020 A 
ATOM     20  C   UNL A   1      33.113  20.360  24.238  1.00  0.00     0.033 A 
BRANCH  17  21
ATOM     21  C   UNL A   1      35.968  22.610  24.470  1.00  0.00     0.119 C 
ATOM     22  C   UNL A   1      36.647  22.853  23.126  1.00  0.00     0.027 C 
ENDBRANCH  17  21
ENDBRANCH  14  16
ENDBRANCH   9  14
ENDBRANCH   5   8
ENDBRANCH   3   4
ENDBRANCH   2   3
ENDBRANCH   1   2
BRANCH   1  23
ATOM     23  C   UNL A   1      32.459  28.452  26.570  1.00  0.00     0.002 C 
BRANCH  23  24
ATOM     24  C   UNL A   1      33.822  28.697  25.909  1.00  0.00     0.021 C 
BRANCH  24  25
ATOM     25  C   UNL A   1      34.993  28.726  26.890  1.00  0.00     0.116 C 
BRANCH  25  26
ATOM     26  N   UNL A   1      35.407  30.090  27.168  1.00  0.00    -0.352 N 
ATOM     27  C   UNL A   1      36.442  30.566  27.931  1.00  0.00     0.251 C 
ATOM     28  H   UNL A   1      34.855  30.785  26.741  1.00  0.00     0.163 HD
ATOM     29  O   UNL A   1      36.383  31.710  28.365  1.00  0.00    -0.269 OA
BRANCH  27  30
ATOM     30  C   UNL A   1      37.632  29.742  28.231  1.00  0.00     0.039 A 
ATOM     31  C   UNL A   1      38.654  29.703  27.271  1.00  0.00     0.014 A 
ATOM     32  C   UNL A   1      37.700  28.919  29.360  1.00  0.00     0.014 A 
ATOM     33  C   UNL A   1      39.752  28.871  27.459  1.00  0.00     0.010 A 
ATOM     34  C   UNL A   1      38.811  28.112  29.572  1.00  0.00     0.010 A 
ATOM     35  C   UNL A   1      39.834  28.090  28.620  1.00  0.00    -0.014 A 
BRANCH  35  36
ATOM     36  C   UNL A   1      41.107  27.408  28.927  1.00  0.00     0.031 A 
ATOM     37  C   UNL A   1      41.102  25.973  28.332  1.00  0.00     0.074 A 
ATOM     38  C   UNL A   1      42.026  28.121  29.657  1.00  0.00     0.049 A 
ATOM     39  N   UNL A   1      41.771  24.920  28.683  1.00  0.00    -0.248 NA
ATOM     40  C   UNL A   1      40.178  25.642  27.204  1.00  0.00     0.031 C 
ATOM     41  C   UNL A   1      41.876  29.542  30.061  1.00  0.00     0.029 A 
ATOM     42  N   UNL A   1      43.262  27.828  30.208  1.00  0.00    -0.354 N 
ATOM     43  C   UNL A   1      41.525  23.900  27.729  1.00  0.00     0.074 A 
ATOM     44  C   UNL A   1      40.446  24.365  26.917  1.00  0.00     0.031 C 
ATOM     45  C   UNL A   1      42.908  29.948  30.838  1.00  0.00     0.029 A 
ATOM     46  C   UNL A   1      43.840  28.854  31.020  1.00  0.00     0.049 A 
ATOM     47  H   UNL A   1      43.714  26.968  30.050  1.00  0.00     0.167 HD
ATOM     48  C   UNL A   1      42.344  22.811  27.590  1.00  0.00     0.037 A 
ATOM     49  C   UNL A   1      44.968  28.801  31.805  1.00  0.00     0.037 A 
ATOM     50  C   UNL A   1      43.360  22.872  28.583  1.00  0.00     0.049 A 
ATOM     51  C   UNL A   1      45.580  27.526  31.444  1.00  0.00     0.074 A 
ATOM     52  C   UNL A   1      43.308  22.718  29.942  1.00  0.00     0.029 A 
ATOM     53  N   UNL A   1      44.510  23.535  28.232  1.00  0.00    -0.354 N 
ATOM     54  N   UNL A   1      46.232  27.328  30.342  1.00  0.00    -0.248 NA
ATOM     55  C   UNL A   1      45.428  26.384  32.351  1.00  0.00     0.031 C 
ATOM     56  C   UNL A   1      44.153  23.747  30.392  1.00  0.00     0.029 A 
ATOM     57  C   UNL A   1      44.903  24.254  29.325  1.00  0.00     0.049 A 
ATOM     58  H   UNL A   1      44.965  23.498  27.359  1.00  0.00     0.167 HD
ATOM     59  C   UNL A   1      46.232  25.961  30.269  1.00  0.00     0.074 A 
ATOM     60  C   UNL A   1      46.058  25.467  31.621  1.00  0.00     0.031 C 
ATOM     61  C   UNL A   1      45.772  25.384  29.130  1.00  0.00     0.037 A 
BRANCH  48  62
ATOM     62  C   UNL A   1      42.546  21.782  26.507  1.00  0.00     0.064 A 
ATOM     63  C   UNL A   1      42.086  20.459  26.758  1.00  0.00     0.173 A 
ATOM     64  C   UNL A   1      43.478  21.921  25.474  1.00  0.00     0.173 A 
ATOM     65  F   UNL A   1      41.145  20.220  27.687  1.00  0.00    -0.203 F 
ATOM     66  C   UNL A   1      42.651  19.346  26.140  1.00  0.00     0.198 A 
ATOM     67  C   UNL A   1      44.004  20.801  24.817  1.00  0.00     0.198 A 
ATOM     68  F   UNL A   1      43.978  23.119  25.149  1.00  0.00    -0.203 F 
ATOM     69  F   UNL A   1      42.304  18.113  26.536  1.00  0.00    -0.200 F 
ATOM     70  C   UNL A   1      43.629  19.518  25.183  1.00  0.00     0.200 A 
ATOM     71  F   UNL A   1      44.945  20.969  23.877  1.00  0.00    -0.200 F 
ATOM     72  F   UNL A   1      44.233  18.453  24.641  1.00  0.00    -0.200 F 
ENDBRANCH  48  62
BRANCH  49  73
ATOM     73  C   UNL A   1      45.740  29.561  32.873  1.00  0.00     0.064 A 
ATOM     74  C   UNL A   1      45.632  29.395  34.256  1.00  0.00     0.173 A 
ATOM     75  C   UNL A   1      46.789  30.457  32.480  1.00  0.00     0.173 A 
ATOM     76  F   UNL A   1      44.636  28.676  34.783  1.00  0.00    -0.203 F 
ATOM     77  C   UNL A   1      46.568  29.971  35.148  1.00  0.00     0.198 A 
ATOM     78  C   UNL A   1      47.749  30.967  33.350  1.00  0.00     0.198 A 
ATOM     79  F   UNL A   1      46.934  30.868  31.212  1.00  0.00    -0.203 F 
ATOM     80  F   UNL A   1      46.431  29.785  36.468  1.00  0.00    -0.200 F 
ATOM     81  C   UNL A   1      47.650  30.709  34.690  1.00  0.00     0.200 A 
ATOM     82  F   UNL A   1      48.776  31.680  32.862  1.00  0.00    -0.200 F 
ATOM     83  F   UNL A   1      48.582  31.177  35.532  1.00  0.00    -0.200 F 
ENDBRANCH  49  73
BRANCH  61  84
ATOM     84  C   UNL A   1      45.898  26.264  27.893  1.00  0.00     0.064 A 
ATOM     85  C   UNL A   1      47.171  26.715  27.494  1.00  0.00     0.173 A 
ATOM     86  C   UNL A   1      44.813  26.799  27.179  1.00  0.00     0.173 A 
ATOM     87  F   UNL A   1      48.268  26.234  28.097  1.00  0.00    -0.203 F 
ATOM     88  C   UNL A   1      47.339  27.670  26.486  1.00  0.00     0.198 A 
ATOM     89  C   UNL A   1      44.978  27.751  26.163  1.00  0.00     0.198 A 
ATOM     90  F   UNL A   1      43.566  26.413  27.440  1.00  0.00    -0.203 F 
ATOM     91  F   UNL A   1      48.571  28.082  26.157  1.00  0.00    -0.200 F 
ATOM     92  C   UNL A   1      46.242  28.192  25.825  1.00  0.00     0.200 A 
ATOM     93  F   UNL A   1      43.906  28.233  25.514  1.00  0.00    -0.200 F 
ATOM     94  F   UNL A   1      46.403  29.101  24.852  1.00  0.00    -0.200 F 
ENDBRANCH  61  84
ENDBRANCH  35  36
ENDBRANCH  27  30
ENDBRANCH  25  26
ENDBRANCH  24  25
ENDBRANCH  23  24
ENDBRANCH   1  23
TORSDOF 16
ENDMDL
MODEL 3
REMARK VINA RESULT:     -11.8      4.188      9.154
REMARK SMILES CCn1cccc1C(=O)N1CC[C@H](C(=O)NCCCCCCNC(=O)c2ccc(-c3c4nc(c(-c5c(F)c(F)c(F)c(F)c5F)c5ccc([nH]5)c(-c5c(F)c(F)c(F)c(F)c5F)c5nc(c(-c6c(F)c(F)c(F)c(F)c6F)c6ccc3[nH]6)C=C5)C=C4)cc2)[C@H]1C
REMARK SMILES IDX 19 1 18 2 17 3 16 4 14 5 15 6 13 8 10 9 11 10 89 11 12 12
REMARK SMILES IDX 90 13 8 14 9 15 7 16 3 17 4 18 5 19 6 20 2 21 1 22 20 23
REMARK SMILES IDX 21 24 22 25 23 26 24 27 25 29 26 30 27 31 88 32 28 33 87 34
REMARK SMILES IDX 29 35 30 36 31 37 81 38 32 39 86 40 80 41 82 42 33 43 85 44
REMARK SMILES IDX 79 45 78 46 34 48 66 49 46 50 65 51 47 52 50 53 64 54 83 55
REMARK SMILES IDX 48 56 49 57 63 59 84 60 51 61 35 62 36 63 44 64 37 65 38 66
REMARK SMILES IDX 42 67 45 68 39 69 40 70 43 71 41 72 67 73 68 74 76 75 69 76
REMARK SMILES IDX 70 77 74 78 77 79 71 80 72 81 75 82 73 83 52 84 53 85 61 86
REMARK SMILES IDX 54 87 55 88 59 89 62 90 56 91 57 92 60 93 58 94
REMARK H PARENT 16 7 23 28 82 47 50 58
REMARK Flexibility Score: inf
ROOT
ATOM      1  C   UNL A   1      31.455  29.391  24.804  1.00  0.00     0.002 C 
ENDROOT
BRANCH   1   2
ATOM      2  C   UNL A   1      31.020  28.958  23.402  1.00  0.00     0.021 C 
BRANCH   2   3
ATOM      3  C   UNL A   1      30.028  27.798  23.370  1.00  0.00     0.116 C 
BRANCH   3   4
ATOM      4  N   UNL A   1      30.137  26.968  24.549  1.00  0.00    -0.356 N 
ATOM      5  C   UNL A   1      30.898  25.887  24.822  1.00  0.00     0.225 C 
ATOM      6  O   UNL A   1      30.771  25.397  25.950  1.00  0.00    -0.275 OA
ATOM      7  H   UNL A   1      29.549  27.242  25.289  1.00  0.00     0.163 HD
BRANCH   5   8
ATOM      8  C   UNL A   1      31.958  25.323  23.892  1.00  0.00     0.102 C 
ATOM      9  N   UNL A   1      33.724  23.827  24.559  1.00  0.00    -0.334 N 
ATOM     10  C   UNL A   1      34.319  25.143  24.390  1.00  0.00     0.121 C 
ATOM     11  C   UNL A   1      32.282  23.874  24.279  1.00  0.00     0.094 C 
ATOM     12  C   UNL A   1      33.296  26.012  23.685  1.00  0.00     0.037 C 
ATOM     13  C   UNL A   1      31.871  22.951  23.137  1.00  0.00     0.032 C 
BRANCH   9  14
ATOM     14  C   UNL A   1      34.171  23.096  25.660  1.00  0.00     0.270 C 
ATOM     15  O   UNL A   1      33.716  23.351  26.778  1.00  0.00    -0.267 OA
BRANCH  14  16
ATOM     16  C   UNL A   1      35.192  22.071  25.474  1.00  0.00     0.107 A 
ATOM     17  N   UNL A   1      35.116  20.761  25.027  1.00  0.00    -0.344 N 
ATOM     18  C   UNL A   1      36.387  20.223  24.947  1.00  0.00     0.086 A 
ATOM     19  C   UNL A   1      37.296  21.179  25.315  1.00  0.00     0.020 A 
ATOM     20  C   UNL A   1      36.555  22.330  25.638  1.00  0.00     0.033 A 
BRANCH  17  21
ATOM     21  C   UNL A   1      33.960  20.012  24.562  1.00  0.00     0.119 C 
ATOM     22  C   UNL A   1      33.089  19.491  25.701  1.00  0.00     0.027 C 
ENDBRANCH  17  21
ENDBRANCH  14  16
ENDBRANCH   9  14
ENDBRANCH   5   8
ENDBRANCH   3   4
ENDBRANCH   2   3
ENDBRANCH   1   2
BRANCH   1  23
ATOM     23  C   UNL A   1      32.955  29.269  25.091  1.00  0.00     0.002 C 
BRANCH  23  24
ATOM     24  C   UNL A   1      33.322  28.798  26.505  1.00  0.00     0.021 C 
BRANCH  24  25
ATOM     25  C   UNL A   1      34.811  28.911  26.831  1.00  0.00     0.116 C 
BRANCH  25  26
ATOM     26  N   UNL A   1      35.157  30.265  27.225  1.00  0.00    -0.352 N 
ATOM     27  C   UNL A   1      36.123  30.721  28.083  1.00  0.00     0.251 C 
ATOM     28  H   UNL A   1      34.609  30.970  26.808  1.00  0.00     0.163 HD
ATOM     29  O   UNL A   1      35.996  31.830  28.587  1.00  0.00    -0.269 OA
BRANCH  27  30
ATOM     30  C   UNL A   1      37.321  29.916  28.407  1.00  0.00     0.039 A 
ATOM     31  C   UNL A   1      38.378  29.924  27.484  1.00  0.00     0.014 A 
ATOM     32  C   UNL A   1      37.367  29.066  29.517  1.00  0.00     0.014 A 
ATOM     33  C   UNL A   1      39.487  29.112  27.693  1.00  0.00     0.010 A 
ATOM     34  C   UNL A   1      38.488  28.278  29.749  1.00  0.00     0.010 A 
ATOM     35  C   UNL A   1      39.545  28.304  28.836  1.00  0.00    -0.014 A 
BRANCH  35  36
ATOM     36  C   UNL A   1      40.821  27.643  29.172  1.00  0.00     0.031 A 
ATOM     37  C   UNL A   1      40.968  26.322  28.368  1.00  0.00     0.074 A 
ATOM     38  C   UNL A   1      41.614  28.272  30.099  1.00  0.00     0.049 A 
ATOM     39  N   UNL A   1      41.664  25.259  28.625  1.00  0.00    -0.248 NA
ATOM     40  C   UNL A   1      40.185  26.132  27.108  1.00  0.00     0.031 C 
ATOM     41  C   UNL A   1      41.333  29.602  30.698  1.00  0.00     0.029 A 
ATOM     42  N   UNL A   1      42.804  27.954  30.731  1.00  0.00    -0.354 N 
ATOM     43  C   UNL A   1      41.582  24.394  27.504  1.00  0.00     0.074 A 
ATOM     44  C   UNL A   1      40.563  24.930  26.659  1.00  0.00     0.031 C 
ATOM     45  C   UNL A   1      42.253  29.927  31.637  1.00  0.00     0.029 A 
ATOM     46  C   UNL A   1      43.230  28.864  31.750  1.00  0.00     0.049 A 
ATOM     47  H   UNL A   1      43.324  27.152  30.495  1.00  0.00     0.167 HD
ATOM     48  C   UNL A   1      42.478  23.381  27.291  1.00  0.00     0.037 A 
ATOM     49  C   UNL A   1      44.274  28.740  32.637  1.00  0.00     0.037 A 
ATOM     50  C   UNL A   1      43.383  23.331  28.386  1.00  0.00     0.049 A 
ATOM     51  C   UNL A   1      45.000  27.569  32.155  1.00  0.00     0.074 A 
ATOM     52  C   UNL A   1      43.203  22.959  29.692  1.00  0.00     0.029 A 
ATOM     53  N   UNL A   1      44.518  24.094  28.270  1.00  0.00    -0.354 N 
ATOM     54  N   UNL A   1      45.771  27.580  31.113  1.00  0.00    -0.248 NA
ATOM     55  C   UNL A   1      44.830  26.291  32.853  1.00  0.00     0.031 C 
ATOM     56  C   UNL A   1      43.930  23.943  30.385  1.00  0.00     0.029 A 
ATOM     57  C   UNL A   1      44.751  24.649  29.497  1.00  0.00     0.049 A 
ATOM     58  H   UNL A   1      45.059  24.219  27.457  1.00  0.00     0.167 HD
ATOM     59  C   UNL A   1      45.866  26.244  30.832  1.00  0.00     0.074 A 
ATOM     60  C   UNL A   1      45.588  25.533  32.065  1.00  0.00     0.031 C 
ATOM     61  C   UNL A   1      45.561  25.835  29.575  1.00  0.00     0.037 A 
BRANCH  48  62
ATOM     62  C   UNL A   1      42.854  22.548  26.091  1.00  0.00     0.064 A 
ATOM     63  C   UNL A   1      42.850  21.133  26.241  1.00  0.00     0.173 A 
ATOM     64  C   UNL A   1      43.571  23.046  24.999  1.00  0.00     0.173 A 
ATOM     65  F   UNL A   1      42.144  20.545  27.221  1.00  0.00    -0.203 F 
ATOM     66  C   UNL A   1      43.650  20.301  25.462  1.00  0.00     0.198 A 
ATOM     67  C   UNL A   1      44.331  22.199  24.183  1.00  0.00     0.198 A 
ATOM     68  F   UNL A   1      43.642  24.361  24.758  1.00  0.00    -0.203 F 
ATOM     69  F   UNL A   1      43.744  18.996  25.755  1.00  0.00    -0.200 F 
ATOM     70  C   UNL A   1      44.410  20.840  24.445  1.00  0.00     0.200 A 
ATOM     71  F   UNL A   1      45.058  22.720  23.185  1.00  0.00    -0.200 F 
ATOM     72  F   UNL A   1      45.241  20.060  23.741  1.00  0.00    -0.200 F 
ENDBRANCH  48  62
BRANCH  49  73
ATOM     73  C   UNL A   1      44.884  29.355  33.888  1.00  0.00     0.064 A 
ATOM     74  C   UNL A   1      45.995  30.200  33.945  1.00  0.00     0.173 A 
ATOM     75  C   UNL A   1      44.218  29.191  35.149  1.00  0.00     0.173 A 
ATOM     76  F   UNL A   1      46.782  30.367  32.878  1.00  0.00    -0.203 F 
ATOM     77  C   UNL A   1      46.327  30.910  35.123  1.00  0.00     0.198 A 
ATOM     78  C   UNL A   1      44.502  29.942  36.287  1.00  0.00     0.198 A 
ATOM     79  F   UNL A   1      43.239  28.292  35.323  1.00  0.00    -0.203 F 
ATOM     80  F   UNL A   1      47.400  31.714  35.135  1.00  0.00    -0.200 F 
ATOM     81  C   UNL A   1      45.552  30.820  36.270  1.00  0.00     0.200 A 
ATOM     82  F   UNL A   1      43.727  29.818  37.375  1.00  0.00    -0.200 F 
ATOM     83  F   UNL A   1      45.819  31.564  37.352  1.00  0.00    -0.200 F 
ENDBRANCH  49  73
BRANCH  61  84
ATOM     84  C   UNL A   1      45.755  26.906  28.509  1.00  0.00     0.064 A 
ATOM     85  C   UNL A   1      47.037  27.453  28.307  1.00  0.00     0.173 A 
ATOM     86  C   UNL A   1      44.714  27.515  27.789  1.00  0.00     0.173 A 
ATOM     87  F   UNL A   1      48.097  26.915  28.926  1.00  0.00    -0.203 F 
ATOM     88  C   UNL A   1      47.249  28.563  27.481  1.00  0.00     0.198 A 
ATOM     89  C   UNL A   1      44.924  28.622  26.956  1.00  0.00     0.198 A 
ATOM     90  F   UNL A   1      43.467  27.053  27.868  1.00  0.00    -0.203 F 
ATOM     91  F   UNL A   1      48.485  29.059  27.337  1.00  0.00    -0.200 F 
ATOM     92  C   UNL A   1      46.191  29.150  26.810  1.00  0.00     0.200 A 
ATOM     93  F   UNL A   1      43.893  29.169  26.293  1.00  0.00    -0.200 F 
ATOM     94  F   UNL A   1      46.396  30.208  26.012  1.00  0.00    -0.200 F 
ENDBRANCH  61  84
ENDBRANCH  35  36
ENDBRANCH  27  30
ENDBRANCH  25  26
ENDBRANCH  24  25
ENDBRANCH  23  24
ENDBRANCH   1  23
TORSDOF 16
ENDMDL
