MODEL 1
REMARK VINA RESULT:     -12.6      0.000      0.000
REMARK SMILES CC[C@H]1CCCCN1S(=O)(=O)c1ccc2oc(C(=O)NCCCCCCNC(=O)c3ccc(-c4c5nc(c(-c6c(F)c(F)c(F)c(F)c6F)c6ccc([nH]6)c(-c6c(F)c(F)c(F)c(F)c6F)c6nc(c(-c7c(F)c(F)c(F)c(F)c7F)c7ccc4[nH]7)C=C6)C=C5)cc3)c(C)c2c1
REMARK SMILES IDX 23 1 22 2 21 3 20 4 18 5 19 6 17 8 12 9 13 10 96 11 14 12
REMARK SMILES IDX 95 13 15 14 93 15 16 16 94 17 9 18 10 19 11 20 8 21 3 22
REMARK SMILES IDX 4 23 5 24 7 25 6 26 2 27 1 28 24 29 25 30 26 31 27 32 28 33
REMARK SMILES IDX 29 35 30 36 31 37 92 38 32 39 91 40 33 41 34 42 35 43 85 44
REMARK SMILES IDX 36 45 90 46 84 47 86 48 37 49 89 50 83 51 82 52 38 54 70 55
REMARK SMILES IDX 50 56 69 57 51 58 54 59 68 60 87 61 52 62 53 63 67 65 88 66
REMARK SMILES IDX 55 67 39 68 40 69 48 70 41 71 42 72 46 73 49 74 43 75 44 76
REMARK SMILES IDX 47 77 45 78 71 79 72 80 80 81 73 82 74 83 78 84 81 85 75 86
REMARK SMILES IDX 76 87 79 88 77 89 56 90 57 91 65 92 58 93 59 94 63 95 66 96
REMARK SMILES IDX 60 97 61 98 64 99 62 100
REMARK H PARENT 20 7 27 34 86 53 54 64
REMARK Flexibility Score: inf
ROOT
ATOM      1  C   UNL A   1      31.636  29.684  25.563  1.00  0.00     0.002 C 
ENDROOT
BRANCH   1   2
ATOM      2  C   UNL A   1      32.911  29.326  24.799  1.00  0.00     0.021 C 
BRANCH   2   3
ATOM      3  C   UNL A   1      32.836  29.377  23.279  1.00  0.00     0.116 C 
BRANCH   3   4
ATOM      4  N   UNL A   1      31.513  29.437  22.704  1.00  0.00    -0.349 N 
ATOM      5  C   UNL A   1      30.652  28.399  22.383  1.00  0.00     0.287 C 
ATOM      6  O   UNL A   1      29.578  28.729  21.874  1.00  0.00    -0.266 OA
ATOM      7  H   UNL A   1      31.175  30.341  22.513  1.00  0.00     0.163 HD
BRANCH   5   8
ATOM      8  C   UNL A   1      31.033  27.005  22.590  1.00  0.00     0.195 A 
ATOM      9  C   UNL A   1      32.665  22.787  23.315  1.00  0.00     0.083 A 
ATOM     10  C   UNL A   1      33.118  22.972  22.002  1.00  0.00     0.025 A 
ATOM     11  C   UNL A   1      31.996  23.812  23.984  1.00  0.00     0.034 A 
ATOM     12  C   UNL A   1      32.903  24.202  21.336  1.00  0.00     0.049 A 
ATOM     13  C   UNL A   1      31.645  24.964  23.285  1.00  0.00     0.025 A 
ATOM     14  C   UNL A   1      32.161  25.167  22.022  1.00  0.00     0.135 A 
ATOM     15  C   UNL A   1      30.748  26.031  23.542  1.00  0.00     0.008 A 
ATOM     16  O   UNL A   1      31.831  26.425  21.610  1.00  0.00    -0.451 OA
ATOM     17  C   UNL A   1      29.714  25.965  24.604  1.00  0.00     0.049 C 
BRANCH   9  18
ATOM     18  S   UNL A   1      33.055  21.338  24.273  1.00  0.00     0.243 S 
ATOM     19  O   UNL A   1      32.528  20.228  23.499  1.00  0.00    -0.207 OA
ATOM     20  O   UNL A   1      32.629  21.576  25.631  1.00  0.00    -0.207 OA
BRANCH  18  21
ATOM     21  N   UNL A   1      34.779  21.197  24.281  1.00  0.00    -0.195 NA
ATOM     22  C   UNL A   1      35.502  22.530  24.294  1.00  0.00     0.073 C 
ATOM     23  C   UNL A   1      36.992  22.270  23.982  1.00  0.00     0.020 C 
ATOM     24  C   UNL A   1      37.631  21.327  24.994  1.00  0.00     0.003 C 
ATOM     25  C   UNL A   1      35.379  20.206  25.219  1.00  0.00     0.103 C 
ATOM     26  C   UNL A   1      36.874  20.015  25.000  1.00  0.00     0.017 C 
BRANCH  22  27
ATOM     27  C   UNL A   1      35.373  23.326  25.617  1.00  0.00     0.017 C 
ATOM     28  C   UNL A   1      35.005  24.796  25.455  1.00  0.00     0.005 C 
ENDBRANCH  22  27
ENDBRANCH  18  21
ENDBRANCH   9  18
ENDBRANCH   5   8
ENDBRANCH   3   4
ENDBRANCH   2   3
ENDBRANCH   1   2
BRANCH   1  29
ATOM     29  C   UNL A   1      31.779  30.460  26.876  1.00  0.00     0.002 C 
BRANCH  29  30
ATOM     30  C   UNL A   1      31.442  31.955  26.877  1.00  0.00     0.021 C 
BRANCH  30  31
ATOM     31  C   UNL A   1      32.607  32.943  26.874  1.00  0.00     0.116 C 
BRANCH  31  32
ATOM     32  N   UNL A   1      32.339  34.166  27.602  1.00  0.00    -0.352 N 
ATOM     33  C   UNL A   1      32.991  34.751  28.659  1.00  0.00     0.251 C 
ATOM     34  H   UNL A   1      31.552  34.665  27.284  1.00  0.00     0.163 HD
ATOM     35  O   UNL A   1      32.527  35.783  29.141  1.00  0.00    -0.269 OA
BRANCH  33  36
ATOM     36  C   UNL A   1      34.215  34.164  29.262  1.00  0.00     0.039 A 
ATOM     37  C   UNL A   1      34.044  33.208  30.272  1.00  0.00     0.014 A 
ATOM     38  C   UNL A   1      35.509  34.564  28.913  1.00  0.00     0.014 A 
ATOM     39  C   UNL A   1      35.153  32.622  30.887  1.00  0.00     0.010 A 
ATOM     40  C   UNL A   1      36.620  33.934  29.487  1.00  0.00     0.010 A 
ATOM     41  C   UNL A   1      36.453  32.957  30.481  1.00  0.00    -0.014 A 
BRANCH  41  42
ATOM     42  C   UNL A   1      37.626  32.270  31.086  1.00  0.00     0.031 A 
ATOM     43  C   UNL A   1      38.089  32.603  32.477  1.00  0.00     0.074 A 
ATOM     44  C   UNL A   1      38.289  31.344  30.367  1.00  0.00     0.049 A 
ATOM     45  N   UNL A   1      39.065  32.072  33.173  1.00  0.00    -0.248 NA
ATOM     46  C   UNL A   1      37.379  33.685  33.172  1.00  0.00     0.031 C 
ATOM     47  C   UNL A   1      37.980  30.968  28.986  1.00  0.00     0.029 A 
ATOM     48  N   UNL A   1      39.358  30.548  30.697  1.00  0.00    -0.354 N 
ATOM     49  C   UNL A   1      39.090  32.757  34.380  1.00  0.00     0.074 A 
ATOM     50  C   UNL A   1      38.061  33.774  34.306  1.00  0.00     0.031 C 
ATOM     51  C   UNL A   1      38.818  29.994  28.598  1.00  0.00     0.029 A 
ATOM     52  C   UNL A   1      39.734  29.688  29.693  1.00  0.00     0.049 A 
ATOM     53  H   UNL A   1      39.811  30.588  31.569  1.00  0.00     0.167 HD
ATOM     54  C   UNL A   1      39.882  32.547  35.459  1.00  0.00     0.037 A 
ATOM     55  C   UNL A   1      40.698  28.750  29.663  1.00  0.00     0.037 A 
ATOM     56  C   UNL A   1      40.890  31.522  35.545  1.00  0.00     0.049 A 
ATOM     57  C   UNL A   1      41.535  28.509  30.887  1.00  0.00     0.074 A 
ATOM     58  C   UNL A   1      41.703  31.198  36.619  1.00  0.00     0.029 A 
ATOM     59  N   UNL A   1      41.223  30.653  34.518  1.00  0.00    -0.354 N 
ATOM     60  N   UNL A   1      41.498  29.116  32.047  1.00  0.00    -0.248 NA
ATOM     61  C   UNL A   1      42.539  27.438  30.801  1.00  0.00     0.031 C 
ATOM     62  C   UNL A   1      42.551  30.153  36.229  1.00  0.00     0.029 A 
ATOM     63  C   UNL A   1      42.238  29.802  34.926  1.00  0.00     0.049 A 
ATOM     64  H   UNL A   1      40.800  30.642  33.629  1.00  0.00     0.167 HD
ATOM     65  C   UNL A   1      42.455  28.491  32.835  1.00  0.00     0.074 A 
ATOM     66  C   UNL A   1      43.043  27.443  32.027  1.00  0.00     0.031 C 
ATOM     67  C   UNL A   1      42.817  28.764  34.112  1.00  0.00     0.037 A 
BRANCH  54  68
ATOM     68  C   UNL A   1      39.685  33.443  36.647  1.00  0.00     0.064 A 
ATOM     69  C   UNL A   1      38.811  33.098  37.688  1.00  0.00     0.173 A 
ATOM     70  C   UNL A   1      40.408  34.640  36.766  1.00  0.00     0.173 A 
ATOM     71  F   UNL A   1      38.090  31.970  37.616  1.00  0.00    -0.203 F 
ATOM     72  C   UNL A   1      38.650  33.929  38.794  1.00  0.00     0.198 A 
ATOM     73  C   UNL A   1      40.264  35.456  37.885  1.00  0.00     0.198 A 
ATOM     74  F   UNL A   1      41.263  35.013  35.800  1.00  0.00    -0.203 F 
ATOM     75  F   UNL A   1      37.780  33.598  39.757  1.00  0.00    -0.200 F 
ATOM     76  C   UNL A   1      39.381  35.104  38.894  1.00  0.00     0.200 A 
ATOM     77  F   UNL A   1      40.979  36.586  37.986  1.00  0.00    -0.200 F 
ATOM     78  F   UNL A   1      39.229  35.900  39.961  1.00  0.00    -0.200 F 
ENDBRANCH  54  68
BRANCH  55  79
ATOM     79  C   UNL A   1      40.890  27.930  28.440  1.00  0.00     0.064 A 
ATOM     80  C   UNL A   1      41.759  28.350  27.423  1.00  0.00     0.173 A 
ATOM     81  C   UNL A   1      40.216  26.713  28.265  1.00  0.00     0.173 A 
ATOM     82  F   UNL A   1      42.408  29.517  27.538  1.00  0.00    -0.203 F 
ATOM     83  C   UNL A   1      41.931  27.592  26.267  1.00  0.00     0.198 A 
ATOM     84  C   UNL A   1      40.409  25.945  27.119  1.00  0.00     0.198 A 
ATOM     85  F   UNL A   1      39.379  26.267  29.213  1.00  0.00    -0.203 F 
ATOM     86  F   UNL A   1      42.737  28.035  25.293  1.00  0.00    -0.200 F 
ATOM     87  C   UNL A   1      41.260  26.388  26.119  1.00  0.00     0.200 A 
ATOM     88  F   UNL A   1      39.768  24.775  26.984  1.00  0.00    -0.200 F 
ATOM     89  F   UNL A   1      41.430  25.656  25.009  1.00  0.00    -0.200 F 
ENDBRANCH  55  79
BRANCH  67  90
ATOM     90  C   UNL A   1      43.886  27.902  34.715  1.00  0.00     0.064 A 
ATOM     91  C   UNL A   1      43.588  26.656  35.284  1.00  0.00     0.173 A 
ATOM     92  C   UNL A   1      45.224  28.324  34.716  1.00  0.00     0.173 A 
ATOM     93  F   UNL A   1      42.320  26.217  35.322  1.00  0.00    -0.203 F 
ATOM     94  C   UNL A   1      44.586  25.876  35.864  1.00  0.00     0.198 A 
ATOM     95  C   UNL A   1      46.223  27.531  35.273  1.00  0.00     0.198 A 
ATOM     96  F   UNL A   1      45.562  29.505  34.179  1.00  0.00    -0.203 F 
ATOM     97  F   UNL A   1      44.270  24.714  36.451  1.00  0.00    -0.200 F 
ATOM     98  C   UNL A   1      45.902  26.312  35.854  1.00  0.00     0.200 A 
ATOM     99  F   UNL A   1      47.496  27.949  35.257  1.00  0.00    -0.200 F 
ATOM    100  F   UNL A   1      46.861  25.564  36.417  1.00  0.00    -0.200 F 
ENDBRANCH  67  90
ENDBRANCH  41  42
ENDBRANCH  33  36
ENDBRANCH  31  32
ENDBRANCH  30  31
ENDBRANCH  29  30
ENDBRANCH   1  29
TORSDOF 16
ENDMDL
MODEL 2
REMARK VINA RESULT:     -12.2      5.840     11.612
REMARK SMILES CC[C@H]1CCCCN1S(=O)(=O)c1ccc2oc(C(=O)NCCCCCCNC(=O)c3ccc(-c4c5nc(c(-c6c(F)c(F)c(F)c(F)c6F)c6ccc([nH]6)c(-c6c(F)c(F)c(F)c(F)c6F)c6nc(c(-c7c(F)c(F)c(F)c(F)c7F)c7ccc4[nH]7)C=C6)C=C5)cc3)c(C)c2c1
REMARK SMILES IDX 23 1 22 2 21 3 20 4 18 5 19 6 17 8 12 9 13 10 96 11 14 12
REMARK SMILES IDX 95 13 15 14 93 15 16 16 94 17 9 18 10 19 11 20 8 21 3 22
REMARK SMILES IDX 4 23 5 24 7 25 6 26 2 27 1 28 24 29 25 30 26 31 27 32 28 33
REMARK SMILES IDX 29 35 30 36 31 37 92 38 32 39 91 40 33 41 34 42 35 43 85 44
REMARK SMILES IDX 36 45 90 46 84 47 86 48 37 49 89 50 83 51 82 52 38 54 70 55
REMARK SMILES IDX 50 56 69 57 51 58 54 59 68 60 87 61 52 62 53 63 67 65 88 66
REMARK SMILES IDX 55 67 39 68 40 69 48 70 41 71 42 72 46 73 49 74 43 75 44 76
REMARK SMILES IDX 47 77 45 78 71 79 72 80 80 81 73 82 74 83 78 84 81 85 75 86
REMARK SMILES IDX 76 87 79 88 77 89 56 90 57 91 65 92 58 93 59 94 63 95 66 96
REMARK SMILES IDX 60 97 61 98 64 99 62 100
REMARK H PARENT 20 7 27 34 86 53 54 64
REMARK Flexibility Score: inf
ROOT
ATOM      1  C   UNL A   1      40.767  21.654  27.366  1.00  0.00     0.002 C 
ENDROOT
BRANCH   1   2
ATOM      2  C   UNL A   1      40.016  22.936  27.004  1.00  0.00     0.021 C 
BRANCH   2   3
ATOM      3  C   UNL A   1      38.720  22.772  26.222  1.00  0.00     0.116 C 
BRANCH   3   4
ATOM      4  N   UNL A   1      38.430  21.446  25.730  1.00  0.00    -0.349 N 
ATOM      5  C   UNL A   1      37.220  20.915  25.310  1.00  0.00     0.287 C 
ATOM      6  O   UNL A   1      37.246  19.734  24.956  1.00  0.00    -0.266 OA
ATOM      7  H   UNL A   1      39.199  20.833  25.686  1.00  0.00     0.163 HD
BRANCH   5   8
ATOM      8  C   UNL A   1      35.992  21.704  25.345  1.00  0.00     0.195 A 
ATOM      9  C   UNL A   1      32.325  24.407  25.819  1.00  0.00     0.083 A 
ATOM     10  C   UNL A   1      32.068  23.508  26.862  1.00  0.00     0.025 A 
ATOM     11  C   UNL A   1      33.495  24.303  25.067  1.00  0.00     0.034 A 
ATOM     12  C   UNL A   1      32.991  22.480  27.165  1.00  0.00     0.049 A 
ATOM     13  C   UNL A   1      34.329  23.204  25.257  1.00  0.00     0.025 A 
ATOM     14  C   UNL A   1      34.108  22.370  26.333  1.00  0.00     0.135 A 
ATOM     15  C   UNL A   1      35.391  22.638  24.507  1.00  0.00     0.008 A 
ATOM     16  O   UNL A   1      35.139  21.483  26.420  1.00  0.00    -0.451 OA
ATOM     17  C   UNL A   1      35.657  23.011  23.096  1.00  0.00     0.049 C 
BRANCH   9  18
ATOM     18  S   UNL A   1      31.301  25.828  25.498  1.00  0.00     0.243 S 
ATOM     19  O   UNL A   1      30.291  25.801  26.540  1.00  0.00    -0.207 OA
ATOM     20  O   UNL A   1      30.940  25.808  24.101  1.00  0.00    -0.207 OA
BRANCH  18  21
ATOM     21  N   UNL A   1      32.289  27.223  25.764  1.00  0.00    -0.195 NA
ATOM     22  C   UNL A   1      32.190  28.262  24.664  1.00  0.00     0.073 C 
ATOM     23  C   UNL A   1      33.334  29.280  24.862  1.00  0.00     0.020 C 
ATOM     24  C   UNL A   1      33.263  29.962  26.223  1.00  0.00     0.003 C 
ATOM     25  C   UNL A   1      32.270  27.823  27.128  1.00  0.00     0.103 C 
ATOM     26  C   UNL A   1      33.321  28.909  27.311  1.00  0.00     0.017 C 
BRANCH  22  27
ATOM     27  C   UNL A   1      30.832  29.004  24.593  1.00  0.00     0.017 C 
ATOM     28  C   UNL A   1      30.310  29.265  23.184  1.00  0.00     0.005 C 
ENDBRANCH  22  27
ENDBRANCH  18  21
ENDBRANCH   9  18
ENDBRANCH   5   8
ENDBRANCH   3   4
ENDBRANCH   2   3
ENDBRANCH   1   2
BRANCH   1  29
ATOM     29  C   UNL A   1      41.789  21.112  26.362  1.00  0.00     0.002 C 
BRANCH  29  30
ATOM     30  C   UNL A   1      41.756  19.617  26.027  1.00  0.00     0.021 C 
BRANCH  30  31
ATOM     31  C   UNL A   1      43.079  18.855  26.059  1.00  0.00     0.116 C 
BRANCH  31  32
ATOM     32  N   UNL A   1      43.756  18.802  24.780  1.00  0.00    -0.352 N 
ATOM     33  C   UNL A   1      44.512  19.737  24.117  1.00  0.00     0.251 C 
ATOM     34  H   UNL A   1      43.656  17.947  24.302  1.00  0.00     0.163 HD
ATOM     35  O   UNL A   1      44.942  19.462  22.998  1.00  0.00    -0.269 OA
BRANCH  33  36
ATOM     36  C   UNL A   1      44.798  21.078  24.687  1.00  0.00     0.039 A 
ATOM     37  C   UNL A   1      44.467  22.196  23.910  1.00  0.00     0.014 A 
ATOM     38  C   UNL A   1      45.429  21.269  25.920  1.00  0.00     0.014 A 
ATOM     39  C   UNL A   1      44.716  23.487  24.382  1.00  0.00     0.010 A 
ATOM     40  C   UNL A   1      45.625  22.562  26.419  1.00  0.00     0.010 A 
ATOM     41  C   UNL A   1      45.272  23.684  25.655  1.00  0.00    -0.014 A 
BRANCH  41  42
ATOM     42  C   UNL A   1      45.461  25.062  26.183  1.00  0.00     0.031 A 
ATOM     43  C   UNL A   1      46.798  25.745  26.111  1.00  0.00     0.074 A 
ATOM     44  C   UNL A   1      44.416  25.701  26.745  1.00  0.00     0.049 A 
ATOM     45  N   UNL A   1      47.129  26.957  26.484  1.00  0.00    -0.248 NA
ATOM     46  C   UNL A   1      47.916  24.960  25.569  1.00  0.00     0.031 C 
ATOM     47  C   UNL A   1      43.080  25.131  26.929  1.00  0.00     0.029 A 
ATOM     48  N   UNL A   1      44.312  26.968  27.262  1.00  0.00    -0.354 N 
ATOM     49  C   UNL A   1      48.488  27.078  26.229  1.00  0.00     0.074 A 
ATOM     50  C   UNL A   1      48.932  25.800  25.711  1.00  0.00     0.031 C 
ATOM     51  C   UNL A   1      42.283  26.056  27.489  1.00  0.00     0.029 A 
ATOM     52  C   UNL A   1      43.053  27.274  27.719  1.00  0.00     0.049 A 
ATOM     53  H   UNL A   1      45.067  27.598  27.302  1.00  0.00     0.167 HD
ATOM     54  C   UNL A   1      49.289  28.159  26.391  1.00  0.00     0.037 A 
ATOM     55  C   UNL A   1      42.569  28.412  28.249  1.00  0.00     0.037 A 
ATOM     56  C   UNL A   1      48.847  29.438  26.883  1.00  0.00     0.049 A 
ATOM     57  C   UNL A   1      43.468  29.609  28.380  1.00  0.00     0.074 A 
ATOM     58  C   UNL A   1      49.574  30.607  27.029  1.00  0.00     0.029 A 
ATOM     59  N   UNL A   1      47.557  29.717  27.310  1.00  0.00    -0.354 N 
ATOM     60  N   UNL A   1      44.734  29.730  28.066  1.00  0.00    -0.248 NA
ATOM     61  C   UNL A   1      42.864  30.834  28.925  1.00  0.00     0.031 C 
ATOM     62  C   UNL A   1      48.733  31.585  27.574  1.00  0.00     0.029 A 
ATOM     63  C   UNL A   1      47.472  31.035  27.731  1.00  0.00     0.049 A 
ATOM     64  H   UNL A   1      46.813  29.074  27.312  1.00  0.00     0.167 HD
ATOM     65  C   UNL A   1      45.074  31.045  28.354  1.00  0.00     0.074 A 
ATOM     66  C   UNL A   1      43.874  31.689  28.850  1.00  0.00     0.031 C 
ATOM     67  C   UNL A   1      46.273  31.662  28.225  1.00  0.00     0.037 A 
BRANCH  54  68
ATOM     68  C   UNL A   1      50.737  28.008  26.023  1.00  0.00     0.064 A 
ATOM     69  C   UNL A   1      51.170  28.120  24.694  1.00  0.00     0.173 A 
ATOM     70  C   UNL A   1      51.706  27.791  27.014  1.00  0.00     0.173 A 
ATOM     71  F   UNL A   1      50.281  28.317  23.709  1.00  0.00    -0.203 F 
ATOM     72  C   UNL A   1      52.518  27.997  24.366  1.00  0.00     0.198 A 
ATOM     73  C   UNL A   1      53.056  27.693  26.686  1.00  0.00     0.198 A 
ATOM     74  F   UNL A   1      51.345  27.683  28.302  1.00  0.00    -0.203 F 
ATOM     75  F   UNL A   1      52.903  28.066  23.085  1.00  0.00    -0.200 F 
ATOM     76  C   UNL A   1      53.460  27.789  25.364  1.00  0.00     0.200 A 
ATOM     77  F   UNL A   1      53.967  27.504  27.652  1.00  0.00    -0.200 F 
ATOM     78  F   UNL A   1      54.757  27.676  25.048  1.00  0.00    -0.200 F 
ENDBRANCH  54  68
BRANCH  55  79
ATOM     79  C   UNL A   1      41.142  28.489  28.652  1.00  0.00     0.064 A 
ATOM     80  C   UNL A   1      40.167  28.950  27.757  1.00  0.00     0.173 A 
ATOM     81  C   UNL A   1      40.725  28.103  29.934  1.00  0.00     0.173 A 
ATOM     82  F   UNL A   1      40.522  29.350  26.528  1.00  0.00    -0.203 F 
ATOM     83  C   UNL A   1      38.829  29.039  28.135  1.00  0.00     0.198 A 
ATOM     84  C   UNL A   1      39.383  28.169  30.302  1.00  0.00     0.198 A 
ATOM     85  F   UNL A   1      41.621  27.650  30.823  1.00  0.00    -0.203 F 
ATOM     86  F   UNL A   1      37.922  29.519  27.273  1.00  0.00    -0.200 F 
ATOM     87  C   UNL A   1      38.438  28.643  29.405  1.00  0.00     0.200 A 
ATOM     88  F   UNL A   1      39.006  27.774  31.526  1.00  0.00    -0.200 F 
ATOM     89  F   UNL A   1      37.150  28.723  29.767  1.00  0.00    -0.200 F 
ENDBRANCH  55  79
BRANCH  67  90
ATOM     90  C   UNL A   1      46.337  33.111  28.608  1.00  0.00     0.064 A 
ATOM     91  C   UNL A   1      46.068  34.128  27.680  1.00  0.00     0.173 A 
ATOM     92  C   UNL A   1      46.663  33.487  29.920  1.00  0.00     0.173 A 
ATOM     93  F   UNL A   1      45.768  33.819  26.409  1.00  0.00    -0.203 F 
ATOM     94  C   UNL A   1      46.156  35.469  28.042  1.00  0.00     0.198 A 
ATOM     95  C   UNL A   1      46.725  34.828  30.285  1.00  0.00     0.198 A 
ATOM     96  F   UNL A   1      46.924  32.553  30.846  1.00  0.00    -0.203 F 
ATOM     97  F   UNL A   1      45.948  36.424  27.125  1.00  0.00    -0.200 F 
ATOM     98  C   UNL A   1      46.480  35.818  29.345  1.00  0.00     0.200 A 
ATOM     99  F   UNL A   1      47.031  35.165  31.546  1.00  0.00    -0.200 F 
ATOM    100  F   UNL A   1      46.569  37.110  29.691  1.00  0.00    -0.200 F 
ENDBRANCH  67  90
ENDBRANCH  41  42
ENDBRANCH  33  36
ENDBRANCH  31  32
ENDBRANCH  30  31
ENDBRANCH  29  30
ENDBRANCH   1  29
TORSDOF 16
ENDMDL
MODEL 3
REMARK VINA RESULT:     -12.2      0.787      7.223
REMARK SMILES CC[C@H]1CCCCN1S(=O)(=O)c1ccc2oc(C(=O)NCCCCCCNC(=O)c3ccc(-c4c5nc(c(-c6c(F)c(F)c(F)c(F)c6F)c6ccc([nH]6)c(-c6c(F)c(F)c(F)c(F)c6F)c6nc(c(-c7c(F)c(F)c(F)c(F)c7F)c7ccc4[nH]7)C=C6)C=C5)cc3)c(C)c2c1
REMARK SMILES IDX 23 1 22 2 21 3 20 4 18 5 19 6 17 8 12 9 13 10 96 11 14 12
REMARK SMILES IDX 95 13 15 14 93 15 16 16 94 17 9 18 10 19 11 20 8 21 3 22
REMARK SMILES IDX 4 23 5 24 7 25 6 26 2 27 1 28 24 29 25 30 26 31 27 32 28 33
REMARK SMILES IDX 29 35 30 36 31 37 92 38 32 39 91 40 33 41 34 42 35 43 85 44
REMARK SMILES IDX 36 45 90 46 84 47 86 48 37 49 89 50 83 51 82 52 38 54 70 55
REMARK SMILES IDX 50 56 69 57 51 58 54 59 68 60 87 61 52 62 53 63 67 65 88 66
REMARK SMILES IDX 55 67 39 68 40 69 48 70 41 71 42 72 46 73 49 74 43 75 44 76
REMARK SMILES IDX 47 77 45 78 71 79 72 80 80 81 73 82 74 83 78 84 81 85 75 86
REMARK SMILES IDX 76 87 79 88 77 89 56 90 57 91 65 92 58 93 59 94 63 95 66 96
REMARK SMILES IDX 60 97 61 98 64 99 62 100
REMARK H PARENT 20 7 27 34 86 53 54 64
REMARK Flexibility Score: inf
ROOT
ATOM      1  C   UNL A   1      31.700  29.741  25.618  1.00  0.00     0.002 C 
ENDROOT
BRANCH   1   2
ATOM      2  C   UNL A   1      33.005  29.373  24.911  1.00  0.00     0.021 C 
BRANCH   2   3
ATOM      3  C   UNL A   1      32.983  29.372  23.389  1.00  0.00     0.116 C 
BRANCH   3   4
ATOM      4  N   UNL A   1      31.684  29.469  22.765  1.00  0.00    -0.349 N 
ATOM      5  C   UNL A   1      30.803  28.455  22.419  1.00  0.00     0.287 C 
ATOM      6  O   UNL A   1      29.758  28.816  21.871  1.00  0.00    -0.266 OA
ATOM      7  H   UNL A   1      31.381  30.382  22.558  1.00  0.00     0.163 HD
BRANCH   5   8
ATOM      8  C   UNL A   1      31.134  27.052  22.646  1.00  0.00     0.195 A 
ATOM      9  C   UNL A   1      32.614  22.788  23.425  1.00  0.00     0.083 A 
ATOM     10  C   UNL A   1      33.053  22.932  22.103  1.00  0.00     0.025 A 
ATOM     11  C   UNL A   1      31.997  23.850  24.086  1.00  0.00     0.034 A 
ATOM     12  C   UNL A   1      32.875  24.156  21.417  1.00  0.00     0.049 A 
ATOM     13  C   UNL A   1      31.678  25.002  23.370  1.00  0.00     0.025 A 
ATOM     14  C   UNL A   1      32.181  25.162  22.096  1.00  0.00     0.135 A 
ATOM     15  C   UNL A   1      30.827  26.107  23.621  1.00  0.00     0.008 A 
ATOM     16  O   UNL A   1      31.893  26.423  21.666  1.00  0.00    -0.451 OA
ATOM     17  C   UNL A   1      29.809  26.100  24.700  1.00  0.00     0.049 C 
BRANCH   9  18
ATOM     18  S   UNL A   1      32.965  21.343  24.405  1.00  0.00     0.243 S 
ATOM     19  O   UNL A   1      32.322  20.250  23.697  1.00  0.00    -0.207 OA
ATOM     20  O   UNL A   1      32.635  21.646  25.776  1.00  0.00    -0.207 OA
BRANCH  18  21
ATOM     21  N   UNL A   1      34.673  21.087  24.320  1.00  0.00    -0.195 NA
ATOM     22  C   UNL A   1      35.487  22.366  24.367  1.00  0.00     0.073 C 
ATOM     23  C   UNL A   1      36.939  22.025  23.969  1.00  0.00     0.020 C 
ATOM     24  C   UNL A   1      37.557  20.985  24.897  1.00  0.00     0.003 C 
ATOM     25  C   UNL A   1      35.245  20.006  25.173  1.00  0.00     0.103 C 
ATOM     26  C   UNL A   1      36.712  19.729  24.871  1.00  0.00     0.017 C 
BRANCH  22  27
ATOM     27  C   UNL A   1      35.474  23.092  25.736  1.00  0.00     0.017 C 
ATOM     28  C   UNL A   1      36.667  24.005  25.995  1.00  0.00     0.005 C 
ENDBRANCH  22  27
ENDBRANCH  18  21
ENDBRANCH   9  18
ENDBRANCH   5   8
ENDBRANCH   3   4
ENDBRANCH   2   3
ENDBRANCH   1   2
BRANCH   1  29
ATOM     29  C   UNL A   1      31.791  30.522  26.933  1.00  0.00     0.002 C 
BRANCH  29  30
ATOM     30  C   UNL A   1      31.503  32.027  26.907  1.00  0.00     0.021 C 
BRANCH  30  31
ATOM     31  C   UNL A   1      32.699  32.977  26.939  1.00  0.00     0.116 C 
BRANCH  31  32
ATOM     32  N   UNL A   1      32.423  34.242  27.589  1.00  0.00    -0.352 N 
ATOM     33  C   UNL A   1      33.027  34.861  28.654  1.00  0.00     0.251 C 
ATOM     34  H   UNL A   1      31.673  34.745  27.199  1.00  0.00     0.163 HD
ATOM     35  O   UNL A   1      32.566  35.928  29.056  1.00  0.00    -0.269 OA
BRANCH  33  36
ATOM     36  C   UNL A   1      34.195  34.273  29.360  1.00  0.00     0.039 A 
ATOM     37  C   UNL A   1      33.935  33.429  30.448  1.00  0.00     0.014 A 
ATOM     38  C   UNL A   1      35.520  34.569  29.029  1.00  0.00     0.014 A 
ATOM     39  C   UNL A   1      34.987  32.848  31.161  1.00  0.00     0.010 A 
ATOM     40  C   UNL A   1      36.573  33.941  29.705  1.00  0.00     0.010 A 
ATOM     41  C   UNL A   1      36.317  33.075  30.779  1.00  0.00    -0.014 A 
BRANCH  41  42
ATOM     42  C   UNL A   1      37.428  32.390  31.493  1.00  0.00     0.031 A 
ATOM     43  C   UNL A   1      38.169  31.245  30.860  1.00  0.00     0.074 A 
ATOM     44  C   UNL A   1      37.764  32.797  32.733  1.00  0.00     0.049 A 
ATOM     45  N   UNL A   1      39.188  30.563  31.323  1.00  0.00    -0.248 NA
ATOM     46  C   UNL A   1      37.693  30.792  29.546  1.00  0.00     0.031 C 
ATOM     47  C   UNL A   1      37.090  33.857  33.483  1.00  0.00     0.029 A 
ATOM     48  N   UNL A   1      38.759  32.371  33.578  1.00  0.00    -0.354 N 
ATOM     49  C   UNL A   1      39.470  29.600  30.363  1.00  0.00     0.074 A 
ATOM     50  C   UNL A   1      38.486  29.755  29.312  1.00  0.00     0.031 C 
ATOM     51  C   UNL A   1      37.708  34.020  34.664  1.00  0.00     0.029 A 
ATOM     52  C   UNL A   1      38.809  33.067  34.762  1.00  0.00     0.049 A 
ATOM     53  H   UNL A   1      39.377  31.638  33.357  1.00  0.00     0.167 HD
ATOM     54  C   UNL A   1      40.469  28.684  30.348  1.00  0.00     0.037 A 
ATOM     55  C   UNL A   1      39.656  32.960  35.802  1.00  0.00     0.037 A 
ATOM     56  C   UNL A   1      41.463  28.542  31.380  1.00  0.00     0.049 A 
ATOM     57  C   UNL A   1      40.780  31.963  35.742  1.00  0.00     0.074 A 
ATOM     58  C   UNL A   1      42.546  27.679  31.425  1.00  0.00     0.029 A 
ATOM     59  N   UNL A   1      41.498  29.283  32.551  1.00  0.00    -0.354 N 
ATOM     60  N   UNL A   1      41.078  31.109  34.795  1.00  0.00    -0.248 NA
ATOM     61  C   UNL A   1      41.695  31.930  36.892  1.00  0.00     0.031 C 
ATOM     62  C   UNL A   1      43.218  27.877  32.638  1.00  0.00     0.029 A 
ATOM     63  C   UNL A   1      42.574  28.889  33.331  1.00  0.00     0.049 A 
ATOM     64  H   UNL A   1      40.853  29.986  32.793  1.00  0.00     0.167 HD
ATOM     65  C   UNL A   1      42.223  30.451  35.222  1.00  0.00     0.074 A 
ATOM     66  C   UNL A   1      42.579  31.020  36.506  1.00  0.00     0.031 C 
ATOM     67  C   UNL A   1      42.916  29.462  34.608  1.00  0.00     0.037 A 
BRANCH  54  68
ATOM     68  C   UNL A   1      40.543  27.761  29.167  1.00  0.00     0.064 A 
ATOM     69  C   UNL A   1      41.420  28.004  28.101  1.00  0.00     0.173 A 
ATOM     70  C   UNL A   1      39.758  26.598  29.120  1.00  0.00     0.173 A 
ATOM     71  F   UNL A   1      42.184  29.107  28.094  1.00  0.00    -0.203 F 
ATOM     72  C   UNL A   1      41.494  27.131  27.019  1.00  0.00     0.198 A 
ATOM     73  C   UNL A   1      39.852  25.714  28.048  1.00  0.00     0.198 A 
ATOM     74  F   UNL A   1      38.907  26.315  30.118  1.00  0.00    -0.203 F 
ATOM     75  F   UNL A   1      42.310  27.405  25.992  1.00  0.00    -0.200 F 
ATOM     76  C   UNL A   1      40.714  25.983  26.996  1.00  0.00     0.200 A 
ATOM     77  F   UNL A   1      39.106  24.600  28.032  1.00  0.00    -0.200 F 
ATOM     78  F   UNL A   1      40.789  25.142  25.957  1.00  0.00    -0.200 F 
ENDBRANCH  54  68
BRANCH  55  79
ATOM     79  C   UNL A   1      39.502  33.858  36.973  1.00  0.00     0.064 A 
ATOM     80  C   UNL A   1      38.772  33.452  38.099  1.00  0.00     0.173 A 
ATOM     81  C   UNL A   1      40.082  35.135  36.994  1.00  0.00     0.173 A 
ATOM     82  F   UNL A   1      38.183  32.248  38.115  1.00  0.00    -0.203 F 
ATOM     83  C   UNL A   1      38.612  34.297  39.194  1.00  0.00     0.198 A 
ATOM     84  C   UNL A   1      39.941  35.969  38.100  1.00  0.00     0.198 A 
ATOM     85  F   UNL A   1      40.795  35.566  35.943  1.00  0.00    -0.203 F 
ATOM     86  F   UNL A   1      37.877  33.900  40.242  1.00  0.00    -0.200 F 
ATOM     87  C   UNL A   1      39.201  35.553  39.197  1.00  0.00     0.200 A 
ATOM     88  F   UNL A   1      40.522  37.177  38.104  1.00  0.00    -0.200 F 
ATOM     89  F   UNL A   1      39.051  36.364  40.253  1.00  0.00    -0.200 F 
ENDBRANCH  55  79
BRANCH  67  90
ATOM     90  C   UNL A   1      44.137  28.947  35.312  1.00  0.00     0.064 A 
ATOM     91  C   UNL A   1      45.402  29.511  35.091  1.00  0.00     0.173 A 
ATOM     92  C   UNL A   1      44.038  27.885  36.223  1.00  0.00     0.173 A 
ATOM     93  F   UNL A   1      45.548  30.518  34.216  1.00  0.00    -0.203 F 
ATOM     94  C   UNL A   1      46.531  29.008  35.732  1.00  0.00     0.198 A 
ATOM     95  C   UNL A   1      45.166  27.401  36.881  1.00  0.00     0.198 A 
ATOM     96  F   UNL A   1      42.851  27.315  36.472  1.00  0.00    -0.203 F 
ATOM     97  F   UNL A   1      47.738  29.527  35.465  1.00  0.00    -0.200 F 
ATOM     98  C   UNL A   1      46.411  27.957  36.629  1.00  0.00     0.200 A 
ATOM     99  F   UNL A   1      45.049  26.391  37.753  1.00  0.00    -0.200 F 
ATOM    100  F   UNL A   1      47.500  27.470  37.240  1.00  0.00    -0.200 F 
ENDBRANCH  67  90
ENDBRANCH  41  42
ENDBRANCH  33  36
ENDBRANCH  31  32
ENDBRANCH  30  31
ENDBRANCH  29  30
ENDBRANCH   1  29
TORSDOF 16
ENDMDL
