MODEL 1
REMARK VINA RESULT:     -12.1      0.000      0.000
REMARK SMILES Cc1nc(C(C)C)[nH]c(=O)c1C(=O)N(C)CC(=O)NCCCCCCNC(=O)c1ccc(-c2c3nc(c(-c4c(F)c(F)c(F)c(F)c4F)c4ccc([nH]4)c(-c4c(F)c(F)c(F)c(F)c4F)c4nc(c(-c5c(F)c(F)c(F)c(F)c5F)c5ccc2[nH]5)C=C4)C=C3)cc1
REMARK SMILES IDX 21 1 20 2 19 3 17 4 18 5 16 7 14 8 15 9 12 10 13 11 11 12
REMARK SMILES IDX 1 13 2 14 3 15 4 16 9 17 8 18 10 19 5 21 6 22 7 23 22 24
REMARK SMILES IDX 23 25 24 26 25 27 26 28 27 29 28 31 29 32 30 33 91 34 31 35
REMARK SMILES IDX 90 36 32 37 33 38 34 39 84 40 35 41 89 42 83 43 85 44 36 45
REMARK SMILES IDX 88 46 82 47 81 48 37 50 69 51 49 52 68 53 50 54 53 55 67 56
REMARK SMILES IDX 86 57 51 58 52 59 66 61 87 62 54 63 38 64 39 65 47 66 40 67
REMARK SMILES IDX 41 68 45 69 48 70 42 71 43 72 46 73 44 74 70 75 71 76 79 77
REMARK SMILES IDX 72 78 73 79 77 80 80 81 74 82 75 83 78 84 76 85 55 86 56 87
REMARK SMILES IDX 64 88 57 89 58 90 62 91 65 92 59 93 60 94 63 95 61 96
REMARK H PARENT 19 6 8 20 26 30 85 49 53 60
REMARK Flexibility Score: inf
ROOT
ATOM      1  C   UNL A   1      33.006  28.511  26.794  1.00  0.00     0.021 C 
ENDROOT
BRANCH   1   2
ATOM      2  C   UNL A   1      31.686  27.824  26.451  1.00  0.00     0.116 C 
BRANCH   2   3
ATOM      3  N   UNL A   1      31.595  26.513  27.044  1.00  0.00    -0.355 N 
ATOM      4  C   UNL A   1      31.334  25.310  26.463  1.00  0.00     0.239 C 
ATOM      5  O   UNL A   1      31.478  24.305  27.169  1.00  0.00    -0.273 OA
ATOM      6  H   UNL A   1      31.744  26.483  28.016  1.00  0.00     0.163 HD
BRANCH   4   7
ATOM      7  C   UNL A   1      31.131  25.172  24.942  1.00  0.00     0.219 C 
BRANCH   7   8
ATOM      8  N   UNL A   1      32.089  25.723  23.965  1.00  0.00    -0.332 N 
ATOM      9  C   UNL A   1      33.448  25.216  24.082  1.00  0.00     0.147 C 
BRANCH   8  10
ATOM     10  C   UNL A   1      31.537  26.377  22.870  1.00  0.00     0.261 C 
ATOM     11  O   UNL A   1      31.630  25.855  21.754  1.00  0.00    -0.269 OA
BRANCH  10  12
ATOM     12  C   UNL A   1      30.794  27.688  22.944  1.00  0.00     0.126 A 
ATOM     13  C   UNL A   1      28.485  26.899  23.673  1.00  0.00     0.068 C 
ATOM     14  C   UNL A   1      29.499  27.930  23.253  1.00  0.00     0.058 A 
ATOM     15  N   UNL A   1      28.884  29.166  23.138  1.00  0.00    -0.239 NA
ATOM     16  C   UNL A   1      29.510  30.121  22.538  1.00  0.00     0.111 A 
ATOM     17  C   UNL A   1      31.531  28.881  22.404  1.00  0.00     0.264 A 
ATOM     18  N   UNL A   1      30.788  29.985  22.109  1.00  0.00    -0.310 N 
ATOM     19  O   UNL A   1      32.749  28.925  22.261  1.00  0.00    -0.269 OA
ATOM     20  H   UNL A   1      31.190  30.703  21.568  1.00  0.00     0.171 HD
BRANCH  16  21
ATOM     21  C   UNL A   1      28.808  31.447  22.285  1.00  0.00     0.049 C 
ATOM     22  C   UNL A   1      28.256  31.529  20.865  1.00  0.00     0.016 C 
ATOM     23  C   UNL A   1      27.710  31.687  23.318  1.00  0.00     0.016 C 
ENDBRANCH  16  21
ENDBRANCH  10  12
ENDBRANCH   8  10
ENDBRANCH   7   8
ENDBRANCH   4   7
ENDBRANCH   2   3
ENDBRANCH   1   2
BRANCH   1  24
ATOM     24  C   UNL A   1      32.918  30.041  26.867  1.00  0.00     0.002 C 
BRANCH  24  25
ATOM     25  C   UNL A   1      31.591  30.636  26.389  1.00  0.00     0.002 C 
BRANCH  25  26
ATOM     26  C   UNL A   1      31.421  32.131  26.667  1.00  0.00     0.021 C 
BRANCH  26  27
ATOM     27  C   UNL A   1      32.683  32.826  27.166  1.00  0.00     0.116 C 
BRANCH  27  28
ATOM     28  N   UNL A   1      32.427  34.200  27.569  1.00  0.00    -0.352 N 
ATOM     29  C   UNL A   1      32.979  34.927  28.594  1.00  0.00     0.251 C 
ATOM     30  H   UNL A   1      31.760  34.680  27.026  1.00  0.00     0.163 HD
ATOM     31  O   UNL A   1      32.494  36.004  28.921  1.00  0.00    -0.269 OA
BRANCH  29  32
ATOM     32  C   UNL A   1      34.154  34.399  29.319  1.00  0.00     0.039 A 
ATOM     33  C   UNL A   1      33.951  33.680  30.500  1.00  0.00     0.014 A 
ATOM     34  C   UNL A   1      35.449  34.621  28.843  1.00  0.00     0.014 A 
ATOM     35  C   UNL A   1      35.045  33.132  31.171  1.00  0.00     0.010 A 
ATOM     36  C   UNL A   1      36.530  34.008  29.469  1.00  0.00     0.010 A 
ATOM     37  C   UNL A   1      36.340  33.261  30.642  1.00  0.00    -0.014 A 
BRANCH  37  38
ATOM     38  C   UNL A   1      37.505  32.616  31.299  1.00  0.00     0.031 A 
ATOM     39  C   UNL A   1      38.217  31.473  30.629  1.00  0.00     0.074 A 
ATOM     40  C   UNL A   1      37.884  33.020  32.527  1.00  0.00     0.049 A 
ATOM     41  N   UNL A   1      39.212  30.745  31.069  1.00  0.00    -0.248 NA
ATOM     42  C   UNL A   1      37.729  31.079  29.298  1.00  0.00     0.031 C 
ATOM     43  C   UNL A   1      37.242  34.086  33.300  1.00  0.00     0.029 A 
ATOM     44  N   UNL A   1      38.891  32.577  33.347  1.00  0.00    -0.354 N 
ATOM     45  C   UNL A   1      39.457  29.801  30.079  1.00  0.00     0.074 A 
ATOM     46  C   UNL A   1      38.473  30.013  29.040  1.00  0.00     0.031 C 
ATOM     47  C   UNL A   1      37.885  34.228  34.469  1.00  0.00     0.029 A 
ATOM     48  C   UNL A   1      38.954  33.238  34.550  1.00  0.00     0.049 A 
ATOM     49  H   UNL A   1      39.510  31.853  33.097  1.00  0.00     0.167 HD
ATOM     50  C   UNL A   1      40.429  28.859  30.033  1.00  0.00     0.037 A 
ATOM     51  C   UNL A   1      39.773  33.056  35.603  1.00  0.00     0.037 A 
ATOM     52  C   UNL A   1      41.419  28.669  31.061  1.00  0.00     0.049 A 
ATOM     53  C   UNL A   1      40.837  31.994  35.530  1.00  0.00     0.074 A 
ATOM     54  C   UNL A   1      42.486  27.786  31.078  1.00  0.00     0.029 A 
ATOM     55  N   UNL A   1      41.460  29.366  32.260  1.00  0.00    -0.354 N 
ATOM     56  N   UNL A   1      41.109  31.160  34.556  1.00  0.00    -0.248 NA
ATOM     57  C   UNL A   1      41.714  31.854  36.700  1.00  0.00     0.031 C 
ATOM     58  C   UNL A   1      43.133  27.906  32.311  1.00  0.00     0.029 A 
ATOM     59  C   UNL A   1      42.513  28.911  33.037  1.00  0.00     0.049 A 
ATOM     60  H   UNL A   1      40.832  30.080  32.520  1.00  0.00     0.167 HD
ATOM     61  C   UNL A   1      42.203  30.419  34.981  1.00  0.00     0.074 A 
ATOM     62  C   UNL A   1      42.556  30.914  36.295  1.00  0.00     0.031 C 
ATOM     63  C   UNL A   1      42.858  29.418  34.341  1.00  0.00     0.037 A 
BRANCH  50  64
ATOM     64  C   UNL A   1      40.472  27.957  28.833  1.00  0.00     0.064 A 
ATOM     65  C   UNL A   1      41.239  28.269  27.699  1.00  0.00     0.173 A 
ATOM     66  C   UNL A   1      39.770  26.742  28.832  1.00  0.00     0.173 A 
ATOM     67  F   UNL A   1      41.921  29.423  27.642  1.00  0.00    -0.203 F 
ATOM     68  C   UNL A   1      41.278  27.413  26.601  1.00  0.00     0.198 A 
ATOM     69  C   UNL A   1      39.839  25.873  27.747  1.00  0.00     0.198 A 
ATOM     70  F   UNL A   1      39.025  26.390  29.891  1.00  0.00    -0.203 F 
ATOM     71  F   UNL A   1      41.978  27.756  25.511  1.00  0.00    -0.200 F 
ATOM     72  C   UNL A   1      40.586  26.212  26.629  1.00  0.00     0.200 A 
ATOM     73  F   UNL A   1      39.183  24.705  27.783  1.00  0.00    -0.200 F 
ATOM     74  F   UNL A   1      40.634  25.384  25.577  1.00  0.00    -0.200 F 
ENDBRANCH  50  64
BRANCH  51  75
ATOM     75  C   UNL A   1      39.629  33.908  36.814  1.00  0.00     0.064 A 
ATOM     76  C   UNL A   1      38.843  33.497  37.899  1.00  0.00     0.173 A 
ATOM     77  C   UNL A   1      40.265  35.156  36.908  1.00  0.00     0.173 A 
ATOM     78  F   UNL A   1      38.199  32.321  37.850  1.00  0.00    -0.203 F 
ATOM     79  C   UNL A   1      38.674  34.311  39.017  1.00  0.00     0.198 A 
ATOM     80  C   UNL A   1      40.123  35.954  38.040  1.00  0.00     0.198 A 
ATOM     81  F   UNL A   1      41.034  35.597  35.901  1.00  0.00    -0.203 F 
ATOM     82  F   UNL A   1      37.873  33.915  40.015  1.00  0.00    -0.200 F 
ATOM     83  C   UNL A   1      39.320  35.536  39.089  1.00  0.00     0.200 A 
ATOM     84  F   UNL A   1      40.762  37.130  38.114  1.00  0.00    -0.200 F 
ATOM     85  F   UNL A   1      39.159  36.317  40.167  1.00  0.00    -0.200 F 
ENDBRANCH  51  75
BRANCH  63  86
ATOM     86  C   UNL A   1      44.048  28.818  35.034  1.00  0.00     0.064 A 
ATOM     87  C   UNL A   1      43.918  27.751  35.936  1.00  0.00     0.173 A 
ATOM     88  C   UNL A   1      45.340  29.291  34.759  1.00  0.00     0.173 A 
ATOM     89  F   UNL A   1      42.704  27.271  36.245  1.00  0.00    -0.203 F 
ATOM     90  C   UNL A   1      45.036  27.202  36.560  1.00  0.00     0.198 A 
ATOM     91  C   UNL A   1      46.458  28.715  35.357  1.00  0.00     0.198 A 
ATOM     92  F   UNL A   1      45.521  30.303  33.897  1.00  0.00    -0.203 F 
ATOM     93  F   UNL A   1      44.883  26.220  37.459  1.00  0.00    -0.200 F 
ATOM     94  C   UNL A   1      46.304  27.677  36.263  1.00  0.00     0.200 A 
ATOM     95  F   UNL A   1      47.683  29.165  35.055  1.00  0.00    -0.200 F 
ATOM     96  F   UNL A   1      47.379  27.140  36.856  1.00  0.00    -0.200 F 
ENDBRANCH  63  86
ENDBRANCH  37  38
ENDBRANCH  29  32
ENDBRANCH  27  28
ENDBRANCH  26  27
ENDBRANCH  25  26
ENDBRANCH  24  25
ENDBRANCH   1  24
TORSDOF 17
ENDMDL
MODEL 2
REMARK VINA RESULT:     -12.1      5.763     11.250
REMARK SMILES Cc1nc(C(C)C)[nH]c(=O)c1C(=O)N(C)CC(=O)NCCCCCCNC(=O)c1ccc(-c2c3nc(c(-c4c(F)c(F)c(F)c(F)c4F)c4ccc([nH]4)c(-c4c(F)c(F)c(F)c(F)c4F)c4nc(c(-c5c(F)c(F)c(F)c(F)c5F)c5ccc2[nH]5)C=C4)C=C3)cc1
REMARK SMILES IDX 21 1 20 2 19 3 17 4 18 5 16 7 14 8 15 9 12 10 13 11 11 12
REMARK SMILES IDX 1 13 2 14 3 15 4 16 9 17 8 18 10 19 5 21 6 22 7 23 22 24
REMARK SMILES IDX 23 25 24 26 25 27 26 28 27 29 28 31 29 32 30 33 91 34 31 35
REMARK SMILES IDX 90 36 32 37 33 38 34 39 84 40 35 41 89 42 83 43 85 44 36 45
REMARK SMILES IDX 88 46 82 47 81 48 37 50 69 51 49 52 68 53 50 54 53 55 67 56
REMARK SMILES IDX 86 57 51 58 52 59 66 61 87 62 54 63 38 64 39 65 47 66 40 67
REMARK SMILES IDX 41 68 45 69 48 70 42 71 43 72 46 73 44 74 70 75 71 76 79 77
REMARK SMILES IDX 72 78 73 79 77 80 80 81 74 82 75 83 78 84 76 85 55 86 56 87
REMARK SMILES IDX 64 88 57 89 58 90 62 91 65 92 59 93 60 94 63 95 61 96
REMARK H PARENT 19 6 8 20 26 30 85 49 53 60
REMARK Flexibility Score: inf
ROOT
ATOM      1  C   UNL A   1      36.677  22.913  23.521  1.00  0.00     0.021 C 
ENDROOT
BRANCH   1   2
ATOM      2  C   UNL A   1      35.166  22.830  23.315  1.00  0.00     0.116 C 
BRANCH   2   3
ATOM      3  N   UNL A   1      34.589  24.126  23.053  1.00  0.00    -0.355 N 
ATOM      4  C   UNL A   1      34.105  25.056  23.921  1.00  0.00     0.239 C 
ATOM      5  O   UNL A   1      33.817  26.162  23.451  1.00  0.00    -0.273 OA
ATOM      6  H   UNL A   1      34.537  24.375  22.103  1.00  0.00     0.163 HD
BRANCH   4   7
ATOM      7  C   UNL A   1      34.161  24.846  25.446  1.00  0.00     0.219 C 
BRANCH   7   8
ATOM      8  N   UNL A   1      32.963  24.954  26.302  1.00  0.00    -0.332 N 
ATOM      9  C   UNL A   1      32.427  26.298  26.443  1.00  0.00     0.147 C 
BRANCH   8  10
ATOM     10  C   UNL A   1      32.308  23.762  26.589  1.00  0.00     0.261 C 
ATOM     11  O   UNL A   1      31.406  23.766  27.432  1.00  0.00    -0.269 OA
BRANCH  10  12
ATOM     12  C   UNL A   1      32.601  22.443  25.918  1.00  0.00     0.126 A 
ATOM     13  C   UNL A   1      31.210  22.658  23.795  1.00  0.00     0.068 C 
ATOM     14  C   UNL A   1      32.128  21.944  24.752  1.00  0.00     0.058 A 
ATOM     15  N   UNL A   1      32.347  20.650  24.308  1.00  0.00    -0.239 NA
ATOM     16  C   UNL A   1      32.882  19.796  25.113  1.00  0.00     0.111 A 
ATOM     17  C   UNL A   1      33.367  21.451  26.746  1.00  0.00     0.264 A 
ATOM     18  N   UNL A   1      33.331  20.150  26.341  1.00  0.00    -0.310 N 
ATOM     19  O   UNL A   1      34.045  21.754  27.723  1.00  0.00    -0.269 OA
ATOM     20  H   UNL A   1      33.639  19.447  26.957  1.00  0.00     0.171 HD
BRANCH  16  21
ATOM     21  C   UNL A   1      33.015  18.339  24.694  1.00  0.00     0.049 C 
ATOM     22  C   UNL A   1      34.432  18.016  24.230  1.00  0.00     0.016 C 
ATOM     23  C   UNL A   1      32.578  17.407  25.821  1.00  0.00     0.016 C 
ENDBRANCH  16  21
ENDBRANCH  10  12
ENDBRANCH   8  10
ENDBRANCH   7   8
ENDBRANCH   4   7
ENDBRANCH   2   3
ENDBRANCH   1   2
BRANCH   1  24
ATOM     24  C   UNL A   1      37.178  22.210  24.789  1.00  0.00     0.002 C 
BRANCH  24  25
ATOM     25  C   UNL A   1      36.743  20.749  24.934  1.00  0.00     0.002 C 
BRANCH  25  26
ATOM     26  C   UNL A   1      37.891  19.740  24.996  1.00  0.00     0.021 C 
BRANCH  26  27
ATOM     27  C   UNL A   1      39.136  20.248  25.715  1.00  0.00     0.116 C 
BRANCH  27  28
ATOM     28  N   UNL A   1      40.134  19.203  25.882  1.00  0.00    -0.352 N 
ATOM     29  C   UNL A   1      41.486  19.312  26.093  1.00  0.00     0.251 C 
ATOM     30  H   UNL A   1      39.790  18.282  25.838  1.00  0.00     0.163 HD
ATOM     31  O   UNL A   1      42.209  18.328  26.001  1.00  0.00    -0.269 OA
BRANCH  29  32
ATOM     32  C   UNL A   1      42.075  20.629  26.416  1.00  0.00     0.039 A 
ATOM     33  C   UNL A   1      42.429  21.485  25.369  1.00  0.00     0.014 A 
ATOM     34  C   UNL A   1      42.286  21.015  27.743  1.00  0.00     0.014 A 
ATOM     35  C   UNL A   1      42.941  22.751  25.657  1.00  0.00     0.010 A 
ATOM     36  C   UNL A   1      42.721  22.305  28.028  1.00  0.00     0.010 A 
ATOM     37  C   UNL A   1      43.057  23.186  26.988  1.00  0.00    -0.014 A 
BRANCH  37  38
ATOM     38  C   UNL A   1      43.522  24.559  27.309  1.00  0.00     0.031 A 
ATOM     39  C   UNL A   1      42.558  25.579  27.849  1.00  0.00     0.074 A 
ATOM     40  C   UNL A   1      44.800  24.904  27.058  1.00  0.00     0.049 A 
ATOM     41  N   UNL A   1      42.761  26.841  28.131  1.00  0.00    -0.248 NA
ATOM     42  C   UNL A   1      41.176  25.128  28.076  1.00  0.00     0.031 C 
ATOM     43  C   UNL A   1      45.817  24.017  26.489  1.00  0.00     0.029 A 
ATOM     44  N   UNL A   1      45.459  26.094  27.234  1.00  0.00    -0.354 N 
ATOM     45  C   UNL A   1      41.533  27.336  28.554  1.00  0.00     0.074 A 
ATOM     46  C   UNL A   1      40.579  26.254  28.439  1.00  0.00     0.031 C 
ATOM     47  C   UNL A   1      46.975  24.687  26.387  1.00  0.00     0.029 A 
ATOM     48  C   UNL A   1      46.774  26.060  26.837  1.00  0.00     0.049 A 
ATOM     49  H   UNL A   1      45.030  26.897  27.609  1.00  0.00     0.167 HD
ATOM     50  C   UNL A   1      41.235  28.574  29.016  1.00  0.00     0.037 A 
ATOM     51  C   UNL A   1      47.708  27.030  26.828  1.00  0.00     0.037 A 
ATOM     52  C   UNL A   1      42.194  29.639  29.149  1.00  0.00     0.049 A 
ATOM     53  C   UNL A   1      47.347  28.400  27.336  1.00  0.00     0.074 A 
ATOM     54  C   UNL A   1      42.007  30.908  29.668  1.00  0.00     0.029 A 
ATOM     55  N   UNL A   1      43.521  29.563  28.750  1.00  0.00    -0.354 N 
ATOM     56  N   UNL A   1      46.203  28.834  27.806  1.00  0.00    -0.248 NA
ATOM     57  C   UNL A   1      48.410  29.414  27.320  1.00  0.00     0.031 C 
ATOM     58  C   UNL A   1      43.202  31.620  29.527  1.00  0.00     0.029 A 
ATOM     59  C   UNL A   1      44.155  30.774  28.982  1.00  0.00     0.049 A 
ATOM     60  H   UNL A   1      43.949  28.767  28.359  1.00  0.00     0.167 HD
ATOM     61  C   UNL A   1      46.415  30.157  28.169  1.00  0.00     0.074 A 
ATOM     62  C   UNL A   1      47.804  30.450  27.880  1.00  0.00     0.031 C 
ATOM     63  C   UNL A   1      45.540  31.050  28.695  1.00  0.00     0.037 A 
BRANCH  50  64
ATOM     64  C   UNL A   1      39.812  28.848  29.413  1.00  0.00     0.064 A 
ATOM     65  C   UNL A   1      38.871  29.342  28.496  1.00  0.00     0.173 A 
ATOM     66  C   UNL A   1      39.372  28.573  30.717  1.00  0.00     0.173 A 
ATOM     67  F   UNL A   1      39.240  29.633  27.239  1.00  0.00    -0.203 F 
ATOM     68  C   UNL A   1      37.552  29.577  28.877  1.00  0.00     0.198 A 
ATOM     69  C   UNL A   1      38.045  28.775  31.085  1.00  0.00     0.198 A 
ATOM     70  F   UNL A   1      40.228  28.094  31.633  1.00  0.00    -0.203 F 
ATOM     71  F   UNL A   1      36.684  30.096  27.998  1.00  0.00    -0.200 F 
ATOM     72  C   UNL A   1      37.138  29.285  30.168  1.00  0.00     0.200 A 
ATOM     73  F   UNL A   1      37.643  28.477  32.328  1.00  0.00    -0.200 F 
ATOM     74  F   UNL A   1      35.866  29.500  30.531  1.00  0.00    -0.200 F 
ENDBRANCH  50  64
BRANCH  51  75
ATOM     75  C   UNL A   1      49.079  26.738  26.331  1.00  0.00     0.064 A 
ATOM     76  C   UNL A   1      50.062  26.218  27.185  1.00  0.00     0.173 A 
ATOM     77  C   UNL A   1      49.440  26.983  24.997  1.00  0.00     0.173 A 
ATOM     78  F   UNL A   1      49.774  25.985  28.473  1.00  0.00    -0.203 F 
ATOM     79  C   UNL A   1      51.359  25.981  26.731  1.00  0.00     0.198 A 
ATOM     80  C   UNL A   1      50.726  26.713  24.537  1.00  0.00     0.198 A 
ATOM     81  F   UNL A   1      48.536  27.474  24.136  1.00  0.00    -0.203 F 
ATOM     82  F   UNL A   1      52.292  25.535  27.583  1.00  0.00    -0.200 F 
ATOM     83  C   UNL A   1      51.687  26.223  25.406  1.00  0.00     0.200 A 
ATOM     84  F   UNL A   1      51.035  26.933  23.250  1.00  0.00    -0.200 F 
ATOM     85  F   UNL A   1      52.934  25.992  24.970  1.00  0.00    -0.200 F 
ENDBRANCH  51  75
BRANCH  63  86
ATOM     86  C   UNL A   1      46.066  32.417  29.030  1.00  0.00     0.064 A 
ATOM     87  C   UNL A   1      46.648  32.700  30.274  1.00  0.00     0.173 A 
ATOM     88  C   UNL A   1      46.022  33.446  28.077  1.00  0.00     0.173 A 
ATOM     89  F   UNL A   1      46.703  31.756  31.226  1.00  0.00    -0.203 F 
ATOM     90  C   UNL A   1      47.140  33.972  30.561  1.00  0.00     0.198 A 
ATOM     91  C   UNL A   1      46.546  34.705  28.354  1.00  0.00     0.198 A 
ATOM     92  F   UNL A   1      45.483  33.225  26.868  1.00  0.00    -0.203 F 
ATOM     93  F   UNL A   1      47.643  34.235  31.775  1.00  0.00    -0.200 F 
ATOM     94  C   UNL A   1      47.096  34.969  29.599  1.00  0.00     0.200 A 
ATOM     95  F   UNL A   1      46.519  35.662  27.417  1.00  0.00    -0.200 F 
ATOM     96  F   UNL A   1      47.579  36.189  29.874  1.00  0.00    -0.200 F 
ENDBRANCH  63  86
ENDBRANCH  37  38
ENDBRANCH  29  32
ENDBRANCH  27  28
ENDBRANCH  26  27
ENDBRANCH  25  26
ENDBRANCH  24  25
ENDBRANCH   1  24
TORSDOF 17
ENDMDL
MODEL 3
REMARK VINA RESULT:     -11.9      5.909     11.487
REMARK SMILES Cc1nc(C(C)C)[nH]c(=O)c1C(=O)N(C)CC(=O)NCCCCCCNC(=O)c1ccc(-c2c3nc(c(-c4c(F)c(F)c(F)c(F)c4F)c4ccc([nH]4)c(-c4c(F)c(F)c(F)c(F)c4F)c4nc(c(-c5c(F)c(F)c(F)c(F)c5F)c5ccc2[nH]5)C=C4)C=C3)cc1
REMARK SMILES IDX 21 1 20 2 19 3 17 4 18 5 16 7 14 8 15 9 12 10 13 11 11 12
REMARK SMILES IDX 1 13 2 14 3 15 4 16 9 17 8 18 10 19 5 21 6 22 7 23 22 24
REMARK SMILES IDX 23 25 24 26 25 27 26 28 27 29 28 31 29 32 30 33 91 34 31 35
REMARK SMILES IDX 90 36 32 37 33 38 34 39 84 40 35 41 89 42 83 43 85 44 36 45
REMARK SMILES IDX 88 46 82 47 81 48 37 50 69 51 49 52 68 53 50 54 53 55 67 56
REMARK SMILES IDX 86 57 51 58 52 59 66 61 87 62 54 63 38 64 39 65 47 66 40 67
REMARK SMILES IDX 41 68 45 69 48 70 42 71 43 72 46 73 44 74 70 75 71 76 79 77
REMARK SMILES IDX 72 78 73 79 77 80 80 81 74 82 75 83 78 84 76 85 55 86 56 87
REMARK SMILES IDX 64 88 57 89 58 90 62 91 65 92 59 93 60 94 63 95 61 96
REMARK H PARENT 19 6 8 20 26 30 85 49 53 60
REMARK Flexibility Score: inf
ROOT
ATOM      1  C   UNL A   1      36.963  23.134  25.129  1.00  0.00     0.021 C 
ENDROOT
BRANCH   1   2
ATOM      2  C   UNL A   1      35.566  23.484  25.637  1.00  0.00     0.116 C 
BRANCH   2   3
ATOM      3  N   UNL A   1      35.240  24.868  25.394  1.00  0.00    -0.355 N 
ATOM      4  C   UNL A   1      34.027  25.486  25.371  1.00  0.00     0.239 C 
ATOM      5  O   UNL A   1      34.031  26.721  25.305  1.00  0.00    -0.273 OA
ATOM      6  H   UNL A   1      36.011  25.454  25.218  1.00  0.00     0.163 HD
BRANCH   4   7
ATOM      7  C   UNL A   1      32.725  24.725  25.680  1.00  0.00     0.219 C 
BRANCH   7   8
ATOM      8  N   UNL A   1      32.045  23.883  24.677  1.00  0.00    -0.332 N 
ATOM      9  C   UNL A   1      32.176  24.337  23.301  1.00  0.00     0.147 C 
BRANCH   8  10
ATOM     10  C   UNL A   1      31.660  22.617  25.102  1.00  0.00     0.261 C 
ATOM     11  O   UNL A   1      30.615  22.497  25.749  1.00  0.00    -0.269 OA
BRANCH  10  12
ATOM     12  C   UNL A   1      32.422  21.349  24.807  1.00  0.00     0.126 A 
ATOM     13  C   UNL A   1      31.776  20.949  22.376  1.00  0.00     0.068 C 
ATOM     14  C   UNL A   1      32.464  20.612  23.672  1.00  0.00     0.058 A 
ATOM     15  N   UNL A   1      33.078  19.375  23.565  1.00  0.00    -0.239 NA
ATOM     16  C   UNL A   1      33.491  18.787  24.636  1.00  0.00     0.111 A 
ATOM     17  C   UNL A   1      33.068  20.690  25.992  1.00  0.00     0.264 A 
ATOM     18  N   UNL A   1      33.437  19.386  25.850  1.00  0.00    -0.310 N 
ATOM     19  O   UNL A   1      33.317  21.270  27.045  1.00  0.00    -0.269 OA
ATOM     20  H   UNL A   1      33.669  18.863  26.651  1.00  0.00     0.171 HD
BRANCH  16  21
ATOM     21  C   UNL A   1      34.053  17.375  24.558  1.00  0.00     0.049 C 
ATOM     22  C   UNL A   1      33.316  16.426  25.499  1.00  0.00     0.016 C 
ATOM     23  C   UNL A   1      34.028  16.858  23.122  1.00  0.00     0.016 C 
ENDBRANCH  16  21
ENDBRANCH  10  12
ENDBRANCH   8  10
ENDBRANCH   7   8
ENDBRANCH   4   7
ENDBRANCH   2   3
ENDBRANCH   1   2
BRANCH   1  24
ATOM     24  C   UNL A   1      37.016  21.878  24.250  1.00  0.00     0.002 C 
BRANCH  24  25
ATOM     25  C   UNL A   1      36.763  20.561  24.987  1.00  0.00     0.002 C 
BRANCH  25  26
ATOM     26  C   UNL A   1      37.950  19.595  25.003  1.00  0.00     0.021 C 
BRANCH  26  27
ATOM     27  C   UNL A   1      39.173  20.114  25.751  1.00  0.00     0.116 C 
BRANCH  27  28
ATOM     28  N   UNL A   1      40.190  19.087  25.913  1.00  0.00    -0.352 N 
ATOM     29  C   UNL A   1      41.543  19.219  26.102  1.00  0.00     0.251 C 
ATOM     30  H   UNL A   1      39.859  18.160  25.884  1.00  0.00     0.163 HD
ATOM     31  O   UNL A   1      42.280  18.246  26.009  1.00  0.00    -0.269 OA
BRANCH  29  32
ATOM     32  C   UNL A   1      42.116  20.549  26.402  1.00  0.00     0.039 A 
ATOM     33  C   UNL A   1      42.516  21.366  25.342  1.00  0.00     0.014 A 
ATOM     34  C   UNL A   1      42.267  20.984  27.722  1.00  0.00     0.014 A 
ATOM     35  C   UNL A   1      43.013  22.644  25.604  1.00  0.00     0.010 A 
ATOM     36  C   UNL A   1      42.687  22.285  27.978  1.00  0.00     0.010 A 
ATOM     37  C   UNL A   1      43.069  23.128  26.922  1.00  0.00    -0.014 A 
BRANCH  37  38
ATOM     38  C   UNL A   1      43.518  24.513  27.213  1.00  0.00     0.031 A 
ATOM     39  C   UNL A   1      42.548  25.526  27.755  1.00  0.00     0.074 A 
ATOM     40  C   UNL A   1      44.785  24.874  26.932  1.00  0.00     0.049 A 
ATOM     41  N   UNL A   1      42.736  26.796  28.014  1.00  0.00    -0.248 NA
ATOM     42  C   UNL A   1      41.178  25.057  28.016  1.00  0.00     0.031 C 
ATOM     43  C   UNL A   1      45.805  23.994  26.358  1.00  0.00     0.029 A 
ATOM     44  N   UNL A   1      45.429  26.077  27.077  1.00  0.00    -0.354 N 
ATOM     45  C   UNL A   1      41.509  27.277  28.452  1.00  0.00     0.074 A 
ATOM     46  C   UNL A   1      40.571  26.179  28.373  1.00  0.00     0.031 C 
ATOM     47  C   UNL A   1      46.951  24.680  26.223  1.00  0.00     0.029 A 
ATOM     48  C   UNL A   1      46.736  26.057  26.656  1.00  0.00     0.049 A 
ATOM     49  H   UNL A   1      44.994  26.879  27.448  1.00  0.00     0.167 HD
ATOM     50  C   UNL A   1      41.200  28.518  28.901  1.00  0.00     0.037 A 
ATOM     51  C   UNL A   1      47.654  27.041  26.613  1.00  0.00     0.037 A 
ATOM     52  C   UNL A   1      42.145  29.600  28.999  1.00  0.00     0.049 A 
ATOM     53  C   UNL A   1      47.281  28.413  27.107  1.00  0.00     0.074 A 
ATOM     54  C   UNL A   1      41.947  30.874  29.502  1.00  0.00     0.029 A 
ATOM     55  N   UNL A   1      43.465  29.539  28.575  1.00  0.00    -0.354 N 
ATOM     56  N   UNL A   1      46.139  28.837  27.592  1.00  0.00    -0.248 NA
ATOM     57  C   UNL A   1      48.328  29.443  27.054  1.00  0.00     0.031 C 
ATOM     58  C   UNL A   1      43.128  31.602  29.326  1.00  0.00     0.029 A 
ATOM     59  C   UNL A   1      44.083  30.762  28.776  1.00  0.00     0.049 A 
ATOM     60  H   UNL A   1      43.898  28.743  28.189  1.00  0.00     0.167 HD
ATOM     61  C   UNL A   1      46.338  30.169  27.930  1.00  0.00     0.074 A 
ATOM     62  C   UNL A   1      47.715  30.479  27.610  1.00  0.00     0.031 C 
ATOM     63  C   UNL A   1      45.459  31.056  28.459  1.00  0.00     0.037 A 
BRANCH  50  64
ATOM     64  C   UNL A   1      39.781  28.776  29.321  1.00  0.00     0.064 A 
ATOM     65  C   UNL A   1      39.350  28.567  30.640  1.00  0.00     0.173 A 
ATOM     66  C   UNL A   1      38.850  29.282  28.401  1.00  0.00     0.173 A 
ATOM     67  F   UNL A   1      40.195  28.075  31.557  1.00  0.00    -0.203 F 
ATOM     68  C   UNL A   1      38.033  28.826  31.014  1.00  0.00     0.198 A 
ATOM     69  C   UNL A   1      37.544  29.573  28.787  1.00  0.00     0.198 A 
ATOM     70  F   UNL A   1      39.209  29.507  27.128  1.00  0.00    -0.203 F 
ATOM     71  F   UNL A   1      37.632  28.571  32.267  1.00  0.00    -0.200 F 
ATOM     72  C   UNL A   1      37.134  29.338  30.091  1.00  0.00     0.200 A 
ATOM     73  F   UNL A   1      36.681  30.083  27.897  1.00  0.00    -0.200 F 
ATOM     74  F   UNL A   1      35.872  29.598  30.455  1.00  0.00    -0.200 F 
ENDBRANCH  50  64
BRANCH  51  75
ATOM     75  C   UNL A   1      49.020  26.763  26.095  1.00  0.00     0.064 A 
ATOM     76  C   UNL A   1      49.347  27.001  24.752  1.00  0.00     0.173 A 
ATOM     77  C   UNL A   1      50.025  26.244  26.927  1.00  0.00     0.173 A 
ATOM     78  F   UNL A   1      48.417  27.477  23.913  1.00  0.00    -0.203 F 
ATOM     79  C   UNL A   1      50.615  26.704  24.256  1.00  0.00     0.198 A 
ATOM     80  C   UNL A   1      51.301  25.980  26.437  1.00  0.00     0.198 A 
ATOM     81  F   UNL A   1      49.769  26.005  28.222  1.00  0.00    -0.203 F 
ATOM     82  F   UNL A   1      50.882  26.889  22.956  1.00  0.00    -0.200 F 
ATOM     83  C   UNL A   1      51.593  26.200  25.100  1.00  0.00     0.200 A 
ATOM     84  F   UNL A   1      52.249  25.509  27.260  1.00  0.00    -0.200 F 
ATOM     85  F   UNL A   1      52.812  25.917  24.621  1.00  0.00    -0.200 F 
ENDBRANCH  51  75
BRANCH  63  86
ATOM     86  C   UNL A   1      45.969  32.436  28.762  1.00  0.00     0.064 A 
ATOM     87  C   UNL A   1      45.885  33.478  27.827  1.00  0.00     0.173 A 
ATOM     88  C   UNL A   1      46.511  32.728  30.024  1.00  0.00     0.173 A 
ATOM     89  F   UNL A   1      45.387  33.249  26.603  1.00  0.00    -0.203 F 
ATOM     90  C   UNL A   1      46.354  34.753  28.133  1.00  0.00     0.198 A 
ATOM     91  C   UNL A   1      46.946  34.013  30.338  1.00  0.00     0.198 A 
ATOM     92  F   UNL A   1      46.607  31.769  30.957  1.00  0.00    -0.203 F 
ATOM     93  F   UNL A   1      46.313  35.719  27.205  1.00  0.00    -0.200 F 
ATOM     94  C   UNL A   1      46.875  35.022  29.389  1.00  0.00     0.200 A 
ATOM     95  F   UNL A   1      47.433  34.273  31.558  1.00  0.00    -0.200 F 
ATOM     96  F   UNL A   1      47.316  36.252  29.685  1.00  0.00    -0.200 F 
ENDBRANCH  63  86
ENDBRANCH  37  38
ENDBRANCH  29  32
ENDBRANCH  27  28
ENDBRANCH  26  27
ENDBRANCH  25  26
ENDBRANCH  24  25
ENDBRANCH   1  24
TORSDOF 17
ENDMDL
