MODEL 1
REMARK VINA RESULT:     -11.8      0.000      0.000
REMARK SMILES Cc1nn(C)cc1-c1ccnc2nc(CCC(=O)NCCCCCCNC(=O)c3ccc(-c4c5nc(c(-c6c(F)c(F)c(F)c(F)c6F)c6ccc([nH]6)c(-c6c(F)c(F)c(F)c(F)c6F)c6nc(c(-c7c(F)c(F)c(F)c(F)c7F)c7ccc4[nH]7)C=C6)C=C5)cc3)nn12
REMARK SMILES IDX 22 1 21 2 20 3 19 4 17 5 18 6 16 8 15 9 14 10 8 11 9 12
REMARK SMILES IDX 93 13 10 14 12 15 92 16 11 17 13 18 7 19 1 20 2 21 3 22 4 23
REMARK SMILES IDX 6 24 5 25 23 26 24 27 25 28 26 29 27 30 28 32 29 33 30 34
REMARK SMILES IDX 91 35 31 36 90 37 32 38 33 39 34 40 84 41 35 42 89 43 83 44
REMARK SMILES IDX 85 45 36 46 88 47 82 48 81 49 37 51 69 52 49 53 68 54 50 55
REMARK SMILES IDX 53 56 67 57 86 58 51 59 52 60 66 62 87 63 54 64 38 65 39 66
REMARK SMILES IDX 47 67 40 68 41 69 45 70 48 71 42 72 43 73 46 74 44 75 70 76
REMARK SMILES IDX 71 77 79 78 72 79 73 80 77 81 80 82 74 83 75 84 78 85 76 86
REMARK SMILES IDX 55 87 56 88 64 89 57 90 58 91 62 92 65 93 59 94 60 95 63 96
REMARK SMILES IDX 61 97
REMARK H PARENT 19 7 26 31 85 50 53 61
REMARK Flexibility Score: inf
ROOT
ATOM      1  C   UNL A   1      33.849  28.313  23.203  1.00  0.00     0.002 C 
ENDROOT
BRANCH   1   2
ATOM      2  C   UNL A   1      33.653  26.843  22.797  1.00  0.00     0.021 C 
BRANCH   2   3
ATOM      3  C   UNL A   1      32.419  26.589  21.923  1.00  0.00     0.116 C 
BRANCH   3   4
ATOM      4  N   UNL A   1      31.413  27.636  21.995  1.00  0.00    -0.356 N 
ATOM      5  C   UNL A   1      30.289  27.750  22.751  1.00  0.00     0.220 C 
ATOM      6  O   UNL A   1      29.637  28.794  22.665  1.00  0.00    -0.275 OA
ATOM      7  H   UNL A   1      31.575  28.396  21.390  1.00  0.00     0.163 HD
BRANCH   5   8
ATOM      8  C   UNL A   1      29.874  26.647  23.694  1.00  0.00     0.108 C 
BRANCH   8   9
ATOM      9  C   UNL A   1      30.492  26.871  25.073  1.00  0.00     0.089 C 
BRANCH   9  10
ATOM     10  C   UNL A   1      31.115  25.627  25.594  1.00  0.00     0.153 A 
ATOM     11  C   UNL A   1      33.647  23.294  26.255  1.00  0.00     0.081 A 
ATOM     12  C   UNL A   1      33.487  22.234  27.077  1.00  0.00     0.049 A 
ATOM     13  N   UNL A   1      32.520  24.132  26.070  1.00  0.00    -0.196 N 
ATOM     14  C   UNL A   1      32.183  22.078  27.761  1.00  0.00     0.117 A 
ATOM     15  C   UNL A   1      31.311  23.887  26.755  1.00  0.00     0.252 A 
ATOM     16  N   UNL A   1      32.371  25.265  25.329  1.00  0.00    -0.149 NA
ATOM     17  N   UNL A   1      31.157  22.849  27.626  1.00  0.00    -0.220 NA
ATOM     18  N   UNL A   1      30.442  24.825  26.463  1.00  0.00    -0.194 NA
BRANCH  11  19
ATOM     19  C   UNL A   1      34.956  23.612  25.737  1.00  0.00     0.041 A 
ATOM     20  C   UNL A   1      34.772  23.327  23.111  1.00  0.00     0.069 C 
ATOM     21  C   UNL A   1      35.468  23.542  24.405  1.00  0.00     0.069 A 
ATOM     22  N   UNL A   1      36.802  23.665  24.384  1.00  0.00    -0.178 NA
ATOM     23  N   UNL A   1      37.142  23.832  25.669  1.00  0.00    -0.275 N 
ATOM     24  C   UNL A   1      36.066  23.913  26.501  1.00  0.00     0.119 A 
ATOM     25  C   UNL A   1      38.533  23.781  26.052  1.00  0.00     0.173 C 
ENDBRANCH  11  19
ENDBRANCH   9  10
ENDBRANCH   8   9
ENDBRANCH   5   8
ENDBRANCH   3   4
ENDBRANCH   2   3
ENDBRANCH   1   2
BRANCH   1  26
ATOM     26  C   UNL A   1      33.645  28.645  24.689  1.00  0.00     0.002 C 
BRANCH  26  27
ATOM     27  C   UNL A   1      32.573  29.703  24.984  1.00  0.00     0.021 C 
BRANCH  27  28
ATOM     28  C   UNL A   1      32.324  29.999  26.467  1.00  0.00     0.116 C 
BRANCH  28  29
ATOM     29  N   UNL A   1      32.292  31.409  26.823  1.00  0.00    -0.352 N 
ATOM     30  C   UNL A   1      33.247  32.203  27.420  1.00  0.00     0.251 C 
ATOM     31  H   UNL A   1      31.452  31.872  26.601  1.00  0.00     0.163 HD
ATOM     32  O   UNL A   1      33.022  33.392  27.627  1.00  0.00    -0.269 OA
BRANCH  30  33
ATOM     33  C   UNL A   1      34.533  31.627  27.881  1.00  0.00     0.039 A 
ATOM     34  C   UNL A   1      35.592  32.497  28.146  1.00  0.00     0.014 A 
ATOM     35  C   UNL A   1      34.709  30.254  28.057  1.00  0.00     0.014 A 
ATOM     36  C   UNL A   1      36.778  32.004  28.700  1.00  0.00     0.010 A 
ATOM     37  C   UNL A   1      35.867  29.767  28.670  1.00  0.00     0.010 A 
ATOM     38  C   UNL A   1      36.901  30.642  29.029  1.00  0.00    -0.014 A 
BRANCH  38  39
ATOM     39  C   UNL A   1      38.066  30.159  29.823  1.00  0.00     0.031 A 
ATOM     40  C   UNL A   1      38.300  30.614  31.235  1.00  0.00     0.074 A 
ATOM     41  C   UNL A   1      38.958  29.331  29.239  1.00  0.00     0.049 A 
ATOM     42  N   UNL A   1      39.276  30.300  32.054  1.00  0.00    -0.248 NA
ATOM     43  C   UNL A   1      37.327  31.558  31.799  1.00  0.00     0.031 C 
ATOM     44  C   UNL A   1      38.883  28.849  27.859  1.00  0.00     0.029 A 
ATOM     45  N   UNL A   1      40.101  28.749  29.730  1.00  0.00    -0.354 N 
ATOM     46  C   UNL A   1      39.035  31.006  33.223  1.00  0.00     0.074 A 
ATOM     47  C   UNL A   1      37.849  31.806  32.992  1.00  0.00     0.031 C 
ATOM     48  C   UNL A   1      39.912  28.019  27.625  1.00  0.00     0.029 A 
ATOM     49  C   UNL A   1      40.742  27.939  28.823  1.00  0.00     0.049 A 
ATOM     50  H   UNL A   1      40.431  28.898  30.646  1.00  0.00     0.167 HD
ATOM     51  C   UNL A   1      39.723  30.976  34.392  1.00  0.00     0.037 A 
ATOM     52  C   UNL A   1      41.870  27.212  28.937  1.00  0.00     0.037 A 
ATOM     53  C   UNL A   1      40.893  30.170  34.634  1.00  0.00     0.049 A 
ATOM     54  C   UNL A   1      42.624  27.211  30.238  1.00  0.00     0.074 A 
ATOM     55  C   UNL A   1      41.623  30.038  35.805  1.00  0.00     0.029 A 
ATOM     56  N   UNL A   1      41.509  29.362  33.690  1.00  0.00    -0.354 N 
ATOM     57  N   UNL A   1      42.343  27.828  31.358  1.00  0.00    -0.248 NA
ATOM     58  C   UNL A   1      43.853  26.405  30.290  1.00  0.00     0.031 C 
ATOM     59  C   UNL A   1      42.703  29.185  35.557  1.00  0.00     0.029 A 
ATOM     60  C   UNL A   1      42.620  28.746  34.247  1.00  0.00     0.049 A 
ATOM     61  H   UNL A   1      41.202  29.243  32.762  1.00  0.00     0.167 HD
ATOM     62  C   UNL A   1      43.335  27.460  32.256  1.00  0.00     0.074 A 
ATOM     63  C   UNL A   1      44.224  26.558  31.554  1.00  0.00     0.031 C 
ATOM     64  C   UNL A   1      43.492  27.836  33.548  1.00  0.00     0.037 A 
BRANCH  51  65
ATOM     65  C   UNL A   1      39.223  31.839  35.513  1.00  0.00     0.064 A 
ATOM     66  C   UNL A   1      38.345  31.338  36.487  1.00  0.00     0.173 A 
ATOM     67  C   UNL A   1      39.660  33.165  35.644  1.00  0.00     0.173 A 
ATOM     68  F   UNL A   1      37.892  30.078  36.402  1.00  0.00    -0.203 F 
ATOM     69  C   UNL A   1      37.900  32.142  37.533  1.00  0.00     0.198 A 
ATOM     70  C   UNL A   1      39.236  33.958  36.708  1.00  0.00     0.198 A 
ATOM     71  F   UNL A   1      40.507  33.690  34.747  1.00  0.00    -0.203 F 
ATOM     72  F   UNL A   1      37.026  31.656  38.424  1.00  0.00    -0.200 F 
ATOM     73  C   UNL A   1      38.351  33.448  37.647  1.00  0.00     0.200 A 
ATOM     74  F   UNL A   1      39.683  35.217  36.824  1.00  0.00    -0.200 F 
ATOM     75  F   UNL A   1      37.926  34.219  38.656  1.00  0.00    -0.200 F 
ENDBRANCH  51  65
BRANCH  52  76
ATOM     76  C   UNL A   1      42.345  26.396  27.790  1.00  0.00     0.064 A 
ATOM     77  C   UNL A   1      41.831  25.111  27.564  1.00  0.00     0.173 A 
ATOM     78  C   UNL A   1      43.322  26.873  26.906  1.00  0.00     0.173 A 
ATOM     79  F   UNL A   1      40.909  24.603  28.396  1.00  0.00    -0.203 F 
ATOM     80  C   UNL A   1      42.292  24.327  26.508  1.00  0.00     0.198 A 
ATOM     81  C   UNL A   1      43.763  26.099  25.836  1.00  0.00     0.198 A 
ATOM     82  F   UNL A   1      43.841  28.098  27.078  1.00  0.00    -0.203 F 
ATOM     83  F   UNL A   1      41.816  23.085  26.342  1.00  0.00    -0.200 F 
ATOM     84  C   UNL A   1      43.253  24.824  25.642  1.00  0.00     0.200 A 
ATOM     85  F   UNL A   1      44.683  26.588  24.992  1.00  0.00    -0.200 F 
ATOM     86  F   UNL A   1      43.694  24.071  24.625  1.00  0.00    -0.200 F 
ENDBRANCH  52  76
BRANCH  64  87
ATOM     87  C   UNL A   1      44.640  27.239  34.310  1.00  0.00     0.064 A 
ATOM     88  C   UNL A   1      45.885  27.879  34.390  1.00  0.00     0.173 A 
ATOM     89  C   UNL A   1      44.477  26.032  35.006  1.00  0.00     0.173 A 
ATOM     90  F   UNL A   1      46.097  29.027  33.728  1.00  0.00    -0.203 F 
ATOM     91  C   UNL A   1      46.930  27.323  35.123  1.00  0.00     0.198 A 
ATOM     92  C   UNL A   1      45.515  25.492  35.760  1.00  0.00     0.198 A 
ATOM     93  F   UNL A   1      43.304  25.381  34.965  1.00  0.00    -0.203 F 
ATOM     94  F   UNL A   1      48.124  27.930  35.151  1.00  0.00    -0.200 F 
ATOM     95  C   UNL A   1      46.742  26.135  35.814  1.00  0.00     0.200 A 
ATOM     96  F   UNL A   1      45.327  24.350  36.436  1.00  0.00    -0.200 F 
ATOM     97  F   UNL A   1      47.746  25.606  36.526  1.00  0.00    -0.200 F 
ENDBRANCH  64  87
ENDBRANCH  38  39
ENDBRANCH  30  33
ENDBRANCH  28  29
ENDBRANCH  27  28
ENDBRANCH  26  27
ENDBRANCH   1  26
TORSDOF 16
ENDMDL
MODEL 2
REMARK VINA RESULT:     -11.7      4.766     10.019
REMARK SMILES Cc1nn(C)cc1-c1ccnc2nc(CCC(=O)NCCCCCCNC(=O)c3ccc(-c4c5nc(c(-c6c(F)c(F)c(F)c(F)c6F)c6ccc([nH]6)c(-c6c(F)c(F)c(F)c(F)c6F)c6nc(c(-c7c(F)c(F)c(F)c(F)c7F)c7ccc4[nH]7)C=C6)C=C5)cc3)nn12
REMARK SMILES IDX 22 1 21 2 20 3 19 4 17 5 18 6 16 8 15 9 14 10 8 11 9 12
REMARK SMILES IDX 93 13 10 14 12 15 92 16 11 17 13 18 7 19 1 20 2 21 3 22 4 23
REMARK SMILES IDX 6 24 5 25 23 26 24 27 25 28 26 29 27 30 28 32 29 33 30 34
REMARK SMILES IDX 91 35 31 36 90 37 32 38 33 39 34 40 84 41 35 42 89 43 83 44
REMARK SMILES IDX 85 45 36 46 88 47 82 48 81 49 37 51 69 52 49 53 68 54 50 55
REMARK SMILES IDX 53 56 67 57 86 58 51 59 52 60 66 62 87 63 54 64 38 65 39 66
REMARK SMILES IDX 47 67 40 68 41 69 45 70 48 71 42 72 43 73 46 74 44 75 70 76
REMARK SMILES IDX 71 77 79 78 72 79 73 80 77 81 80 82 74 83 75 84 78 85 76 86
REMARK SMILES IDX 55 87 56 88 64 89 57 90 58 91 62 92 65 93 59 94 60 95 63 96
REMARK SMILES IDX 61 97
REMARK H PARENT 19 7 26 31 85 50 53 61
REMARK Flexibility Score: inf
ROOT
ATOM      1  C   UNL A   1      37.256  22.421  24.794  1.00  0.00     0.002 C 
ENDROOT
BRANCH   1   2
ATOM      2  C   UNL A   1      36.816  23.469  25.829  1.00  0.00     0.021 C 
BRANCH   2   3
ATOM      3  C   UNL A   1      35.600  24.302  25.406  1.00  0.00     0.116 C 
BRANCH   3   4
ATOM      4  N   UNL A   1      34.482  23.514  24.914  1.00  0.00    -0.356 N 
ATOM      5  C   UNL A   1      33.703  23.653  23.808  1.00  0.00     0.220 C 
ATOM      6  O   UNL A   1      32.851  22.788  23.588  1.00  0.00    -0.275 OA
ATOM      7  H   UNL A   1      34.247  22.745  25.483  1.00  0.00     0.163 HD
BRANCH   5   8
ATOM      8  C   UNL A   1      33.903  24.811  22.860  1.00  0.00     0.108 C 
BRANCH   8   9
ATOM      9  C   UNL A   1      32.647  25.027  22.019  1.00  0.00     0.089 C 
BRANCH   9  10
ATOM     10  C   UNL A   1      31.914  26.247  22.447  1.00  0.00     0.153 A 
ATOM     11  C   UNL A   1      31.151  29.059  24.395  1.00  0.00     0.081 A 
ATOM     12  C   UNL A   1      30.243  29.992  24.033  1.00  0.00     0.049 A 
ATOM     13  N   UNL A   1      31.328  27.967  23.511  1.00  0.00    -0.196 N 
ATOM     14  C   UNL A   1      29.566  29.830  22.726  1.00  0.00     0.117 A 
ATOM     15  C   UNL A   1      30.619  27.894  22.293  1.00  0.00     0.252 A 
ATOM     16  N   UNL A   1      32.163  26.894  23.587  1.00  0.00    -0.149 NA
ATOM     17  N   UNL A   1      29.738  28.856  21.897  1.00  0.00    -0.220 NA
ATOM     18  N   UNL A   1      30.994  26.826  21.630  1.00  0.00    -0.194 NA
BRANCH  11  19
ATOM     19  C   UNL A   1      31.990  29.282  25.548  1.00  0.00     0.041 A 
ATOM     20  C   UNL A   1      31.381  27.351  27.254  1.00  0.00     0.069 C 
ATOM     21  C   UNL A   1      32.030  28.610  26.808  1.00  0.00     0.069 A 
ATOM     22  N   UNL A   1      32.761  29.287  27.704  1.00  0.00    -0.178 NA
ATOM     23  N   UNL A   1      33.201  30.360  27.032  1.00  0.00    -0.275 N 
ATOM     24  C   UNL A   1      32.854  30.346  25.715  1.00  0.00     0.119 A 
ATOM     25  C   UNL A   1      33.848  31.434  27.747  1.00  0.00     0.173 C 
ENDBRANCH  11  19
ENDBRANCH   9  10
ENDBRANCH   8   9
ENDBRANCH   5   8
ENDBRANCH   3   4
ENDBRANCH   2   3
ENDBRANCH   1   2
BRANCH   1  26
ATOM     26  C   UNL A   1      36.893  20.961  25.104  1.00  0.00     0.002 C 
BRANCH  26  27
ATOM     27  C   UNL A   1      38.032  19.949  24.923  1.00  0.00     0.021 C 
BRANCH  27  28
ATOM     28  C   UNL A   1      39.283  20.200  25.771  1.00  0.00     0.116 C 
BRANCH  28  29
ATOM     29  N   UNL A   1      40.284  19.146  25.731  1.00  0.00    -0.352 N 
ATOM     30  C   UNL A   1      41.616  19.162  26.085  1.00  0.00     0.251 C 
ATOM     31  H   UNL A   1      39.958  18.279  25.396  1.00  0.00     0.163 HD
ATOM     32  O   UNL A   1      42.296  18.145  25.983  1.00  0.00    -0.269 OA
BRANCH  30  33
ATOM     33  C   UNL A   1      42.267  20.416  26.531  1.00  0.00     0.039 A 
ATOM     34  C   UNL A   1      42.979  21.166  25.592  1.00  0.00     0.014 A 
ATOM     35  C   UNL A   1      42.186  20.864  27.851  1.00  0.00     0.014 A 
ATOM     36  C   UNL A   1      43.500  22.414  25.947  1.00  0.00     0.010 A 
ATOM     37  C   UNL A   1      42.649  22.138  28.191  1.00  0.00     0.010 A 
ATOM     38  C   UNL A   1      43.282  22.942  27.232  1.00  0.00    -0.014 A 
BRANCH  38  39
ATOM     39  C   UNL A   1      43.636  24.357  27.538  1.00  0.00     0.031 A 
ATOM     40  C   UNL A   1      45.061  24.830  27.537  1.00  0.00     0.074 A 
ATOM     41  C   UNL A   1      42.653  25.218  27.874  1.00  0.00     0.049 A 
ATOM     42  N   UNL A   1      45.536  26.025  27.800  1.00  0.00    -0.248 NA
ATOM     43  C   UNL A   1      46.092  23.834  27.217  1.00  0.00     0.031 C 
ATOM     44  C   UNL A   1      41.232  24.883  27.966  1.00  0.00     0.029 A 
ATOM     45  N   UNL A   1      42.698  26.552  28.202  1.00  0.00    -0.354 N 
ATOM     46  C   UNL A   1      46.914  25.923  27.680  1.00  0.00     0.074 A 
ATOM     47  C   UNL A   1      47.206  24.537  27.371  1.00  0.00     0.031 C 
ATOM     48  C   UNL A   1      40.537  25.986  28.290  1.00  0.00     0.029 A 
ATOM     49  C   UNL A   1      41.465  27.098  28.467  1.00  0.00     0.049 A 
ATOM     50  H   UNL A   1      43.536  27.069  28.243  1.00  0.00     0.167 HD
ATOM     51  C   UNL A   1      47.851  26.897  27.794  1.00  0.00     0.037 A 
ATOM     52  C   UNL A   1      41.116  28.351  28.816  1.00  0.00     0.037 A 
ATOM     53  C   UNL A   1      47.567  28.279  28.084  1.00  0.00     0.049 A 
ATOM     54  C   UNL A   1      42.177  29.407  28.953  1.00  0.00     0.074 A 
ATOM     55  C   UNL A   1      48.451  29.343  28.166  1.00  0.00     0.029 A 
ATOM     56  N   UNL A   1      46.305  28.792  28.344  1.00  0.00    -0.354 N 
ATOM     57  N   UNL A   1      43.470  29.311  28.765  1.00  0.00    -0.248 NA
ATOM     58  C   UNL A   1      41.727  30.751  29.346  1.00  0.00     0.031 C 
ATOM     59  C   UNL A   1      47.731  30.489  28.517  1.00  0.00     0.029 A 
ATOM     60  C   UNL A   1      46.391  30.151  28.607  1.00  0.00     0.049 A 
ATOM     61  H   UNL A   1      45.471  28.268  28.343  1.00  0.00     0.167 HD
ATOM     62  C   UNL A   1      43.982  30.583  28.983  1.00  0.00     0.074 A 
ATOM     63  C   UNL A   1      42.861  31.438  29.309  1.00  0.00     0.031 C 
ATOM     64  C   UNL A   1      45.269  31.001  28.914  1.00  0.00     0.037 A 
BRANCH  51  65
ATOM     65  C   UNL A   1      49.286  26.503  27.594  1.00  0.00     0.064 A 
ATOM     66  C   UNL A   1      49.837  26.369  26.310  1.00  0.00     0.173 A 
ATOM     67  C   UNL A   1      50.133  26.305  28.695  1.00  0.00     0.173 A 
ATOM     68  F   UNL A   1      49.067  26.541  25.225  1.00  0.00    -0.203 F 
ATOM     69  C   UNL A   1      51.174  26.021  26.136  1.00  0.00     0.198 A 
ATOM     70  C   UNL A   1      51.476  25.985  28.517  1.00  0.00     0.198 A 
ATOM     71  F   UNL A   1      49.659  26.431  29.943  1.00  0.00    -0.203 F 
ATOM     72  F   UNL A   1      51.664  25.852  24.901  1.00  0.00    -0.200 F 
ATOM     73  C   UNL A   1      51.993  25.836  27.239  1.00  0.00     0.200 A 
ATOM     74  F   UNL A   1      52.271  25.820  29.584  1.00  0.00    -0.200 F 
ATOM     75  F   UNL A   1      53.281  25.505  27.070  1.00  0.00    -0.200 F 
ENDBRANCH  51  65
BRANCH  52  76
ATOM     76  C   UNL A   1      39.685  28.688  29.032  1.00  0.00     0.064 A 
ATOM     77  C   UNL A   1      38.897  29.178  27.981  1.00  0.00     0.173 A 
ATOM     78  C   UNL A   1      39.080  28.538  30.287  1.00  0.00     0.173 A 
ATOM     79  F   UNL A   1      39.439  29.358  26.767  1.00  0.00    -0.203 F 
ATOM     80  C   UNL A   1      37.563  29.524  28.183  1.00  0.00     0.198 A 
ATOM     81  C   UNL A   1      37.738  28.860  30.482  1.00  0.00     0.198 A 
ATOM     82  F   UNL A   1      39.790  28.069  31.324  1.00  0.00    -0.203 F 
ATOM     83  F   UNL A   1      36.845  30.033  27.171  1.00  0.00    -0.200 F 
ATOM     84  C   UNL A   1      36.984  29.359  29.431  1.00  0.00     0.200 A 
ATOM     85  F   UNL A   1      37.178  28.687  31.686  1.00  0.00    -0.200 F 
ATOM     86  F   UNL A   1      35.699  29.690  29.625  1.00  0.00    -0.200 F 
ENDBRANCH  52  76
BRANCH  64  87
ATOM     87  C   UNL A   1      45.538  32.460  29.150  1.00  0.00     0.064 A 
ATOM     88  C   UNL A   1      45.437  33.405  28.120  1.00  0.00     0.173 A 
ATOM     89  C   UNL A   1      45.857  32.922  30.436  1.00  0.00     0.173 A 
ATOM     90  F   UNL A   1      45.151  33.013  26.869  1.00  0.00    -0.203 F 
ATOM     91  C   UNL A   1      45.664  34.757  28.364  1.00  0.00     0.198 A 
ATOM     92  C   UNL A   1      46.058  34.276  30.683  1.00  0.00     0.198 A 
ATOM     93  F   UNL A   1      45.964  32.058  31.458  1.00  0.00    -0.203 F 
ATOM     94  F   UNL A   1      45.603  35.638  27.357  1.00  0.00    -0.200 F 
ATOM     95  C   UNL A   1      45.966  35.193  29.647  1.00  0.00     0.200 A 
ATOM     96  F   UNL A   1      46.338  34.696  31.925  1.00  0.00    -0.200 F 
ATOM     97  F   UNL A   1      46.176  36.495  29.881  1.00  0.00    -0.200 F 
ENDBRANCH  64  87
ENDBRANCH  38  39
ENDBRANCH  30  33
ENDBRANCH  28  29
ENDBRANCH  27  28
ENDBRANCH  26  27
ENDBRANCH   1  26
TORSDOF 16
ENDMDL
MODEL 3
REMARK VINA RESULT:     -11.7      4.855      8.597
REMARK SMILES Cc1nn(C)cc1-c1ccnc2nc(CCC(=O)NCCCCCCNC(=O)c3ccc(-c4c5nc(c(-c6c(F)c(F)c(F)c(F)c6F)c6ccc([nH]6)c(-c6c(F)c(F)c(F)c(F)c6F)c6nc(c(-c7c(F)c(F)c(F)c(F)c7F)c7ccc4[nH]7)C=C6)C=C5)cc3)nn12
REMARK SMILES IDX 22 1 21 2 20 3 19 4 17 5 18 6 16 8 15 9 14 10 8 11 9 12
REMARK SMILES IDX 93 13 10 14 12 15 92 16 11 17 13 18 7 19 1 20 2 21 3 22 4 23
REMARK SMILES IDX 6 24 5 25 23 26 24 27 25 28 26 29 27 30 28 32 29 33 30 34
REMARK SMILES IDX 91 35 31 36 90 37 32 38 33 39 34 40 84 41 35 42 89 43 83 44
REMARK SMILES IDX 85 45 36 46 88 47 82 48 81 49 37 51 69 52 49 53 68 54 50 55
REMARK SMILES IDX 53 56 67 57 86 58 51 59 52 60 66 62 87 63 54 64 38 65 39 66
REMARK SMILES IDX 47 67 40 68 41 69 45 70 48 71 42 72 43 73 46 74 44 75 70 76
REMARK SMILES IDX 71 77 79 78 72 79 73 80 77 81 80 82 74 83 75 84 78 85 76 86
REMARK SMILES IDX 55 87 56 88 64 89 57 90 58 91 62 92 65 93 59 94 60 95 63 96
REMARK SMILES IDX 61 97
REMARK H PARENT 19 7 26 31 85 50 53 61
REMARK Flexibility Score: inf
ROOT
ATOM      1  C   UNL A   1      37.040  22.298  24.399  1.00  0.00     0.002 C 
ENDROOT
BRANCH   1   2
ATOM      2  C   UNL A   1      37.077  23.476  25.386  1.00  0.00     0.021 C 
BRANCH   2   3
ATOM      3  C   UNL A   1      35.701  24.063  25.720  1.00  0.00     0.116 C 
BRANCH   3   4
ATOM      4  N   UNL A   1      35.043  23.430  26.852  1.00  0.00    -0.356 N 
ATOM      5  C   UNL A   1      33.997  22.564  26.914  1.00  0.00     0.220 C 
ATOM      6  O   UNL A   1      33.678  22.119  28.019  1.00  0.00    -0.275 OA
ATOM      7  H   UNL A   1      35.424  23.672  27.728  1.00  0.00     0.163 HD
BRANCH   5   8
ATOM      8  C   UNL A   1      33.272  22.135  25.661  1.00  0.00     0.108 C 
BRANCH   8   9
ATOM      9  C   UNL A   1      32.021  22.987  25.456  1.00  0.00     0.089 C 
BRANCH   9  10
ATOM     10  C   UNL A   1      32.305  24.164  24.595  1.00  0.00     0.153 A 
ATOM     11  C   UNL A   1      32.712  27.540  23.742  1.00  0.00     0.081 A 
ATOM     12  C   UNL A   1      33.227  27.953  22.563  1.00  0.00     0.049 A 
ATOM     13  N   UNL A   1      32.588  26.141  23.926  1.00  0.00    -0.196 N 
ATOM     14  C   UNL A   1      33.676  26.920  21.603  1.00  0.00     0.117 A 
ATOM     15  C   UNL A   1      33.030  25.235  22.939  1.00  0.00     0.252 A 
ATOM     16  N   UNL A   1      32.128  25.426  24.990  1.00  0.00    -0.149 NA
ATOM     17  N   UNL A   1      33.597  25.643  21.768  1.00  0.00    -0.220 NA
ATOM     18  N   UNL A   1      32.860  24.005  23.364  1.00  0.00    -0.194 NA
BRANCH  11  19
ATOM     19  C   UNL A   1      32.462  28.497  24.793  1.00  0.00     0.041 A 
ATOM     20  C   UNL A   1      30.275  29.798  24.066  1.00  0.00     0.069 C 
ATOM     21  C   UNL A   1      31.475  29.524  24.896  1.00  0.00     0.069 A 
ATOM     22  N   UNL A   1      31.745  30.367  25.902  1.00  0.00    -0.178 NA
ATOM     23  N   UNL A   1      32.867  29.883  26.451  1.00  0.00    -0.275 N 
ATOM     24  C   UNL A   1      33.274  28.709  25.890  1.00  0.00     0.119 A 
ATOM     25  C   UNL A   1      33.576  30.665  27.435  1.00  0.00     0.173 C 
ENDBRANCH  11  19
ENDBRANCH   9  10
ENDBRANCH   8   9
ENDBRANCH   5   8
ENDBRANCH   3   4
ENDBRANCH   2   3
ENDBRANCH   1   2
BRANCH   1  26
ATOM     26  C   UNL A   1      36.878  20.898  25.011  1.00  0.00     0.002 C 
BRANCH  26  27
ATOM     27  C   UNL A   1      38.070  19.953  24.813  1.00  0.00     0.021 C 
BRANCH  27  28
ATOM     28  C   UNL A   1      39.265  20.188  25.743  1.00  0.00     0.116 C 
BRANCH  28  29
ATOM     29  N   UNL A   1      40.233  19.103  25.798  1.00  0.00    -0.352 N 
ATOM     30  C   UNL A   1      41.565  19.110  26.153  1.00  0.00     0.251 C 
ATOM     31  H   UNL A   1      39.880  18.221  25.540  1.00  0.00     0.163 HD
ATOM     32  O   UNL A   1      42.212  18.067  26.142  1.00  0.00    -0.269 OA
BRANCH  30  33
ATOM     33  C   UNL A   1      42.254  20.377  26.490  1.00  0.00     0.039 A 
ATOM     34  C   UNL A   1      42.884  21.084  25.463  1.00  0.00     0.014 A 
ATOM     35  C   UNL A   1      42.287  20.880  27.792  1.00  0.00     0.014 A 
ATOM     36  C   UNL A   1      43.436  22.343  25.719  1.00  0.00     0.010 A 
ATOM     37  C   UNL A   1      42.779  22.165  28.037  1.00  0.00     0.010 A 
ATOM     38  C   UNL A   1      43.330  22.925  26.995  1.00  0.00    -0.014 A 
BRANCH  38  39
ATOM     39  C   UNL A   1      43.711  24.349  27.211  1.00  0.00     0.031 A 
ATOM     40  C   UNL A   1      42.711  25.371  27.669  1.00  0.00     0.074 A 
ATOM     41  C   UNL A   1      44.976  24.736  26.939  1.00  0.00     0.049 A 
ATOM     42  N   UNL A   1      42.880  26.654  27.885  1.00  0.00    -0.248 NA
ATOM     43  C   UNL A   1      41.338  24.902  27.895  1.00  0.00     0.031 C 
ATOM     44  C   UNL A   1      46.037  23.861  26.440  1.00  0.00     0.029 A 
ATOM     45  N   UNL A   1      45.583  25.964  27.044  1.00  0.00    -0.354 N 
ATOM     46  C   UNL A   1      41.640  27.142  28.271  1.00  0.00     0.074 A 
ATOM     47  C   UNL A   1      40.714  26.030  28.208  1.00  0.00     0.031 C 
ATOM     48  C   UNL A   1      47.171  24.569  26.316  1.00  0.00     0.029 A 
ATOM     49  C   UNL A   1      46.910  25.956  26.688  1.00  0.00     0.049 A 
ATOM     50  H   UNL A   1      45.111  26.774  27.345  1.00  0.00     0.167 HD
ATOM     51  C   UNL A   1      41.305  28.397  28.663  1.00  0.00     0.037 A 
ATOM     52  C   UNL A   1      47.819  26.950  26.662  1.00  0.00     0.037 A 
ATOM     53  C   UNL A   1      42.224  29.504  28.744  1.00  0.00     0.049 A 
ATOM     54  C   UNL A   1      47.417  28.335  27.084  1.00  0.00     0.074 A 
ATOM     55  C   UNL A   1      41.982  30.797  29.181  1.00  0.00     0.029 A 
ATOM     56  N   UNL A   1      43.561  29.454  28.376  1.00  0.00    -0.354 N 
ATOM     57  N   UNL A   1      46.257  28.765  27.515  1.00  0.00    -0.248 NA
ATOM     58  C   UNL A   1      48.455  29.375  27.021  1.00  0.00     0.031 C 
ATOM     59  C   UNL A   1      43.159  31.538  29.037  1.00  0.00     0.029 A 
ATOM     60  C   UNL A   1      44.149  30.697  28.558  1.00  0.00     0.049 A 
ATOM     61  H   UNL A   1      44.024  28.654  28.037  1.00  0.00     0.167 HD
ATOM     62  C   UNL A   1      46.433  30.111  27.806  1.00  0.00     0.074 A 
ATOM     63  C   UNL A   1      47.815  30.428  27.510  1.00  0.00     0.031 C 
ATOM     64  C   UNL A   1      45.529  31.002  28.278  1.00  0.00     0.037 A 
BRANCH  51  65
ATOM     65  C   UNL A   1      39.876  28.644  29.047  1.00  0.00     0.064 A 
ATOM     66  C   UNL A   1      39.418  28.412  30.354  1.00  0.00     0.173 A 
ATOM     67  C   UNL A   1      38.964  29.163  28.116  1.00  0.00     0.173 A 
ATOM     68  F   UNL A   1      40.249  27.909  31.279  1.00  0.00    -0.203 F 
ATOM     69  C   UNL A   1      38.094  28.661  30.704  1.00  0.00     0.198 A 
ATOM     70  C   UNL A   1      37.648  29.439  28.478  1.00  0.00     0.198 A 
ATOM     71  F   UNL A   1      39.352  29.413  26.857  1.00  0.00    -0.203 F 
ATOM     72  F   UNL A   1      37.668  28.386  31.945  1.00  0.00    -0.200 F 
ATOM     73  C   UNL A   1      37.212  29.180  29.769  1.00  0.00     0.200 A 
ATOM     74  F   UNL A   1      36.800  29.953  27.576  1.00  0.00    -0.200 F 
ATOM     75  F   UNL A   1      35.939  29.424  30.109  1.00  0.00    -0.200 F 
ENDBRANCH  51  65
BRANCH  52  76
ATOM     76  C   UNL A   1      49.216  26.665  26.246  1.00  0.00     0.064 A 
ATOM     77  C   UNL A   1      50.158  26.193  27.171  1.00  0.00     0.173 A 
ATOM     78  C   UNL A   1      49.642  26.865  24.925  1.00  0.00     0.173 A 
ATOM     79  F   UNL A   1      49.802  26.007  28.451  1.00  0.00    -0.203 F 
ATOM     80  C   UNL A   1      51.478  25.951  26.796  1.00  0.00     0.198 A 
ATOM     81  C   UNL A   1      50.955  26.597  24.545  1.00  0.00     0.198 A 
ATOM     82  F   UNL A   1      48.778  27.310  24.001  1.00  0.00    -0.203 F 
ATOM     83  F   UNL A   1      52.368  25.544  27.711  1.00  0.00    -0.200 F 
ATOM     84  C   UNL A   1      51.873  26.149  25.482  1.00  0.00     0.200 A 
ATOM     85  F   UNL A   1      51.331  26.777  23.271  1.00  0.00    -0.200 F 
ATOM     86  F   UNL A   1      53.142  25.914  25.120  1.00  0.00    -0.200 F 
ENDBRANCH  52  76
BRANCH  64  87
ATOM     87  C   UNL A   1      46.009  32.398  28.554  1.00  0.00     0.064 A 
ATOM     88  C   UNL A   1      46.542  32.763  29.798  1.00  0.00     0.173 A 
ATOM     89  C   UNL A   1      45.974  33.371  27.543  1.00  0.00     0.173 A 
ATOM     90  F   UNL A   1      46.582  31.875  30.802  1.00  0.00    -0.203 F 
ATOM     91  C   UNL A   1      47.007  34.056  30.026  1.00  0.00     0.198 A 
ATOM     92  C   UNL A   1      46.463  34.655  27.766  1.00  0.00     0.198 A 
ATOM     93  F   UNL A   1      45.475  33.072  26.334  1.00  0.00    -0.203 F 
ATOM     94  F   UNL A   1      47.475  34.395  31.235  1.00  0.00    -0.200 F 
ATOM     95  C   UNL A   1      46.974  34.999  29.008  1.00  0.00     0.200 A 
ATOM     96  F   UNL A   1      46.441  35.560  26.777  1.00  0.00    -0.200 F 
ATOM     97  F   UNL A   1      47.429  36.239  29.227  1.00  0.00    -0.200 F 
ENDBRANCH  64  87
ENDBRANCH  38  39
ENDBRANCH  30  33
ENDBRANCH  28  29
ENDBRANCH  27  28
ENDBRANCH  26  27
ENDBRANCH   1  26
TORSDOF 16
ENDMDL
