MODEL 1
REMARK VINA RESULT:     -12.8      0.000      0.000
REMARK SMILES C[C@@H](C(=O)NCCCCCCNC(=O)c1ccc(-c2c3nc(c(-c4c(F)c(F)c(F)c(F)c4F)c4ccc([nH]4)c(-c4c(F)c(F)c(F)c(F)c4F)c4nc(c(-c5c(F)c(F)c(F)c(F)c5F)c5ccc2[nH]5)C=C4)C=C3)cc1)c1ccc(-c2ccc3[nH]ccc3c2)cc1
REMARK SMILES IDX 8 1 7 2 6 3 5 4 3 5 4 6 2 8 1 9 78 10 79 11 92 12 80 13
REMARK SMILES IDX 91 14 81 15 82 16 83 17 90 18 84 19 89 20 85 21 88 22 86 23
REMARK SMILES IDX 87 24 9 26 10 27 11 28 12 29 13 30 14 32 15 33 16 34 77 35
REMARK SMILES IDX 17 36 76 37 18 38 19 39 20 40 70 41 21 42 75 43 69 44 71 45
REMARK SMILES IDX 22 46 74 47 68 48 67 49 23 51 55 52 35 53 54 54 36 55 39 56
REMARK SMILES IDX 53 57 72 58 37 59 38 60 52 62 73 63 40 64 24 65 25 66 33 67
REMARK SMILES IDX 26 68 27 69 31 70 34 71 28 72 29 73 32 74 30 75 56 76 57 77
REMARK SMILES IDX 65 78 58 79 59 80 63 81 66 82 60 83 61 84 64 85 62 86 41 87
REMARK SMILES IDX 42 88 50 89 43 90 44 91 48 92 51 93 45 94 46 95 49 96 47 97
REMARK H PARENT 5 7 86 25 12 31 71 50 39 61
REMARK Flexibility Score: inf
ROOT
ATOM      1  C   UNL A   1      34.074  25.535  25.700  1.00  0.00     0.002 C 
ENDROOT
BRANCH   1   2
ATOM      2  C   UNL A   1      35.024  24.500  25.079  1.00  0.00     0.021 C 
BRANCH   2   3
ATOM      3  C   UNL A   1      34.459  23.077  25.087  1.00  0.00     0.116 C 
BRANCH   3   4
ATOM      4  N   UNL A   1      34.052  22.723  26.427  1.00  0.00    -0.356 N 
ATOM      5  C   UNL A   1      32.805  22.467  26.912  1.00  0.00     0.227 C 
ATOM      6  O   UNL A   1      32.679  22.461  28.139  1.00  0.00    -0.274 OA
ATOM      7  H   UNL A   1      34.782  22.656  27.085  1.00  0.00     0.163 HD
BRANCH   5   8
ATOM      8  C   UNL A   1      31.658  22.144  25.940  1.00  0.00     0.105 C 
ATOM      9  C   UNL A   1      32.077  21.163  24.836  1.00  0.00     0.023 C 
BRANCH   8  10
ATOM     10  C   UNL A   1      31.058  23.427  25.372  1.00  0.00    -0.036 A 
ATOM     11  C   UNL A   1      30.996  23.665  23.993  1.00  0.00     0.005 A 
ATOM     12  C   UNL A   1      30.597  24.424  26.247  1.00  0.00     0.005 A 
ATOM     13  C   UNL A   1      30.434  24.839  23.501  1.00  0.00     0.009 A 
ATOM     14  C   UNL A   1      30.045  25.609  25.751  1.00  0.00     0.009 A 
ATOM     15  C   UNL A   1      29.937  25.815  24.371  1.00  0.00    -0.018 A 
BRANCH  15  16
ATOM     16  C   UNL A   1      29.287  26.997  23.814  1.00  0.00    -0.018 A 
ATOM     17  C   UNL A   1      27.889  27.098  23.859  1.00  0.00     0.011 A 
ATOM     18  C   UNL A   1      30.034  27.986  23.152  1.00  0.00     0.019 A 
ATOM     19  C   UNL A   1      27.208  28.165  23.270  1.00  0.00     0.027 A 
ATOM     20  C   UNL A   1      29.366  29.045  22.508  1.00  0.00    -0.000 A 
ATOM     21  C   UNL A   1      27.976  29.118  22.596  1.00  0.00     0.045 A 
ATOM     22  C   UNL A   1      29.789  30.130  21.692  1.00  0.00     0.028 A 
ATOM     23  N   UNL A   1      27.585  30.244  21.908  1.00  0.00    -0.361 N 
ATOM     24  C   UNL A   1      28.668  30.835  21.317  1.00  0.00     0.083 A 
ATOM     25  H   UNL A   1      26.660  30.576  21.851  1.00  0.00     0.166 HD
ENDBRANCH  15  16
ENDBRANCH   8  10
ENDBRANCH   5   8
ENDBRANCH   3   4
ENDBRANCH   2   3
ENDBRANCH   1   2
BRANCH   1  26
ATOM     26  C   UNL A   1      33.638  26.651  24.747  1.00  0.00     0.002 C 
BRANCH  26  27
ATOM     27  C   UNL A   1      33.014  27.865  25.438  1.00  0.00     0.021 C 
BRANCH  27  28
ATOM     28  C   UNL A   1      33.617  29.198  25.010  1.00  0.00     0.116 C 
BRANCH  28  29
ATOM     29  N   UNL A   1      32.945  30.321  25.642  1.00  0.00    -0.352 N 
ATOM     30  C   UNL A   1      33.247  30.961  26.818  1.00  0.00     0.251 C 
ATOM     31  H   UNL A   1      32.164  30.674  25.158  1.00  0.00     0.163 HD
ATOM     32  O   UNL A   1      32.454  31.745  27.322  1.00  0.00    -0.269 OA
BRANCH  30  33
ATOM     33  C   UNL A   1      34.535  30.679  27.487  1.00  0.00     0.039 A 
ATOM     34  C   UNL A   1      35.470  31.708  27.615  1.00  0.00     0.014 A 
ATOM     35  C   UNL A   1      34.813  29.404  27.987  1.00  0.00     0.014 A 
ATOM     36  C   UNL A   1      36.664  31.472  28.298  1.00  0.00     0.010 A 
ATOM     37  C   UNL A   1      35.966  29.193  28.735  1.00  0.00     0.010 A 
ATOM     38  C   UNL A   1      36.906  30.223  28.893  1.00  0.00    -0.014 A 
BRANCH  38  39
ATOM     39  C   UNL A   1      38.136  29.976  29.686  1.00  0.00     0.031 A 
ATOM     40  C   UNL A   1      39.198  29.048  29.163  1.00  0.00     0.074 A 
ATOM     41  C   UNL A   1      38.265  30.530  30.905  1.00  0.00     0.049 A 
ATOM     42  N   UNL A   1      40.305  28.649  29.736  1.00  0.00    -0.248 NA
ATOM     43  C   UNL A   1      38.969  28.468  27.830  1.00  0.00     0.031 C 
ATOM     44  C   UNL A   1      37.280  31.405  31.543  1.00  0.00     0.029 A 
ATOM     45  N   UNL A   1      39.270  30.428  31.835  1.00  0.00    -0.354 N 
ATOM     46  C   UNL A   1      40.894  27.764  28.842  1.00  0.00     0.074 A 
ATOM     47  C   UNL A   1      39.994  27.638  27.716  1.00  0.00     0.031 C 
ATOM     48  C   UNL A   1      37.735  31.772  32.751  1.00  0.00     0.029 A 
ATOM     49  C   UNL A   1      39.023  31.127  32.991  1.00  0.00     0.049 A 
ATOM     50  H   UNL A   1      40.090  29.904  31.686  1.00  0.00     0.167 HD
ATOM     51  C   UNL A   1      42.088  27.133  28.942  1.00  0.00     0.037 A 
ATOM     52  C   UNL A   1      39.744  31.224  34.124  1.00  0.00     0.037 A 
ATOM     53  C   UNL A   1      42.986  27.276  30.060  1.00  0.00     0.049 A 
ATOM     54  C   UNL A   1      41.063  30.505  34.216  1.00  0.00     0.074 A 
ATOM     55  C   UNL A   1      44.248  26.733  30.227  1.00  0.00     0.029 A 
ATOM     56  N   UNL A   1      42.710  28.009  31.205  1.00  0.00    -0.354 N 
ATOM     57  N   UNL A   1      41.649  29.734  33.332  1.00  0.00    -0.248 NA
ATOM     58  C   UNL A   1      41.824  30.674  35.461  1.00  0.00     0.031 C 
ATOM     59  C   UNL A   1      44.709  27.085  31.500  1.00  0.00     0.029 A 
ATOM     60  C   UNL A   1      43.764  27.904  32.099  1.00  0.00     0.049 A 
ATOM     61  H   UNL A   1      41.888  28.526  31.360  1.00  0.00     0.167 HD
ATOM     62  C   UNL A   1      42.857  29.350  33.900  1.00  0.00     0.074 A 
ATOM     63  C   UNL A   1      42.926  29.986  35.199  1.00  0.00     0.031 C 
ATOM     64  C   UNL A   1      43.821  28.544  33.390  1.00  0.00     0.037 A 
BRANCH  51  65
ATOM     65  C   UNL A   1      42.488  26.219  27.818  1.00  0.00     0.064 A 
ATOM     66  C   UNL A   1      43.375  26.629  26.810  1.00  0.00     0.173 A 
ATOM     67  C   UNL A   1      41.995  24.907  27.758  1.00  0.00     0.173 A 
ATOM     68  F   UNL A   1      43.869  27.877  26.812  1.00  0.00    -0.203 F 
ATOM     69  C   UNL A   1      43.722  25.776  25.766  1.00  0.00     0.198 A 
ATOM     70  C   UNL A   1      42.372  24.044  26.733  1.00  0.00     0.198 A 
ATOM     71  F   UNL A   1      41.150  24.458  28.697  1.00  0.00    -0.203 F 
ATOM     72  F   UNL A   1      44.522  26.212  24.783  1.00  0.00    -0.200 F 
ATOM     73  C   UNL A   1      43.226  24.481  25.732  1.00  0.00     0.200 A 
ATOM     74  F   UNL A   1      41.904  22.787  26.711  1.00  0.00    -0.200 F 
ATOM     75  F   UNL A   1      43.564  23.659  24.730  1.00  0.00    -0.200 F 
ENDBRANCH  51  65
BRANCH  52  76
ATOM     76  C   UNL A   1      39.236  32.042  35.256  1.00  0.00     0.064 A 
ATOM     77  C   UNL A   1      39.512  33.414  35.340  1.00  0.00     0.173 A 
ATOM     78  C   UNL A   1      38.458  31.471  36.275  1.00  0.00     0.173 A 
ATOM     79  F   UNL A   1      40.267  34.003  34.400  1.00  0.00    -0.203 F 
ATOM     80  C   UNL A   1      39.048  34.179  36.408  1.00  0.00     0.198 A 
ATOM     81  C   UNL A   1      37.967  32.243  37.325  1.00  0.00     0.198 A 
ATOM     82  F   UNL A   1      38.158  30.164  36.239  1.00  0.00    -0.203 F 
ATOM     83  F   UNL A   1      39.366  35.478  36.487  1.00  0.00    -0.200 F 
ATOM     84  C   UNL A   1      38.269  33.594  37.396  1.00  0.00     0.200 A 
ATOM     85  F   UNL A   1      37.201  31.678  38.268  1.00  0.00    -0.200 F 
ATOM     86  F   UNL A   1      37.817  34.331  38.419  1.00  0.00    -0.200 F 
ENDBRANCH  52  76
BRANCH  64  87
ATOM     87  C   UNL A   1      45.053  28.328  34.223  1.00  0.00     0.064 A 
ATOM     88  C   UNL A   1      45.161  27.255  35.119  1.00  0.00     0.173 A 
ATOM     89  C   UNL A   1      46.157  29.184  34.088  1.00  0.00     0.173 A 
ATOM     90  F   UNL A   1      44.128  26.417  35.297  1.00  0.00    -0.203 F 
ATOM     91  C   UNL A   1      46.319  27.061  35.869  1.00  0.00     0.198 A 
ATOM     92  C   UNL A   1      47.326  28.966  34.813  1.00  0.00     0.198 A 
ATOM     93  F   UNL A   1      46.111  30.222  33.240  1.00  0.00    -0.203 F 
ATOM     94  F   UNL A   1      46.380  26.059  36.756  1.00  0.00    -0.200 F 
ATOM     95  C   UNL A   1      47.402  27.911  35.708  1.00  0.00     0.200 A 
ATOM     96  F   UNL A   1      48.378  29.778  34.643  1.00  0.00    -0.200 F 
ATOM     97  F   UNL A   1      48.520  27.716  36.422  1.00  0.00    -0.200 F 
ENDBRANCH  64  87
ENDBRANCH  38  39
ENDBRANCH  30  33
ENDBRANCH  28  29
ENDBRANCH  27  28
ENDBRANCH  26  27
ENDBRANCH   1  26
TORSDOF 15
ENDMDL
MODEL 2
REMARK VINA RESULT:     -12.7      2.677      5.723
REMARK SMILES C[C@@H](C(=O)NCCCCCCNC(=O)c1ccc(-c2c3nc(c(-c4c(F)c(F)c(F)c(F)c4F)c4ccc([nH]4)c(-c4c(F)c(F)c(F)c(F)c4F)c4nc(c(-c5c(F)c(F)c(F)c(F)c5F)c5ccc2[nH]5)C=C4)C=C3)cc1)c1ccc(-c2ccc3[nH]ccc3c2)cc1
REMARK SMILES IDX 8 1 7 2 6 3 5 4 3 5 4 6 2 8 1 9 78 10 79 11 92 12 80 13
REMARK SMILES IDX 91 14 81 15 82 16 83 17 90 18 84 19 89 20 85 21 88 22 86 23
REMARK SMILES IDX 87 24 9 26 10 27 11 28 12 29 13 30 14 32 15 33 16 34 77 35
REMARK SMILES IDX 17 36 76 37 18 38 19 39 20 40 70 41 21 42 75 43 69 44 71 45
REMARK SMILES IDX 22 46 74 47 68 48 67 49 23 51 55 52 35 53 54 54 36 55 39 56
REMARK SMILES IDX 53 57 72 58 37 59 38 60 52 62 73 63 40 64 24 65 25 66 33 67
REMARK SMILES IDX 26 68 27 69 31 70 34 71 28 72 29 73 32 74 30 75 56 76 57 77
REMARK SMILES IDX 65 78 58 79 59 80 63 81 66 82 60 83 61 84 64 85 62 86 41 87
REMARK SMILES IDX 42 88 50 89 43 90 44 91 48 92 51 93 45 94 46 95 49 96 47 97
REMARK H PARENT 5 7 86 25 12 31 71 50 39 61
REMARK Flexibility Score: inf
ROOT
ATOM      1  C   UNL A   1      32.998  30.147  26.586  1.00  0.00     0.002 C 
ENDROOT
BRANCH   1   2
ATOM      2  C   UNL A   1      32.938  28.706  27.113  1.00  0.00     0.021 C 
BRANCH   2   3
ATOM      3  C   UNL A   1      33.604  27.690  26.181  1.00  0.00     0.116 C 
BRANCH   3   4
ATOM      4  N   UNL A   1      32.822  26.476  26.150  1.00  0.00    -0.356 N 
ATOM      5  C   UNL A   1      32.715  25.542  25.164  1.00  0.00     0.227 C 
ATOM      6  O   UNL A   1      31.778  24.745  25.256  1.00  0.00    -0.274 OA
ATOM      7  H   UNL A   1      32.290  26.296  26.960  1.00  0.00     0.163 HD
BRANCH   5   8
ATOM      8  C   UNL A   1      33.770  25.486  24.047  1.00  0.00     0.105 C 
ATOM      9  C   UNL A   1      33.154  25.244  22.662  1.00  0.00     0.023 C 
BRANCH   8  10
ATOM     10  C   UNL A   1      34.853  24.464  24.381  1.00  0.00    -0.036 A 
ATOM     11  C   UNL A   1      35.301  23.528  23.440  1.00  0.00     0.005 A 
ATOM     12  C   UNL A   1      35.387  24.418  25.680  1.00  0.00     0.005 A 
ATOM     13  C   UNL A   1      36.297  22.614  23.768  1.00  0.00     0.009 A 
ATOM     14  C   UNL A   1      36.378  23.490  26.012  1.00  0.00     0.009 A 
ATOM     15  C   UNL A   1      36.858  22.595  25.049  1.00  0.00    -0.018 A 
BRANCH  15  16
ATOM     16  C   UNL A   1      37.954  21.672  25.329  1.00  0.00    -0.018 A 
ATOM     17  C   UNL A   1      37.837  20.329  24.941  1.00  0.00     0.011 A 
ATOM     18  C   UNL A   1      39.078  22.087  26.063  1.00  0.00     0.019 A 
ATOM     19  C   UNL A   1      38.815  19.384  25.255  1.00  0.00     0.027 A 
ATOM     20  C   UNL A   1      40.053  21.141  26.432  1.00  0.00    -0.000 A 
ATOM     21  C   UNL A   1      39.907  19.821  26.007  1.00  0.00     0.045 A 
ATOM     22  C   UNL A   1      41.230  21.195  27.229  1.00  0.00     0.028 A 
ATOM     23  N   UNL A   1      40.993  19.121  26.481  1.00  0.00    -0.361 N 
ATOM     24  C   UNL A   1      41.773  19.931  27.261  1.00  0.00     0.083 A 
ATOM     25  H   UNL A   1      41.182  18.174  26.285  1.00  0.00     0.166 HD
ENDBRANCH  15  16
ENDBRANCH   8  10
ENDBRANCH   5   8
ENDBRANCH   3   4
ENDBRANCH   2   3
ENDBRANCH   1   2
BRANCH   1  26
ATOM     26  C   UNL A   1      31.641  30.744  26.206  1.00  0.00     0.002 C 
BRANCH  26  27
ATOM     27  C   UNL A   1      31.417  32.173  26.702  1.00  0.00     0.021 C 
BRANCH  27  28
ATOM     28  C   UNL A   1      32.668  32.833  27.271  1.00  0.00     0.116 C 
BRANCH  28  29
ATOM     29  N   UNL A   1      32.432  34.226  27.616  1.00  0.00    -0.352 N 
ATOM     30  C   UNL A   1      32.996  34.978  28.615  1.00  0.00     0.251 C 
ATOM     31  H   UNL A   1      31.776  34.696  27.052  1.00  0.00     0.163 HD
ATOM     32  O   UNL A   1      32.528  36.070  28.911  1.00  0.00    -0.269 OA
BRANCH  30  33
ATOM     33  C   UNL A   1      34.165  34.449  29.349  1.00  0.00     0.039 A 
ATOM     34  C   UNL A   1      33.964  33.822  30.579  1.00  0.00     0.014 A 
ATOM     35  C   UNL A   1      35.452  34.573  28.820  1.00  0.00     0.014 A 
ATOM     36  C   UNL A   1      35.051  33.265  31.255  1.00  0.00     0.010 A 
ATOM     37  C   UNL A   1      36.521  33.948  29.454  1.00  0.00     0.010 A 
ATOM     38  C   UNL A   1      36.332  33.293  30.680  1.00  0.00    -0.014 A 
BRANCH  38  39
ATOM     39  C   UNL A   1      37.487  32.642  31.347  1.00  0.00     0.031 A 
ATOM     40  C   UNL A   1      38.162  31.460  30.707  1.00  0.00     0.074 A 
ATOM     41  C   UNL A   1      37.882  33.070  32.561  1.00  0.00     0.049 A 
ATOM     42  N   UNL A   1      39.135  30.713  31.165  1.00  0.00    -0.248 NA
ATOM     43  C   UNL A   1      37.655  31.044  29.391  1.00  0.00     0.031 C 
ATOM     44  C   UNL A   1      37.273  34.172  33.306  1.00  0.00     0.029 A 
ATOM     45  N   UNL A   1      38.881  32.620  33.389  1.00  0.00    -0.354 N 
ATOM     46  C   UNL A   1      39.344  29.735  30.202  1.00  0.00     0.074 A 
ATOM     47  C   UNL A   1      38.359  29.946  29.164  1.00  0.00     0.031 C 
ATOM     48  C   UNL A   1      37.919  34.323  34.473  1.00  0.00     0.029 A 
ATOM     49  C   UNL A   1      38.959  33.304  34.577  1.00  0.00     0.049 A 
ATOM     50  H   UNL A   1      39.482  31.878  33.153  1.00  0.00     0.167 HD
ATOM     51  C   UNL A   1      40.288  28.764  30.176  1.00  0.00     0.037 A 
ATOM     52  C   UNL A   1      39.767  33.119  35.639  1.00  0.00     0.037 A 
ATOM     53  C   UNL A   1      41.276  28.571  31.207  1.00  0.00     0.049 A 
ATOM     54  C   UNL A   1      40.801  32.027  35.592  1.00  0.00     0.074 A 
ATOM     55  C   UNL A   1      42.317  27.660  31.243  1.00  0.00     0.029 A 
ATOM     56  N   UNL A   1      41.338  29.297  32.388  1.00  0.00    -0.354 N 
ATOM     57  N   UNL A   1      41.044  31.158  34.640  1.00  0.00    -0.248 NA
ATOM     58  C   UNL A   1      41.678  31.895  36.762  1.00  0.00     0.031 C 
ATOM     59  C   UNL A   1      42.969  27.791  32.474  1.00  0.00     0.029 A 
ATOM     60  C   UNL A   1      42.378  28.831  33.176  1.00  0.00     0.049 A 
ATOM     61  H   UNL A   1      40.731  30.033  32.631  1.00  0.00     0.167 HD
ATOM     62  C   UNL A   1      42.116  30.395  35.083  1.00  0.00     0.074 A 
ATOM     63  C   UNL A   1      42.487  30.915  36.384  1.00  0.00     0.031 C 
ATOM     64  C   UNL A   1      42.737  29.359  34.469  1.00  0.00     0.037 A 
BRANCH  51  65
ATOM     65  C   UNL A   1      40.290  27.828  29.000  1.00  0.00     0.064 A 
ATOM     66  C   UNL A   1      41.042  28.092  27.845  1.00  0.00     0.173 A 
ATOM     67  C   UNL A   1      39.547  26.638  29.037  1.00  0.00     0.173 A 
ATOM     68  F   UNL A   1      41.764  29.221  27.752  1.00  0.00    -0.203 F 
ATOM     69  C   UNL A   1      41.020  27.223  26.758  1.00  0.00     0.198 A 
ATOM     70  C   UNL A   1      39.556  25.753  27.963  1.00  0.00     0.198 A 
ATOM     71  F   UNL A   1      38.816  26.331  30.118  1.00  0.00    -0.203 F 
ATOM     72  F   UNL A   1      41.697  27.528  25.643  1.00  0.00    -0.200 F 
ATOM     73  C   UNL A   1      40.282  26.050  26.820  1.00  0.00     0.200 A 
ATOM     74  F   UNL A   1      38.855  24.612  28.032  1.00  0.00    -0.200 F 
ATOM     75  F   UNL A   1      40.265  25.211  25.776  1.00  0.00    -0.200 F 
ENDBRANCH  51  65
BRANCH  52  76
ATOM     76  C   UNL A   1      39.633  33.998  36.831  1.00  0.00     0.064 A 
ATOM     77  C   UNL A   1      38.856  33.610  37.932  1.00  0.00     0.173 A 
ATOM     78  C   UNL A   1      40.283  35.239  36.897  1.00  0.00     0.173 A 
ATOM     79  F   UNL A   1      38.200  32.440  37.910  1.00  0.00    -0.203 F 
ATOM     80  C   UNL A   1      38.718  34.439  39.044  1.00  0.00     0.198 A 
ATOM     81  C   UNL A   1      40.171  36.052  38.022  1.00  0.00     0.198 A 
ATOM     82  F   UNL A   1      41.044  35.654  35.873  1.00  0.00    -0.203 F 
ATOM     83  F   UNL A   1      37.933  34.064  40.062  1.00  0.00    -0.200 F 
ATOM     84  C   UNL A   1      39.382  35.657  39.091  1.00  0.00     0.200 A 
ATOM     85  F   UNL A   1      40.827  37.219  38.070  1.00  0.00    -0.200 F 
ATOM     86  F   UNL A   1      39.255  36.450  40.163  1.00  0.00    -0.200 F 
ENDBRANCH  52  76
BRANCH  64  87
ATOM     87  C   UNL A   1      43.907  28.735  35.177  1.00  0.00     0.064 A 
ATOM     88  C   UNL A   1      43.747  27.656  36.059  1.00  0.00     0.173 A 
ATOM     89  C   UNL A   1      45.210  29.197  34.934  1.00  0.00     0.173 A 
ATOM     90  F   UNL A   1      42.522  27.187  36.338  1.00  0.00    -0.203 F 
ATOM     91  C   UNL A   1      44.847  27.080  36.692  1.00  0.00     0.198 A 
ATOM     92  C   UNL A   1      46.309  28.596  35.541  1.00  0.00     0.198 A 
ATOM     93  F   UNL A   1      45.420  30.222  34.093  1.00  0.00    -0.203 F 
ATOM     94  F   UNL A   1      44.665  26.085  37.569  1.00  0.00    -0.200 F 
ATOM     95  C   UNL A   1      46.126  27.544  36.425  1.00  0.00     0.200 A 
ATOM     96  F   UNL A   1      47.546  29.034  35.269  1.00  0.00    -0.200 F 
ATOM     97  F   UNL A   1      47.183  26.982  37.026  1.00  0.00    -0.200 F 
ENDBRANCH  64  87
ENDBRANCH  38  39
ENDBRANCH  30  33
ENDBRANCH  28  29
ENDBRANCH  27  28
ENDBRANCH  26  27
ENDBRANCH   1  26
TORSDOF 15
ENDMDL
MODEL 3
REMARK VINA RESULT:     -12.5      0.421      7.221
REMARK SMILES C[C@@H](C(=O)NCCCCCCNC(=O)c1ccc(-c2c3nc(c(-c4c(F)c(F)c(F)c(F)c4F)c4ccc([nH]4)c(-c4c(F)c(F)c(F)c(F)c4F)c4nc(c(-c5c(F)c(F)c(F)c(F)c5F)c5ccc2[nH]5)C=C4)C=C3)cc1)c1ccc(-c2ccc3[nH]ccc3c2)cc1
REMARK SMILES IDX 8 1 7 2 6 3 5 4 3 5 4 6 2 8 1 9 78 10 79 11 92 12 80 13
REMARK SMILES IDX 91 14 81 15 82 16 83 17 90 18 84 19 89 20 85 21 88 22 86 23
REMARK SMILES IDX 87 24 9 26 10 27 11 28 12 29 13 30 14 32 15 33 16 34 77 35
REMARK SMILES IDX 17 36 76 37 18 38 19 39 20 40 70 41 21 42 75 43 69 44 71 45
REMARK SMILES IDX 22 46 74 47 68 48 67 49 23 51 55 52 35 53 54 54 36 55 39 56
REMARK SMILES IDX 53 57 72 58 37 59 38 60 52 62 73 63 40 64 24 65 25 66 33 67
REMARK SMILES IDX 26 68 27 69 31 70 34 71 28 72 29 73 32 74 30 75 56 76 57 77
REMARK SMILES IDX 65 78 58 79 59 80 63 81 66 82 60 83 61 84 64 85 62 86 41 87
REMARK SMILES IDX 42 88 50 89 43 90 44 91 48 92 51 93 45 94 46 95 49 96 47 97
REMARK H PARENT 5 7 86 25 12 31 71 50 39 61
REMARK Flexibility Score: inf
ROOT
ATOM      1  C   UNL A   1      34.152  25.422  25.728  1.00  0.00     0.002 C 
ENDROOT
BRANCH   1   2
ATOM      2  C   UNL A   1      35.120  24.367  25.172  1.00  0.00     0.021 C 
BRANCH   2   3
ATOM      3  C   UNL A   1      34.554  22.944  25.210  1.00  0.00     0.116 C 
BRANCH   3   4
ATOM      4  N   UNL A   1      34.062  22.653  26.536  1.00  0.00    -0.356 N 
ATOM      5  C   UNL A   1      32.781  22.459  26.960  1.00  0.00     0.227 C 
ATOM      6  O   UNL A   1      32.588  22.502  28.176  1.00  0.00    -0.274 OA
ATOM      7  H   UNL A   1      34.751  22.585  27.236  1.00  0.00     0.163 HD
BRANCH   5   8
ATOM      8  C   UNL A   1      31.679  22.141  25.936  1.00  0.00     0.105 C 
ATOM      9  C   UNL A   1      32.153  21.185  24.833  1.00  0.00     0.023 C 
BRANCH   8  10
ATOM     10  C   UNL A   1      31.087  23.427  25.367  1.00  0.00    -0.036 A 
ATOM     11  C   UNL A   1      31.061  23.682  23.990  1.00  0.00     0.005 A 
ATOM     12  C   UNL A   1      30.597  24.412  26.241  1.00  0.00     0.005 A 
ATOM     13  C   UNL A   1      30.506  24.858  23.496  1.00  0.00     0.009 A 
ATOM     14  C   UNL A   1      30.051  25.599  25.744  1.00  0.00     0.009 A 
ATOM     15  C   UNL A   1      29.981  25.821  24.365  1.00  0.00    -0.018 A 
BRANCH  15  16
ATOM     16  C   UNL A   1      29.339  27.007  23.804  1.00  0.00    -0.018 A 
ATOM     17  C   UNL A   1      27.944  27.132  23.876  1.00  0.00     0.011 A 
ATOM     18  C   UNL A   1      30.089  27.973  23.112  1.00  0.00     0.019 A 
ATOM     19  C   UNL A   1      27.269  28.203  23.286  1.00  0.00     0.027 A 
ATOM     20  C   UNL A   1      29.425  29.034  22.467  1.00  0.00    -0.000 A 
ATOM     21  C   UNL A   1      28.039  29.133  22.583  1.00  0.00     0.045 A 
ATOM     22  C   UNL A   1      29.850  30.100  21.626  1.00  0.00     0.028 A 
ATOM     23  N   UNL A   1      27.653  30.255  21.887  1.00  0.00    -0.361 N 
ATOM     24  C   UNL A   1      28.734  30.819  21.265  1.00  0.00     0.083 A 
ATOM     25  H   UNL A   1      26.733  30.603  21.844  1.00  0.00     0.166 HD
ENDBRANCH  15  16
ENDBRANCH   8  10
ENDBRANCH   5   8
ENDBRANCH   3   4
ENDBRANCH   2   3
ENDBRANCH   1   2
BRANCH   1  26
ATOM     26  C   UNL A   1      33.652  26.435  24.695  1.00  0.00     0.002 C 
BRANCH  26  27
ATOM     27  C   UNL A   1      33.055  27.709  25.297  1.00  0.00     0.021 C 
BRANCH  27  28
ATOM     28  C   UNL A   1      33.951  28.935  25.161  1.00  0.00     0.116 C 
BRANCH  28  29
ATOM     29  N   UNL A   1      33.278  30.145  25.605  1.00  0.00    -0.352 N 
ATOM     30  C   UNL A   1      33.458  30.862  26.760  1.00  0.00     0.251 C 
ATOM     31  H   UNL A   1      32.597  30.500  24.988  1.00  0.00     0.163 HD
ATOM     32  O   UNL A   1      32.660  31.731  27.084  1.00  0.00    -0.269 OA
BRANCH  30  33
ATOM     33  C   UNL A   1      34.618  30.563  27.626  1.00  0.00     0.039 A 
ATOM     34  C   UNL A   1      34.621  29.382  28.369  1.00  0.00     0.014 A 
ATOM     35  C   UNL A   1      35.698  31.447  27.700  1.00  0.00     0.014 A 
ATOM     36  C   UNL A   1      35.736  29.057  29.144  1.00  0.00     0.010 A 
ATOM     37  C   UNL A   1      36.839  31.085  28.407  1.00  0.00     0.010 A 
ATOM     38  C   UNL A   1      36.867  29.889  29.141  1.00  0.00    -0.014 A 
BRANCH  38  39
ATOM     39  C   UNL A   1      38.090  29.525  29.900  1.00  0.00     0.031 A 
ATOM     40  C   UNL A   1      38.339  30.117  31.259  1.00  0.00     0.074 A 
ATOM     41  C   UNL A   1      39.008  28.719  29.335  1.00  0.00     0.049 A 
ATOM     42  N   UNL A   1      39.378  29.980  32.045  1.00  0.00    -0.248 NA
ATOM     43  C   UNL A   1      37.296  31.004  31.794  1.00  0.00     0.031 C 
ATOM     44  C   UNL A   1      38.904  28.125  28.002  1.00  0.00     0.029 A 
ATOM     45  N   UNL A   1      40.217  28.270  29.805  1.00  0.00    -0.354 N 
ATOM     46  C   UNL A   1      39.118  30.772  33.155  1.00  0.00     0.074 A 
ATOM     47  C   UNL A   1      37.854  31.434  32.916  1.00  0.00     0.031 C 
ATOM     48  C   UNL A   1      39.994  27.379  27.766  1.00  0.00     0.029 A 
ATOM     49  C   UNL A   1      40.893  27.474  28.912  1.00  0.00     0.049 A 
ATOM     50  H   UNL A   1      40.567  28.498  30.696  1.00  0.00     0.167 HD
ATOM     51  C   UNL A   1      39.857  30.917  34.281  1.00  0.00     0.037 A 
ATOM     52  C   UNL A   1      42.108  26.900  29.001  1.00  0.00     0.037 A 
ATOM     53  C   UNL A   1      41.107  30.242  34.518  1.00  0.00     0.049 A 
ATOM     54  C   UNL A   1      42.915  27.083  30.258  1.00  0.00     0.074 A 
ATOM     55  C   UNL A   1      41.899  30.268  35.653  1.00  0.00     0.029 A 
ATOM     56  N   UNL A   1      41.751  29.427  33.599  1.00  0.00    -0.354 N 
ATOM     57  N   UNL A   1      42.624  27.771  31.336  1.00  0.00    -0.248 NA
ATOM     58  C   UNL A   1      44.217  26.405  30.313  1.00  0.00     0.031 C 
ATOM     59  C   UNL A   1      43.053  29.521  35.396  1.00  0.00     0.029 A 
ATOM     60  C   UNL A   1      42.949  28.972  34.127  1.00  0.00     0.049 A 
ATOM     61  H   UNL A   1      41.409  29.205  32.703  1.00  0.00     0.167 HD
ATOM     62  C   UNL A   1      43.689  27.586  32.207  1.00  0.00     0.074 A 
ATOM     63  C   UNL A   1      44.627  26.709  31.537  1.00  0.00     0.031 C 
ATOM     64  C   UNL A   1      43.874  28.097  33.449  1.00  0.00     0.037 A 
BRANCH  51  65
ATOM     65  C   UNL A   1      39.337  31.850  35.339  1.00  0.00     0.064 A 
ATOM     66  C   UNL A   1      39.652  33.217  35.340  1.00  0.00     0.173 A 
ATOM     67  C   UNL A   1      38.493  31.374  36.354  1.00  0.00     0.173 A 
ATOM     68  F   UNL A   1      40.464  33.724  34.398  1.00  0.00    -0.203 F 
ATOM     69  C   UNL A   1      39.176  34.065  36.336  1.00  0.00     0.198 A 
ATOM     70  C   UNL A   1      37.988  32.231  37.328  1.00  0.00     0.198 A 
ATOM     71  F   UNL A   1      38.152  30.078  36.399  1.00  0.00    -0.203 F 
ATOM     72  F   UNL A   1      39.541  35.354  36.350  1.00  0.00    -0.200 F 
ATOM     73  C   UNL A   1      38.338  33.573  37.326  1.00  0.00     0.200 A 
ATOM     74  F   UNL A   1      37.166  31.756  38.275  1.00  0.00    -0.200 F 
ATOM     75  F   UNL A   1      37.876  34.389  38.282  1.00  0.00    -0.200 F 
ENDBRANCH  51  65
BRANCH  52  76
ATOM     76  C   UNL A   1      42.627  26.091  27.867  1.00  0.00     0.064 A 
ATOM     77  C   UNL A   1      42.292  24.736  27.732  1.00  0.00     0.173 A 
ATOM     78  C   UNL A   1      43.462  26.655  26.892  1.00  0.00     0.173 A 
ATOM     79  F   UNL A   1      41.511  24.145  28.649  1.00  0.00    -0.203 F 
ATOM     80  C   UNL A   1      42.789  23.972  26.678  1.00  0.00     0.198 A 
ATOM     81  C   UNL A   1      43.932  25.900  25.820  1.00  0.00     0.198 A 
ATOM     82  F   UNL A   1      43.807  27.950  26.970  1.00  0.00    -0.203 F 
ATOM     83  F   UNL A   1      42.491  22.668  26.599  1.00  0.00    -0.200 F 
ATOM     84  C   UNL A   1      43.603  24.557  25.718  1.00  0.00     0.200 A 
ATOM     85  F   UNL A   1      44.704  26.473  24.887  1.00  0.00    -0.200 F 
ATOM     86  F   UNL A   1      44.075  23.824  24.701  1.00  0.00    -0.200 F 
ENDBRANCH  52  76
BRANCH  64  87
ATOM     87  C   UNL A   1      45.121  27.695  34.184  1.00  0.00     0.064 A 
ATOM     88  C   UNL A   1      45.170  26.542  34.981  1.00  0.00     0.173 A 
ATOM     89  C   UNL A   1      46.296  28.452  34.052  1.00  0.00     0.173 A 
ATOM     90  F   UNL A   1      44.071  25.792  35.153  1.00  0.00    -0.203 F 
ATOM     91  C   UNL A   1      46.342  26.176  35.640  1.00  0.00     0.198 A 
ATOM     92  C   UNL A   1      47.474  28.064  34.684  1.00  0.00     0.198 A 
ATOM     93  F   UNL A   1      46.306  29.561  33.296  1.00  0.00    -0.203 F 
ATOM     94  F   UNL A   1      46.351  25.099  36.436  1.00  0.00    -0.200 F 
ATOM     95  C   UNL A   1      47.494  26.932  35.483  1.00  0.00     0.200 A 
ATOM     96  F   UNL A   1      48.591  28.786  34.517  1.00  0.00    -0.200 F 
ATOM     97  F   UNL A   1      48.623  26.572  36.109  1.00  0.00    -0.200 F 
ENDBRANCH  64  87
ENDBRANCH  38  39
ENDBRANCH  30  33
ENDBRANCH  28  29
ENDBRANCH  27  28
ENDBRANCH  26  27
ENDBRANCH   1  26
TORSDOF 15
ENDMDL
