MODEL 1
REMARK VINA RESULT:     -13.3      0.000      0.000
REMARK SMILES C[C@H]1CCc2sc3ncn4nc(/C=C\C(=O)NCCCCCCNC(=O)c5ccc(-c6c7nc(c(-c8c(F)c(F)c(F)c(F)c8F)c8ccc([nH]8)c(-c8c(F)c(F)c(F)c(F)c8F)c8nc(c(-c9c(F)c(F)c(F)c(F)c9F)c9ccc6[nH]9)C=C8)C=C7)cc5)nc4c3c2C1
REMARK SMILES IDX 21 1 20 2 19 3 18 4 17 5 15 6 16 7 14 9 13 10 12 11 1 12
REMARK SMILES IDX 2 13 3 14 94 15 4 16 93 17 5 18 92 19 6 20 7 21 91 22 8 23
REMARK SMILES IDX 10 24 90 25 9 26 11 27 22 28 23 29 24 30 25 31 26 33 27 34
REMARK SMILES IDX 28 35 89 36 29 37 88 38 30 39 31 40 32 41 82 42 33 43 87 44
REMARK SMILES IDX 81 45 83 46 34 47 86 48 80 49 79 50 35 52 67 53 47 54 66 55
REMARK SMILES IDX 48 56 51 57 65 58 84 59 49 60 50 61 64 63 85 64 52 65 36 66
REMARK SMILES IDX 37 67 45 68 38 69 39 70 43 71 46 72 40 73 41 74 44 75 42 76
REMARK SMILES IDX 68 77 69 78 77 79 70 80 71 81 75 82 78 83 72 84 73 85 76 86
REMARK SMILES IDX 74 87 53 88 54 89 62 90 55 91 56 92 60 93 63 94 57 95 58 96
REMARK SMILES IDX 61 97 59 98
REMARK H PARENT 17 8 24 32 83 51 51 62
REMARK Flexibility Score: inf
ROOT
ATOM      1  C   UNL A   1      41.428  21.342  27.446  1.00  0.00     0.002 C 
ENDROOT
BRANCH   1   2
ATOM      2  C   UNL A   1      40.049  21.538  26.827  1.00  0.00     0.002 C 
BRANCH   2   3
ATOM      3  C   UNL A   1      39.608  22.981  26.593  1.00  0.00     0.021 C 
BRANCH   3   4
ATOM      4  C   UNL A   1      38.175  23.195  26.151  1.00  0.00     0.116 C 
BRANCH   4   5
ATOM      5  N   UNL A   1      37.840  23.291  24.752  1.00  0.00    -0.353 N 
ATOM      6  C   UNL A   1      36.995  22.451  24.072  1.00  0.00     0.244 C 
ATOM      7  O   UNL A   1      36.619  22.740  22.936  1.00  0.00    -0.270 OA
ATOM      8  H   UNL A   1      38.253  24.025  24.241  1.00  0.00     0.163 HD
BRANCH   6   9
ATOM      9  C   UNL A   1      36.685  21.094  24.606  1.00  0.00     0.075 C 
ATOM     10  C   UNL A   1      35.581  20.601  25.200  1.00  0.00     0.057 C 
BRANCH  10  11
ATOM     11  C   UNL A   1      34.345  21.258  25.493  1.00  0.00     0.175 A 
ATOM     12  C   UNL A   1      31.776  26.169  21.009  1.00  0.00     0.008 C 
ATOM     13  C   UNL A   1      32.967  26.307  21.955  1.00  0.00    -0.009 C 
ATOM     14  C   UNL A   1      32.801  27.542  22.864  1.00  0.00     0.009 C 
ATOM     15  C   UNL A   1      33.154  25.011  22.788  1.00  0.00     0.041 C 
ATOM     16  C   UNL A   1      31.582  27.431  23.790  1.00  0.00     0.047 C 
ATOM     17  C   UNL A   1      32.158  24.917  23.930  1.00  0.00    -0.020 A 
ATOM     18  C   UNL A   1      31.431  26.035  24.330  1.00  0.00     0.011 A 
ATOM     19  C   UNL A   1      32.012  23.895  24.928  1.00  0.00     0.060 A 
ATOM     20  S   UNL A   1      30.347  25.705  25.610  1.00  0.00    -0.120 S 
ATOM     21  C   UNL A   1      31.169  24.249  25.981  1.00  0.00     0.129 A 
ATOM     22  C   UNL A   1      32.823  22.688  25.223  1.00  0.00     0.168 A 
ATOM     23  N   UNL A   1      31.119  23.708  27.249  1.00  0.00    -0.225 NA
ATOM     24  N   UNL A   1      32.818  22.238  26.514  1.00  0.00    -0.201 N 
ATOM     25  N   UNL A   1      33.743  22.054  24.538  1.00  0.00    -0.207 NA
ATOM     26  C   UNL A   1      31.998  22.772  27.509  1.00  0.00     0.227 A 
ATOM     27  N   UNL A   1      33.801  21.339  26.724  1.00  0.00    -0.145 NA
ENDBRANCH  10  11
ENDBRANCH   6   9
ENDBRANCH   4   5
ENDBRANCH   3   4
ENDBRANCH   2   3
ENDBRANCH   1   2
BRANCH   1  28
ATOM     28  C   UNL A   1      42.155  20.045  27.168  1.00  0.00     0.021 C 
BRANCH  28  29
ATOM     29  C   UNL A   1      42.790  20.047  25.814  1.00  0.00     0.116 C 
BRANCH  29  30
ATOM     30  N   UNL A   1      44.254  19.850  25.785  1.00  0.00    -0.352 N 
ATOM     31  C   UNL A   1      45.245  20.758  25.371  1.00  0.00     0.251 C 
ATOM     32  H   UNL A   1      44.578  18.974  26.095  1.00  0.00     0.163 HD
ATOM     33  O   UNL A   1      46.391  20.445  25.170  1.00  0.00    -0.269 OA
BRANCH  31  34
ATOM     34  C   UNL A   1      44.810  22.167  25.312  1.00  0.00     0.039 A 
ATOM     35  C   UNL A   1      43.750  22.778  24.640  1.00  0.00     0.014 A 
ATOM     36  C   UNL A   1      45.538  22.967  26.135  1.00  0.00     0.014 A 
ATOM     37  C   UNL A   1      43.469  24.117  25.004  1.00  0.00     0.010 A 
ATOM     38  C   UNL A   1      44.740  23.704  26.915  1.00  0.00     0.010 A 
ATOM     39  C   UNL A   1      44.127  24.617  26.137  1.00  0.00    -0.014 A 
BRANCH  39  40
ATOM     40  C   UNL A   1      43.955  25.795  26.949  1.00  0.00     0.031 A 
ATOM     41  C   UNL A   1      44.992  26.795  26.625  1.00  0.00     0.074 A 
ATOM     42  C   UNL A   1      42.793  26.020  27.626  1.00  0.00     0.049 A 
ATOM     43  N   UNL A   1      46.106  26.898  27.263  1.00  0.00    -0.248 NA
ATOM     44  C   UNL A   1      45.006  27.503  25.326  1.00  0.00     0.031 C 
ATOM     45  C   UNL A   1      41.544  25.234  27.717  1.00  0.00     0.029 A 
ATOM     46  N   UNL A   1      42.510  27.063  28.456  1.00  0.00    -0.354 N 
ATOM     47  C   UNL A   1      46.795  27.921  26.646  1.00  0.00     0.074 A 
ATOM     48  C   UNL A   1      46.232  28.040  25.330  1.00  0.00     0.031 C 
ATOM     49  C   UNL A   1      40.583  25.934  28.374  1.00  0.00     0.029 A 
ATOM     50  C   UNL A   1      41.179  27.143  28.899  1.00  0.00     0.049 A 
ATOM     51  H   UNL A   1      43.194  27.718  28.726  1.00  0.00     0.167 HD
ATOM     52  C   UNL A   1      47.528  28.772  27.411  1.00  0.00     0.037 A 
ATOM     53  C   UNL A   1      40.688  28.122  29.716  1.00  0.00     0.037 A 
ATOM     54  C   UNL A   1      47.669  28.232  28.751  1.00  0.00     0.049 A 
ATOM     55  C   UNL A   1      41.890  28.718  30.387  1.00  0.00     0.074 A 
ATOM     56  C   UNL A   1      48.246  27.077  29.246  1.00  0.00     0.029 A 
ATOM     57  N   UNL A   1      46.706  28.595  29.669  1.00  0.00    -0.354 N 
ATOM     58  N   UNL A   1      42.646  28.029  31.205  1.00  0.00    -0.248 NA
ATOM     59  C   UNL A   1      42.555  29.795  29.661  1.00  0.00     0.031 C 
ATOM     60  C   UNL A   1      47.293  26.549  30.172  1.00  0.00     0.029 A 
ATOM     61  C   UNL A   1      46.257  27.469  30.325  1.00  0.00     0.049 A 
ATOM     62  H   UNL A   1      46.390  29.514  29.830  1.00  0.00     0.167 HD
ATOM     63  C   UNL A   1      43.946  28.286  30.787  1.00  0.00     0.074 A 
ATOM     64  C   UNL A   1      43.816  29.375  29.809  1.00  0.00     0.031 C 
ATOM     65  C   UNL A   1      44.958  27.383  30.969  1.00  0.00     0.037 A 
BRANCH  52  66
ATOM     66  C   UNL A   1      47.769  30.215  27.077  1.00  0.00     0.064 A 
ATOM     67  C   UNL A   1      49.086  30.706  27.072  1.00  0.00     0.173 A 
ATOM     68  C   UNL A   1      46.752  31.190  26.983  1.00  0.00     0.173 A 
ATOM     69  F   UNL A   1      50.124  29.867  27.202  1.00  0.00    -0.203 F 
ATOM     70  C   UNL A   1      49.361  32.074  26.998  1.00  0.00     0.198 A 
ATOM     71  C   UNL A   1      47.030  32.549  26.860  1.00  0.00     0.198 A 
ATOM     72  F   UNL A   1      45.455  30.883  27.112  1.00  0.00    -0.203 F 
ATOM     73  F   UNL A   1      50.628  32.502  27.087  1.00  0.00    -0.200 F 
ATOM     74  C   UNL A   1      48.334  32.993  26.885  1.00  0.00     0.200 A 
ATOM     75  F   UNL A   1      46.017  33.425  26.783  1.00  0.00    -0.200 F 
ATOM     76  F   UNL A   1      48.595  34.307  26.846  1.00  0.00    -0.200 F 
ENDBRANCH  52  66
BRANCH  53  77
ATOM     77  C   UNL A   1      39.418  28.895  29.559  1.00  0.00     0.064 A 
ATOM     78  C   UNL A   1      38.952  29.317  28.296  1.00  0.00     0.173 A 
ATOM     79  C   UNL A   1      38.483  28.959  30.609  1.00  0.00     0.173 A 
ATOM     80  F   UNL A   1      39.757  29.256  27.225  1.00  0.00    -0.203 F 
ATOM     81  C   UNL A   1      37.626  29.738  28.096  1.00  0.00     0.198 A 
ATOM     82  C   UNL A   1      37.160  29.369  30.406  1.00  0.00     0.198 A 
ATOM     83  F   UNL A   1      38.806  28.530  31.837  1.00  0.00    -0.203 F 
ATOM     84  F   UNL A   1      37.204  30.080  26.870  1.00  0.00    -0.200 F 
ATOM     85  C   UNL A   1      36.727  29.745  29.149  1.00  0.00     0.200 A 
ATOM     86  F   UNL A   1      36.293  29.331  31.427  1.00  0.00    -0.200 F 
ATOM     87  F   UNL A   1      35.442  30.072  28.948  1.00  0.00    -0.200 F 
ENDBRANCH  53  77
BRANCH  65  88
ATOM     88  C   UNL A   1      44.671  26.145  31.797  1.00  0.00     0.064 A 
ATOM     89  C   UNL A   1      44.316  24.879  31.287  1.00  0.00     0.173 A 
ATOM     90  C   UNL A   1      44.900  26.214  33.177  1.00  0.00     0.173 A 
ATOM     91  F   UNL A   1      44.171  24.682  29.975  1.00  0.00    -0.203 F 
ATOM     92  C   UNL A   1      44.153  23.764  32.117  1.00  0.00     0.198 A 
ATOM     93  C   UNL A   1      44.767  25.097  34.000  1.00  0.00     0.198 A 
ATOM     94  F   UNL A   1      45.303  27.369  33.727  1.00  0.00    -0.203 F 
ATOM     95  F   UNL A   1      43.809  22.576  31.594  1.00  0.00    -0.200 F 
ATOM     96  C   UNL A   1      44.379  23.876  33.475  1.00  0.00     0.200 A 
ATOM     97  F   UNL A   1      45.042  25.204  35.307  1.00  0.00    -0.200 F 
ATOM     98  F   UNL A   1      44.245  22.808  34.275  1.00  0.00    -0.200 F 
ENDBRANCH  65  88
ENDBRANCH  39  40
ENDBRANCH  31  34
ENDBRANCH  29  30
ENDBRANCH  28  29
ENDBRANCH   1  28
TORSDOF 14
ENDMDL
MODEL 2
REMARK VINA RESULT:     -13.1      4.814      9.021
REMARK SMILES C[C@H]1CCc2sc3ncn4nc(/C=C\C(=O)NCCCCCCNC(=O)c5ccc(-c6c7nc(c(-c8c(F)c(F)c(F)c(F)c8F)c8ccc([nH]8)c(-c8c(F)c(F)c(F)c(F)c8F)c8nc(c(-c9c(F)c(F)c(F)c(F)c9F)c9ccc6[nH]9)C=C8)C=C7)cc5)nc4c3c2C1
REMARK SMILES IDX 21 1 20 2 19 3 18 4 17 5 15 6 16 7 14 9 13 10 12 11 1 12
REMARK SMILES IDX 2 13 3 14 94 15 4 16 93 17 5 18 92 19 6 20 7 21 91 22 8 23
REMARK SMILES IDX 10 24 90 25 9 26 11 27 22 28 23 29 24 30 25 31 26 33 27 34
REMARK SMILES IDX 28 35 89 36 29 37 88 38 30 39 31 40 32 41 82 42 33 43 87 44
REMARK SMILES IDX 81 45 83 46 34 47 86 48 80 49 79 50 35 52 67 53 47 54 66 55
REMARK SMILES IDX 48 56 51 57 65 58 84 59 49 60 50 61 64 63 85 64 52 65 36 66
REMARK SMILES IDX 37 67 45 68 38 69 39 70 43 71 46 72 40 73 41 74 44 75 42 76
REMARK SMILES IDX 68 77 69 78 77 79 70 80 71 81 75 82 78 83 72 84 73 85 76 86
REMARK SMILES IDX 74 87 53 88 54 89 62 90 55 91 56 92 60 93 63 94 57 95 58 96
REMARK SMILES IDX 61 97 59 98
REMARK H PARENT 17 8 24 32 83 51 51 62
REMARK Flexibility Score: inf
ROOT
ATOM      1  C   UNL A   1      41.999  28.986  33.506  1.00  0.00     0.002 C 
ENDROOT
BRANCH   1   2
ATOM      2  C   UNL A   1      41.946  29.277  32.011  1.00  0.00     0.002 C 
BRANCH   2   3
ATOM      3  C   UNL A   1      41.391  30.640  31.603  1.00  0.00     0.021 C 
BRANCH   3   4
ATOM      4  C   UNL A   1      39.904  30.858  31.794  1.00  0.00     0.116 C 
BRANCH   4   5
ATOM      5  N   UNL A   1      39.025  29.751  32.077  1.00  0.00    -0.353 N 
ATOM      6  C   UNL A   1      38.246  29.614  33.198  1.00  0.00     0.244 C 
ATOM      7  O   UNL A   1      37.383  28.738  33.248  1.00  0.00    -0.270 OA
ATOM      8  H   UNL A   1      38.980  29.031  31.407  1.00  0.00     0.163 HD
BRANCH   6   9
ATOM      9  C   UNL A   1      38.561  30.381  34.438  1.00  0.00     0.075 C 
ATOM     10  C   UNL A   1      37.993  31.476  34.976  1.00  0.00     0.057 C 
BRANCH  10  11
ATOM     11  C   UNL A   1      36.882  32.243  34.503  1.00  0.00     0.175 A 
ATOM     12  C   UNL A   1      34.457  31.265  27.870  1.00  0.00     0.008 C 
ATOM     13  C   UNL A   1      35.750  31.959  28.294  1.00  0.00    -0.009 C 
ATOM     14  C   UNL A   1      35.830  33.377  27.692  1.00  0.00     0.009 C 
ATOM     15  C   UNL A   1      35.868  31.993  29.841  1.00  0.00     0.041 C 
ATOM     16  C   UNL A   1      34.712  34.296  28.201  1.00  0.00     0.047 C 
ATOM     17  C   UNL A   1      34.995  33.071  30.457  1.00  0.00    -0.020 A 
ATOM     18  C   UNL A   1      34.453  34.082  29.667  1.00  0.00     0.011 A 
ATOM     19  C   UNL A   1      34.834  33.434  31.838  1.00  0.00     0.060 A 
ATOM     20  S   UNL A   1      33.479  35.174  30.552  1.00  0.00    -0.120 S 
ATOM     21  C   UNL A   1      34.156  34.637  32.031  1.00  0.00     0.129 A 
ATOM     22  C   UNL A   1      35.522  32.958  33.063  1.00  0.00     0.168 A 
ATOM     23  N   UNL A   1      34.176  35.455  33.141  1.00  0.00    -0.225 NA
ATOM     24  N   UNL A   1      35.600  33.835  34.109  1.00  0.00    -0.201 N 
ATOM     25  N   UNL A   1      36.281  31.918  33.302  1.00  0.00    -0.207 NA
ATOM     26  C   UNL A   1      34.960  35.075  34.121  1.00  0.00     0.227 A 
ATOM     27  N   UNL A   1      36.486  33.415  35.036  1.00  0.00    -0.145 NA
ENDBRANCH  10  11
ENDBRANCH   6   9
ENDBRANCH   4   5
ENDBRANCH   3   4
ENDBRANCH   2   3
ENDBRANCH   1   2
BRANCH   1  28
ATOM     28  C   UNL A   1      41.534  27.629  33.983  1.00  0.00     0.021 C 
BRANCH  28  29
ATOM     29  C   UNL A   1      42.613  26.902  34.722  1.00  0.00     0.116 C 
BRANCH  29  30
ATOM     30  N   UNL A   1      43.733  27.731  35.213  1.00  0.00    -0.352 N 
ATOM     31  C   UNL A   1      45.108  27.568  34.965  1.00  0.00     0.251 C 
ATOM     32  H   UNL A   1      43.488  28.493  35.785  1.00  0.00     0.163 HD
ATOM     33  O   UNL A   1      45.967  28.150  35.578  1.00  0.00    -0.269 OA
BRANCH  31  34
ATOM     34  C   UNL A   1      45.433  26.715  33.806  1.00  0.00     0.039 A 
ATOM     35  C   UNL A   1      45.543  25.329  33.682  1.00  0.00     0.014 A 
ATOM     36  C   UNL A   1      45.555  27.430  32.656  1.00  0.00     0.014 A 
ATOM     37  C   UNL A   1      45.623  24.824  32.363  1.00  0.00     0.010 A 
ATOM     38  C   UNL A   1      44.808  26.901  31.682  1.00  0.00     0.010 A 
ATOM     39  C   UNL A   1      45.366  25.728  31.321  1.00  0.00    -0.014 A 
BRANCH  39  40
ATOM     40  C   UNL A   1      45.122  25.577  29.910  1.00  0.00     0.031 A 
ATOM     41  C   UNL A   1      46.222  26.184  29.132  1.00  0.00     0.074 A 
ATOM     42  C   UNL A   1      44.191  24.696  29.446  1.00  0.00     0.049 A 
ATOM     43  N   UNL A   1      46.199  27.393  28.690  1.00  0.00    -0.248 NA
ATOM     44  C   UNL A   1      47.578  25.593  29.120  1.00  0.00     0.031 C 
ATOM     45  C   UNL A   1      43.283  23.768  30.153  1.00  0.00     0.029 A 
ATOM     46  N   UNL A   1      43.831  24.481  28.149  1.00  0.00    -0.354 N 
ATOM     47  C   UNL A   1      47.405  27.578  28.048  1.00  0.00     0.074 A 
ATOM     48  C   UNL A   1      48.297  26.589  28.588  1.00  0.00     0.031 C 
ATOM     49  C   UNL A   1      42.646  22.954  29.272  1.00  0.00     0.029 A 
ATOM     50  C   UNL A   1      42.961  23.399  27.931  1.00  0.00     0.049 A 
ATOM     51  H   UNL A   1      44.160  25.047  27.413  1.00  0.00     0.167 HD
ATOM     52  C   UNL A   1      47.433  28.311  26.904  1.00  0.00     0.037 A 
ATOM     53  C   UNL A   1      42.500  23.005  26.707  1.00  0.00     0.037 A 
ATOM     54  C   UNL A   1      46.176  29.019  26.743  1.00  0.00     0.049 A 
ATOM     55  C   UNL A   1      42.690  24.192  25.811  1.00  0.00     0.074 A 
ATOM     56  C   UNL A   1      45.530  29.978  27.501  1.00  0.00     0.029 A 
ATOM     57  N   UNL A   1      45.186  28.369  26.035  1.00  0.00    -0.354 N 
ATOM     58  N   UNL A   1      42.047  25.318  25.999  1.00  0.00    -0.248 NA
ATOM     59  C   UNL A   1      43.998  24.305  25.173  1.00  0.00     0.031 C 
ATOM     60  C   UNL A   1      44.169  29.545  27.575  1.00  0.00     0.029 A 
ATOM     61  C   UNL A   1      44.003  28.441  26.739  1.00  0.00     0.049 A 
ATOM     62  H   UNL A   1      45.306  27.925  25.165  1.00  0.00     0.167 HD
ATOM     63  C   UNL A   1      43.023  26.303  25.908  1.00  0.00     0.074 A 
ATOM     64  C   UNL A   1      44.217  25.603  25.415  1.00  0.00     0.031 C 
ATOM     65  C   UNL A   1      42.914  27.495  26.572  1.00  0.00     0.037 A 
BRANCH  52  66
ATOM     66  C   UNL A   1      48.400  28.087  25.779  1.00  0.00     0.064 A 
ATOM     67  C   UNL A   1      48.072  27.166  24.768  1.00  0.00     0.173 A 
ATOM     68  C   UNL A   1      49.729  28.564  25.765  1.00  0.00     0.173 A 
ATOM     69  F   UNL A   1      46.850  26.618  24.719  1.00  0.00    -0.203 F 
ATOM     70  C   UNL A   1      49.013  26.742  23.827  1.00  0.00     0.198 A 
ATOM     71  C   UNL A   1      50.650  28.176  24.795  1.00  0.00     0.198 A 
ATOM     72  F   UNL A   1      50.220  29.336  26.742  1.00  0.00    -0.203 F 
ATOM     73  F   UNL A   1      48.682  25.796  22.936  1.00  0.00    -0.200 F 
ATOM     74  C   UNL A   1      50.299  27.252  23.837  1.00  0.00     0.200 A 
ATOM     75  F   UNL A   1      51.900  28.661  24.843  1.00  0.00    -0.200 F 
ATOM     76  F   UNL A   1      51.211  26.823  22.954  1.00  0.00    -0.200 F 
ENDBRANCH  52  66
BRANCH  53  77
ATOM     77  C   UNL A   1      42.431  21.616  26.159  1.00  0.00     0.064 A 
ATOM     78  C   UNL A   1      43.591  20.850  25.914  1.00  0.00     0.173 A 
ATOM     79  C   UNL A   1      41.217  20.903  26.162  1.00  0.00     0.173 A 
ATOM     80  F   UNL A   1      44.798  21.432  25.929  1.00  0.00    -0.203 F 
ATOM     81  C   UNL A   1      43.536  19.459  25.724  1.00  0.00     0.198 A 
ATOM     82  C   UNL A   1      41.165  19.516  25.983  1.00  0.00     0.198 A 
ATOM     83  F   UNL A   1      40.062  21.524  26.439  1.00  0.00    -0.203 F 
ATOM     84  F   UNL A   1      44.665  18.757  25.548  1.00  0.00    -0.200 F 
ATOM     85  C   UNL A   1      42.324  18.792  25.777  1.00  0.00     0.200 A 
ATOM     86  F   UNL A   1      39.989  18.881  26.078  1.00  0.00    -0.200 F 
ATOM     87  F   UNL A   1      42.275  17.456  25.674  1.00  0.00    -0.200 F 
ENDBRANCH  53  77
BRANCH  65  88
ATOM     88  C   UNL A   1      41.611  27.798  27.286  1.00  0.00     0.064 A 
ATOM     89  C   UNL A   1      41.297  27.437  28.613  1.00  0.00     0.173 A 
ATOM     90  C   UNL A   1      40.683  28.617  26.632  1.00  0.00     0.173 A 
ATOM     91  F   UNL A   1      42.159  26.740  29.358  1.00  0.00    -0.203 F 
ATOM     92  C   UNL A   1      40.104  27.832  29.227  1.00  0.00     0.198 A 
ATOM     93  C   UNL A   1      39.507  29.037  27.253  1.00  0.00     0.198 A 
ATOM     94  F   UNL A   1      40.940  29.055  25.391  1.00  0.00    -0.203 F 
ATOM     95  F   UNL A   1      39.838  27.463  30.490  1.00  0.00    -0.200 F 
ATOM     96  C   UNL A   1      39.209  28.633  28.543  1.00  0.00     0.200 A 
ATOM     97  F   UNL A   1      38.673  29.858  26.602  1.00  0.00    -0.200 F 
ATOM     98  F   UNL A   1      38.072  29.033  29.132  1.00  0.00    -0.200 F 
ENDBRANCH  65  88
ENDBRANCH  39  40
ENDBRANCH  31  34
ENDBRANCH  29  30
ENDBRANCH  28  29
ENDBRANCH   1  28
TORSDOF 14
ENDMDL
MODEL 3
REMARK VINA RESULT:     -13.0      3.348      8.698
REMARK SMILES C[C@H]1CCc2sc3ncn4nc(/C=C\C(=O)NCCCCCCNC(=O)c5ccc(-c6c7nc(c(-c8c(F)c(F)c(F)c(F)c8F)c8ccc([nH]8)c(-c8c(F)c(F)c(F)c(F)c8F)c8nc(c(-c9c(F)c(F)c(F)c(F)c9F)c9ccc6[nH]9)C=C8)C=C7)cc5)nc4c3c2C1
REMARK SMILES IDX 21 1 20 2 19 3 18 4 17 5 15 6 16 7 14 9 13 10 12 11 1 12
REMARK SMILES IDX 2 13 3 14 94 15 4 16 93 17 5 18 92 19 6 20 7 21 91 22 8 23
REMARK SMILES IDX 10 24 90 25 9 26 11 27 22 28 23 29 24 30 25 31 26 33 27 34
REMARK SMILES IDX 28 35 89 36 29 37 88 38 30 39 31 40 32 41 82 42 33 43 87 44
REMARK SMILES IDX 81 45 83 46 34 47 86 48 80 49 79 50 35 52 67 53 47 54 66 55
REMARK SMILES IDX 48 56 51 57 65 58 84 59 49 60 50 61 64 63 85 64 52 65 36 66
REMARK SMILES IDX 37 67 45 68 38 69 39 70 43 71 46 72 40 73 41 74 44 75 42 76
REMARK SMILES IDX 68 77 69 78 77 79 70 80 71 81 75 82 78 83 72 84 73 85 76 86
REMARK SMILES IDX 74 87 53 88 54 89 62 90 55 91 56 92 60 93 63 94 57 95 58 96
REMARK SMILES IDX 61 97 59 98
REMARK H PARENT 17 8 24 32 83 51 51 62
REMARK Flexibility Score: inf
ROOT
ATOM      1  C   UNL A   1      34.572  29.805  27.390  1.00  0.00     0.002 C 
ENDROOT
BRANCH   1   2
ATOM      2  C   UNL A   1      33.736  28.890  26.504  1.00  0.00     0.002 C 
BRANCH   2   3
ATOM      3  C   UNL A   1      32.332  29.378  26.154  1.00  0.00     0.021 C 
BRANCH   3   4
ATOM      4  C   UNL A   1      32.062  29.701  24.699  1.00  0.00     0.116 C 
BRANCH   4   5
ATOM      5  N   UNL A   1      30.744  30.082  24.258  1.00  0.00    -0.353 N 
ATOM      6  C   UNL A   1      29.967  29.386  23.367  1.00  0.00     0.244 C 
ATOM      7  O   UNL A   1      28.783  29.685  23.214  1.00  0.00    -0.270 OA
ATOM      8  H   UNL A   1      30.368  30.913  24.630  1.00  0.00     0.163 HD
BRANCH   6   9
ATOM      9  C   UNL A   1      30.584  28.402  22.431  1.00  0.00     0.075 C 
ATOM     10  C   UNL A   1      31.122  27.186  22.644  1.00  0.00     0.057 C 
BRANCH  10  11
ATOM     11  C   UNL A   1      31.254  26.460  23.870  1.00  0.00     0.175 A 
ATOM     12  C   UNL A   1      37.570  23.711  25.709  1.00  0.00     0.008 C 
ATOM     13  C   UNL A   1      36.624  23.216  24.617  1.00  0.00    -0.009 C 
ATOM     14  C   UNL A   1      36.298  21.722  24.814  1.00  0.00     0.009 C 
ATOM     15  C   UNL A   1      35.333  24.078  24.583  1.00  0.00     0.041 C 
ATOM     16  C   UNL A   1      35.549  21.450  26.126  1.00  0.00     0.047 C 
ATOM     17  C   UNL A   1      34.369  23.707  25.695  1.00  0.00    -0.020 A 
ATOM     18  C   UNL A   1      34.526  22.517  26.402  1.00  0.00     0.011 A 
ATOM     19  C   UNL A   1      33.073  24.249  25.995  1.00  0.00     0.060 A 
ATOM     20  S   UNL A   1      33.353  22.308  27.628  1.00  0.00    -0.120 S 
ATOM     21  C   UNL A   1      32.348  23.503  26.923  1.00  0.00     0.129 A 
ATOM     22  C   UNL A   1      32.238  25.246  25.281  1.00  0.00     0.168 A 
ATOM     23  N   UNL A   1      30.985  23.498  27.132  1.00  0.00    -0.225 NA
ATOM     24  N   UNL A   1      30.883  25.148  25.443  1.00  0.00    -0.201 N 
ATOM     25  N   UNL A   1      32.508  26.104  24.329  1.00  0.00    -0.207 NA
ATOM     26  C   UNL A   1      30.279  24.259  26.333  1.00  0.00     0.227 A 
ATOM     27  N   UNL A   1      30.225  25.896  24.533  1.00  0.00    -0.145 NA
ENDBRANCH  10  11
ENDBRANCH   6   9
ENDBRANCH   4   5
ENDBRANCH   3   4
ENDBRANCH   2   3
ENDBRANCH   1   2
BRANCH   1  28
ATOM     28  C   UNL A   1      34.049  31.197  27.667  1.00  0.00     0.021 C 
BRANCH  28  29
ATOM     29  C   UNL A   1      35.048  32.025  28.412  1.00  0.00     0.116 C 
BRANCH  29  30
ATOM     30  N   UNL A   1      34.860  32.107  29.874  1.00  0.00    -0.352 N 
ATOM     31  C   UNL A   1      35.735  31.676  30.888  1.00  0.00     0.251 C 
ATOM     32  H   UNL A   1      34.017  32.513  30.179  1.00  0.00     0.163 HD
ATOM     33  O   UNL A   1      35.413  31.577  32.045  1.00  0.00    -0.269 OA
BRANCH  31  34
ATOM     34  C   UNL A   1      37.129  31.464  30.455  1.00  0.00     0.039 A 
ATOM     35  C   UNL A   1      38.256  32.283  30.537  1.00  0.00     0.014 A 
ATOM     36  C   UNL A   1      37.335  30.208  29.976  1.00  0.00     0.014 A 
ATOM     37  C   UNL A   1      39.498  31.667  30.252  1.00  0.00     0.010 A 
ATOM     38  C   UNL A   1      38.391  29.639  30.565  1.00  0.00     0.010 A 
ATOM     39  C   UNL A   1      39.500  30.270  30.131  1.00  0.00    -0.014 A 
BRANCH  39  40
ATOM     40  C   UNL A   1      40.542  29.277  30.083  1.00  0.00     0.031 A 
ATOM     41  C   UNL A   1      40.979  28.926  31.450  1.00  0.00     0.074 A 
ATOM     42  C   UNL A   1      40.785  28.564  28.946  1.00  0.00     0.049 A 
ATOM     43  N   UNL A   1      41.971  29.489  32.047  1.00  0.00    -0.248 NA
ATOM     44  C   UNL A   1      40.097  28.181  32.376  1.00  0.00     0.031 C 
ATOM     45  C   UNL A   1      40.143  28.597  27.614  1.00  0.00     0.029 A 
ATOM     46  N   UNL A   1      41.758  27.631  28.748  1.00  0.00    -0.354 N 
ATOM     47  C   UNL A   1      42.034  28.905  33.295  1.00  0.00     0.074 A 
ATOM     48  C   UNL A   1      40.728  28.359  33.543  1.00  0.00     0.031 C 
ATOM     49  C   UNL A   1      40.603  27.584  26.835  1.00  0.00     0.029 A 
ATOM     50  C   UNL A   1      41.686  26.927  27.534  1.00  0.00     0.049 A 
ATOM     51  H   UNL A   1      42.463  27.460  29.414  1.00  0.00     0.167 HD
ATOM     52  C   UNL A   1      43.253  28.651  33.839  1.00  0.00     0.037 A 
ATOM     53  C   UNL A   1      42.550  25.939  27.155  1.00  0.00     0.037 A 
ATOM     54  C   UNL A   1      44.283  29.338  33.081  1.00  0.00     0.049 A 
ATOM     55  C   UNL A   1      43.770  26.132  28.004  1.00  0.00     0.074 A 
ATOM     56  C   UNL A   1      44.528  30.674  32.821  1.00  0.00     0.029 A 
ATOM     57  N   UNL A   1      44.853  28.641  32.038  1.00  0.00    -0.354 N 
ATOM     58  N   UNL A   1      44.520  27.203  27.916  1.00  0.00    -0.248 NA
ATOM     59  C   UNL A   1      43.749  25.477  29.309  1.00  0.00     0.031 C 
ATOM     60  C   UNL A   1      44.806  30.738  31.419  1.00  0.00     0.029 A 
ATOM     61  C   UNL A   1      44.877  29.441  30.915  1.00  0.00     0.049 A 
ATOM     62  H   UNL A   1      45.191  27.717  32.087  1.00  0.00     0.167 HD
ATOM     63  C   UNL A   1      44.717  27.607  29.231  1.00  0.00     0.074 A 
ATOM     64  C   UNL A   1      44.192  26.503  30.045  1.00  0.00     0.031 C 
ATOM     65  C   UNL A   1      44.934  28.918  29.561  1.00  0.00     0.037 A 
BRANCH  52  66
ATOM     66  C   UNL A   1      43.542  27.513  34.773  1.00  0.00     0.064 A 
ATOM     67  C   UNL A   1      43.516  26.198  34.277  1.00  0.00     0.173 A 
ATOM     68  C   UNL A   1      43.620  27.636  36.177  1.00  0.00     0.173 A 
ATOM     69  F   UNL A   1      43.398  25.970  32.961  1.00  0.00    -0.203 F 
ATOM     70  C   UNL A   1      43.547  25.090  35.128  1.00  0.00     0.198 A 
ATOM     71  C   UNL A   1      43.700  26.530  37.020  1.00  0.00     0.198 A 
ATOM     72  F   UNL A   1      43.515  28.818  36.796  1.00  0.00    -0.203 F 
ATOM     73  F   UNL A   1      43.431  23.856  34.618  1.00  0.00    -0.200 F 
ATOM     74  C   UNL A   1      43.646  25.257  36.498  1.00  0.00     0.200 A 
ATOM     75  F   UNL A   1      43.763  26.716  38.347  1.00  0.00    -0.200 F 
ATOM     76  F   UNL A   1      43.644  24.197  37.317  1.00  0.00    -0.200 F 
ENDBRANCH  52  66
BRANCH  53  77
ATOM     77  C   UNL A   1      42.216  24.609  26.560  1.00  0.00     0.064 A 
ATOM     78  C   UNL A   1      43.102  23.935  25.691  1.00  0.00     0.173 A 
ATOM     79  C   UNL A   1      41.163  23.834  27.080  1.00  0.00     0.173 A 
ATOM     80  F   UNL A   1      44.159  24.578  25.175  1.00  0.00    -0.203 F 
ATOM     81  C   UNL A   1      42.958  22.569  25.398  1.00  0.00     0.198 A 
ATOM     82  C   UNL A   1      41.027  22.471  26.796  1.00  0.00     0.198 A 
ATOM     83  F   UNL A   1      40.297  24.361  27.958  1.00  0.00    -0.203 F 
ATOM     84  F   UNL A   1      43.851  21.950  24.611  1.00  0.00    -0.200 F 
ATOM     85  C   UNL A   1      41.931  21.834  25.966  1.00  0.00     0.200 A 
ATOM     86  F   UNL A   1      40.052  21.766  27.385  1.00  0.00    -0.200 F 
ATOM     87  F   UNL A   1      41.835  20.514  25.751  1.00  0.00    -0.200 F 
ENDBRANCH  53  77
BRANCH  65  88
ATOM     88  C   UNL A   1      45.127  29.916  28.436  1.00  0.00     0.064 A 
ATOM     89  C   UNL A   1      44.116  30.716  27.864  1.00  0.00     0.173 A 
ATOM     90  C   UNL A   1      46.435  30.172  28.007  1.00  0.00     0.173 A 
ATOM     91  F   UNL A   1      42.849  30.621  28.275  1.00  0.00    -0.203 F 
ATOM     92  C   UNL A   1      44.394  31.677  26.887  1.00  0.00     0.198 A 
ATOM     93  C   UNL A   1      46.717  31.151  27.055  1.00  0.00     0.198 A 
ATOM     94  F   UNL A   1      47.458  29.497  28.551  1.00  0.00    -0.203 F 
ATOM     95  F   UNL A   1      43.403  32.415  26.362  1.00  0.00    -0.200 F 
ATOM     96  C   UNL A   1      45.698  31.893  26.483  1.00  0.00     0.200 A 
ATOM     97  F   UNL A   1      47.990  31.390  26.710  1.00  0.00    -0.200 F 
ATOM     98  F   UNL A   1      45.976  32.827  25.561  1.00  0.00    -0.200 F 
ENDBRANCH  65  88
ENDBRANCH  39  40
ENDBRANCH  31  34
ENDBRANCH  29  30
ENDBRANCH  28  29
ENDBRANCH   1  28
TORSDOF 14
ENDMDL
