MODEL 1
REMARK VINA RESULT:     -12.2      0.000      0.000
REMARK SMILES Cc1ccc2cc(C[N@H+]3CC[NH2+][C@H](C(=O)NCCCCCCNC(=O)c4ccc(-c5c6nc(c(-c7c(F)c(F)c(F)c(F)c7F)c7ccc([nH]7)c(-c7c(F)c(F)c(F)c(F)c7F)c7nc(c(-c8c(F)c(F)c(F)c(F)c8F)c8ccc5[nH]8)C=C7)C=C6)cc4)C3)c(N3CCOCC3)nc2c1
REMARK SMILES IDX 19 1 18 2 17 3 16 4 14 5 15 6 13 8 9 9 10 10 89 11 11 13
REMARK SMILES IDX 12 14 8 17 7 18 1 19 2 20 3 21 99 22 4 23 98 24 5 25 97 26
REMARK SMILES IDX 6 27 90 28 91 29 92 30 96 31 93 32 95 33 94 34 20 35 21 36
REMARK SMILES IDX 22 37 23 38 24 39 25 41 26 42 27 43 88 44 28 45 87 46 29 47
REMARK SMILES IDX 30 48 31 49 81 50 32 51 86 52 80 53 82 54 33 55 85 56 79 57
REMARK SMILES IDX 78 58 34 60 66 61 46 62 65 63 47 64 50 65 64 66 83 67 48 68
REMARK SMILES IDX 49 69 63 71 84 72 51 73 35 74 36 75 44 76 37 77 38 78 42 79
REMARK SMILES IDX 45 80 39 81 40 82 43 83 41 84 67 85 68 86 76 87 69 88 70 89
REMARK SMILES IDX 74 90 77 91 71 92 72 93 75 94 73 95 52 96 53 97 61 98 54 99
REMARK SMILES IDX 55 100 59 101 62 102 56 103 57 104 60 105 58 106
REMARK H PARENT 16 7 9 12 12 15 12 16 23 40 82 59 50 70
REMARK Flexibility Score: inf
ROOT
ATOM      1  C   UNL A   1      34.766  31.609  28.624  1.00  0.00     0.002 C 
ENDROOT
BRANCH   1   2
ATOM      2  C   UNL A   1      33.717  31.095  27.627  1.00  0.00     0.021 C 
BRANCH   2   3
ATOM      3  C   UNL A   1      33.886  29.638  27.218  1.00  0.00     0.116 C 
BRANCH   3   4
ATOM      4  N   UNL A   1      34.066  29.516  25.794  1.00  0.00    -0.351 N 
ATOM      5  C   UNL A   1      33.792  28.489  24.956  1.00  0.00     0.284 C 
ATOM      6  O   UNL A   1      33.999  28.700  23.754  1.00  0.00    -0.268 OA
ATOM      7  H   UNL A   1      34.453  30.309  25.360  1.00  0.00     0.163 HD
BRANCH   5   8
ATOM      8  C   UNL A   1      33.165  27.176  25.423  1.00  0.00     0.328 C 
ATOM      9  N   UNL A   1      33.367  24.650  25.258  1.00  0.00    -0.321 N 
ATOM     10  C   UNL A   1      31.928  24.618  25.589  1.00  0.00     0.324 C 
ATOM     11  C   UNL A   1      33.783  25.951  24.718  1.00  0.00     0.339 C 
ATOM     12  H   UNL A   1      33.472  23.983  24.493  1.00  0.00     0.348 HD
ATOM     13  C   UNL A   1      31.292  25.923  26.151  1.00  0.00     0.323 C 
ATOM     14  N   UNL A   1      31.680  27.146  25.407  1.00  0.00    -0.327 N 
ATOM     15  H   UNL A   1      31.304  27.976  25.865  1.00  0.00     0.347 HD
ATOM     16  H   UNL A   1      31.316  27.137  24.455  1.00  0.00     0.347 HD
BRANCH   9  17
ATOM     17  C   UNL A   1      34.277  24.074  26.267  1.00  0.00     0.303 C 
BRANCH  17  18
ATOM     18  C   UNL A   1      35.560  23.448  25.762  1.00  0.00     0.049 A 
ATOM     19  C   UNL A   1      41.265  20.608  26.656  1.00  0.00     0.044 C 
ATOM     20  C   UNL A   1      40.130  21.559  26.420  1.00  0.00    -0.049 A 
ATOM     21  C   UNL A   1      40.200  22.873  26.883  1.00  0.00     0.004 A 
ATOM     22  C   UNL A   1      38.967  21.130  25.754  1.00  0.00     0.032 A 
ATOM     23  C   UNL A   1      39.114  23.725  26.712  1.00  0.00     0.010 A 
ATOM     24  C   UNL A   1      37.849  21.948  25.605  1.00  0.00     0.073 A 
ATOM     25  C   UNL A   1      37.938  23.257  26.105  1.00  0.00     0.001 A 
ATOM     26  N   UNL A   1      36.711  21.463  25.062  1.00  0.00    -0.230 NA
ATOM     27  C   UNL A   1      36.782  24.032  26.109  1.00  0.00     0.023 A 
ATOM     28  C   UNL A   1      35.578  22.202  25.121  1.00  0.00     0.138 A 
BRANCH  28  29
ATOM     29  N   UNL A   1      34.411  21.675  24.601  1.00  0.00    -0.352 N 
ATOM     30  C   UNL A   1      34.003  22.103  23.255  1.00  0.00     0.146 C 
ATOM     31  C   UNL A   1      34.054  20.287  24.895  1.00  0.00     0.146 C 
ATOM     32  C   UNL A   1      32.482  21.914  23.135  1.00  0.00     0.181 C 
ATOM     33  C   UNL A   1      32.530  20.139  24.703  1.00  0.00     0.181 C 
ATOM     34  O   UNL A   1      32.105  20.550  23.389  1.00  0.00    -0.378 OA
ENDBRANCH  28  29
ENDBRANCH  17  18
ENDBRANCH   9  17
ENDBRANCH   5   8
ENDBRANCH   3   4
ENDBRANCH   2   3
ENDBRANCH   1   2
BRANCH   1  35
ATOM     35  C   UNL A   1      34.928  33.130  28.703  1.00  0.00     0.002 C 
BRANCH  35  36
ATOM     36  C   UNL A   1      33.634  33.922  28.878  1.00  0.00     0.021 C 
BRANCH  36  37
ATOM     37  C   UNL A   1      33.802  35.324  29.442  1.00  0.00     0.116 C 
BRANCH  37  38
ATOM     38  N   UNL A   1      32.716  35.743  30.311  1.00  0.00    -0.352 N 
ATOM     39  C   UNL A   1      32.639  35.618  31.682  1.00  0.00     0.251 C 
ATOM     40  H   UNL A   1      31.945  36.167  29.869  1.00  0.00     0.163 HD
ATOM     41  O   UNL A   1      31.638  35.949  32.295  1.00  0.00    -0.269 OA
BRANCH  39  42
ATOM     42  C   UNL A   1      33.788  35.012  32.390  1.00  0.00     0.039 A 
ATOM     43  C   UNL A   1      35.004  35.695  32.470  1.00  0.00     0.014 A 
ATOM     44  C   UNL A   1      33.668  33.709  32.876  1.00  0.00     0.014 A 
ATOM     45  C   UNL A   1      36.142  35.012  32.879  1.00  0.00     0.010 A 
ATOM     46  C   UNL A   1      34.801  33.053  33.364  1.00  0.00     0.010 A 
ATOM     47  C   UNL A   1      36.057  33.680  33.319  1.00  0.00    -0.014 A 
BRANCH  47  48
ATOM     48  C   UNL A   1      37.294  32.959  33.710  1.00  0.00     0.031 A 
ATOM     49  C   UNL A   1      37.933  31.963  32.779  1.00  0.00     0.074 A 
ATOM     50  C   UNL A   1      37.872  33.244  34.893  1.00  0.00     0.049 A 
ATOM     51  N   UNL A   1      39.007  31.236  32.960  1.00  0.00    -0.248 NA
ATOM     52  C   UNL A   1      37.284  31.751  31.475  1.00  0.00     0.031 C 
ATOM     53  C   UNL A   1      37.353  34.201  35.871  1.00  0.00     0.029 A 
ATOM     54  N   UNL A   1      39.028  32.777  35.463  1.00  0.00    -0.354 N 
ATOM     55  C   UNL A   1      39.148  30.468  31.811  1.00  0.00     0.074 A 
ATOM     56  C   UNL A   1      38.041  30.800  30.942  1.00  0.00     0.031 C 
ATOM     57  C   UNL A   1      38.211  34.286  36.898  1.00  0.00     0.029 A 
ATOM     58  C   UNL A   1      39.304  33.345  36.683  1.00  0.00     0.049 A 
ATOM     59  H   UNL A   1      39.605  32.102  35.040  1.00  0.00     0.167 HD
ATOM     60  C   UNL A   1      40.121  29.576  31.508  1.00  0.00     0.037 A 
ATOM     61  C   UNL A   1      40.315  33.119  37.543  1.00  0.00     0.037 A 
ATOM     62  C   UNL A   1      41.242  29.275  32.360  1.00  0.00     0.049 A 
ATOM     63  C   UNL A   1      41.362  32.101  37.191  1.00  0.00     0.074 A 
ATOM     64  C   UNL A   1      42.295  28.407  32.123  1.00  0.00     0.029 A 
ATOM     65  N   UNL A   1      41.460  29.836  33.609  1.00  0.00    -0.354 N 
ATOM     66  N   UNL A   1      41.482  31.384  36.101  1.00  0.00    -0.248 NA
ATOM     67  C   UNL A   1      42.406  31.853  38.194  1.00  0.00     0.031 C 
ATOM     68  C   UNL A   1      43.129  28.415  33.244  1.00  0.00     0.029 A 
ATOM     69  C   UNL A   1      42.620  29.319  34.162  1.00  0.00     0.049 A 
ATOM     70  H   UNL A   1      40.877  30.503  34.039  1.00  0.00     0.167 HD
ATOM     71  C   UNL A   1      42.617  30.606  36.281  1.00  0.00     0.074 A 
ATOM     72  C   UNL A   1      43.163  30.956  37.576  1.00  0.00     0.031 C 
ATOM     73  C   UNL A   1      43.151  29.677  35.452  1.00  0.00     0.037 A 
BRANCH  60  74
ATOM     74  C   UNL A   1      40.032  28.848  30.199  1.00  0.00     0.064 A 
ATOM     75  C   UNL A   1      40.653  29.341  29.043  1.00  0.00     0.173 A 
ATOM     76  C   UNL A   1      39.403  27.596  30.125  1.00  0.00     0.173 A 
ATOM     77  F   UNL A   1      41.259  30.538  29.059  1.00  0.00    -0.203 F 
ATOM     78  C   UNL A   1      40.644  28.607  27.858  1.00  0.00     0.198 A 
ATOM     79  C   UNL A   1      39.415  26.855  28.947  1.00  0.00     0.198 A 
ATOM     80  F   UNL A   1      38.801  27.078  31.206  1.00  0.00    -0.203 F 
ATOM     81  F   UNL A   1      41.228  29.105  26.759  1.00  0.00    -0.200 F 
ATOM     82  C   UNL A   1      40.036  27.361  27.815  1.00  0.00     0.200 A 
ATOM     83  F   UNL A   1      38.839  25.646  28.909  1.00  0.00    -0.200 F 
ATOM     84  F   UNL A   1      40.048  26.648  26.680  1.00  0.00    -0.200 F 
ENDBRANCH  60  74
BRANCH  61  85
ATOM     85  C   UNL A   1      40.372  33.871  38.821  1.00  0.00     0.064 A 
ATOM     86  C   UNL A   1      41.119  35.051  38.930  1.00  0.00     0.173 A 
ATOM     87  C   UNL A   1      39.662  33.439  39.951  1.00  0.00     0.173 A 
ATOM     88  F   UNL A   1      41.830  35.492  37.882  1.00  0.00    -0.203 F 
ATOM     89  C   UNL A   1      41.161  35.767  40.124  1.00  0.00     0.198 A 
ATOM     90  C   UNL A   1      39.681  34.171  41.135  1.00  0.00     0.198 A 
ATOM     91  F   UNL A   1      38.929  32.317  39.897  1.00  0.00    -0.203 F 
ATOM     92  F   UNL A   1      41.908  36.875  40.212  1.00  0.00    -0.200 F 
ATOM     93  C   UNL A   1      40.435  35.332  41.223  1.00  0.00     0.200 A 
ATOM     94  F   UNL A   1      38.965  33.756  42.189  1.00  0.00    -0.200 F 
ATOM     95  F   UNL A   1      40.464  36.028  42.367  1.00  0.00    -0.200 F 
ENDBRANCH  61  85
BRANCH  73  96
ATOM     96  C   UNL A   1      44.393  28.977  35.910  1.00  0.00     0.064 A 
ATOM     97  C   UNL A   1      44.329  27.762  36.606  1.00  0.00     0.173 A 
ATOM     98  C   UNL A   1      45.659  29.493  35.596  1.00  0.00     0.173 A 
ATOM     99  F   UNL A   1      43.140  27.238  36.942  1.00  0.00    -0.203 F 
ATOM    100  C   UNL A   1      45.490  27.093  36.984  1.00  0.00     0.198 A 
ATOM    101  C   UNL A   1      46.817  28.808  35.954  1.00  0.00     0.198 A 
ATOM    102  F   UNL A   1      45.771  30.649  34.925  1.00  0.00    -0.203 F 
ATOM    103  F   UNL A   1      45.406  25.950  37.678  1.00  0.00    -0.200 F 
ATOM    104  C   UNL A   1      46.732  27.612  36.650  1.00  0.00     0.200 A 
ATOM    105  F   UNL A   1      48.016  29.305  35.619  1.00  0.00    -0.200 F 
ATOM    106  F   UNL A   1      47.848  26.960  37.003  1.00  0.00    -0.200 F 
ENDBRANCH  73  96
ENDBRANCH  47  48
ENDBRANCH  39  42
ENDBRANCH  37  38
ENDBRANCH  36  37
ENDBRANCH  35  36
ENDBRANCH   1  35
TORSDOF 16
ENDMDL
MODEL 2
REMARK VINA RESULT:     -12.2      0.304      6.935
REMARK SMILES Cc1ccc2cc(C[N@H+]3CC[NH2+][C@H](C(=O)NCCCCCCNC(=O)c4ccc(-c5c6nc(c(-c7c(F)c(F)c(F)c(F)c7F)c7ccc([nH]7)c(-c7c(F)c(F)c(F)c(F)c7F)c7nc(c(-c8c(F)c(F)c(F)c(F)c8F)c8ccc5[nH]8)C=C7)C=C6)cc4)C3)c(N3CCOCC3)nc2c1
REMARK SMILES IDX 19 1 18 2 17 3 16 4 14 5 15 6 13 8 9 9 10 10 89 11 11 13
REMARK SMILES IDX 12 14 8 17 7 18 1 19 2 20 3 21 99 22 4 23 98 24 5 25 97 26
REMARK SMILES IDX 6 27 90 28 91 29 92 30 96 31 93 32 95 33 94 34 20 35 21 36
REMARK SMILES IDX 22 37 23 38 24 39 25 41 26 42 27 43 88 44 28 45 87 46 29 47
REMARK SMILES IDX 30 48 31 49 81 50 32 51 86 52 80 53 82 54 33 55 85 56 79 57
REMARK SMILES IDX 78 58 34 60 66 61 46 62 65 63 47 64 50 65 64 66 83 67 48 68
REMARK SMILES IDX 49 69 63 71 84 72 51 73 35 74 36 75 44 76 37 77 38 78 42 79
REMARK SMILES IDX 45 80 39 81 40 82 43 83 41 84 67 85 68 86 76 87 69 88 70 89
REMARK SMILES IDX 74 90 77 91 71 92 72 93 75 94 73 95 52 96 53 97 61 98 54 99
REMARK SMILES IDX 55 100 59 101 62 102 56 103 57 104 60 105 58 106
REMARK H PARENT 16 7 9 12 12 15 12 16 23 40 82 59 50 70
REMARK Flexibility Score: inf
ROOT
ATOM      1  C   UNL A   1      34.716  31.577  28.723  1.00  0.00     0.002 C 
ENDROOT
BRANCH   1   2
ATOM      2  C   UNL A   1      33.705  31.221  27.624  1.00  0.00     0.021 C 
BRANCH   2   3
ATOM      3  C   UNL A   1      33.714  29.759  27.198  1.00  0.00     0.116 C 
BRANCH   3   4
ATOM      4  N   UNL A   1      33.979  29.632  25.787  1.00  0.00    -0.351 N 
ATOM      5  C   UNL A   1      33.717  28.617  24.929  1.00  0.00     0.284 C 
ATOM      6  O   UNL A   1      34.007  28.821  23.744  1.00  0.00    -0.268 OA
ATOM      7  H   UNL A   1      34.422  30.410  25.380  1.00  0.00     0.163 HD
BRANCH   5   8
ATOM      8  C   UNL A   1      33.011  27.329  25.352  1.00  0.00     0.328 C 
ATOM      9  N   UNL A   1      33.064  24.802  25.105  1.00  0.00    -0.321 N 
ATOM     10  C   UNL A   1      31.624  24.845  25.433  1.00  0.00     0.324 C 
ATOM     11  C   UNL A   1      33.559  26.093  24.609  1.00  0.00     0.339 C 
ATOM     12  H   UNL A   1      33.133  24.155  24.320  1.00  0.00     0.348 HD
ATOM     13  C   UNL A   1      31.064  26.166  26.035  1.00  0.00     0.323 C 
ATOM     14  N   UNL A   1      31.527  27.388  25.332  1.00  0.00    -0.327 N 
ATOM     15  H   UNL A   1      31.199  28.223  25.817  1.00  0.00     0.347 HD
ATOM     16  H   UNL A   1      31.167  27.432  24.380  1.00  0.00     0.347 HD
BRANCH   9  17
ATOM     17  C   UNL A   1      33.935  24.141  26.098  1.00  0.00     0.303 C 
BRANCH  17  18
ATOM     18  C   UNL A   1      35.236  23.554  25.592  1.00  0.00     0.049 A 
ATOM     19  C   UNL A   1      40.986  20.806  26.479  1.00  0.00     0.044 C 
ATOM     20  C   UNL A   1      39.835  21.740  26.254  1.00  0.00    -0.049 A 
ATOM     21  C   UNL A   1      39.873  23.042  26.752  1.00  0.00     0.004 A 
ATOM     22  C   UNL A   1      38.688  21.305  25.563  1.00  0.00     0.032 A 
ATOM     23  C   UNL A   1      38.772  23.876  26.591  1.00  0.00     0.010 A 
ATOM     24  C   UNL A   1      37.556  22.104  25.422  1.00  0.00     0.073 A 
ATOM     25  C   UNL A   1      37.612  23.401  25.957  1.00  0.00     0.001 A 
ATOM     26  N   UNL A   1      36.435  21.612  24.853  1.00  0.00    -0.230 NA
ATOM     27  C   UNL A   1      36.441  24.153  25.968  1.00  0.00     0.023 A 
ATOM     28  C   UNL A   1      35.286  22.326  24.918  1.00  0.00     0.138 A 
BRANCH  28  29
ATOM     29  N   UNL A   1      34.135  21.790  24.371  1.00  0.00    -0.352 N 
ATOM     30  C   UNL A   1      33.693  22.300  23.065  1.00  0.00     0.146 C 
ATOM     31  C   UNL A   1      33.842  20.370  24.562  1.00  0.00     0.146 C 
ATOM     32  C   UNL A   1      32.180  22.056  22.945  1.00  0.00     0.181 C 
ATOM     33  C   UNL A   1      32.323  20.171  24.373  1.00  0.00     0.181 C 
ATOM     34  O   UNL A   1      31.864  20.661  23.098  1.00  0.00    -0.378 OA
ENDBRANCH  28  29
ENDBRANCH  17  18
ENDBRANCH   9  17
ENDBRANCH   5   8
ENDBRANCH   3   4
ENDBRANCH   2   3
ENDBRANCH   1   2
BRANCH   1  35
ATOM     35  C   UNL A   1      34.874  33.069  29.032  1.00  0.00     0.002 C 
BRANCH  35  36
ATOM     36  C   UNL A   1      33.584  33.885  29.015  1.00  0.00     0.021 C 
BRANCH  36  37
ATOM     37  C   UNL A   1      33.701  35.296  29.569  1.00  0.00     0.116 C 
BRANCH  37  38
ATOM     38  N   UNL A   1      32.636  35.658  30.488  1.00  0.00    -0.352 N 
ATOM     39  C   UNL A   1      32.616  35.506  31.858  1.00  0.00     0.251 C 
ATOM     40  H   UNL A   1      31.832  36.060  30.084  1.00  0.00     0.163 HD
ATOM     41  O   UNL A   1      31.629  35.788  32.515  1.00  0.00    -0.269 OA
BRANCH  39  42
ATOM     42  C   UNL A   1      33.814  34.931  32.509  1.00  0.00     0.039 A 
ATOM     43  C   UNL A   1      34.999  35.666  32.575  1.00  0.00     0.014 A 
ATOM     44  C   UNL A   1      33.769  33.608  32.954  1.00  0.00     0.014 A 
ATOM     45  C   UNL A   1      36.180  35.023  32.925  1.00  0.00     0.010 A 
ATOM     46  C   UNL A   1      34.945  32.989  33.384  1.00  0.00     0.010 A 
ATOM     47  C   UNL A   1      36.170  33.675  33.321  1.00  0.00    -0.014 A 
BRANCH  47  48
ATOM     48  C   UNL A   1      37.450  33.000  33.650  1.00  0.00     0.031 A 
ATOM     49  C   UNL A   1      38.138  33.249  34.965  1.00  0.00     0.074 A 
ATOM     50  C   UNL A   1      37.966  32.115  32.775  1.00  0.00     0.049 A 
ATOM     51  N   UNL A   1      39.265  32.755  35.414  1.00  0.00    -0.248 NA
ATOM     52  C   UNL A   1      37.482  34.178  35.901  1.00  0.00     0.031 C 
ATOM     53  C   UNL A   1      37.381  31.779  31.476  1.00  0.00     0.029 A 
ATOM     54  N   UNL A   1      39.083  31.322  32.853  1.00  0.00    -0.354 N 
ATOM     55  C   UNL A   1      39.462  33.325  36.665  1.00  0.00     0.074 A 
ATOM     56  C   UNL A   1      38.351  34.220  36.901  1.00  0.00     0.031 C 
ATOM     57  C   UNL A   1      38.116  30.816  30.900  1.00  0.00     0.029 A 
ATOM     58  C   UNL A   1      39.257  30.514  31.757  1.00  0.00     0.049 A 
ATOM     59  H   UNL A   1      39.699  31.332  33.620  1.00  0.00     0.167 HD
ATOM     60  C   UNL A   1      40.476  33.111  37.538  1.00  0.00     0.037 A 
ATOM     61  C   UNL A   1      40.238  29.639  31.464  1.00  0.00     0.037 A 
ATOM     62  C   UNL A   1      41.560  32.192  37.315  1.00  0.00     0.049 A 
ATOM     63  C   UNL A   1      41.363  29.446  32.440  1.00  0.00     0.074 A 
ATOM     64  C   UNL A   1      42.617  31.885  38.156  1.00  0.00     0.029 A 
ATOM     65  N   UNL A   1      41.727  31.427  36.171  1.00  0.00    -0.354 N 
ATOM     66  N   UNL A   1      41.536  29.992  33.618  1.00  0.00    -0.248 NA
ATOM     67  C   UNL A   1      42.435  28.525  32.040  1.00  0.00     0.031 C 
ATOM     68  C   UNL A   1      43.442  30.964  37.506  1.00  0.00     0.029 A 
ATOM     69  C   UNL A   1      42.878  30.663  36.277  1.00  0.00     0.049 A 
ATOM     70  H   UNL A   1      41.117  31.426  35.397  1.00  0.00     0.167 HD
ATOM     71  C   UNL A   1      42.729  29.478  34.104  1.00  0.00     0.074 A 
ATOM     72  C   UNL A   1      43.227  28.557  33.103  1.00  0.00     0.031 C 
ATOM     73  C   UNL A   1      43.359  29.752  35.272  1.00  0.00     0.037 A 
BRANCH  60  74
ATOM     74  C   UNL A   1      40.473  33.879  38.827  1.00  0.00     0.064 A 
ATOM     75  C   UNL A   1      41.117  35.119  38.943  1.00  0.00     0.173 A 
ATOM     76  C   UNL A   1      39.734  33.416  39.926  1.00  0.00     0.173 A 
ATOM     77  F   UNL A   1      41.844  35.600  37.924  1.00  0.00    -0.203 F 
ATOM     78  C   UNL A   1      41.024  35.866  40.116  1.00  0.00     0.198 A 
ATOM     79  C   UNL A   1      39.625  34.175  41.089  1.00  0.00     0.198 A 
ATOM     80  F   UNL A   1      39.094  32.239  39.863  1.00  0.00    -0.203 F 
ATOM     81  F   UNL A   1      41.663  37.040  40.213  1.00  0.00    -0.200 F 
ATOM     82  C   UNL A   1      40.269  35.399  41.182  1.00  0.00     0.200 A 
ATOM     83  F   UNL A   1      38.885  33.729  42.112  1.00  0.00    -0.200 F 
ATOM     84  F   UNL A   1      40.164  36.130  42.301  1.00  0.00    -0.200 F 
ENDBRANCH  60  74
BRANCH  61  85
ATOM     85  C   UNL A   1      40.193  28.890  30.183  1.00  0.00     0.064 A 
ATOM     86  C   UNL A   1      40.811  29.394  29.031  1.00  0.00     0.173 A 
ATOM     87  C   UNL A   1      39.554  27.645  30.091  1.00  0.00     0.173 A 
ATOM     88  F   UNL A   1      41.417  30.590  29.066  1.00  0.00    -0.203 F 
ATOM     89  C   UNL A   1      40.784  28.685  27.833  1.00  0.00     0.198 A 
ATOM     90  C   UNL A   1      39.552  26.923  28.901  1.00  0.00     0.198 A 
ATOM     91  F   UNL A   1      38.950  27.118  31.167  1.00  0.00    -0.203 F 
ATOM     92  F   UNL A   1      41.355  29.203  26.738  1.00  0.00    -0.200 F 
ATOM     93  C   UNL A   1      40.163  27.446  27.771  1.00  0.00     0.200 A 
ATOM     94  F   UNL A   1      38.966  25.719  28.850  1.00  0.00    -0.200 F 
ATOM     95  F   UNL A   1      40.149  26.757  26.622  1.00  0.00    -0.200 F 
ENDBRANCH  61  85
BRANCH  73  96
ATOM     96  C   UNL A   1      44.653  29.045  35.538  1.00  0.00     0.064 A 
ATOM     97  C   UNL A   1      45.879  29.595  35.136  1.00  0.00     0.173 A 
ATOM     98  C   UNL A   1      44.673  27.842  36.257  1.00  0.00     0.173 A 
ATOM     99  F   UNL A   1      45.908  30.737  34.432  1.00  0.00    -0.203 F 
ATOM    100  C   UNL A   1      47.080  28.956  35.432  1.00  0.00     0.198 A 
ATOM    101  C   UNL A   1      45.877  27.218  36.573  1.00  0.00     0.198 A 
ATOM    102  F   UNL A   1      43.526  27.281  36.670  1.00  0.00    -0.203 F 
ATOM    103  F   UNL A   1      48.237  29.480  35.009  1.00  0.00    -0.200 F 
ATOM    104  C   UNL A   1      47.078  27.774  36.158  1.00  0.00     0.200 A 
ATOM    105  F   UNL A   1      45.875  26.083  37.286  1.00  0.00    -0.200 F 
ATOM    106  F   UNL A   1      48.236  27.167  36.454  1.00  0.00    -0.200 F 
ENDBRANCH  73  96
ENDBRANCH  47  48
ENDBRANCH  39  42
ENDBRANCH  37  38
ENDBRANCH  36  37
ENDBRANCH  35  36
ENDBRANCH   1  35
TORSDOF 16
ENDMDL
MODEL 3
REMARK VINA RESULT:     -12.1      2.033      7.900
REMARK SMILES Cc1ccc2cc(C[N@H+]3CC[NH2+][C@H](C(=O)NCCCCCCNC(=O)c4ccc(-c5c6nc(c(-c7c(F)c(F)c(F)c(F)c7F)c7ccc([nH]7)c(-c7c(F)c(F)c(F)c(F)c7F)c7nc(c(-c8c(F)c(F)c(F)c(F)c8F)c8ccc5[nH]8)C=C7)C=C6)cc4)C3)c(N3CCOCC3)nc2c1
REMARK SMILES IDX 19 1 18 2 17 3 16 4 14 5 15 6 13 8 9 9 10 10 89 11 11 13
REMARK SMILES IDX 12 14 8 17 7 18 1 19 2 20 3 21 99 22 4 23 98 24 5 25 97 26
REMARK SMILES IDX 6 27 90 28 91 29 92 30 96 31 93 32 95 33 94 34 20 35 21 36
REMARK SMILES IDX 22 37 23 38 24 39 25 41 26 42 27 43 88 44 28 45 87 46 29 47
REMARK SMILES IDX 30 48 31 49 81 50 32 51 86 52 80 53 82 54 33 55 85 56 79 57
REMARK SMILES IDX 78 58 34 60 66 61 46 62 65 63 47 64 50 65 64 66 83 67 48 68
REMARK SMILES IDX 49 69 63 71 84 72 51 73 35 74 36 75 44 76 37 77 38 78 42 79
REMARK SMILES IDX 45 80 39 81 40 82 43 83 41 84 67 85 68 86 76 87 69 88 70 89
REMARK SMILES IDX 74 90 77 91 71 92 72 93 75 94 73 95 52 96 53 97 61 98 54 99
REMARK SMILES IDX 55 100 59 101 62 102 56 103 57 104 60 105 58 106
REMARK H PARENT 16 7 9 12 12 15 12 16 23 40 82 59 50 70
REMARK Flexibility Score: inf
ROOT
ATOM      1  C   UNL A   1      32.905  29.139  27.103  1.00  0.00     0.002 C 
ENDROOT
BRANCH   1   2
ATOM      2  C   UNL A   1      31.920  28.013  27.449  1.00  0.00     0.021 C 
BRANCH   2   3
ATOM      3  C   UNL A   1      32.169  26.701  26.717  1.00  0.00     0.116 C 
BRANCH   3   4
ATOM      4  N   UNL A   1      30.964  25.916  26.635  1.00  0.00    -0.351 N 
ATOM      5  C   UNL A   1      30.789  24.577  26.529  1.00  0.00     0.284 C 
ATOM      6  O   UNL A   1      29.616  24.181  26.542  1.00  0.00    -0.268 OA
ATOM      7  H   UNL A   1      30.131  26.438  26.661  1.00  0.00     0.163 HD
BRANCH   5   8
ATOM      8  C   UNL A   1      31.951  23.584  26.499  1.00  0.00     0.328 C 
ATOM      9  N   UNL A   1      32.707  21.362  25.530  1.00  0.00    -0.321 N 
ATOM     10  C   UNL A   1      33.617  21.285  26.691  1.00  0.00     0.324 C 
ATOM     11  C   UNL A   1      31.583  22.278  25.766  1.00  0.00     0.339 C 
ATOM     12  H   UNL A   1      32.298  20.430  25.458  1.00  0.00     0.348 HD
ATOM     13  C   UNL A   1      33.845  22.588  27.512  1.00  0.00     0.323 C 
ATOM     14  N   UNL A   1      32.597  23.332  27.812  1.00  0.00    -0.327 N 
ATOM     15  H   UNL A   1      32.813  24.214  28.277  1.00  0.00     0.347 HD
ATOM     16  H   UNL A   1      31.987  22.805  28.436  1.00  0.00     0.347 HD
BRANCH   9  17
ATOM     17  C   UNL A   1      33.352  21.496  24.209  1.00  0.00     0.303 C 
BRANCH  17  18
ATOM     18  C   UNL A   1      33.478  22.894  23.641  1.00  0.00     0.049 A 
ATOM     19  C   UNL A   1      31.697  29.061  23.208  1.00  0.00     0.044 C 
ATOM     20  C   UNL A   1      31.906  27.588  23.028  1.00  0.00    -0.049 A 
ATOM     21  C   UNL A   1      30.882  26.784  22.526  1.00  0.00     0.004 A 
ATOM     22  C   UNL A   1      33.128  26.991  23.392  1.00  0.00     0.032 A 
ATOM     23  C   UNL A   1      31.070  25.410  22.425  1.00  0.00     0.010 A 
ATOM     24  C   UNL A   1      33.329  25.614  23.341  1.00  0.00     0.073 A 
ATOM     25  C   UNL A   1      32.272  24.827  22.856  1.00  0.00     0.001 A 
ATOM     26  N   UNL A   1      34.474  25.070  23.806  1.00  0.00    -0.230 NA
ATOM     27  C   UNL A   1      32.396  23.444  22.948  1.00  0.00     0.023 A 
ATOM     28  C   UNL A   1      34.564  23.726  23.945  1.00  0.00     0.138 A 
BRANCH  28  29
ATOM     29  N   UNL A   1      35.725  23.185  24.464  1.00  0.00    -0.352 N 
ATOM     30  C   UNL A   1      36.598  22.428  23.555  1.00  0.00     0.146 C 
ATOM     31  C   UNL A   1      36.464  23.920  25.491  1.00  0.00     0.146 C 
ATOM     32  C   UNL A   1      37.435  21.453  24.399  1.00  0.00     0.181 C 
ATOM     33  C   UNL A   1      37.330  22.906  26.268  1.00  0.00     0.181 C 
ATOM     34  O   UNL A   1      38.198  22.152  25.398  1.00  0.00    -0.378 OA
ENDBRANCH  28  29
ENDBRANCH  17  18
ENDBRANCH   9  17
ENDBRANCH   5   8
ENDBRANCH   3   4
ENDBRANCH   2   3
ENDBRANCH   1   2
BRANCH   1  35
ATOM     35  C   UNL A   1      32.365  30.248  26.196  1.00  0.00     0.002 C 
BRANCH  35  36
ATOM     36  C   UNL A   1      31.892  31.512  26.912  1.00  0.00     0.021 C 
BRANCH  36  37
ATOM     37  C   UNL A   1      32.997  32.465  27.342  1.00  0.00     0.116 C 
BRANCH  37  38
ATOM     38  N   UNL A   1      32.535  33.814  27.621  1.00  0.00    -0.352 N 
ATOM     39  C   UNL A   1      33.055  34.712  28.528  1.00  0.00     0.251 C 
ATOM     40  H   UNL A   1      31.757  34.123  27.100  1.00  0.00     0.163 HD
ATOM     41  O   UNL A   1      32.532  35.797  28.720  1.00  0.00    -0.269 OA
BRANCH  39  42
ATOM     42  C   UNL A   1      34.240  34.299  29.312  1.00  0.00     0.039 A 
ATOM     43  C   UNL A   1      35.525  34.543  28.825  1.00  0.00     0.014 A 
ATOM     44  C   UNL A   1      34.049  33.567  30.485  1.00  0.00     0.014 A 
ATOM     45  C   UNL A   1      36.610  33.909  29.417  1.00  0.00     0.010 A 
ATOM     46  C   UNL A   1      35.153  32.999  31.127  1.00  0.00     0.010 A 
ATOM     47  C   UNL A   1      36.436  33.120  30.567  1.00  0.00    -0.014 A 
BRANCH  47  48
ATOM     48  C   UNL A   1      37.603  32.419  31.156  1.00  0.00     0.031 A 
ATOM     49  C   UNL A   1      38.067  32.733  32.554  1.00  0.00     0.074 A 
ATOM     50  C   UNL A   1      38.216  31.454  30.443  1.00  0.00     0.049 A 
ATOM     51  N   UNL A   1      39.072  32.227  33.223  1.00  0.00    -0.248 NA
ATOM     52  C   UNL A   1      37.308  33.751  33.300  1.00  0.00     0.031 C 
ATOM     53  C   UNL A   1      37.847  31.052  29.085  1.00  0.00     0.029 A 
ATOM     54  N   UNL A   1      39.260  30.625  30.765  1.00  0.00    -0.354 N 
ATOM     55  C   UNL A   1      39.081  32.876  34.451  1.00  0.00     0.074 A 
ATOM     56  C   UNL A   1      37.993  33.829  34.433  1.00  0.00     0.031 C 
ATOM     57  C   UNL A   1      38.620  30.022  28.709  1.00  0.00     0.029 A 
ATOM     58  C   UNL A   1      39.579  29.736  29.769  1.00  0.00     0.049 A 
ATOM     59  H   UNL A   1      39.735  30.664  31.626  1.00  0.00     0.167 HD
ATOM     60  C   UNL A   1      39.916  32.684  35.500  1.00  0.00     0.037 A 
ATOM     61  C   UNL A   1      40.549  28.804  29.708  1.00  0.00     0.037 A 
ATOM     62  C   UNL A   1      40.974  31.709  35.528  1.00  0.00     0.049 A 
ATOM     63  C   UNL A   1      41.478  28.635  30.876  1.00  0.00     0.074 A 
ATOM     64  C   UNL A   1      41.852  31.420  36.560  1.00  0.00     0.029 A 
ATOM     65  N   UNL A   1      41.296  30.859  34.482  1.00  0.00    -0.354 N 
ATOM     66  N   UNL A   1      41.473  29.255  32.030  1.00  0.00    -0.248 NA
ATOM     67  C   UNL A   1      42.554  27.647  30.729  1.00  0.00     0.031 C 
ATOM     68  C   UNL A   1      42.728  30.423  36.123  1.00  0.00     0.029 A 
ATOM     69  C   UNL A   1      42.370  30.059  34.836  1.00  0.00     0.049 A 
ATOM     70  H   UNL A   1      40.829  30.828  33.614  1.00  0.00     0.167 HD
ATOM     71  C   UNL A   1      42.536  28.730  32.749  1.00  0.00     0.074 A 
ATOM     72  C   UNL A   1      43.151  27.722  31.911  1.00  0.00     0.031 C 
ATOM     73  C   UNL A   1      42.970  29.060  33.989  1.00  0.00     0.037 A 
BRANCH  60  74
ATOM     74  C   UNL A   1      39.731  33.540  36.718  1.00  0.00     0.064 A 
ATOM     75  C   UNL A   1      40.358  34.788  36.839  1.00  0.00     0.173 A 
ATOM     76  C   UNL A   1      38.838  33.152  37.729  1.00  0.00     0.173 A 
ATOM     77  F   UNL A   1      41.227  35.201  35.905  1.00  0.00    -0.203 F 
ATOM     78  C   UNL A   1      40.100  35.615  37.931  1.00  0.00     0.198 A 
ATOM     79  C   UNL A   1      38.566  33.990  38.807  1.00  0.00     0.198 A 
ATOM     80  F   UNL A   1      38.208  31.970  37.656  1.00  0.00    -0.203 F 
ATOM     81  F   UNL A   1      40.725  36.797  38.036  1.00  0.00    -0.200 F 
ATOM     82  C   UNL A   1      39.197  35.221  38.906  1.00  0.00     0.200 A 
ATOM     83  F   UNL A   1      37.683  33.613  39.742  1.00  0.00    -0.200 F 
ATOM     84  F   UNL A   1      38.935  36.028  39.944  1.00  0.00    -0.200 F 
ENDBRANCH  60  74
BRANCH  61  85
ATOM     85  C   UNL A   1      40.687  27.968  28.489  1.00  0.00     0.064 A 
ATOM     86  C   UNL A   1      41.435  28.413  27.391  1.00  0.00     0.173 A 
ATOM     87  C   UNL A   1      40.095  26.699  28.406  1.00  0.00     0.173 A 
ATOM     88  F   UNL A   1      42.003  29.628  27.416  1.00  0.00    -0.203 F 
ATOM     89  C   UNL A   1      41.579  27.624  26.253  1.00  0.00     0.198 A 
ATOM     90  C   UNL A   1      40.264  25.899  27.280  1.00  0.00     0.198 A 
ATOM     91  F   UNL A   1      39.372  26.227  29.432  1.00  0.00    -0.203 F 
ATOM     92  F   UNL A   1      42.273  28.085  25.204  1.00  0.00    -0.200 F 
ATOM     93  C   UNL A   1      41.001  26.364  26.202  1.00  0.00     0.200 A 
ATOM     94  F   UNL A   1      39.718  24.676  27.241  1.00  0.00    -0.200 F 
ATOM     95  F   UNL A   1      41.152  25.599  25.112  1.00  0.00    -0.200 F 
ENDBRANCH  61  85
BRANCH  73  96
ATOM     96  C   UNL A   1      44.160  28.323  34.522  1.00  0.00     0.064 A 
ATOM     97  C   UNL A   1      45.457  28.837  34.382  1.00  0.00     0.173 A 
ATOM     98  C   UNL A   1      43.997  27.126  35.234  1.00  0.00     0.173 A 
ATOM     99  F   UNL A   1      45.663  29.972  33.696  1.00  0.00    -0.203 F 
ATOM    100  C   UNL A   1      46.552  28.170  34.925  1.00  0.00     0.198 A 
ATOM    101  C   UNL A   1      45.092  26.475  35.796  1.00  0.00     0.198 A 
ATOM    102  F   UNL A   1      42.775  26.598  35.400  1.00  0.00    -0.203 F 
ATOM    103  F   UNL A   1      47.786  28.661  34.750  1.00  0.00    -0.200 F 
ATOM    104  C   UNL A   1      46.367  26.996  35.639  1.00  0.00     0.200 A 
ATOM    105  F   UNL A   1      44.910  25.347  36.497  1.00  0.00    -0.200 F 
ATOM    106  F   UNL A   1      47.421  26.362  36.172  1.00  0.00    -0.200 F 
ENDBRANCH  73  96
ENDBRANCH  47  48
ENDBRANCH  39  42
ENDBRANCH  37  38
ENDBRANCH  36  37
ENDBRANCH  35  36
ENDBRANCH   1  35
TORSDOF 16
ENDMDL
