MODEL 1
REMARK VINA RESULT:     -12.6      0.000      0.000
REMARK SMILES O=C(CCCc1nc(-c2ccc(Cl)c(Cl)c2)c(-c2ccccc2)o1)NCCCCCCNC(=O)c1ccc(-c2c3nc(c(-c4c(F)c(F)c(F)c(F)c4F)c4ccc([nH]4)c(-c4c(F)c(F)c(F)c(F)c4F)c4nc(c(-c5c(F)c(F)c(F)c(F)c5F)c5ccc2[nH]5)C=C4)C=C3)cc1
REMARK SMILES IDX 27 1 26 2 25 3 1 4 2 5 3 7 4 8 5 9 6 10 7 11 24 12 8 13
REMARK SMILES IDX 17 14 9 15 10 16 16 17 11 18 14 19 12 20 15 21 13 22 18 23
REMARK SMILES IDX 19 24 23 25 20 26 22 27 21 28 28 29 29 30 30 31 31 32 32 33
REMARK SMILES IDX 33 34 34 36 35 37 36 38 97 39 37 40 96 41 38 42 39 43 40 44
REMARK SMILES IDX 90 45 41 46 95 47 89 48 91 49 42 50 94 51 88 52 87 53 43 55
REMARK SMILES IDX 75 56 55 57 74 58 56 59 59 60 73 61 92 62 57 63 58 64 72 66
REMARK SMILES IDX 93 67 60 68 44 69 45 70 53 71 46 72 47 73 51 74 54 75 48 76
REMARK SMILES IDX 49 77 52 78 50 79 76 80 77 81 85 82 78 83 79 84 83 85 86 86
REMARK SMILES IDX 80 87 81 88 84 89 82 90 61 91 62 92 70 93 63 94 64 95 68 96
REMARK SMILES IDX 71 97 65 98 66 99 69 100 67 101
REMARK H PARENT 25 6 32 35 91 54 59 65
REMARK Flexibility Score: inf
ROOT
ATOM      1  C   UNL A   1      33.170  28.489  27.025  1.00  0.00     0.021 C 
ENDROOT
BRANCH   1   2
ATOM      2  C   UNL A   1      33.618  28.030  25.641  1.00  0.00     0.116 C 
BRANCH   2   3
ATOM      3  N   UNL A   1      32.499  27.935  24.730  1.00  0.00    -0.356 N 
ATOM      4  O   UNL A   1      33.327  29.394  23.164  1.00  0.00    -0.275 OA
ATOM      5  C   UNL A   1      32.456  28.618  23.539  1.00  0.00     0.220 C 
ATOM      6  H   UNL A   1      31.738  27.359  24.973  1.00  0.00     0.163 HD
BRANCH   5   7
ATOM      7  C   UNL A   1      31.226  28.311  22.713  1.00  0.00     0.100 C 
BRANCH   7   8
ATOM      8  C   UNL A   1      31.164  26.856  22.235  1.00  0.00     0.020 C 
BRANCH   8   9
ATOM      9  C   UNL A   1      30.569  25.809  23.187  1.00  0.00     0.098 C 
BRANCH   9  10
ATOM     10  C   UNL A   1      31.446  24.651  23.522  1.00  0.00     0.195 A 
ATOM     11  N   UNL A   1      31.135  23.368  23.511  1.00  0.00    -0.213 NA
ATOM     12  O   UNL A   1      32.759  24.907  23.821  1.00  0.00    -0.440 OA
ATOM     13  C   UNL A   1      32.299  22.744  23.890  1.00  0.00     0.117 A 
ATOM     14  C   UNL A   1      33.302  23.675  24.061  1.00  0.00     0.162 A 
BRANCH  13  15
ATOM     15  C   UNL A   1      32.439  21.320  24.092  1.00  0.00     0.006 A 
ATOM     16  C   UNL A   1      32.661  20.809  25.374  1.00  0.00     0.012 A 
ATOM     17  C   UNL A   1      32.309  20.439  23.010  1.00  0.00     0.032 A 
ATOM     18  C   UNL A   1      32.719  19.426  25.576  1.00  0.00     0.023 A 
ATOM     19  C   UNL A   1      32.377  19.058  23.208  1.00  0.00     0.060 A 
ATOM     20  C   UNL A   1      32.574  18.548  24.496  1.00  0.00     0.059 A 
ATOM     21  Cl  UNL A   1      32.196  18.038  21.824  1.00  0.00    -0.083 Cl
ATOM     22  Cl  UNL A   1      32.640  16.853  24.820  1.00  0.00    -0.083 Cl
ENDBRANCH  13  15
BRANCH  14  23
ATOM     23  C   UNL A   1      34.710  23.626  24.403  1.00  0.00     0.020 A 
ATOM     24  C   UNL A   1      35.185  24.260  25.557  1.00  0.00     0.012 A 
ATOM     25  C   UNL A   1      35.602  22.884  23.617  1.00  0.00     0.012 A 
ATOM     26  C   UNL A   1      36.525  24.131  25.931  1.00  0.00     0.001 A 
ATOM     27  C   UNL A   1      36.942  22.765  23.986  1.00  0.00     0.001 A 
ATOM     28  C   UNL A   1      37.401  23.382  25.147  1.00  0.00     0.000 A 
ENDBRANCH  14  23
ENDBRANCH   9  10
ENDBRANCH   8   9
ENDBRANCH   7   8
ENDBRANCH   5   7
ENDBRANCH   2   3
ENDBRANCH   1   2
BRANCH   1  29
ATOM     29  C   UNL A   1      33.003  30.010  27.171  1.00  0.00     0.002 C 
BRANCH  29  30
ATOM     30  C   UNL A   1      31.656  30.568  26.703  1.00  0.00     0.002 C 
BRANCH  30  31
ATOM     31  C   UNL A   1      31.541  32.093  26.725  1.00  0.00     0.021 C 
BRANCH  31  32
ATOM     32  C   UNL A   1      32.757  32.823  27.291  1.00  0.00     0.116 C 
BRANCH  32  33
ATOM     33  N   UNL A   1      32.463  34.200  27.656  1.00  0.00    -0.352 N 
ATOM     34  C   UNL A   1      33.029  34.977  28.637  1.00  0.00     0.251 C 
ATOM     35  H   UNL A   1      31.759  34.638  27.124  1.00  0.00     0.163 HD
ATOM     36  O   UNL A   1      32.549  36.074  28.911  1.00  0.00    -0.269 OA
BRANCH  34  37
ATOM     37  C   UNL A   1      34.203  34.480  29.386  1.00  0.00     0.039 A 
ATOM     38  C   UNL A   1      34.005  33.868  30.626  1.00  0.00     0.014 A 
ATOM     39  C   UNL A   1      35.494  34.609  28.866  1.00  0.00     0.014 A 
ATOM     40  C   UNL A   1      35.092  33.323  31.312  1.00  0.00     0.010 A 
ATOM     41  C   UNL A   1      36.565  34.001  29.515  1.00  0.00     0.010 A 
ATOM     42  C   UNL A   1      36.377  33.350  30.745  1.00  0.00    -0.014 A 
BRANCH  42  43
ATOM     43  C   UNL A   1      37.531  32.696  31.416  1.00  0.00     0.031 A 
ATOM     44  C   UNL A   1      38.213  31.519  30.772  1.00  0.00     0.074 A 
ATOM     45  C   UNL A   1      37.919  33.115  32.637  1.00  0.00     0.049 A 
ATOM     46  N   UNL A   1      39.181  30.767  31.235  1.00  0.00    -0.248 NA
ATOM     47  C   UNL A   1      37.725  31.115  29.443  1.00  0.00     0.031 C 
ATOM     48  C   UNL A   1      37.313  34.216  33.386  1.00  0.00     0.029 A 
ATOM     49  N   UNL A   1      38.910  32.655  33.471  1.00  0.00    -0.354 N 
ATOM     50  C   UNL A   1      39.400  29.795  30.267  1.00  0.00     0.074 A 
ATOM     51  C   UNL A   1      38.439  30.022  29.211  1.00  0.00     0.031 C 
ATOM     52  C   UNL A   1      37.955  34.360  34.557  1.00  0.00     0.029 A 
ATOM     53  C   UNL A   1      38.987  33.334  34.663  1.00  0.00     0.049 A 
ATOM     54  H   UNL A   1      39.508  31.908  33.237  1.00  0.00     0.167 HD
ATOM     55  C   UNL A   1      40.331  28.812  30.255  1.00  0.00     0.037 A 
ATOM     56  C   UNL A   1      39.790  33.141  35.728  1.00  0.00     0.037 A 
ATOM     57  C   UNL A   1      41.311  28.612  31.292  1.00  0.00     0.049 A 
ATOM     58  C   UNL A   1      40.808  32.030  35.688  1.00  0.00     0.074 A 
ATOM     59  C   UNL A   1      42.351  27.699  31.327  1.00  0.00     0.029 A 
ATOM     60  N   UNL A   1      41.368  29.329  32.477  1.00  0.00    -0.354 N 
ATOM     61  N   UNL A   1      41.065  31.175  34.728  1.00  0.00    -0.248 NA
ATOM     62  C   UNL A   1      41.650  31.861  36.881  1.00  0.00     0.031 C 
ATOM     63  C   UNL A   1      42.996  27.818  32.562  1.00  0.00     0.029 A 
ATOM     64  C   UNL A   1      42.402  28.853  33.267  1.00  0.00     0.049 A 
ATOM     65  H   UNL A   1      40.763  30.066  32.721  1.00  0.00     0.167 HD
ATOM     66  C   UNL A   1      42.121  30.396  35.184  1.00  0.00     0.074 A 
ATOM     67  C   UNL A   1      42.466  30.888  36.500  1.00  0.00     0.031 C 
ATOM     68  C   UNL A   1      42.748  29.365  34.568  1.00  0.00     0.037 A 
BRANCH  55  69
ATOM     69  C   UNL A   1      40.344  27.864  29.090  1.00  0.00     0.064 A 
ATOM     70  C   UNL A   1      39.582  26.687  29.084  1.00  0.00     0.173 A 
ATOM     71  C   UNL A   1      41.075  28.178  27.934  1.00  0.00     0.173 A 
ATOM     72  F   UNL A   1      38.872  26.336  30.167  1.00  0.00    -0.203 F 
ATOM     73  C   UNL A   1      39.565  25.850  27.971  1.00  0.00     0.198 A 
ATOM     74  C   UNL A   1      41.031  27.356  26.811  1.00  0.00     0.198 A 
ATOM     75  F   UNL A   1      41.816  29.296  27.884  1.00  0.00    -0.203 F 
ATOM     76  F   UNL A   1      38.860  24.711  28.001  1.00  0.00    -0.200 F 
ATOM     77  C   UNL A   1      40.281  26.190  26.832  1.00  0.00     0.200 A 
ATOM     78  F   UNL A   1      41.711  27.695  25.707  1.00  0.00    -0.200 F 
ATOM     79  F   UNL A   1      40.250  25.393  25.756  1.00  0.00    -0.200 F 
ENDBRANCH  55  69
BRANCH  56  80
ATOM     80  C   UNL A   1      39.679  34.017  36.926  1.00  0.00     0.064 A 
ATOM     81  C   UNL A   1      38.896  33.638  38.026  1.00  0.00     0.173 A 
ATOM     82  C   UNL A   1      40.314  35.267  36.980  1.00  0.00     0.173 A 
ATOM     83  F   UNL A   1      38.251  32.462  38.014  1.00  0.00    -0.203 F 
ATOM     84  C   UNL A   1      38.721  34.490  39.114  1.00  0.00     0.198 A 
ATOM     85  C   UNL A   1      40.167  36.104  38.085  1.00  0.00     0.198 A 
ATOM     86  F   UNL A   1      41.079  35.678  35.958  1.00  0.00    -0.203 F 
ATOM     87  F   UNL A   1      37.911  34.131  40.119  1.00  0.00    -0.200 F 
ATOM     88  C   UNL A   1      39.359  35.721  39.145  1.00  0.00     0.200 A 
ATOM     89  F   UNL A   1      40.797  37.285  38.117  1.00  0.00    -0.200 F 
ATOM     90  F   UNL A   1      39.185  36.543  40.188  1.00  0.00    -0.200 F 
ENDBRANCH  56  80
BRANCH  68  91
ATOM     91  C   UNL A   1      43.907  28.731  35.282  1.00  0.00     0.064 A 
ATOM     92  C   UNL A   1      43.734  27.656  36.166  1.00  0.00     0.173 A 
ATOM     93  C   UNL A   1      45.216  29.179  35.044  1.00  0.00     0.173 A 
ATOM     94  F   UNL A   1      42.503  27.199  36.441  1.00  0.00    -0.203 F 
ATOM     95  C   UNL A   1      44.825  27.072  36.805  1.00  0.00     0.198 A 
ATOM     96  C   UNL A   1      46.306  28.570  35.656  1.00  0.00     0.198 A 
ATOM     97  F   UNL A   1      45.438  30.199  34.200  1.00  0.00    -0.203 F 
ATOM     98  F   UNL A   1      44.631  26.081  37.686  1.00  0.00    -0.200 F 
ATOM     99  C   UNL A   1      46.110  27.523  36.543  1.00  0.00     0.200 A 
ATOM    100  F   UNL A   1      47.549  28.996  35.386  1.00  0.00    -0.200 F 
ATOM    101  F   UNL A   1      47.159  26.953  37.150  1.00  0.00    -0.200 F 
ENDBRANCH  68  91
ENDBRANCH  42  43
ENDBRANCH  34  37
ENDBRANCH  32  33
ENDBRANCH  31  32
ENDBRANCH  30  31
ENDBRANCH  29  30
ENDBRANCH   1  29
TORSDOF 18
ENDMDL
MODEL 2
REMARK VINA RESULT:     -12.6      1.156      2.488
REMARK SMILES O=C(CCCc1nc(-c2ccc(Cl)c(Cl)c2)c(-c2ccccc2)o1)NCCCCCCNC(=O)c1ccc(-c2c3nc(c(-c4c(F)c(F)c(F)c(F)c4F)c4ccc([nH]4)c(-c4c(F)c(F)c(F)c(F)c4F)c4nc(c(-c5c(F)c(F)c(F)c(F)c5F)c5ccc2[nH]5)C=C4)C=C3)cc1
REMARK SMILES IDX 27 1 26 2 25 3 1 4 2 5 3 7 4 8 5 9 6 10 7 11 24 12 8 13
REMARK SMILES IDX 17 14 9 15 10 16 16 17 11 18 14 19 12 20 15 21 13 22 18 23
REMARK SMILES IDX 19 24 23 25 20 26 22 27 21 28 28 29 29 30 30 31 31 32 32 33
REMARK SMILES IDX 33 34 34 36 35 37 36 38 97 39 37 40 96 41 38 42 39 43 40 44
REMARK SMILES IDX 90 45 41 46 95 47 89 48 91 49 42 50 94 51 88 52 87 53 43 55
REMARK SMILES IDX 75 56 55 57 74 58 56 59 59 60 73 61 92 62 57 63 58 64 72 66
REMARK SMILES IDX 93 67 60 68 44 69 45 70 53 71 46 72 47 73 51 74 54 75 48 76
REMARK SMILES IDX 49 77 52 78 50 79 76 80 77 81 85 82 78 83 79 84 83 85 86 86
REMARK SMILES IDX 80 87 81 88 84 89 82 90 61 91 62 92 70 93 63 94 64 95 68 96
REMARK SMILES IDX 71 97 65 98 66 99 69 100 67 101
REMARK H PARENT 25 6 32 35 91 54 59 65
REMARK Flexibility Score: inf
ROOT
ATOM      1  C   UNL A   1      32.713  28.492  27.171  1.00  0.00     0.021 C 
ENDROOT
BRANCH   1   2
ATOM      2  C   UNL A   1      33.304  27.711  26.001  1.00  0.00     0.116 C 
BRANCH   2   3
ATOM      3  N   UNL A   1      32.320  27.492  24.965  1.00  0.00    -0.356 N 
ATOM      4  O   UNL A   1      33.072  29.139  23.554  1.00  0.00    -0.275 OA
ATOM      5  C   UNL A   1      32.299  28.220  23.800  1.00  0.00     0.220 C 
ATOM      6  H   UNL A   1      31.638  26.794  25.099  1.00  0.00     0.163 HD
BRANCH   5   7
ATOM      7  C   UNL A   1      31.230  27.770  22.828  1.00  0.00     0.100 C 
BRANCH   7   8
ATOM      8  C   UNL A   1      31.517  26.400  22.203  1.00  0.00     0.020 C 
BRANCH   8   9
ATOM      9  C   UNL A   1      30.969  25.154  22.912  1.00  0.00     0.098 C 
BRANCH   9  10
ATOM     10  C   UNL A   1      31.982  24.165  23.379  1.00  0.00     0.195 A 
ATOM     11  N   UNL A   1      33.213  24.400  23.794  1.00  0.00    -0.213 NA
ATOM     12  O   UNL A   1      31.603  22.851  23.464  1.00  0.00    -0.440 OA
ATOM     13  C   UNL A   1      33.698  23.153  24.108  1.00  0.00     0.117 A 
ATOM     14  C   UNL A   1      32.714  22.203  23.930  1.00  0.00     0.162 A 
BRANCH  13  15
ATOM     15  C   UNL A   1      35.048  22.884  24.547  1.00  0.00     0.006 A 
ATOM     16  C   UNL A   1      35.829  23.907  25.094  1.00  0.00     0.012 A 
ATOM     17  C   UNL A   1      35.569  21.585  24.468  1.00  0.00     0.032 A 
ATOM     18  C   UNL A   1      37.107  23.625  25.587  1.00  0.00     0.023 A 
ATOM     19  C   UNL A   1      36.849  21.303  24.952  1.00  0.00     0.060 A 
ATOM     20  C   UNL A   1      37.618  22.324  25.521  1.00  0.00     0.059 A 
ATOM     21  Cl  UNL A   1      37.413  19.675  24.829  1.00  0.00    -0.083 Cl
ATOM     22  Cl  UNL A   1      39.196  22.044  26.165  1.00  0.00    -0.083 Cl
ENDBRANCH  13  15
BRANCH  14  23
ATOM     23  C   UNL A   1      32.612  20.771  24.129  1.00  0.00     0.020 A 
ATOM     24  C   UNL A   1      32.444  19.910  23.039  1.00  0.00     0.012 A 
ATOM     25  C   UNL A   1      32.751  20.226  25.413  1.00  0.00     0.012 A 
ATOM     26  C   UNL A   1      32.441  18.526  23.228  1.00  0.00     0.001 A 
ATOM     27  C   UNL A   1      32.736  18.843  25.602  1.00  0.00     0.001 A 
ATOM     28  C   UNL A   1      32.588  17.994  24.508  1.00  0.00     0.000 A 
ENDBRANCH  14  23
ENDBRANCH   9  10
ENDBRANCH   8   9
ENDBRANCH   7   8
ENDBRANCH   5   7
ENDBRANCH   2   3
ENDBRANCH   1   2
BRANCH   1  29
ATOM     29  C   UNL A   1      32.850  30.018  27.055  1.00  0.00     0.002 C 
BRANCH  29  30
ATOM     30  C   UNL A   1      31.687  30.729  26.356  1.00  0.00     0.002 C 
BRANCH  30  31
ATOM     31  C   UNL A   1      31.444  32.172  26.800  1.00  0.00     0.021 C 
BRANCH  31  32
ATOM     32  C   UNL A   1      32.686  32.912  27.291  1.00  0.00     0.116 C 
BRANCH  32  33
ATOM     33  N   UNL A   1      32.403  34.286  27.677  1.00  0.00    -0.352 N 
ATOM     34  C   UNL A   1      32.985  35.050  28.657  1.00  0.00     0.251 C 
ATOM     35  H   UNL A   1      31.692  34.732  27.160  1.00  0.00     0.163 HD
ATOM     36  O   UNL A   1      32.513  36.145  28.952  1.00  0.00    -0.269 OA
BRANCH  34  37
ATOM     37  C   UNL A   1      34.168  34.540  29.383  1.00  0.00     0.039 A 
ATOM     38  C   UNL A   1      33.994  33.978  30.650  1.00  0.00     0.014 A 
ATOM     39  C   UNL A   1      35.444  34.609  28.816  1.00  0.00     0.014 A 
ATOM     40  C   UNL A   1      35.088  33.421  31.318  1.00  0.00     0.010 A 
ATOM     41  C   UNL A   1      36.518  33.989  29.450  1.00  0.00     0.010 A 
ATOM     42  C   UNL A   1      36.352  33.387  30.707  1.00  0.00    -0.014 A 
BRANCH  42  43
ATOM     43  C   UNL A   1      37.508  32.718  31.361  1.00  0.00     0.031 A 
ATOM     44  C   UNL A   1      38.172  31.540  30.702  1.00  0.00     0.074 A 
ATOM     45  C   UNL A   1      37.913  33.126  32.580  1.00  0.00     0.049 A 
ATOM     46  N   UNL A   1      39.138  30.777  31.149  1.00  0.00    -0.248 NA
ATOM     47  C   UNL A   1      37.666  31.149  29.376  1.00  0.00     0.031 C 
ATOM     48  C   UNL A   1      37.324  34.227  33.343  1.00  0.00     0.029 A 
ATOM     49  N   UNL A   1      38.908  32.652  33.400  1.00  0.00    -0.354 N 
ATOM     50  C   UNL A   1      39.339  29.809  30.173  1.00  0.00     0.074 A 
ATOM     51  C   UNL A   1      38.368  30.051  29.129  1.00  0.00     0.031 C 
ATOM     52  C   UNL A   1      37.980  34.359  34.508  1.00  0.00     0.029 A 
ATOM     53  C   UNL A   1      39.004  33.323  34.596  1.00  0.00     0.049 A 
ATOM     54  H   UNL A   1      39.497  31.901  33.155  1.00  0.00     0.167 HD
ATOM     55  C   UNL A   1      40.261  28.818  30.145  1.00  0.00     0.037 A 
ATOM     56  C   UNL A   1      39.817  33.116  35.651  1.00  0.00     0.037 A 
ATOM     57  C   UNL A   1      41.250  28.603  31.170  1.00  0.00     0.049 A 
ATOM     58  C   UNL A   1      40.824  31.997  35.592  1.00  0.00     0.074 A 
ATOM     59  C   UNL A   1      42.283  27.681  31.188  1.00  0.00     0.029 A 
ATOM     60  N   UNL A   1      41.326  29.312  32.358  1.00  0.00    -0.354 N 
ATOM     61  N   UNL A   1      41.064  31.146  34.625  1.00  0.00    -0.248 NA
ATOM     62  C   UNL A   1      41.678  31.812  36.775  1.00  0.00     0.031 C 
ATOM     63  C   UNL A   1      42.942  27.787  32.416  1.00  0.00     0.029 A 
ATOM     64  C   UNL A   1      42.364  28.821  33.134  1.00  0.00     0.049 A 
ATOM     65  H   UNL A   1      40.730  30.053  32.613  1.00  0.00     0.167 HD
ATOM     66  C   UNL A   1      42.118  30.355  35.063  1.00  0.00     0.074 A 
ATOM     67  C   UNL A   1      42.482  30.835  36.379  1.00  0.00     0.031 C 
ATOM     68  C   UNL A   1      42.729  29.322  34.434  1.00  0.00     0.037 A 
BRANCH  55  69
ATOM     69  C   UNL A   1      40.253  27.878  28.973  1.00  0.00     0.064 A 
ATOM     70  C   UNL A   1      41.002  28.132  27.815  1.00  0.00     0.173 A 
ATOM     71  C   UNL A   1      39.541  26.671  29.042  1.00  0.00     0.173 A 
ATOM     72  F   UNL A   1      41.694  29.275  27.695  1.00  0.00    -0.203 F 
ATOM     73  C   UNL A   1      41.024  27.221  26.762  1.00  0.00     0.198 A 
ATOM     74  C   UNL A   1      39.590  25.748  28.001  1.00  0.00     0.198 A 
ATOM     75  F   UNL A   1      38.813  26.375  30.130  1.00  0.00    -0.203 F 
ATOM     76  F   UNL A   1      41.716  27.501  25.649  1.00  0.00    -0.200 F 
ATOM     77  C   UNL A   1      40.326  26.025  26.860  1.00  0.00     0.200 A 
ATOM     78  F   UNL A   1      38.928  24.587  28.105  1.00  0.00    -0.200 F 
ATOM     79  F   UNL A   1      40.363  25.143  25.853  1.00  0.00    -0.200 F 
ENDBRANCH  55  69
BRANCH  56  80
ATOM     80  C   UNL A   1      39.727  33.985  36.855  1.00  0.00     0.064 A 
ATOM     81  C   UNL A   1      38.925  33.623  37.947  1.00  0.00     0.173 A 
ATOM     82  C   UNL A   1      40.401  35.214  36.923  1.00  0.00     0.173 A 
ATOM     83  F   UNL A   1      38.243  32.468  37.922  1.00  0.00    -0.203 F 
ATOM     84  C   UNL A   1      38.771  34.470  39.042  1.00  0.00     0.198 A 
ATOM     85  C   UNL A   1      40.274  36.046  38.035  1.00  0.00     0.198 A 
ATOM     86  F   UNL A   1      41.185  35.608  35.910  1.00  0.00    -0.203 F 
ATOM     87  F   UNL A   1      37.944  34.129  40.039  1.00  0.00    -0.200 F 
ATOM     88  C   UNL A   1      39.448  35.680  39.087  1.00  0.00     0.200 A 
ATOM     89  F   UNL A   1      40.942  37.206  38.080  1.00  0.00    -0.200 F 
ATOM     90  F   UNL A   1      39.293  36.498  40.136  1.00  0.00    -0.200 F 
ENDBRANCH  56  80
BRANCH  68  91
ATOM     91  C   UNL A   1      43.891  28.674  35.132  1.00  0.00     0.064 A 
ATOM     92  C   UNL A   1      43.723  27.565  35.974  1.00  0.00     0.173 A 
ATOM     93  C   UNL A   1      45.196  29.144  34.918  1.00  0.00     0.173 A 
ATOM     94  F   UNL A   1      42.495  27.086  36.225  1.00  0.00    -0.203 F 
ATOM     95  C   UNL A   1      44.816  26.969  36.598  1.00  0.00     0.198 A 
ATOM     96  C   UNL A   1      46.289  28.523  35.514  1.00  0.00     0.198 A 
ATOM     97  F   UNL A   1      45.413  30.197  34.114  1.00  0.00    -0.203 F 
ATOM     98  F   UNL A   1      44.628  25.944  37.440  1.00  0.00    -0.200 F 
ATOM     99  C   UNL A   1      46.099  27.442  36.360  1.00  0.00     0.200 A 
ATOM    100  F   UNL A   1      47.529  28.971  35.268  1.00  0.00    -0.200 F 
ATOM    101  F   UNL A   1      47.149  26.860  36.953  1.00  0.00    -0.200 F 
ENDBRANCH  68  91
ENDBRANCH  42  43
ENDBRANCH  34  37
ENDBRANCH  32  33
ENDBRANCH  31  32
ENDBRANCH  30  31
ENDBRANCH  29  30
ENDBRANCH   1  29
TORSDOF 18
ENDMDL
MODEL 3
REMARK VINA RESULT:     -12.4      5.875     11.335
REMARK SMILES O=C(CCCc1nc(-c2ccc(Cl)c(Cl)c2)c(-c2ccccc2)o1)NCCCCCCNC(=O)c1ccc(-c2c3nc(c(-c4c(F)c(F)c(F)c(F)c4F)c4ccc([nH]4)c(-c4c(F)c(F)c(F)c(F)c4F)c4nc(c(-c5c(F)c(F)c(F)c(F)c5F)c5ccc2[nH]5)C=C4)C=C3)cc1
REMARK SMILES IDX 27 1 26 2 25 3 1 4 2 5 3 7 4 8 5 9 6 10 7 11 24 12 8 13
REMARK SMILES IDX 17 14 9 15 10 16 16 17 11 18 14 19 12 20 15 21 13 22 18 23
REMARK SMILES IDX 19 24 23 25 20 26 22 27 21 28 28 29 29 30 30 31 31 32 32 33
REMARK SMILES IDX 33 34 34 36 35 37 36 38 97 39 37 40 96 41 38 42 39 43 40 44
REMARK SMILES IDX 90 45 41 46 95 47 89 48 91 49 42 50 94 51 88 52 87 53 43 55
REMARK SMILES IDX 75 56 55 57 74 58 56 59 59 60 73 61 92 62 57 63 58 64 72 66
REMARK SMILES IDX 93 67 60 68 44 69 45 70 53 71 46 72 47 73 51 74 54 75 48 76
REMARK SMILES IDX 49 77 52 78 50 79 76 80 77 81 85 82 78 83 79 84 83 85 86 86
REMARK SMILES IDX 80 87 81 88 84 89 82 90 61 91 62 92 70 93 63 94 64 95 68 96
REMARK SMILES IDX 71 97 65 98 66 99 69 100 67 101
REMARK H PARENT 25 6 32 35 91 54 59 65
REMARK Flexibility Score: inf
ROOT
ATOM      1  C   UNL A   1      37.032  23.366  24.857  1.00  0.00     0.021 C 
ENDROOT
BRANCH   1   2
ATOM      2  C   UNL A   1      35.600  23.592  25.332  1.00  0.00     0.116 C 
BRANCH   2   3
ATOM      3  N   UNL A   1      34.691  23.728  24.215  1.00  0.00    -0.356 N 
ATOM      4  O   UNL A   1      33.853  21.592  24.315  1.00  0.00    -0.275 OA
ATOM      5  C   UNL A   1      33.865  22.708  23.807  1.00  0.00     0.220 C 
ATOM      6  H   UNL A   1      34.663  24.583  23.728  1.00  0.00     0.163 HD
BRANCH   5   7
ATOM      7  C   UNL A   1      32.947  23.097  22.669  1.00  0.00     0.100 C 
BRANCH   7   8
ATOM      8  C   UNL A   1      31.473  22.780  22.945  1.00  0.00     0.020 C 
BRANCH   8   9
ATOM      9  C   UNL A   1      30.832  23.371  24.209  1.00  0.00     0.098 C 
BRANCH   9  10
ATOM     10  C   UNL A   1      30.972  24.845  24.389  1.00  0.00     0.195 A 
ATOM     11  N   UNL A   1      31.808  25.489  25.183  1.00  0.00    -0.213 NA
ATOM     12  O   UNL A   1      30.200  25.662  23.606  1.00  0.00    -0.440 OA
ATOM     13  C   UNL A   1      31.521  26.813  24.956  1.00  0.00     0.117 A 
ATOM     14  C   UNL A   1      30.555  26.929  23.978  1.00  0.00     0.162 A 
BRANCH  13  15
ATOM     15  C   UNL A   1      32.138  27.918  25.654  1.00  0.00     0.006 A 
ATOM     16  C   UNL A   1      33.406  27.772  26.223  1.00  0.00     0.012 A 
ATOM     17  C   UNL A   1      31.486  29.157  25.728  1.00  0.00     0.032 A 
ATOM     18  C   UNL A   1      34.031  28.866  26.832  1.00  0.00     0.023 A 
ATOM     19  C   UNL A   1      32.105  30.248  26.343  1.00  0.00     0.060 A 
ATOM     20  C   UNL A   1      33.385  30.106  26.890  1.00  0.00     0.059 A 
ATOM     21  Cl  UNL A   1      31.240  31.744  26.382  1.00  0.00    -0.083 Cl
ATOM     22  Cl  UNL A   1      34.221  31.417  27.641  1.00  0.00    -0.083 Cl
ENDBRANCH  13  15
BRANCH  14  23
ATOM     23  C   UNL A   1      29.895  28.028  23.303  1.00  0.00     0.020 A 
ATOM     24  C   UNL A   1      30.623  28.908  22.494  1.00  0.00     0.012 A 
ATOM     25  C   UNL A   1      28.505  28.181  23.396  1.00  0.00     0.012 A 
ATOM     26  C   UNL A   1      29.968  29.909  21.772  1.00  0.00     0.001 A 
ATOM     27  C   UNL A   1      27.852  29.187  22.682  1.00  0.00     0.001 A 
ATOM     28  C   UNL A   1      28.583  30.046  21.865  1.00  0.00     0.000 A 
ENDBRANCH  14  23
ENDBRANCH   9  10
ENDBRANCH   8   9
ENDBRANCH   7   8
ENDBRANCH   5   7
ENDBRANCH   2   3
ENDBRANCH   1   2
BRANCH   1  29
ATOM     29  C   UNL A   1      37.264  22.029  24.137  1.00  0.00     0.002 C 
BRANCH  29  30
ATOM     30  C   UNL A   1      37.140  20.781  25.018  1.00  0.00     0.002 C 
BRANCH  30  31
ATOM     31  C   UNL A   1      38.322  19.813  24.944  1.00  0.00     0.021 C 
BRANCH  31  32
ATOM     32  C   UNL A   1      39.443  20.089  25.941  1.00  0.00     0.116 C 
BRANCH  32  33
ATOM     33  N   UNL A   1      40.464  19.052  25.939  1.00  0.00    -0.352 N 
ATOM     34  C   UNL A   1      41.825  19.172  26.061  1.00  0.00     0.251 C 
ATOM     35  H   UNL A   1      40.129  18.131  25.835  1.00  0.00     0.163 HD
ATOM     36  O   UNL A   1      42.552  18.199  25.879  1.00  0.00    -0.269 OA
BRANCH  34  37
ATOM     37  C   UNL A   1      42.423  20.487  26.383  1.00  0.00     0.039 A 
ATOM     38  C   UNL A   1      43.043  21.216  25.366  1.00  0.00     0.014 A 
ATOM     39  C   UNL A   1      42.366  21.002  27.681  1.00  0.00     0.014 A 
ATOM     40  C   UNL A   1      43.544  22.492  25.634  1.00  0.00     0.010 A 
ATOM     41  C   UNL A   1      42.799  22.303  27.929  1.00  0.00     0.010 A 
ATOM     42  C   UNL A   1      43.392  23.062  26.908  1.00  0.00    -0.014 A 
BRANCH  42  43
ATOM     43  C   UNL A   1      43.836  24.453  27.190  1.00  0.00     0.031 A 
ATOM     44  C   UNL A   1      42.839  25.490  27.633  1.00  0.00     0.074 A 
ATOM     45  C   UNL A   1      45.120  24.800  26.976  1.00  0.00     0.049 A 
ATOM     46  N   UNL A   1      43.017  26.769  27.850  1.00  0.00    -0.248 NA
ATOM     47  C   UNL A   1      41.454  25.036  27.834  1.00  0.00     0.031 C 
ATOM     48  C   UNL A   1      46.174  23.899  26.505  1.00  0.00     0.029 A 
ATOM     49  N   UNL A   1      45.758  26.009  27.115  1.00  0.00    -0.354 N 
ATOM     50  C   UNL A   1      41.768  27.272  28.190  1.00  0.00     0.074 A 
ATOM     51  C   UNL A   1      40.831  26.173  28.110  1.00  0.00     0.031 C 
ATOM     52  C   UNL A   1      47.328  24.579  26.414  1.00  0.00     0.029 A 
ATOM     53  C   UNL A   1      47.090  25.973  26.774  1.00  0.00     0.049 A 
ATOM     54  H   UNL A   1      45.305  26.826  27.427  1.00  0.00     0.167 HD
ATOM     55  C   UNL A   1      41.436  28.535  28.552  1.00  0.00     0.037 A 
ATOM     56  C   UNL A   1      48.010  26.957  26.741  1.00  0.00     0.037 A 
ATOM     57  C   UNL A   1      42.378  29.618  28.666  1.00  0.00     0.049 A 
ATOM     58  C   UNL A   1      47.606  28.353  27.138  1.00  0.00     0.074 A 
ATOM     59  C   UNL A   1      42.153  30.910  29.111  1.00  0.00     0.029 A 
ATOM     60  N   UNL A   1      43.720  29.539  28.327  1.00  0.00    -0.354 N 
ATOM     61  N   UNL A   1      46.441  28.796  27.545  1.00  0.00    -0.248 NA
ATOM     62  C   UNL A   1      48.648  29.388  27.074  1.00  0.00     0.031 C 
ATOM     63  C   UNL A   1      43.343  31.631  28.978  1.00  0.00     0.029 A 
ATOM     64  C   UNL A   1      44.326  30.771  28.516  1.00  0.00     0.049 A 
ATOM     65  H   UNL A   1      44.174  28.730  28.000  1.00  0.00     0.167 HD
ATOM     66  C   UNL A   1      46.620  30.145  27.823  1.00  0.00     0.074 A 
ATOM     67  C   UNL A   1      48.010  30.446  27.551  1.00  0.00     0.031 C 
ATOM     68  C   UNL A   1      45.716  31.053  28.262  1.00  0.00     0.037 A 
BRANCH  55  69
ATOM     69  C   UNL A   1      39.994  28.829  28.850  1.00  0.00     0.064 A 
ATOM     70  C   UNL A   1      39.104  29.260  27.855  1.00  0.00     0.173 A 
ATOM     71  C   UNL A   1      39.480  28.605  30.137  1.00  0.00     0.173 A 
ATOM     72  F   UNL A   1      39.546  29.497  26.611  1.00  0.00    -0.203 F 
ATOM     73  C   UNL A   1      37.758  29.474  28.142  1.00  0.00     0.198 A 
ATOM     74  C   UNL A   1      38.128  28.789  30.412  1.00  0.00     0.198 A 
ATOM     75  F   UNL A   1      40.286  28.186  31.125  1.00  0.00    -0.203 F 
ATOM     76  F   UNL A   1      36.934  29.923  27.185  1.00  0.00    -0.200 F 
ATOM     77  C   UNL A   1      37.269  29.229  29.417  1.00  0.00     0.200 A 
ATOM     78  F   UNL A   1      37.655  28.536  31.641  1.00  0.00    -0.200 F 
ATOM     79  F   UNL A   1      35.970  29.419  29.686  1.00  0.00    -0.200 F 
ENDBRANCH  55  69
BRANCH  56  80
ATOM     80  C   UNL A   1      49.409  26.669  26.324  1.00  0.00     0.064 A 
ATOM     81  C   UNL A   1      49.819  26.853  24.996  1.00  0.00     0.173 A 
ATOM     82  C   UNL A   1      50.352  26.160  27.230  1.00  0.00     0.173 A 
ATOM     83  F   UNL A   1      48.948  27.316  24.086  1.00  0.00    -0.203 F 
ATOM     84  C   UNL A   1      51.103  26.506  24.581  1.00  0.00     0.198 A 
ATOM     85  C   UNL A   1      51.648  25.847  26.823  1.00  0.00     0.198 A 
ATOM     86  F   UNL A   1      50.016  25.969  28.514  1.00  0.00    -0.203 F 
ATOM     87  F   UNL A   1      51.444  26.628  23.292  1.00  0.00    -0.200 F 
ATOM     88  C   UNL A   1      52.018  26.007  25.496  1.00  0.00     0.200 A 
ATOM     89  F   UNL A   1      52.533  25.379  27.713  1.00  0.00    -0.200 F 
ATOM     90  F   UNL A   1      53.250  25.666  25.096  1.00  0.00    -0.200 F 
ENDBRANCH  56  80
BRANCH  68  91
ATOM     91  C   UNL A   1      46.207  32.447  28.531  1.00  0.00     0.064 A 
ATOM     92  C   UNL A   1      46.730  32.820  29.777  1.00  0.00     0.173 A 
ATOM     93  C   UNL A   1      46.193  33.411  27.510  1.00  0.00     0.173 A 
ATOM     94  F   UNL A   1      46.753  31.942  30.791  1.00  0.00    -0.203 F 
ATOM     95  C   UNL A   1      47.196  34.113  29.999  1.00  0.00     0.198 A 
ATOM     96  C   UNL A   1      46.692  34.691  27.725  1.00  0.00     0.198 A 
ATOM     97  F   UNL A   1      45.710  33.104  26.296  1.00  0.00    -0.203 F 
ATOM     98  F   UNL A   1      47.643  34.463  31.213  1.00  0.00    -0.200 F 
ATOM     99  C   UNL A   1      47.185  35.045  28.971  1.00  0.00     0.200 A 
ATOM    100  F   UNL A   1      46.697  35.584  26.725  1.00  0.00    -0.200 F 
ATOM    101  F   UNL A   1      47.643  36.285  29.185  1.00  0.00    -0.200 F 
ENDBRANCH  68  91
ENDBRANCH  42  43
ENDBRANCH  34  37
ENDBRANCH  32  33
ENDBRANCH  31  32
ENDBRANCH  30  31
ENDBRANCH  29  30
ENDBRANCH   1  29
TORSDOF 18
ENDMDL
