MODEL 1
REMARK VINA RESULT:      -8.6      0.000      0.000
REMARK SMILES C[C@H](CC#N)[N@@H+](C)Cc1cc(F)cc(/C=C/C(=O)NCCCCCCNC(=O)c2ccc(-c3c4nc(c(-c5c(F)c(F)c(F)c(F)c5F)c5ccc([nH]5)c(-c5c(F)c(F)c(F)c(F)c5F)c5nc(c(-c6c(F)c(F)c(F)c(F)c6F)c6ccc3[nH]6)C=C5)C=C4)cc2)c1
REMARK SMILES IDX 20 1 19 2 17 3 18 4 16 6 15 7 14 8 9 9 10 10 92 11 11 12
REMARK SMILES IDX 12 13 13 14 8 15 6 16 7 17 2 19 1 20 3 21 4 22 5 23 21 24
REMARK SMILES IDX 22 25 23 26 24 27 25 28 26 29 27 30 28 32 29 33 30 34 91 35
REMARK SMILES IDX 31 36 90 37 32 38 33 39 34 40 84 41 35 42 89 43 83 44 85 45
REMARK SMILES IDX 36 46 88 47 82 48 81 49 37 51 69 52 49 53 68 54 50 55 53 56
REMARK SMILES IDX 67 57 86 58 51 59 52 60 66 62 87 63 54 64 38 65 39 66 47 67
REMARK SMILES IDX 40 68 41 69 45 70 48 71 42 72 43 73 46 74 44 75 70 76 71 77
REMARK SMILES IDX 79 78 72 79 73 80 77 81 80 82 74 83 75 84 78 85 76 86 55 87
REMARK SMILES IDX 56 88 64 89 57 90 58 91 62 92 65 93 59 94 60 95 63 96 61 97
REMARK H PARENT 19 5 6 18 26 31 85 50 53 61
REMARK Flexibility Score: inf
ROOT
ATOM      1  C   UNL A   1      37.924  34.552  32.566  1.00  0.00     0.116 C 
ENDROOT
BRANCH   1   2
ATOM      2  N   UNL A   1      38.363  34.721  33.941  1.00  0.00    -0.353 N 
ATOM      3  C   UNL A   1      39.060  33.908  34.779  1.00  0.00     0.243 C 
ATOM      4  O   UNL A   1      39.364  34.312  35.898  1.00  0.00    -0.270 OA
ATOM      5  H   UNL A   1      38.109  35.584  34.339  1.00  0.00     0.163 HD
BRANCH   3   6
ATOM      6  C   UNL A   1      39.540  32.582  34.332  1.00  0.00     0.072 C 
ATOM      7  C   UNL A   1      38.868  31.445  34.544  1.00  0.00     0.014 C 
BRANCH   7   8
ATOM      8  C   UNL A   1      39.291  30.132  34.059  1.00  0.00    -0.022 A 
ATOM      9  C   UNL A   1      41.185  28.623  33.698  1.00  0.00     0.010 A 
ATOM     10  C   UNL A   1      40.341  27.795  32.945  1.00  0.00     0.048 A 
ATOM     11  C   UNL A   1      40.619  29.751  34.306  1.00  0.00     0.018 A 
ATOM     12  C   UNL A   1      39.004  28.140  32.753  1.00  0.00     0.124 A 
ATOM     13  F   UNL A   1      38.220  27.343  32.015  1.00  0.00    -0.207 F 
ATOM     14  C   UNL A   1      38.477  29.311  33.284  1.00  0.00     0.047 A 
BRANCH   9  15
ATOM     15  C   UNL A   1      42.654  28.299  33.845  1.00  0.00     0.299 C 
BRANCH  15  16
ATOM     16  N   UNL A   1      43.067  27.458  34.979  1.00  0.00    -0.331 N 
ATOM     17  C   UNL A   1      43.950  28.112  35.938  1.00  0.00     0.333 C 
ATOM     18  H   UNL A   1      42.153  27.367  35.423  1.00  0.00     0.348 HD
BRANCH  16  19
ATOM     19  C   UNL A   1      43.381  26.029  34.763  1.00  0.00     0.195 C 
ATOM     20  C   UNL A   1      43.956  25.689  33.369  1.00  0.00     0.076 C 
BRANCH  19  21
ATOM     21  C   UNL A   1      42.271  25.047  35.237  1.00  0.00     0.184 C 
BRANCH  21  22
ATOM     22  C   UNL A   1      41.456  25.674  36.358  1.00  0.00     0.068 C 
ATOM     23  N   UNL A   1      40.780  26.193  37.286  1.00  0.00    -0.198 NA
ENDBRANCH  21  22
ENDBRANCH  19  21
ENDBRANCH  16  19
ENDBRANCH  15  16
ENDBRANCH   9  15
ENDBRANCH   7   8
ENDBRANCH   3   6
ENDBRANCH   1   2
BRANCH   1  24
ATOM     24  C   UNL A   1      36.409  34.339  32.515  1.00  0.00     0.021 C 
BRANCH  24  25
ATOM     25  C   UNL A   1      35.990  32.885  32.768  1.00  0.00     0.002 C 
BRANCH  25  26
ATOM     26  C   UNL A   1      35.159  32.252  31.645  1.00  0.00     0.002 C 
BRANCH  26  27
ATOM     27  C   UNL A   1      34.606  33.242  30.617  1.00  0.00     0.021 C 
BRANCH  27  28
ATOM     28  C   UNL A   1      35.082  32.993  29.190  1.00  0.00     0.116 C 
BRANCH  28  29
ATOM     29  N   UNL A   1      34.243  32.022  28.504  1.00  0.00    -0.352 N 
ATOM     30  C   UNL A   1      34.582  30.816  27.943  1.00  0.00     0.251 C 
ATOM     31  H   UNL A   1      33.292  32.265  28.432  1.00  0.00     0.163 HD
ATOM     32  O   UNL A   1      33.805  30.237  27.195  1.00  0.00    -0.269 OA
BRANCH  30  33
ATOM     33  C   UNL A   1      35.904  30.222  28.236  1.00  0.00     0.039 A 
ATOM     34  C   UNL A   1      36.907  30.290  27.268  1.00  0.00     0.014 A 
ATOM     35  C   UNL A   1      36.147  29.602  29.464  1.00  0.00     0.014 A 
ATOM     36  C   UNL A   1      38.183  29.806  27.562  1.00  0.00     0.010 A 
ATOM     37  C   UNL A   1      37.435  29.180  29.781  1.00  0.00     0.010 A 
ATOM     38  C   UNL A   1      38.467  29.290  28.838  1.00  0.00    -0.014 A 
BRANCH  38  39
ATOM     39  C   UNL A   1      39.846  28.902  29.225  1.00  0.00     0.031 A 
ATOM     40  C   UNL A   1      40.705  29.845  30.015  1.00  0.00     0.074 A 
ATOM     41  C   UNL A   1      40.347  27.729  28.790  1.00  0.00     0.049 A 
ATOM     42  N   UNL A   1      41.965  29.730  30.346  1.00  0.00    -0.248 NA
ATOM     43  C   UNL A   1      40.073  31.090  30.478  1.00  0.00     0.031 C 
ATOM     44  C   UNL A   1      39.614  26.744  27.994  1.00  0.00     0.029 A 
ATOM     45  N   UNL A   1      41.593  27.171  28.942  1.00  0.00    -0.354 N 
ATOM     46  C   UNL A   1      42.277  30.886  31.050  1.00  0.00     0.074 A 
ATOM     47  C   UNL A   1      41.090  31.712  31.058  1.00  0.00     0.031 C 
ATOM     48  C   UNL A   1      40.414  25.696  27.746  1.00  0.00     0.029 A 
ATOM     49  C   UNL A   1      41.732  25.956  28.316  1.00  0.00     0.049 A 
ATOM     50  H   UNL A   1      42.317  27.602  29.450  1.00  0.00     0.167 HD
ATOM     51  C   UNL A   1      43.444  31.212  31.654  1.00  0.00     0.037 A 
ATOM     52  C   UNL A   1      42.806  25.151  28.197  1.00  0.00     0.037 A 
ATOM     53  C   UNL A   1      44.614  30.374  31.657  1.00  0.00     0.049 A 
ATOM     54  C   UNL A   1      44.106  25.563  28.830  1.00  0.00     0.074 A 
ATOM     55  C   UNL A   1      45.826  30.596  32.286  1.00  0.00     0.029 A 
ATOM     56  N   UNL A   1      44.721  29.157  30.999  1.00  0.00    -0.354 N 
ATOM     57  N   UNL A   1      44.374  26.635  29.536  1.00  0.00    -0.248 NA
ATOM     58  C   UNL A   1      45.254  24.663  28.648  1.00  0.00     0.031 C 
ATOM     59  C   UNL A   1      46.686  29.544  31.960  1.00  0.00     0.029 A 
ATOM     60  C   UNL A   1      45.992  28.635  31.178  1.00  0.00     0.049 A 
ATOM     61  H   UNL A   1      44.000  28.729  30.482  1.00  0.00     0.167 HD
ATOM     62  C   UNL A   1      45.709  26.529  29.901  1.00  0.00     0.074 A 
ATOM     63  C   UNL A   1      46.196  25.283  29.348  1.00  0.00     0.031 C 
ATOM     64  C   UNL A   1      46.461  27.390  30.627  1.00  0.00     0.037 A 
BRANCH  51  65
ATOM     65  C   UNL A   1      43.526  32.525  32.374  1.00  0.00     0.064 A 
ATOM     66  C   UNL A   1      43.156  32.620  33.725  1.00  0.00     0.173 A 
ATOM     67  C   UNL A   1      43.875  33.707  31.705  1.00  0.00     0.173 A 
ATOM     68  F   UNL A   1      42.807  31.520  34.410  1.00  0.00    -0.203 F 
ATOM     69  C   UNL A   1      43.110  33.853  34.371  1.00  0.00     0.198 A 
ATOM     70  C   UNL A   1      43.856  34.935  32.363  1.00  0.00     0.198 A 
ATOM     71  F   UNL A   1      44.244  33.669  30.416  1.00  0.00    -0.203 F 
ATOM     72  F   UNL A   1      42.712  33.924  35.649  1.00  0.00    -0.200 F 
ATOM     73  C   UNL A   1      43.462  35.008  33.690  1.00  0.00     0.200 A 
ATOM     74  F   UNL A   1      44.218  36.047  31.709  1.00  0.00    -0.200 F 
ATOM     75  F   UNL A   1      43.421  36.194  34.313  1.00  0.00    -0.200 F 
ENDBRANCH  51  65
BRANCH  52  76
ATOM     76  C   UNL A   1      42.683  23.869  27.454  1.00  0.00     0.064 A 
ATOM     77  C   UNL A   1      42.338  22.675  28.106  1.00  0.00     0.173 A 
ATOM     78  C   UNL A   1      42.945  23.808  26.079  1.00  0.00     0.173 A 
ATOM     79  F   UNL A   1      42.083  22.676  29.422  1.00  0.00    -0.203 F 
ATOM     80  C   UNL A   1      42.284  21.466  27.415  1.00  0.00     0.198 A 
ATOM     81  C   UNL A   1      42.861  22.603  25.382  1.00  0.00     0.198 A 
ATOM     82  F   UNL A   1      43.259  24.926  25.408  1.00  0.00    -0.203 F 
ATOM     83  F   UNL A   1      41.993  20.335  28.070  1.00  0.00    -0.200 F 
ATOM     84  C   UNL A   1      42.541  21.433  26.053  1.00  0.00     0.200 A 
ATOM     85  F   UNL A   1      43.086  22.580  24.062  1.00  0.00    -0.200 F 
ATOM     86  F   UNL A   1      42.479  20.271  25.386  1.00  0.00    -0.200 F 
ENDBRANCH  52  76
BRANCH  64  87
ATOM     87  C   UNL A   1      47.893  27.026  30.890  1.00  0.00     0.064 A 
ATOM     88  C   UNL A   1      48.909  27.476  30.032  1.00  0.00     0.173 A 
ATOM     89  C   UNL A   1      48.242  26.135  31.914  1.00  0.00     0.173 A 
ATOM     90  F   UNL A   1      48.622  28.323  29.031  1.00  0.00    -0.203 F 
ATOM     91  C   UNL A   1      50.216  27.020  30.170  1.00  0.00     0.198 A 
ATOM     92  C   UNL A   1      49.557  25.704  32.067  1.00  0.00     0.198 A 
ATOM     93  F   UNL A   1      47.310  25.688  32.768  1.00  0.00    -0.203 F 
ATOM     94  F   UNL A   1      51.159  27.422  29.306  1.00  0.00    -0.200 F 
ATOM     95  C   UNL A   1      50.540  26.135  31.187  1.00  0.00     0.200 A 
ATOM     96  F   UNL A   1      49.873  24.865  33.062  1.00  0.00    -0.200 F 
ATOM     97  F   UNL A   1      51.797  25.692  31.316  1.00  0.00    -0.200 F 
ENDBRANCH  64  87
ENDBRANCH  38  39
ENDBRANCH  30  33
ENDBRANCH  28  29
ENDBRANCH  27  28
ENDBRANCH  26  27
ENDBRANCH  25  26
ENDBRANCH  24  25
ENDBRANCH   1  24
TORSDOF 19
ENDMDL
MODEL 2
REMARK VINA RESULT:      -8.2      4.594     10.306
REMARK SMILES C[C@H](CC#N)[N@@H+](C)Cc1cc(F)cc(/C=C/C(=O)NCCCCCCNC(=O)c2ccc(-c3c4nc(c(-c5c(F)c(F)c(F)c(F)c5F)c5ccc([nH]5)c(-c5c(F)c(F)c(F)c(F)c5F)c5nc(c(-c6c(F)c(F)c(F)c(F)c6F)c6ccc3[nH]6)C=C5)C=C4)cc2)c1
REMARK SMILES IDX 20 1 19 2 17 3 18 4 16 6 15 7 14 8 9 9 10 10 92 11 11 12
REMARK SMILES IDX 12 13 13 14 8 15 6 16 7 17 2 19 1 20 3 21 4 22 5 23 21 24
REMARK SMILES IDX 22 25 23 26 24 27 25 28 26 29 27 30 28 32 29 33 30 34 91 35
REMARK SMILES IDX 31 36 90 37 32 38 33 39 34 40 84 41 35 42 89 43 83 44 85 45
REMARK SMILES IDX 36 46 88 47 82 48 81 49 37 51 69 52 49 53 68 54 50 55 53 56
REMARK SMILES IDX 67 57 86 58 51 59 52 60 66 62 87 63 54 64 38 65 39 66 47 67
REMARK SMILES IDX 40 68 41 69 45 70 48 71 42 72 43 73 46 74 44 75 70 76 71 77
REMARK SMILES IDX 79 78 72 79 73 80 77 81 80 82 74 83 75 84 78 85 76 86 55 87
REMARK SMILES IDX 56 88 64 89 57 90 58 91 62 92 65 93 59 94 60 95 63 96 61 97
REMARK H PARENT 19 5 6 18 26 31 85 50 53 61
REMARK Flexibility Score: inf
ROOT
ATOM      1  C   UNL A   1      30.688  25.566  25.483  1.00  0.00     0.116 C 
ENDROOT
BRANCH   1   2
ATOM      2  N   UNL A   1      29.761  24.856  26.348  1.00  0.00    -0.353 N 
ATOM      3  C   UNL A   1      29.816  23.625  26.922  1.00  0.00     0.243 C 
ATOM      4  O   UNL A   1      28.914  23.270  27.677  1.00  0.00    -0.270 OA
ATOM      5  H   UNL A   1      28.942  25.360  26.557  1.00  0.00     0.163 HD
BRANCH   3   6
ATOM      6  C   UNL A   1      30.989  22.745  26.731  1.00  0.00     0.072 C 
ATOM      7  C   UNL A   1      31.161  21.970  25.654  1.00  0.00     0.014 C 
BRANCH   7   8
ATOM      8  C   UNL A   1      32.340  21.138  25.413  1.00  0.00    -0.022 A 
ATOM      9  C   UNL A   1      34.767  20.949  25.667  1.00  0.00     0.010 A 
ATOM     10  C   UNL A   1      34.737  19.837  24.814  1.00  0.00     0.048 A 
ATOM     11  C   UNL A   1      33.545  21.540  26.010  1.00  0.00     0.018 A 
ATOM     12  C   UNL A   1      33.531  19.397  24.272  1.00  0.00     0.124 A 
ATOM     13  F   UNL A   1      33.529  18.343  23.444  1.00  0.00    -0.207 F 
ATOM     14  C   UNL A   1      32.335  20.050  24.545  1.00  0.00     0.047 A 
BRANCH   9  15
ATOM     15  C   UNL A   1      36.079  21.481  26.195  1.00  0.00     0.299 C 
BRANCH  15  16
ATOM     16  N   UNL A   1      37.081  21.944  25.222  1.00  0.00    -0.331 N 
ATOM     17  C   UNL A   1      38.468  21.726  25.619  1.00  0.00     0.333 C 
ATOM     18  H   UNL A   1      36.871  21.276  24.481  1.00  0.00     0.348 HD
BRANCH  16  19
ATOM     19  C   UNL A   1      36.867  23.208  24.486  1.00  0.00     0.195 C 
ATOM     20  C   UNL A   1      36.080  24.291  25.260  1.00  0.00     0.076 C 
BRANCH  19  21
ATOM     21  C   UNL A   1      36.395  23.024  23.015  1.00  0.00     0.184 C 
BRANCH  21  22
ATOM     22  C   UNL A   1      34.886  23.184  22.921  1.00  0.00     0.068 C 
ATOM     23  N   UNL A   1      33.635  23.316  22.842  1.00  0.00    -0.198 NA
ENDBRANCH  21  22
ENDBRANCH  19  21
ENDBRANCH  16  19
ENDBRANCH  15  16
ENDBRANCH   9  15
ENDBRANCH   7   8
ENDBRANCH   3   6
ENDBRANCH   1   2
BRANCH   1  24
ATOM     24  C   UNL A   1      31.755  26.277  26.318  1.00  0.00     0.021 C 
BRANCH  24  25
ATOM     25  C   UNL A   1      33.146  26.261  25.668  1.00  0.00     0.002 C 
BRANCH  25  26
ATOM     26  C   UNL A   1      33.174  26.711  24.201  1.00  0.00     0.002 C 
BRANCH  26  27
ATOM     27  C   UNL A   1      33.598  28.165  23.982  1.00  0.00     0.021 C 
BRANCH  27  28
ATOM     28  C   UNL A   1      34.167  28.845  25.222  1.00  0.00     0.116 C 
BRANCH  28  29
ATOM     29  N   UNL A   1      33.385  30.011  25.603  1.00  0.00    -0.352 N 
ATOM     30  C   UNL A   1      33.457  30.778  26.739  1.00  0.00     0.251 C 
ATOM     31  H   UNL A   1      32.705  30.292  24.949  1.00  0.00     0.163 HD
ATOM     32  O   UNL A   1      32.567  31.573  27.011  1.00  0.00    -0.269 OA
BRANCH  30  33
ATOM     33  C   UNL A   1      34.614  30.628  27.647  1.00  0.00     0.039 A 
ATOM     34  C   UNL A   1      34.690  29.501  28.468  1.00  0.00     0.014 A 
ATOM     35  C   UNL A   1      35.618  31.598  27.685  1.00  0.00     0.014 A 
ATOM     36  C   UNL A   1      35.816  29.307  29.270  1.00  0.00     0.010 A 
ATOM     37  C   UNL A   1      36.769  31.373  28.433  1.00  0.00     0.010 A 
ATOM     38  C   UNL A   1      36.884  30.218  29.223  1.00  0.00    -0.014 A 
BRANCH  38  39
ATOM     39  C   UNL A   1      38.151  29.964  29.953  1.00  0.00     0.031 A 
ATOM     40  C   UNL A   1      39.175  29.024  29.389  1.00  0.00     0.074 A 
ATOM     41  C   UNL A   1      38.334  30.522  31.166  1.00  0.00     0.049 A 
ATOM     42  N   UNL A   1      40.283  28.591  29.933  1.00  0.00    -0.248 NA
ATOM     43  C   UNL A   1      38.912  28.482  28.046  1.00  0.00     0.031 C 
ATOM     44  C   UNL A   1      37.397  31.432  31.826  1.00  0.00     0.029 A 
ATOM     45  N   UNL A   1      39.364  30.397  32.066  1.00  0.00    -0.354 N 
ATOM     46  C   UNL A   1      40.846  27.726  29.004  1.00  0.00     0.074 A 
ATOM     47  C   UNL A   1      39.935  27.656  27.882  1.00  0.00     0.031 C 
ATOM     48  C   UNL A   1      37.902  31.799  33.013  1.00  0.00     0.029 A 
ATOM     49  C   UNL A   1      39.171  31.110  33.225  1.00  0.00     0.049 A 
ATOM     50  H   UNL A   1      40.163  29.848  31.898  1.00  0.00     0.167 HD
ATOM     51  C   UNL A   1      42.027  27.070  29.076  1.00  0.00     0.037 A 
ATOM     52  C   UNL A   1      39.922  31.184  34.342  1.00  0.00     0.037 A 
ATOM     53  C   UNL A   1      42.936  27.162  30.188  1.00  0.00     0.049 A 
ATOM     54  C   UNL A   1      41.203  30.402  34.418  1.00  0.00     0.074 A 
ATOM     55  C   UNL A   1      44.181  26.575  30.329  1.00  0.00     0.029 A 
ATOM     56  N   UNL A   1      42.698  27.881  31.350  1.00  0.00    -0.354 N 
ATOM     57  N   UNL A   1      41.750  29.626  33.513  1.00  0.00    -0.248 NA
ATOM     58  C   UNL A   1      41.971  30.495  35.668  1.00  0.00     0.031 C 
ATOM     59  C   UNL A   1      44.671  26.890  31.599  1.00  0.00     0.029 A 
ATOM     60  C   UNL A   1      43.759  27.723  32.227  1.00  0.00     0.049 A 
ATOM     61  H   UNL A   1      41.895  28.424  31.525  1.00  0.00     0.167 HD
ATOM     62  C   UNL A   1      42.931  29.159  34.071  1.00  0.00     0.074 A 
ATOM     63  C   UNL A   1      43.031  29.746  35.391  1.00  0.00     0.031 C 
ATOM     64  C   UNL A   1      43.848  28.319  33.536  1.00  0.00     0.037 A 
BRANCH  51  65
ATOM     65  C   UNL A   1      42.425  26.198  27.922  1.00  0.00     0.064 A 
ATOM     66  C   UNL A   1      43.276  26.689  26.919  1.00  0.00     0.173 A 
ATOM     67  C   UNL A   1      41.888  24.913  27.756  1.00  0.00     0.173 A 
ATOM     68  F   UNL A   1      43.812  27.914  27.026  1.00  0.00    -0.203 F 
ATOM     69  C   UNL A   1      43.554  25.934  25.782  1.00  0.00     0.198 A 
ATOM     70  C   UNL A   1      42.192  24.150  26.631  1.00  0.00     0.198 A 
ATOM     71  F   UNL A   1      41.077  24.395  28.690  1.00  0.00    -0.203 F 
ATOM     72  F   UNL A   1      44.334  26.441  24.818  1.00  0.00    -0.200 F 
ATOM     73  C   UNL A   1      43.014  24.665  25.640  1.00  0.00     0.200 A 
ATOM     74  F   UNL A   1      41.687  22.915  26.507  1.00  0.00    -0.200 F 
ATOM     75  F   UNL A   1      43.285  23.938  24.548  1.00  0.00    -0.200 F 
ENDBRANCH  51  65
BRANCH  52  76
ATOM     76  C   UNL A   1      39.476  32.045  35.470  1.00  0.00     0.064 A 
ATOM     77  C   UNL A   1      38.595  31.568  36.452  1.00  0.00     0.173 A 
ATOM     78  C   UNL A   1      39.898  33.378  35.565  1.00  0.00     0.173 A 
ATOM     79  F   UNL A   1      38.157  30.301  36.404  1.00  0.00    -0.203 F 
ATOM     80  C   UNL A   1      38.134  32.398  37.472  1.00  0.00     0.198 A 
ATOM     81  C   UNL A   1      39.460  34.199  36.603  1.00  0.00     0.198 A 
ATOM     82  F   UNL A   1      40.756  33.874  34.661  1.00  0.00    -0.203 F 
ATOM     83  F   UNL A   1      37.260  31.928  38.372  1.00  0.00    -0.200 F 
ATOM     84  C   UNL A   1      38.571  33.712  37.548  1.00  0.00     0.200 A 
ATOM     85  F   UNL A   1      39.904  35.460  36.688  1.00  0.00    -0.200 F 
ATOM     86  F   UNL A   1      38.136  34.507  38.536  1.00  0.00    -0.200 F 
ENDBRANCH  52  76
BRANCH  64  87
ATOM     87  C   UNL A   1      45.057  27.979  34.357  1.00  0.00     0.064 A 
ATOM     88  C   UNL A   1      46.233  28.737  34.236  1.00  0.00     0.173 A 
ATOM     89  C   UNL A   1      45.091  26.835  35.165  1.00  0.00     0.173 A 
ATOM     90  F   UNL A   1      46.253  29.836  33.466  1.00  0.00    -0.203 F 
ATOM     91  C   UNL A   1      47.408  28.341  34.869  1.00  0.00     0.198 A 
ATOM     92  C   UNL A   1      46.261  26.459  35.821  1.00  0.00     0.198 A 
ATOM     93  F   UNL A   1      43.990  26.086  35.323  1.00  0.00    -0.203 F 
ATOM     94  F   UNL A   1      48.532  29.051  34.697  1.00  0.00    -0.200 F 
ATOM     95  C   UNL A   1      47.421  27.203  35.660  1.00  0.00     0.200 A 
ATOM     96  F   UNL A   1      46.267  25.370  36.602  1.00  0.00    -0.200 F 
ATOM     97  F   UNL A   1      48.553  26.819  36.265  1.00  0.00    -0.200 F 
ENDBRANCH  64  87
ENDBRANCH  38  39
ENDBRANCH  30  33
ENDBRANCH  28  29
ENDBRANCH  27  28
ENDBRANCH  26  27
ENDBRANCH  25  26
ENDBRANCH  24  25
ENDBRANCH   1  24
TORSDOF 19
ENDMDL
MODEL 3
REMARK VINA RESULT:      -8.0      2.157      3.714
REMARK SMILES C[C@H](CC#N)[N@@H+](C)Cc1cc(F)cc(/C=C/C(=O)NCCCCCCNC(=O)c2ccc(-c3c4nc(c(-c5c(F)c(F)c(F)c(F)c5F)c5ccc([nH]5)c(-c5c(F)c(F)c(F)c(F)c5F)c5nc(c(-c6c(F)c(F)c(F)c(F)c6F)c6ccc3[nH]6)C=C5)C=C4)cc2)c1
REMARK SMILES IDX 20 1 19 2 17 3 18 4 16 6 15 7 14 8 9 9 10 10 92 11 11 12
REMARK SMILES IDX 12 13 13 14 8 15 6 16 7 17 2 19 1 20 3 21 4 22 5 23 21 24
REMARK SMILES IDX 22 25 23 26 24 27 25 28 26 29 27 30 28 32 29 33 30 34 91 35
REMARK SMILES IDX 31 36 90 37 32 38 33 39 34 40 84 41 35 42 89 43 83 44 85 45
REMARK SMILES IDX 36 46 88 47 82 48 81 49 37 51 69 52 49 53 68 54 50 55 53 56
REMARK SMILES IDX 67 57 86 58 51 59 52 60 66 62 87 63 54 64 38 65 39 66 47 67
REMARK SMILES IDX 40 68 41 69 45 70 48 71 42 72 43 73 46 74 44 75 70 76 71 77
REMARK SMILES IDX 79 78 72 79 73 80 77 81 80 82 74 83 75 84 78 85 76 86 55 87
REMARK SMILES IDX 56 88 64 89 57 90 58 91 62 92 65 93 59 94 60 95 63 96 61 97
REMARK H PARENT 19 5 6 18 26 31 85 50 53 61
REMARK Flexibility Score: inf
ROOT
ATOM      1  C   UNL A   1      32.827  35.474  30.645  1.00  0.00     0.116 C 
ENDROOT
BRANCH   1   2
ATOM      2  N   UNL A   1      32.744  36.255  31.867  1.00  0.00    -0.353 N 
ATOM      3  C   UNL A   1      33.613  36.420  32.900  1.00  0.00     0.243 C 
ATOM      4  O   UNL A   1      33.331  37.196  33.809  1.00  0.00    -0.270 OA
ATOM      5  H   UNL A   1      31.904  36.758  31.966  1.00  0.00     0.163 HD
BRANCH   3   6
ATOM      6  C   UNL A   1      34.934  35.754  32.901  1.00  0.00     0.072 C 
ATOM      7  C   UNL A   1      35.373  34.990  33.907  1.00  0.00     0.014 C 
BRANCH   7   8
ATOM      8  C   UNL A   1      36.648  34.272  33.905  1.00  0.00    -0.022 A 
ATOM      9  C   UNL A   1      38.046  32.631  35.064  1.00  0.00     0.010 A 
ATOM     10  C   UNL A   1      39.114  33.004  34.237  1.00  0.00     0.048 A 
ATOM     11  C   UNL A   1      36.801  33.229  34.832  1.00  0.00     0.018 A 
ATOM     12  C   UNL A   1      38.944  33.996  33.271  1.00  0.00     0.124 A 
ATOM     13  F   UNL A   1      39.984  34.348  32.504  1.00  0.00    -0.207 F 
ATOM     14  C   UNL A   1      37.728  34.649  33.113  1.00  0.00     0.047 A 
BRANCH   9  15
ATOM     15  C   UNL A   1      38.241  31.614  36.166  1.00  0.00     0.299 C 
BRANCH  15  16
ATOM     16  N   UNL A   1      38.634  32.103  37.497  1.00  0.00    -0.331 N 
ATOM     17  C   UNL A   1      37.549  32.169  38.470  1.00  0.00     0.333 C 
ATOM     18  H   UNL A   1      39.229  31.317  37.761  1.00  0.00     0.348 HD
BRANCH  16  19
ATOM     19  C   UNL A   1      39.610  33.206  37.620  1.00  0.00     0.195 C 
ATOM     20  C   UNL A   1      40.813  32.916  38.547  1.00  0.00     0.076 C 
BRANCH  19  21
ATOM     21  C   UNL A   1      38.972  34.607  37.846  1.00  0.00     0.184 C 
BRANCH  21  22
ATOM     22  C   UNL A   1      39.454  35.584  36.785  1.00  0.00     0.068 C 
ATOM     23  N   UNL A   1      39.854  36.395  35.906  1.00  0.00    -0.198 NA
ENDBRANCH  21  22
ENDBRANCH  19  21
ENDBRANCH  16  19
ENDBRANCH  15  16
ENDBRANCH   9  15
ENDBRANCH   7   8
ENDBRANCH   3   6
ENDBRANCH   1   2
BRANCH   1  24
ATOM     24  C   UNL A   1      33.237  36.366  29.471  1.00  0.00     0.021 C 
BRANCH  24  25
ATOM     25  C   UNL A   1      33.970  35.606  28.357  1.00  0.00     0.002 C 
BRANCH  25  26
ATOM     26  C   UNL A   1      35.324  35.014  28.768  1.00  0.00     0.002 C 
BRANCH  26  27
ATOM     27  C   UNL A   1      35.514  33.536  28.419  1.00  0.00     0.021 C 
BRANCH  27  28
ATOM     28  C   UNL A   1      34.750  32.576  29.325  1.00  0.00     0.116 C 
BRANCH  28  29
ATOM     29  N   UNL A   1      34.009  31.587  28.558  1.00  0.00    -0.352 N 
ATOM     30  C   UNL A   1      34.455  30.440  27.948  1.00  0.00     0.251 C 
ATOM     31  H   UNL A   1      33.045  31.765  28.462  1.00  0.00     0.163 HD
ATOM     32  O   UNL A   1      33.749  29.850  27.141  1.00  0.00    -0.269 OA
BRANCH  30  33
ATOM     33  C   UNL A   1      35.805  29.928  28.260  1.00  0.00     0.039 A 
ATOM     34  C   UNL A   1      36.800  29.997  27.283  1.00  0.00     0.014 A 
ATOM     35  C   UNL A   1      36.084  29.380  29.515  1.00  0.00     0.014 A 
ATOM     36  C   UNL A   1      38.099  29.591  27.592  1.00  0.00     0.010 A 
ATOM     37  C   UNL A   1      37.392  29.038  29.843  1.00  0.00     0.010 A 
ATOM     38  C   UNL A   1      38.414  29.152  28.889  1.00  0.00    -0.014 A 
BRANCH  38  39
ATOM     39  C   UNL A   1      39.812  28.852  29.286  1.00  0.00     0.031 A 
ATOM     40  C   UNL A   1      40.599  29.840  30.094  1.00  0.00     0.074 A 
ATOM     41  C   UNL A   1      40.393  27.719  28.842  1.00  0.00     0.049 A 
ATOM     42  N   UNL A   1      41.862  29.805  30.437  1.00  0.00    -0.248 NA
ATOM     43  C   UNL A   1      39.882  31.036  30.565  1.00  0.00     0.031 C 
ATOM     44  C   UNL A   1      39.734  26.697  28.028  1.00  0.00     0.029 A 
ATOM     45  N   UNL A   1      41.672  27.244  29.000  1.00  0.00    -0.354 N 
ATOM     46  C   UNL A   1      42.090  30.970  31.156  1.00  0.00     0.074 A 
ATOM     47  C   UNL A   1      40.850  31.716  31.161  1.00  0.00     0.031 C 
ATOM     48  C   UNL A   1      40.604  25.707  27.777  1.00  0.00     0.029 A 
ATOM     49  C   UNL A   1      41.896  26.047  28.363  1.00  0.00     0.049 A 
ATOM     50  H   UNL A   1      42.361  27.715  29.521  1.00  0.00     0.167 HD
ATOM     51  C   UNL A   1      43.227  31.366  31.775  1.00  0.00     0.037 A 
ATOM     52  C   UNL A   1      43.022  25.316  28.245  1.00  0.00     0.037 A 
ATOM     53  C   UNL A   1      44.450  30.607  31.780  1.00  0.00     0.049 A 
ATOM     54  C   UNL A   1      44.286  25.806  28.896  1.00  0.00     0.074 A 
ATOM     55  C   UNL A   1      45.639  30.901  32.423  1.00  0.00     0.029 A 
ATOM     56  N   UNL A   1      44.643  29.408  31.110  1.00  0.00    -0.354 N 
ATOM     57  N   UNL A   1      44.477  26.885  29.616  1.00  0.00    -0.248 NA
ATOM     58  C   UNL A   1      45.493  24.986  28.715  1.00  0.00     0.031 C 
ATOM     59  C   UNL A   1      46.569  29.912  32.094  1.00  0.00     0.029 A 
ATOM     60  C   UNL A   1      45.944  28.969  31.295  1.00  0.00     0.049 A 
ATOM     61  H   UNL A   1      43.957  28.938  30.582  1.00  0.00     0.167 HD
ATOM     62  C   UNL A   1      45.813  26.863  29.992  1.00  0.00     0.074 A 
ATOM     63  C   UNL A   1      46.386  25.658  29.430  1.00  0.00     0.031 C 
ATOM     64  C   UNL A   1      46.500  27.763  30.736  1.00  0.00     0.037 A 
BRANCH  51  65
ATOM     65  C   UNL A   1      43.216  32.673  32.511  1.00  0.00     0.064 A 
ATOM     66  C   UNL A   1      42.805  32.731  33.851  1.00  0.00     0.173 A 
ATOM     67  C   UNL A   1      43.514  33.880  31.863  1.00  0.00     0.173 A 
ATOM     68  F   UNL A   1      42.501  31.606  34.516  1.00  0.00    -0.203 F 
ATOM     69  C   UNL A   1      42.673  33.952  34.509  1.00  0.00     0.198 A 
ATOM     70  C   UNL A   1      43.409  35.097  32.532  1.00  0.00     0.198 A 
ATOM     71  F   UNL A   1      43.920  33.878  30.584  1.00  0.00    -0.203 F 
ATOM     72  F   UNL A   1      42.237  33.986  35.775  1.00  0.00    -0.200 F 
ATOM     73  C   UNL A   1      42.976  35.133  33.849  1.00  0.00     0.200 A 
ATOM     74  F   UNL A   1      43.725  36.236  31.900  1.00  0.00    -0.200 F 
ATOM     75  F   UNL A   1      42.852  36.307  34.483  1.00  0.00    -0.200 F 
ENDBRANCH  51  65
BRANCH  52  76
ATOM     76  C   UNL A   1      42.991  24.038  27.488  1.00  0.00     0.064 A 
ATOM     77  C   UNL A   1      43.328  23.984  26.126  1.00  0.00     0.173 A 
ATOM     78  C   UNL A   1      42.588  22.846  28.106  1.00  0.00     0.173 A 
ATOM     79  F   UNL A   1      43.715  25.096  25.485  1.00  0.00    -0.203 F 
ATOM     80  C   UNL A   1      43.238  22.794  25.408  1.00  0.00     0.198 A 
ATOM     81  C   UNL A   1      42.527  21.650  27.394  1.00  0.00     0.198 A 
ATOM     82  F   UNL A   1      42.276  22.843  29.410  1.00  0.00    -0.203 F 
ATOM     83  F   UNL A   1      43.524  22.781  24.099  1.00  0.00    -0.200 F 
ATOM     84  C   UNL A   1      42.842  21.627  26.044  1.00  0.00     0.200 A 
ATOM     85  F   UNL A   1      42.169  20.520  28.018  1.00  0.00    -0.200 F 
ATOM     86  F   UNL A   1      42.766  20.479  25.355  1.00  0.00    -0.200 F 
ENDBRANCH  52  76
BRANCH  64  87
ATOM     87  C   UNL A   1      47.950  27.492  31.009  1.00  0.00     0.064 A 
ATOM     88  C   UNL A   1      48.937  27.952  30.123  1.00  0.00     0.173 A 
ATOM     89  C   UNL A   1      48.350  26.674  32.074  1.00  0.00     0.173 A 
ATOM     90  F   UNL A   1      48.602  28.730  29.081  1.00  0.00    -0.203 F 
ATOM     91  C   UNL A   1      50.268  27.576  30.276  1.00  0.00     0.198 A 
ATOM     92  C   UNL A   1      49.687  26.324  32.241  1.00  0.00     0.198 A 
ATOM     93  F   UNL A   1      47.446  26.221  32.955  1.00  0.00    -0.203 F 
ATOM     94  F   UNL A   1      51.185  27.984  29.388  1.00  0.00    -0.200 F 
ATOM     95  C   UNL A   1      50.642  26.762  31.335  1.00  0.00     0.200 A 
ATOM     96  F   UNL A   1      50.051  25.555  33.276  1.00  0.00    -0.200 F 
ATOM     97  F   UNL A   1      51.922  26.395  31.479  1.00  0.00    -0.200 F 
ENDBRANCH  64  87
ENDBRANCH  38  39
ENDBRANCH  30  33
ENDBRANCH  28  29
ENDBRANCH  27  28
ENDBRANCH  26  27
ENDBRANCH  25  26
ENDBRANCH  24  25
ENDBRANCH   1  24
TORSDOF 19
ENDMDL
