MODEL 1
REMARK VINA RESULT:     -10.5      0.000      0.000
REMARK SMILES CNC(=O)[C@H]1CCCCN1C(=O)NCCOCC(=O)NCCCCCCNC(=O)c1ccc(-c2c3nc(c(-c4c(F)c(F)c(F)c(F)c4F)c4ccc([nH]4)c(-c4c(F)c(F)c(F)c(F)c4F)c4nc(c(-c5c(F)c(F)c(F)c(F)c5F)c5ccc2[nH]5)C=C4)C=C3)cc1
REMARK SMILES IDX 21 1 20 2 18 3 19 4 17 6 16 7 15 8 14 9 13 10 11 11 12 12
REMARK SMILES IDX 10 14 5 15 6 16 7 17 9 18 8 19 3 20 1 21 2 22 4 24 22 25
REMARK SMILES IDX 23 26 24 27 25 28 26 29 27 30 28 31 29 33 30 34 31 35 92 36
REMARK SMILES IDX 32 37 91 38 33 39 34 40 35 41 85 42 36 43 90 44 84 45 86 46
REMARK SMILES IDX 37 47 89 48 83 49 82 50 38 52 70 53 50 54 69 55 51 56 54 57
REMARK SMILES IDX 68 58 87 59 52 60 53 61 67 63 88 64 55 65 39 66 40 67 48 68
REMARK SMILES IDX 41 69 42 70 46 71 49 72 43 73 44 74 47 75 45 76 71 77 72 78
REMARK SMILES IDX 80 79 73 80 74 81 78 82 81 83 75 84 76 85 79 86 77 87 56 88
REMARK SMILES IDX 57 89 65 90 58 91 59 92 63 93 66 94 60 95 61 96 64 97 62 98
REMARK H PARENT 20 5 13 13 2 23 27 32 86 51 54 62
REMARK Flexibility Score: inf
ROOT
ATOM      1  C   UNL A   1      39.980  22.372  26.544  1.00  0.00     0.116 C 
ENDROOT
BRANCH   1   2
ATOM      2  N   UNL A   1      39.159  21.398  25.857  1.00  0.00    -0.354 N 
ATOM      3  C   UNL A   1      37.871  21.537  25.432  1.00  0.00     0.245 C 
ATOM      4  O   UNL A   1      37.341  20.613  24.815  1.00  0.00    -0.272 OA
ATOM      5  H   UNL A   1      39.583  20.528  25.675  1.00  0.00     0.163 HD
BRANCH   3   6
ATOM      6  C   UNL A   1      37.143  22.857  25.701  1.00  0.00     0.260 C 
BRANCH   6   7
ATOM      7  O   UNL A   1      36.947  23.717  24.588  1.00  0.00    -0.370 OA
BRANCH   7   8
ATOM      8  C   UNL A   1      35.578  24.036  24.305  1.00  0.00     0.182 C 
BRANCH   8   9
ATOM      9  C   UNL A   1      34.868  22.933  23.509  1.00  0.00     0.146 C 
BRANCH   9  10
ATOM     10  N   UNL A   1      33.536  23.330  23.079  1.00  0.00    -0.336 N 
ATOM     11  C   UNL A   1      32.279  23.249  23.537  1.00  0.00     0.318 C 
ATOM     12  O   UNL A   1      31.433  23.705  22.759  1.00  0.00    -0.249 OA
ATOM     13  H   UNL A   1      33.568  23.786  22.206  1.00  0.00     0.165 HD
BRANCH  11  14
ATOM     14  N   UNL A   1      31.939  22.774  24.772  1.00  0.00    -0.313 N 
ATOM     15  C   UNL A   1      31.861  23.782  25.860  1.00  0.00     0.176 C 
ATOM     16  C   UNL A   1      33.134  23.650  26.721  1.00  0.00     0.035 C 
ATOM     17  C   UNL A   1      33.392  22.209  27.179  1.00  0.00     0.004 C 
ATOM     18  C   UNL A   1      31.992  21.401  25.262  1.00  0.00     0.122 C 
ATOM     19  C   UNL A   1      33.298  21.205  26.025  1.00  0.00     0.022 C 
BRANCH  15  20
ATOM     20  C   UNL A   1      30.564  23.761  26.717  1.00  0.00     0.242 C 
ATOM     21  C   UNL A   1      29.519  25.739  25.497  1.00  0.00     0.142 C 
ATOM     22  N   UNL A   1      29.597  24.705  26.503  1.00  0.00    -0.357 N 
ATOM     23  H   UNL A   1      28.838  24.676  27.130  1.00  0.00     0.163 HD
ATOM     24  O   UNL A   1      30.356  22.954  27.626  1.00  0.00    -0.273 OA
ENDBRANCH  15  20
ENDBRANCH  11  14
ENDBRANCH   9  10
ENDBRANCH   8   9
ENDBRANCH   7   8
ENDBRANCH   6   7
ENDBRANCH   3   6
ENDBRANCH   1   2
BRANCH   1  25
ATOM     25  C   UNL A   1      41.465  22.029  26.456  1.00  0.00     0.021 C 
BRANCH  25  26
ATOM     26  C   UNL A   1      42.009  21.225  27.641  1.00  0.00     0.002 C 
BRANCH  26  27
ATOM     27  C   UNL A   1      41.955  19.701  27.489  1.00  0.00     0.002 C 
BRANCH  27  28
ATOM     28  C   UNL A   1      42.358  19.161  26.115  1.00  0.00     0.021 C 
BRANCH  28  29
ATOM     29  C   UNL A   1      43.751  18.549  26.045  1.00  0.00     0.116 C 
BRANCH  29  30
ATOM     30  N   UNL A   1      44.282  18.533  24.694  1.00  0.00    -0.352 N 
ATOM     31  C   UNL A   1      44.718  19.575  23.920  1.00  0.00     0.251 C 
ATOM     32  H   UNL A   1      44.335  17.645  24.274  1.00  0.00     0.163 HD
ATOM     33  O   UNL A   1      44.982  19.383  22.730  1.00  0.00    -0.269 OA
BRANCH  31  34
ATOM     34  C   UNL A   1      44.863  20.932  24.488  1.00  0.00     0.039 A 
ATOM     35  C   UNL A   1      44.362  22.017  23.762  1.00  0.00     0.014 A 
ATOM     36  C   UNL A   1      45.532  21.152  25.696  1.00  0.00     0.014 A 
ATOM     37  C   UNL A   1      44.508  23.314  24.257  1.00  0.00     0.010 A 
ATOM     38  C   UNL A   1      45.613  22.439  26.225  1.00  0.00     0.010 A 
ATOM     39  C   UNL A   1      45.125  23.535  25.499  1.00  0.00    -0.014 A 
BRANCH  39  40
ATOM     40  C   UNL A   1      45.310  24.914  26.017  1.00  0.00     0.031 A 
ATOM     41  C   UNL A   1      46.661  25.573  25.936  1.00  0.00     0.074 A 
ATOM     42  C   UNL A   1      44.274  25.565  26.576  1.00  0.00     0.049 A 
ATOM     43  N   UNL A   1      47.026  26.768  26.330  1.00  0.00    -0.248 NA
ATOM     44  C   UNL A   1      47.753  24.776  25.357  1.00  0.00     0.031 C 
ATOM     45  C   UNL A   1      42.930  25.017  26.758  1.00  0.00     0.029 A 
ATOM     46  N   UNL A   1      44.190  26.834  27.095  1.00  0.00    -0.354 N 
ATOM     47  C   UNL A   1      48.385  26.857  26.057  1.00  0.00     0.074 A 
ATOM     48  C   UNL A   1      48.794  25.578  25.522  1.00  0.00     0.031 C 
ATOM     49  C   UNL A   1      42.147  25.953  27.318  1.00  0.00     0.029 A 
ATOM     50  C   UNL A   1      42.938  27.157  27.555  1.00  0.00     0.049 A 
ATOM     51  H   UNL A   1      44.955  27.452  27.133  1.00  0.00     0.167 HD
ATOM     52  C   UNL A   1      49.213  27.918  26.212  1.00  0.00     0.037 A 
ATOM     53  C   UNL A   1      42.480  28.302  28.098  1.00  0.00     0.037 A 
ATOM     54  C   UNL A   1      48.799  29.200  26.720  1.00  0.00     0.049 A 
ATOM     55  C   UNL A   1      43.415  29.473  28.239  1.00  0.00     0.074 A 
ATOM     56  C   UNL A   1      49.550  30.353  26.875  1.00  0.00     0.029 A 
ATOM     57  N   UNL A   1      47.515  29.499  27.150  1.00  0.00    -0.354 N 
ATOM     58  N   UNL A   1      44.682  29.566  27.918  1.00  0.00    -0.248 NA
ATOM     59  C   UNL A   1      42.847  30.704  28.803  1.00  0.00     0.031 C 
ATOM     60  C   UNL A   1      48.727  31.339  27.432  1.00  0.00     0.029 A 
ATOM     61  C   UNL A   1      47.453  30.814  27.581  1.00  0.00     0.049 A 
ATOM     62  H   UNL A   1      46.758  28.868  27.151  1.00  0.00     0.167 HD
ATOM     63  C   UNL A   1      45.054  30.870  28.210  1.00  0.00     0.074 A 
ATOM     64  C   UNL A   1      43.874  31.538  28.718  1.00  0.00     0.031 C 
ATOM     65  C   UNL A   1      46.265  31.464  28.073  1.00  0.00     0.037 A 
BRANCH  52  66
ATOM     66  C   UNL A   1      50.650  27.737  25.816  1.00  0.00     0.064 A 
ATOM     67  C   UNL A   1      51.633  27.397  26.758  1.00  0.00     0.173 A 
ATOM     68  C   UNL A   1      51.047  27.882  24.479  1.00  0.00     0.173 A 
ATOM     69  F   UNL A   1      51.308  27.259  28.053  1.00  0.00    -0.203 F 
ATOM     70  C   UNL A   1      52.964  27.241  26.383  1.00  0.00     0.198 A 
ATOM     71  C   UNL A   1      52.375  27.695  24.101  1.00  0.00     0.198 A 
ATOM     72  F   UNL A   1      50.148  28.202  23.536  1.00  0.00    -0.203 F 
ATOM     73  F   UNL A   1      53.893  26.968  27.309  1.00  0.00    -0.200 F 
ATOM     74  C   UNL A   1      53.333  27.383  25.054  1.00  0.00     0.200 A 
ATOM     75  F   UNL A   1      52.729  27.823  22.814  1.00  0.00    -0.200 F 
ATOM     76  F   UNL A   1      54.614  27.229  24.692  1.00  0.00    -0.200 F 
ENDBRANCH  52  66
BRANCH  53  77
ATOM     77  C   UNL A   1      41.055  28.415  28.502  1.00  0.00     0.064 A 
ATOM     78  C   UNL A   1      40.095  28.921  27.615  1.00  0.00     0.173 A 
ATOM     79  C   UNL A   1      40.626  28.036  29.781  1.00  0.00     0.173 A 
ATOM     80  F   UNL A   1      40.462  29.316  26.386  1.00  0.00    -0.203 F 
ATOM     81  C   UNL A   1      38.764  29.068  28.000  1.00  0.00     0.198 A 
ATOM     82  C   UNL A   1      39.290  28.157  30.157  1.00  0.00     0.198 A 
ATOM     83  F   UNL A   1      41.504  27.541  30.666  1.00  0.00    -0.203 F 
ATOM     84  F   UNL A   1      37.878  29.601  27.149  1.00  0.00    -0.200 F 
ATOM     85  C   UNL A   1      38.362  28.682  29.270  1.00  0.00     0.200 A 
ATOM     86  F   UNL A   1      38.902  27.772  31.380  1.00  0.00    -0.200 F 
ATOM     87  F   UNL A   1      37.083  28.824  29.640  1.00  0.00    -0.200 F 
ENDBRANCH  53  77
BRANCH  65  88
ATOM     88  C   UNL A   1      46.360  32.917  28.439  1.00  0.00     0.064 A 
ATOM     89  C   UNL A   1      46.188  33.930  27.485  1.00  0.00     0.173 A 
ATOM     90  C   UNL A   1      46.611  33.298  29.766  1.00  0.00     0.173 A 
ATOM     91  F   UNL A   1      45.960  33.617  26.201  1.00  0.00    -0.203 F 
ATOM     92  C   UNL A   1      46.302  35.272  27.839  1.00  0.00     0.198 A 
ATOM     93  C   UNL A   1      46.694  34.640  30.122  1.00  0.00     0.198 A 
ATOM     94  F   UNL A   1      46.775  32.367  30.718  1.00  0.00    -0.203 F 
ATOM     95  F   UNL A   1      46.193  36.222  26.900  1.00  0.00    -0.200 F 
ATOM     96  C   UNL A   1      46.549  35.626  29.157  1.00  0.00     0.200 A 
ATOM     97  F   UNL A   1      46.921  34.981  31.398  1.00  0.00    -0.200 F 
ATOM     98  F   UNL A   1      46.659  36.918  29.496  1.00  0.00    -0.200 F 
ENDBRANCH  65  88
ENDBRANCH  39  40
ENDBRANCH  31  34
ENDBRANCH  29  30
ENDBRANCH  28  29
ENDBRANCH  27  28
ENDBRANCH  26  27
ENDBRANCH  25  26
ENDBRANCH   1  25
TORSDOF 19
ENDMDL
MODEL 2
REMARK VINA RESULT:      -9.6      4.007      9.957
REMARK SMILES CNC(=O)[C@H]1CCCCN1C(=O)NCCOCC(=O)NCCCCCCNC(=O)c1ccc(-c2c3nc(c(-c4c(F)c(F)c(F)c(F)c4F)c4ccc([nH]4)c(-c4c(F)c(F)c(F)c(F)c4F)c4nc(c(-c5c(F)c(F)c(F)c(F)c5F)c5ccc2[nH]5)C=C4)C=C3)cc1
REMARK SMILES IDX 21 1 20 2 18 3 19 4 17 6 16 7 15 8 14 9 13 10 11 11 12 12
REMARK SMILES IDX 10 14 5 15 6 16 7 17 9 18 8 19 3 20 1 21 2 22 4 24 22 25
REMARK SMILES IDX 23 26 24 27 25 28 26 29 27 30 28 31 29 33 30 34 31 35 92 36
REMARK SMILES IDX 32 37 91 38 33 39 34 40 35 41 85 42 36 43 90 44 84 45 86 46
REMARK SMILES IDX 37 47 89 48 83 49 82 50 38 52 70 53 50 54 69 55 51 56 54 57
REMARK SMILES IDX 68 58 87 59 52 60 53 61 67 63 88 64 55 65 39 66 40 67 48 68
REMARK SMILES IDX 41 69 42 70 46 71 49 72 43 73 44 74 47 75 45 76 71 77 72 78
REMARK SMILES IDX 80 79 73 80 74 81 78 82 81 83 75 84 76 85 79 86 77 87 56 88
REMARK SMILES IDX 57 89 65 90 58 91 59 92 63 93 66 94 60 95 61 96 64 97 62 98
REMARK H PARENT 20 5 13 13 2 23 27 32 86 51 54 62
REMARK Flexibility Score: inf
ROOT
ATOM      1  C   UNL A   1      38.117  34.083  29.345  1.00  0.00     0.116 C 
ENDROOT
BRANCH   1   2
ATOM      2  N   UNL A   1      36.763  34.584  29.454  1.00  0.00    -0.354 N 
ATOM      3  C   UNL A   1      35.640  34.104  28.848  1.00  0.00     0.245 C 
ATOM      4  O   UNL A   1      34.555  34.628  29.098  1.00  0.00    -0.272 OA
ATOM      5  H   UNL A   1      36.639  35.367  30.037  1.00  0.00     0.163 HD
BRANCH   3   6
ATOM      6  C   UNL A   1      35.764  32.899  27.911  1.00  0.00     0.260 C 
BRANCH   6   7
ATOM      7  O   UNL A   1      34.552  32.340  27.426  1.00  0.00    -0.370 OA
BRANCH   7   8
ATOM      8  C   UNL A   1      34.128  31.145  28.097  1.00  0.00     0.182 C 
BRANCH   8   9
ATOM      9  C   UNL A   1      33.741  30.027  27.121  1.00  0.00     0.146 C 
BRANCH   9  10
ATOM     10  N   UNL A   1      32.686  29.173  27.647  1.00  0.00    -0.336 N 
ATOM     11  C   UNL A   1      32.007  28.083  27.265  1.00  0.00     0.318 C 
ATOM     12  O   UNL A   1      31.129  27.735  28.063  1.00  0.00    -0.249 OA
ATOM     13  H   UNL A   1      32.388  29.485  28.533  1.00  0.00     0.165 HD
BRANCH  11  14
ATOM     14  N   UNL A   1      32.283  27.361  26.138  1.00  0.00    -0.313 N 
ATOM     15  C   UNL A   1      31.274  27.438  25.051  1.00  0.00     0.176 C 
ATOM     16  C   UNL A   1      30.455  26.131  25.072  1.00  0.00     0.035 C 
ATOM     17  C   UNL A   1      31.338  24.877  25.060  1.00  0.00     0.004 C 
ATOM     18  C   UNL A   1      33.221  26.255  25.976  1.00  0.00     0.122 C 
ATOM     19  C   UNL A   1      32.457  24.942  26.105  1.00  0.00     0.022 C 
BRANCH  15  20
ATOM     20  C   UNL A   1      31.823  27.767  23.634  1.00  0.00     0.242 C 
ATOM     21  C   UNL A   1      29.629  28.785  22.832  1.00  0.00     0.142 C 
ATOM     22  N   UNL A   1      30.994  28.331  22.702  1.00  0.00    -0.357 N 
ATOM     23  H   UNL A   1      31.387  28.444  21.807  1.00  0.00     0.163 HD
ATOM     24  O   UNL A   1      32.973  27.516  23.269  1.00  0.00    -0.273 OA
ENDBRANCH  15  20
ENDBRANCH  11  14
ENDBRANCH   9  10
ENDBRANCH   8   9
ENDBRANCH   7   8
ENDBRANCH   6   7
ENDBRANCH   3   6
ENDBRANCH   1   2
BRANCH   1  25
ATOM     25  C   UNL A   1      38.965  34.465  30.554  1.00  0.00     0.021 C 
BRANCH  25  26
ATOM     26  C   UNL A   1      38.172  34.715  31.842  1.00  0.00     0.002 C 
BRANCH  26  27
ATOM     27  C   UNL A   1      38.865  34.289  33.141  1.00  0.00     0.002 C 
BRANCH  27  28
ATOM     28  C   UNL A   1      37.932  33.912  34.293  1.00  0.00     0.021 C 
BRANCH  28  29
ATOM     29  C   UNL A   1      37.852  32.422  34.598  1.00  0.00     0.116 C 
BRANCH  29  30
ATOM     30  N   UNL A   1      36.707  31.788  33.970  1.00  0.00    -0.352 N 
ATOM     31  C   UNL A   1      36.636  31.094  32.792  1.00  0.00     0.251 C 
ATOM     32  H   UNL A   1      35.859  31.870  34.462  1.00  0.00     0.163 HD
ATOM     33  O   UNL A   1      35.535  30.769  32.340  1.00  0.00    -0.269 OA
BRANCH  31  34
ATOM     34  C   UNL A   1      37.862  30.741  32.045  1.00  0.00     0.039 A 
ATOM     35  C   UNL A   1      37.886  30.954  30.663  1.00  0.00     0.014 A 
ATOM     36  C   UNL A   1      38.962  30.156  32.679  1.00  0.00     0.014 A 
ATOM     37  C   UNL A   1      39.018  30.605  29.924  1.00  0.00     0.010 A 
ATOM     38  C   UNL A   1      40.119  29.876  31.954  1.00  0.00     0.010 A 
ATOM     39  C   UNL A   1      40.149  30.074  30.566  1.00  0.00    -0.014 A 
BRANCH  39  40
ATOM     40  C   UNL A   1      41.345  29.672  29.782  1.00  0.00     0.031 A 
ATOM     41  C   UNL A   1      41.421  28.297  29.175  1.00  0.00     0.074 A 
ATOM     42  C   UNL A   1      42.368  30.533  29.632  1.00  0.00     0.049 A 
ATOM     43  N   UNL A   1      42.375  27.758  28.458  1.00  0.00    -0.248 NA
ATOM     44  C   UNL A   1      40.284  27.399  29.428  1.00  0.00     0.031 C 
ATOM     45  C   UNL A   1      42.436  31.874  30.212  1.00  0.00     0.029 A 
ATOM     46  N   UNL A   1      43.550  30.407  28.944  1.00  0.00    -0.354 N 
ATOM     47  C   UNL A   1      41.958  26.461  28.187  1.00  0.00     0.074 A 
ATOM     48  C   UNL A   1      40.695  26.272  28.865  1.00  0.00     0.031 C 
ATOM     49  C   UNL A   1      43.583  32.460  29.830  1.00  0.00     0.029 A 
ATOM     50  C   UNL A   1      44.340  31.528  29.000  1.00  0.00     0.049 A 
ATOM     51  H   UNL A   1      43.805  29.591  28.457  1.00  0.00     0.167 HD
ATOM     52  C   UNL A   1      42.558  25.521  27.418  1.00  0.00     0.037 A 
ATOM     53  C   UNL A   1      45.536  31.776  28.433  1.00  0.00     0.037 A 
ATOM     54  C   UNL A   1      43.802  25.718  26.721  1.00  0.00     0.049 A 
ATOM     55  C   UNL A   1      46.172  30.723  27.566  1.00  0.00     0.074 A 
ATOM     56  C   UNL A   1      44.472  24.845  25.882  1.00  0.00     0.029 A 
ATOM     57  N   UNL A   1      44.561  26.878  26.779  1.00  0.00    -0.354 N 
ATOM     58  N   UNL A   1      45.737  29.524  27.265  1.00  0.00    -0.248 NA
ATOM     59  C   UNL A   1      47.458  31.067  26.947  1.00  0.00     0.031 C 
ATOM     60  C   UNL A   1      45.654  25.465  25.459  1.00  0.00     0.029 A 
ATOM     61  C   UNL A   1      45.697  26.741  25.999  1.00  0.00     0.049 A 
ATOM     62  H   UNL A   1      44.326  27.682  27.298  1.00  0.00     0.167 HD
ATOM     63  C   UNL A   1      46.677  28.984  26.398  1.00  0.00     0.074 A 
ATOM     64  C   UNL A   1      47.697  29.994  26.208  1.00  0.00     0.031 C 
ATOM     65  C   UNL A   1      46.697  27.762  25.813  1.00  0.00     0.037 A 
BRANCH  52  66
ATOM     66  C   UNL A   1      41.868  24.194  27.284  1.00  0.00     0.064 A 
ATOM     67  C   UNL A   1      42.393  23.031  27.870  1.00  0.00     0.173 A 
ATOM     68  C   UNL A   1      40.658  24.085  26.583  1.00  0.00     0.173 A 
ATOM     69  F   UNL A   1      43.555  23.079  28.540  1.00  0.00    -0.203 F 
ATOM     70  C   UNL A   1      41.750  21.804  27.732  1.00  0.00     0.198 A 
ATOM     71  C   UNL A   1      40.001  22.861  26.473  1.00  0.00     0.198 A 
ATOM     72  F   UNL A   1      40.108  25.165  26.008  1.00  0.00    -0.203 F 
ATOM     73  F   UNL A   1      42.299  20.700  28.255  1.00  0.00    -0.200 F 
ATOM     74  C   UNL A   1      40.552  21.721  27.039  1.00  0.00     0.200 A 
ATOM     75  F   UNL A   1      38.837  22.784  25.812  1.00  0.00    -0.200 F 
ATOM     76  F   UNL A   1      39.932  20.540  26.910  1.00  0.00    -0.200 F 
ENDBRANCH  52  66
BRANCH  53  77
ATOM     77  C   UNL A   1      46.190  33.097  28.626  1.00  0.00     0.064 A 
ATOM     78  C   UNL A   1      45.909  34.169  27.767  1.00  0.00     0.173 A 
ATOM     79  C   UNL A   1      47.115  33.311  29.656  1.00  0.00     0.173 A 
ATOM     80  F   UNL A   1      45.046  34.006  26.754  1.00  0.00    -0.203 F 
ATOM     81  C   UNL A   1      46.548  35.398  27.916  1.00  0.00     0.198 A 
ATOM     82  C   UNL A   1      47.734  34.548  29.822  1.00  0.00     0.198 A 
ATOM     83  F   UNL A   1      47.415  32.318  30.507  1.00  0.00    -0.203 F 
ATOM     84  F   UNL A   1      46.298  36.390  27.052  1.00  0.00    -0.200 F 
ATOM     85  C   UNL A   1      47.457  35.587  28.947  1.00  0.00     0.200 A 
ATOM     86  F   UNL A   1      48.602  34.732  30.826  1.00  0.00    -0.200 F 
ATOM     87  F   UNL A   1      48.072  36.769  29.090  1.00  0.00    -0.200 F 
ENDBRANCH  53  77
BRANCH  65  88
ATOM     88  C   UNL A   1      47.836  27.468  24.881  1.00  0.00     0.064 A 
ATOM     89  C   UNL A   1      47.753  27.737  23.508  1.00  0.00     0.173 A 
ATOM     90  C   UNL A   1      49.032  26.923  25.373  1.00  0.00     0.173 A 
ATOM     91  F   UNL A   1      46.626  28.245  22.986  1.00  0.00    -0.203 F 
ATOM     92  C   UNL A   1      48.812  27.437  22.655  1.00  0.00     0.198 A 
ATOM     93  C   UNL A   1      50.099  26.653  24.523  1.00  0.00     0.198 A 
ATOM     94  F   UNL A   1      49.165  26.655  26.681  1.00  0.00    -0.203 F 
ATOM     95  F   UNL A   1      48.690  27.648  21.337  1.00  0.00    -0.200 F 
ATOM     96  C   UNL A   1      49.986  26.900  23.164  1.00  0.00     0.200 A 
ATOM     97  F   UNL A   1      51.237  26.146  25.019  1.00  0.00    -0.200 F 
ATOM     98  F   UNL A   1      51.004  26.611  22.341  1.00  0.00    -0.200 F 
ENDBRANCH  65  88
ENDBRANCH  39  40
ENDBRANCH  31  34
ENDBRANCH  29  30
ENDBRANCH  28  29
ENDBRANCH  27  28
ENDBRANCH  26  27
ENDBRANCH  25  26
ENDBRANCH   1  25
TORSDOF 19
ENDMDL
MODEL 3
REMARK VINA RESULT:      -9.5      1.620      2.340
REMARK SMILES CNC(=O)[C@H]1CCCCN1C(=O)NCCOCC(=O)NCCCCCCNC(=O)c1ccc(-c2c3nc(c(-c4c(F)c(F)c(F)c(F)c4F)c4ccc([nH]4)c(-c4c(F)c(F)c(F)c(F)c4F)c4nc(c(-c5c(F)c(F)c(F)c(F)c5F)c5ccc2[nH]5)C=C4)C=C3)cc1
REMARK SMILES IDX 21 1 20 2 18 3 19 4 17 6 16 7 15 8 14 9 13 10 11 11 12 12
REMARK SMILES IDX 10 14 5 15 6 16 7 17 9 18 8 19 3 20 1 21 2 22 4 24 22 25
REMARK SMILES IDX 23 26 24 27 25 28 26 29 27 30 28 31 29 33 30 34 31 35 92 36
REMARK SMILES IDX 32 37 91 38 33 39 34 40 35 41 85 42 36 43 90 44 84 45 86 46
REMARK SMILES IDX 37 47 89 48 83 49 82 50 38 52 70 53 50 54 69 55 51 56 54 57
REMARK SMILES IDX 68 58 87 59 52 60 53 61 67 63 88 64 55 65 39 66 40 67 48 68
REMARK SMILES IDX 41 69 42 70 46 71 49 72 43 73 44 74 47 75 45 76 71 77 72 78
REMARK SMILES IDX 80 79 73 80 74 81 78 82 81 83 75 84 76 85 79 86 77 87 56 88
REMARK SMILES IDX 57 89 65 90 58 91 59 92 63 93 66 94 60 95 61 96 64 97 62 98
REMARK H PARENT 20 5 13 13 2 23 27 32 86 51 54 62
REMARK Flexibility Score: inf
ROOT
ATOM      1  C   UNL A   1      38.625  22.692  26.138  1.00  0.00     0.116 C 
ENDROOT
BRANCH   1   2
ATOM      2  N   UNL A   1      37.897  21.577  25.571  1.00  0.00    -0.354 N 
ATOM      3  C   UNL A   1      36.546  21.417  25.481  1.00  0.00     0.245 C 
ATOM      4  O   UNL A   1      36.098  20.419  24.918  1.00  0.00    -0.272 OA
ATOM      5  H   UNL A   1      38.445  20.845  25.207  1.00  0.00     0.163 HD
BRANCH   3   6
ATOM      6  C   UNL A   1      35.633  22.509  26.047  1.00  0.00     0.260 C 
BRANCH   6   7
ATOM      7  O   UNL A   1      35.082  23.427  25.116  1.00  0.00    -0.370 OA
BRANCH   7   8
ATOM      8  C   UNL A   1      33.655  23.557  25.169  1.00  0.00     0.182 C 
BRANCH   8   9
ATOM      9  C   UNL A   1      33.197  24.655  26.138  1.00  0.00     0.146 C 
BRANCH   9  10
ATOM     10  N   UNL A   1      31.794  24.997  25.964  1.00  0.00    -0.336 N 
ATOM     11  C   UNL A   1      31.068  25.900  25.291  1.00  0.00     0.318 C 
ATOM     12  O   UNL A   1      29.853  25.828  25.507  1.00  0.00    -0.249 OA
ATOM     13  H   UNL A   1      31.216  24.397  26.489  1.00  0.00     0.165 HD
BRANCH  11  14
ATOM     14  N   UNL A   1      31.586  26.787  24.389  1.00  0.00    -0.313 N 
ATOM     15  C   UNL A   1      32.088  28.068  24.947  1.00  0.00     0.176 C 
ATOM     16  C   UNL A   1      31.040  29.158  24.646  1.00  0.00     0.035 C 
ATOM     17  C   UNL A   1      30.637  29.201  23.168  1.00  0.00     0.004 C 
ATOM     18  C   UNL A   1      31.399  26.823  22.942  1.00  0.00     0.122 C 
ATOM     19  C   UNL A   1      30.285  27.814  22.619  1.00  0.00     0.022 C 
BRANCH  15  20
ATOM     20  C   UNL A   1      33.520  28.488  24.509  1.00  0.00     0.242 C 
ATOM     21  C   UNL A   1      34.252  29.096  26.873  1.00  0.00     0.142 C 
ATOM     22  N   UNL A   1      34.396  28.974  25.441  1.00  0.00    -0.357 N 
ATOM     23  H   UNL A   1      35.257  29.289  25.081  1.00  0.00     0.163 HD
ATOM     24  O   UNL A   1      33.919  28.449  23.343  1.00  0.00    -0.273 OA
ENDBRANCH  15  20
ENDBRANCH  11  14
ENDBRANCH   9  10
ENDBRANCH   8   9
ENDBRANCH   7   8
ENDBRANCH   6   7
ENDBRANCH   3   6
ENDBRANCH   1   2
BRANCH   1  25
ATOM     25  C   UNL A   1      40.104  22.367  26.333  1.00  0.00     0.021 C 
BRANCH  25  26
ATOM     26  C   UNL A   1      40.382  21.023  27.014  1.00  0.00     0.002 C 
BRANCH  26  27
ATOM     27  C   UNL A   1      41.011  19.946  26.123  1.00  0.00     0.002 C 
BRANCH  27  28
ATOM     28  C   UNL A   1      42.523  20.060  25.919  1.00  0.00     0.021 C 
BRANCH  28  29
ATOM     29  C   UNL A   1      43.275  18.736  25.908  1.00  0.00     0.116 C 
BRANCH  29  30
ATOM     30  N   UNL A   1      44.138  18.599  24.748  1.00  0.00    -0.352 N 
ATOM     31  C   UNL A   1      44.859  19.555  24.083  1.00  0.00     0.251 C 
ATOM     32  H   UNL A   1      44.215  17.687  24.387  1.00  0.00     0.163 HD
ATOM     33  O   UNL A   1      45.406  19.274  23.014  1.00  0.00    -0.269 OA
BRANCH  31  34
ATOM     34  C   UNL A   1      44.978  20.926  24.624  1.00  0.00     0.039 A 
ATOM     35  C   UNL A   1      44.511  21.992  23.849  1.00  0.00     0.014 A 
ATOM     36  C   UNL A   1      45.591  21.176  25.856  1.00  0.00     0.014 A 
ATOM     37  C   UNL A   1      44.634  23.301  24.318  1.00  0.00     0.010 A 
ATOM     38  C   UNL A   1      45.648  22.475  26.356  1.00  0.00     0.010 A 
ATOM     39  C   UNL A   1      45.193  23.553  25.582  1.00  0.00    -0.014 A 
BRANCH  39  40
ATOM     40  C   UNL A   1      45.356  24.944  26.074  1.00  0.00     0.031 A 
ATOM     41  C   UNL A   1      46.699  25.618  25.997  1.00  0.00     0.074 A 
ATOM     42  C   UNL A   1      44.304  25.594  26.605  1.00  0.00     0.049 A 
ATOM     43  N   UNL A   1      47.044  26.825  26.372  1.00  0.00    -0.248 NA
ATOM     44  C   UNL A   1      47.808  24.823  25.450  1.00  0.00     0.031 C 
ATOM     45  C   UNL A   1      42.964  25.034  26.780  1.00  0.00     0.029 A 
ATOM     46  N   UNL A   1      44.197  26.872  27.097  1.00  0.00    -0.354 N 
ATOM     47  C   UNL A   1      48.406  26.926  26.116  1.00  0.00     0.074 A 
ATOM     48  C   UNL A   1      48.838  25.641  25.612  1.00  0.00     0.031 C 
ATOM     49  C   UNL A   1      42.162  25.971  27.310  1.00  0.00     0.029 A 
ATOM     50  C   UNL A   1      42.935  27.189  27.533  1.00  0.00     0.049 A 
ATOM     51  H   UNL A   1      44.954  27.500  27.133  1.00  0.00     0.167 HD
ATOM     52  C   UNL A   1      49.218  28.000  26.260  1.00  0.00     0.037 A 
ATOM     53  C   UNL A   1      42.456  28.339  28.046  1.00  0.00     0.037 A 
ATOM     54  C   UNL A   1      48.783  29.286  26.736  1.00  0.00     0.049 A 
ATOM     55  C   UNL A   1      43.375  29.524  28.175  1.00  0.00     0.074 A 
ATOM     56  C   UNL A   1      49.517  30.451  26.877  1.00  0.00     0.029 A 
ATOM     57  N   UNL A   1      47.489  29.578  27.142  1.00  0.00    -0.354 N 
ATOM     58  N   UNL A   1      44.645  29.626  27.870  1.00  0.00    -0.248 NA
ATOM     59  C   UNL A   1      42.785  30.760  28.706  1.00  0.00     0.031 C 
ATOM     60  C   UNL A   1      48.675  31.439  27.402  1.00  0.00     0.029 A 
ATOM     61  C   UNL A   1      47.406  30.901  27.545  1.00  0.00     0.049 A 
ATOM     62  H   UNL A   1      46.740  28.939  27.145  1.00  0.00     0.167 HD
ATOM     63  C   UNL A   1      44.998  30.941  28.140  1.00  0.00     0.074 A 
ATOM     64  C   UNL A   1      43.803  31.604  28.618  1.00  0.00     0.031 C 
ATOM     65  C   UNL A   1      46.204  31.547  28.007  1.00  0.00     0.037 A 
BRANCH  52  66
ATOM     66  C   UNL A   1      50.663  27.828  25.887  1.00  0.00     0.064 A 
ATOM     67  C   UNL A   1      51.641  27.543  26.853  1.00  0.00     0.173 A 
ATOM     68  C   UNL A   1      51.073  27.928  24.550  1.00  0.00     0.173 A 
ATOM     69  F   UNL A   1      51.303  27.451  28.149  1.00  0.00    -0.203 F 
ATOM     70  C   UNL A   1      52.979  27.395  26.499  1.00  0.00     0.198 A 
ATOM     71  C   UNL A   1      52.409  27.748  24.195  1.00  0.00     0.198 A 
ATOM     72  F   UNL A   1      50.180  28.194  23.585  1.00  0.00    -0.203 F 
ATOM     73  F   UNL A   1      53.901  27.176  27.446  1.00  0.00    -0.200 F 
ATOM     74  C   UNL A   1      53.361  27.491  25.169  1.00  0.00     0.200 A 
ATOM     75  F   UNL A   1      52.775  27.832  22.907  1.00  0.00    -0.200 F 
ATOM     76  F   UNL A   1      54.649  27.345  24.829  1.00  0.00    -0.200 F 
ENDBRANCH  52  66
BRANCH  53  77
ATOM     77  C   UNL A   1      41.025  28.443  28.428  1.00  0.00     0.064 A 
ATOM     78  C   UNL A   1      40.074  28.939  27.525  1.00  0.00     0.173 A 
ATOM     79  C   UNL A   1      40.579  28.065  29.702  1.00  0.00     0.173 A 
ATOM     80  F   UNL A   1      40.456  29.333  26.301  1.00  0.00    -0.203 F 
ATOM     81  C   UNL A   1      38.737  29.078  27.889  1.00  0.00     0.198 A 
ATOM     82  C   UNL A   1      39.237  28.178  30.057  1.00  0.00     0.198 A 
ATOM     83  F   UNL A   1      41.448  27.580  30.602  1.00  0.00    -0.203 F 
ATOM     84  F   UNL A   1      37.859  29.601  27.023  1.00  0.00    -0.200 F 
ATOM     85  C   UNL A   1      38.319  28.692  29.155  1.00  0.00     0.200 A 
ATOM     86  F   UNL A   1      38.834  27.794  31.276  1.00  0.00    -0.200 F 
ATOM     87  F   UNL A   1      37.033  28.826  29.506  1.00  0.00    -0.200 F 
ENDBRANCH  53  77
BRANCH  65  88
ATOM     88  C   UNL A   1      46.276  33.008  28.345  1.00  0.00     0.064 A 
ATOM     89  C   UNL A   1      46.041  33.999  27.381  1.00  0.00     0.173 A 
ATOM     90  C   UNL A   1      46.569  33.419  29.654  1.00  0.00     0.173 A 
ATOM     91  F   UNL A   1      45.770  33.657  26.113  1.00  0.00    -0.203 F 
ATOM     92  C   UNL A   1      46.134  35.349  27.708  1.00  0.00     0.198 A 
ATOM     93  C   UNL A   1      46.632  34.769  29.983  1.00  0.00     0.198 A 
ATOM     94  F   UNL A   1      46.794  32.509  30.614  1.00  0.00    -0.203 F 
ATOM     95  F   UNL A   1      45.964  36.280  26.758  1.00  0.00    -0.200 F 
ATOM     96  C   UNL A   1      46.425  35.733  29.009  1.00  0.00     0.200 A 
ATOM     97  F   UNL A   1      46.900  35.138  31.244  1.00  0.00    -0.200 F 
ATOM     98  F   UNL A   1      46.515  37.034  29.321  1.00  0.00    -0.200 F 
ENDBRANCH  65  88
ENDBRANCH  39  40
ENDBRANCH  31  34
ENDBRANCH  29  30
ENDBRANCH  28  29
ENDBRANCH  27  28
ENDBRANCH  26  27
ENDBRANCH  25  26
ENDBRANCH   1  25
TORSDOF 19
ENDMDL
