MODEL 1
REMARK VINA RESULT:     -12.1      0.000      0.000
REMARK SMILES CC(C)(C)C[N@H+]1[C@@H](C(=O)NCCCCCCNC(=O)c2ccc(-c3c4nc(c(-c5c(F)c(F)c(F)c(F)c5F)c5ccc([nH]5)c(-c5c(F)c(F)c(F)c(F)c5F)c5nc(c(-c6c(F)c(F)c(F)c(F)c6F)c6ccc3[nH]6)C=C5)C=C4)cc2)CC[C@H]2CCCC[C@@H]21
REMARK SMILES IDX 13 1 12 2 11 3 10 4 8 5 9 6 7 8 6 9 90 10 83 12 85 13 89 14
REMARK SMILES IDX 84 15 86 16 88 17 87 18 5 19 2 20 1 21 3 22 4 23 14 24 15 25
REMARK SMILES IDX 16 26 17 27 18 28 19 30 20 31 21 32 82 33 22 34 81 35 23 36
REMARK SMILES IDX 24 37 25 38 75 39 26 40 80 41 74 42 76 43 27 44 79 45 73 46
REMARK SMILES IDX 72 47 28 49 60 50 40 51 59 52 41 53 44 54 58 55 77 56 42 57
REMARK SMILES IDX 43 58 57 60 78 61 45 62 29 63 30 64 38 65 31 66 32 67 36 68
REMARK SMILES IDX 39 69 33 70 34 71 37 72 35 73 61 74 62 75 70 76 63 77 64 78
REMARK SMILES IDX 68 79 71 80 65 81 66 82 69 83 67 84 46 85 47 86 55 87 48 88
REMARK SMILES IDX 49 89 53 90 56 91 50 92 51 93 54 94 52 95
REMARK H PARENT 10 7 6 11 17 29 76 48 44 59
REMARK Flexibility Score: inf
ROOT
ATOM      1  C   UNL A   1      32.678  29.952  27.029  1.00  0.00     0.002 C 
ENDROOT
BRANCH   1   2
ATOM      2  C   UNL A   1      33.473  28.964  26.155  1.00  0.00     0.021 C 
BRANCH   2   3
ATOM      3  C   UNL A   1      33.245  27.461  26.395  1.00  0.00     0.116 C 
BRANCH   3   4
ATOM      4  N   UNL A   1      31.872  27.007  26.308  1.00  0.00    -0.351 N 
ATOM      5  C   UNL A   1      31.358  25.751  26.170  1.00  0.00     0.278 C 
ATOM      6  O   UNL A   1      30.173  25.616  26.501  1.00  0.00    -0.268 OA
ATOM      7  H   UNL A   1      31.199  27.723  26.355  1.00  0.00     0.163 HD
BRANCH   5   8
ATOM      8  C   UNL A   1      32.228  24.549  25.765  1.00  0.00     0.274 C 
ATOM      9  N   UNL A   1      33.086  24.723  24.550  1.00  0.00    -0.322 N 
ATOM     10  C   UNL A   1      34.109  23.613  24.560  1.00  0.00     0.187 C 
ATOM     11  H   UNL A   1      33.475  25.663  24.621  1.00  0.00     0.349 HD
ATOM     12  C   UNL A   1      31.422  23.225  25.722  1.00  0.00     0.076 C 
ATOM     13  C   UNL A   1      33.746  22.377  25.433  1.00  0.00     0.048 C 
ATOM     14  C   UNL A   1      35.484  24.118  25.031  1.00  0.00     0.065 C 
ATOM     15  C   UNL A   1      32.274  22.028  25.260  1.00  0.00     0.016 C 
ATOM     16  C   UNL A   1      34.719  21.239  25.122  1.00  0.00     0.010 C 
ATOM     17  C   UNL A   1      36.544  23.014  24.889  1.00  0.00     0.006 C 
ATOM     18  C   UNL A   1      36.137  21.673  25.509  1.00  0.00     0.001 C 
BRANCH   9  19
ATOM     19  C   UNL A   1      32.387  24.695  23.217  1.00  0.00     0.269 C 
BRANCH  19  20
ATOM     20  C   UNL A   1      32.337  25.942  22.271  1.00  0.00     0.011 C 
ATOM     21  C   UNL A   1      32.528  25.579  20.790  1.00  0.00     0.017 C 
ATOM     22  C   UNL A   1      33.492  26.908  22.634  1.00  0.00     0.017 C 
ATOM     23  C   UNL A   1      31.045  26.727  22.494  1.00  0.00     0.017 C 
ENDBRANCH  19  20
ENDBRANCH   9  19
ENDBRANCH   5   8
ENDBRANCH   3   4
ENDBRANCH   2   3
ENDBRANCH   1   2
BRANCH   1  24
ATOM     24  C   UNL A   1      31.527  30.681  26.328  1.00  0.00     0.002 C 
BRANCH  24  25
ATOM     25  C   UNL A   1      31.422  32.183  26.590  1.00  0.00     0.021 C 
BRANCH  25  26
ATOM     26  C   UNL A   1      32.647  32.805  27.251  1.00  0.00     0.116 C 
BRANCH  26  27
ATOM     27  N   UNL A   1      32.422  34.201  27.595  1.00  0.00    -0.352 N 
ATOM     28  C   UNL A   1      32.975  34.919  28.630  1.00  0.00     0.251 C 
ATOM     29  H   UNL A   1      31.797  34.693  27.016  1.00  0.00     0.163 HD
ATOM     30  O   UNL A   1      32.528  36.012  28.952  1.00  0.00    -0.269 OA
BRANCH  28  31
ATOM     31  C   UNL A   1      34.123  34.346  29.364  1.00  0.00     0.039 A 
ATOM     32  C   UNL A   1      33.895  33.629  30.540  1.00  0.00     0.014 A 
ATOM     33  C   UNL A   1      35.421  34.512  28.873  1.00  0.00     0.014 A 
ATOM     34  C   UNL A   1      34.971  33.032  31.202  1.00  0.00     0.010 A 
ATOM     35  C   UNL A   1      36.484  33.866  29.498  1.00  0.00     0.010 A 
ATOM     36  C   UNL A   1      36.271  33.128  30.674  1.00  0.00    -0.014 A 
BRANCH  36  37
ATOM     37  C   UNL A   1      37.425  32.485  31.351  1.00  0.00     0.031 A 
ATOM     38  C   UNL A   1      38.140  31.342  30.687  1.00  0.00     0.074 A 
ATOM     39  C   UNL A   1      37.792  32.889  32.582  1.00  0.00     0.049 A 
ATOM     40  N   UNL A   1      39.131  30.612  31.134  1.00  0.00    -0.248 NA
ATOM     41  C   UNL A   1      37.659  30.948  29.354  1.00  0.00     0.031 C 
ATOM     42  C   UNL A   1      37.149  33.955  33.349  1.00  0.00     0.029 A 
ATOM     43  N   UNL A   1      38.792  32.439  33.409  1.00  0.00    -0.354 N 
ATOM     44  C   UNL A   1      39.381  29.668  30.146  1.00  0.00     0.074 A 
ATOM     45  C   UNL A   1      38.406  29.883  29.099  1.00  0.00     0.031 C 
ATOM     46  C   UNL A   1      37.781  34.091  34.527  1.00  0.00     0.029 A 
ATOM     47  C   UNL A   1      38.852  33.102  34.609  1.00  0.00     0.049 A 
ATOM     48  H   UNL A   1      39.408  31.711  33.164  1.00  0.00     0.167 HD
ATOM     49  C   UNL A   1      40.351  28.725  30.103  1.00  0.00     0.037 A 
ATOM     50  C   UNL A   1      39.679  32.929  35.659  1.00  0.00     0.037 A 
ATOM     51  C   UNL A   1      41.336  28.530  31.134  1.00  0.00     0.049 A 
ATOM     52  C   UNL A   1      40.750  31.875  35.588  1.00  0.00     0.074 A 
ATOM     53  C   UNL A   1      42.398  27.643  31.156  1.00  0.00     0.029 A 
ATOM     54  N   UNL A   1      41.379  29.236  32.327  1.00  0.00    -0.354 N 
ATOM     55  N   UNL A   1      41.022  31.036  34.617  1.00  0.00    -0.248 NA
ATOM     56  C   UNL A   1      41.635  31.748  36.754  1.00  0.00     0.031 C 
ATOM     57  C   UNL A   1      43.059  27.782  32.382  1.00  0.00     0.029 A 
ATOM     58  C   UNL A   1      42.437  28.789  33.102  1.00  0.00     0.049 A 
ATOM     59  H   UNL A   1      40.751  29.949  32.585  1.00  0.00     0.167 HD
ATOM     60  C   UNL A   1      42.123  30.304  35.042  1.00  0.00     0.074 A 
ATOM     61  C   UNL A   1      42.478  30.806  36.353  1.00  0.00     0.031 C 
ATOM     62  C   UNL A   1      42.780  29.306  34.403  1.00  0.00     0.037 A 
BRANCH  49  63
ATOM     63  C   UNL A   1      40.396  27.833  28.897  1.00  0.00     0.064 A 
ATOM     64  C   UNL A   1      39.650  26.646  28.832  1.00  0.00     0.173 A 
ATOM     65  C   UNL A   1      41.171  28.182  27.781  1.00  0.00     0.173 A 
ATOM     66  F   UNL A   1      38.902  26.261  29.878  1.00  0.00    -0.203 F 
ATOM     67  C   UNL A   1      39.702  25.828  27.707  1.00  0.00     0.198 A 
ATOM     68  C   UNL A   1      41.197  27.375  26.646  1.00  0.00     0.198 A 
ATOM     69  F   UNL A   1      41.900  29.308  27.788  1.00  0.00    -0.203 F 
ATOM     70  F   UNL A   1      39.020  24.673  27.688  1.00  0.00    -0.200 F 
ATOM     71  C   UNL A   1      40.469  26.195  26.613  1.00  0.00     0.200 A 
ATOM     72  F   UNL A   1      41.929  27.739  25.584  1.00  0.00    -0.200 F 
ATOM     73  F   UNL A   1      40.514  25.409  25.528  1.00  0.00    -0.200 F 
ENDBRANCH  49  63
BRANCH  50  74
ATOM     74  C   UNL A   1      39.546  33.796  36.859  1.00  0.00     0.064 A 
ATOM     75  C   UNL A   1      38.776  33.389  37.958  1.00  0.00     0.173 A 
ATOM     76  C   UNL A   1      40.180  35.044  36.933  1.00  0.00     0.173 A 
ATOM     77  F   UNL A   1      38.133  32.213  37.925  1.00  0.00    -0.203 F 
ATOM     78  C   UNL A   1      38.630  34.205  39.077  1.00  0.00     0.198 A 
ATOM     79  C   UNL A   1      40.055  35.848  38.063  1.00  0.00     0.198 A 
ATOM     80  F   UNL A   1      40.931  35.478  35.910  1.00  0.00    -0.203 F 
ATOM     81  F   UNL A   1      37.854  33.811  40.095  1.00  0.00    -0.200 F 
ATOM     82  C   UNL A   1      39.274  35.432  39.132  1.00  0.00     0.200 A 
ATOM     83  F   UNL A   1      40.690  37.027  38.118  1.00  0.00    -0.200 F 
ATOM     84  F   UNL A   1      39.138  36.215  40.210  1.00  0.00    -0.200 F 
ENDBRANCH  50  74
BRANCH  62  85
ATOM     85  C   UNL A   1      43.971  28.711  35.097  1.00  0.00     0.064 A 
ATOM     86  C   UNL A   1      45.259  29.243  34.933  1.00  0.00     0.173 A 
ATOM     87  C   UNL A   1      43.814  27.623  35.968  1.00  0.00     0.173 A 
ATOM     88  F   UNL A   1      45.462  30.273  34.099  1.00  0.00    -0.203 F 
ATOM     89  C   UNL A   1      46.349  28.690  35.599  1.00  0.00     0.198 A 
ATOM     90  C   UNL A   1      44.902  27.091  36.653  1.00  0.00     0.198 A 
ATOM     91  F   UNL A   1      42.602  27.083  36.163  1.00  0.00    -0.203 F 
ATOM     92  F   UNL A   1      47.578  29.185  35.394  1.00  0.00    -0.200 F 
ATOM     93  C   UNL A   1      46.169  27.621  36.464  1.00  0.00     0.200 A 
ATOM     94  F   UNL A   1      44.724  26.067  37.498  1.00  0.00    -0.200 F 
ATOM     95  F   UNL A   1      47.220  27.096  37.109  1.00  0.00    -0.200 F 
ENDBRANCH  62  85
ENDBRANCH  36  37
ENDBRANCH  28  31
ENDBRANCH  26  27
ENDBRANCH  25  26
ENDBRANCH  24  25
ENDBRANCH   1  24
TORSDOF 15
ENDMDL
MODEL 2
REMARK VINA RESULT:     -12.0      4.183      8.104
REMARK SMILES CC(C)(C)C[N@H+]1[C@@H](C(=O)NCCCCCCNC(=O)c2ccc(-c3c4nc(c(-c5c(F)c(F)c(F)c(F)c5F)c5ccc([nH]5)c(-c5c(F)c(F)c(F)c(F)c5F)c5nc(c(-c6c(F)c(F)c(F)c(F)c6F)c6ccc3[nH]6)C=C5)C=C4)cc2)CC[C@H]2CCCC[C@@H]21
REMARK SMILES IDX 13 1 12 2 11 3 10 4 8 5 9 6 7 8 6 9 90 10 83 12 85 13 89 14
REMARK SMILES IDX 84 15 86 16 88 17 87 18 5 19 2 20 1 21 3 22 4 23 14 24 15 25
REMARK SMILES IDX 16 26 17 27 18 28 19 30 20 31 21 32 82 33 22 34 81 35 23 36
REMARK SMILES IDX 24 37 25 38 75 39 26 40 80 41 74 42 76 43 27 44 79 45 73 46
REMARK SMILES IDX 72 47 28 49 60 50 40 51 59 52 41 53 44 54 58 55 77 56 42 57
REMARK SMILES IDX 43 58 57 60 78 61 45 62 29 63 30 64 38 65 31 66 32 67 36 68
REMARK SMILES IDX 39 69 33 70 34 71 37 72 35 73 61 74 62 75 70 76 63 77 64 78
REMARK SMILES IDX 68 79 71 80 65 81 66 82 69 83 67 84 46 85 47 86 55 87 48 88
REMARK SMILES IDX 49 89 53 90 56 91 50 92 51 93 54 94 52 95
REMARK H PARENT 10 7 6 11 17 29 76 48 44 59
REMARK Flexibility Score: inf
ROOT
ATOM      1  C   UNL A   1      33.704  22.461  24.173  1.00  0.00     0.002 C 
ENDROOT
BRANCH   1   2
ATOM      2  C   UNL A   1      32.344  22.482  23.448  1.00  0.00     0.021 C 
BRANCH   2   3
ATOM      3  C   UNL A   1      31.485  23.750  23.589  1.00  0.00     0.116 C 
BRANCH   3   4
ATOM      4  N   UNL A   1      31.288  24.520  22.378  1.00  0.00    -0.351 N 
ATOM      5  C   UNL A   1      31.712  25.772  22.041  1.00  0.00     0.278 C 
ATOM      6  O   UNL A   1      31.730  26.025  20.830  1.00  0.00    -0.268 OA
ATOM      7  H   UNL A   1      30.760  24.065  21.683  1.00  0.00     0.163 HD
BRANCH   5   8
ATOM      8  C   UNL A   1      32.267  26.758  23.084  1.00  0.00     0.274 C 
ATOM      9  N   UNL A   1      31.300  27.759  23.640  1.00  0.00    -0.322 N 
ATOM     10  C   UNL A   1      31.926  28.344  24.881  1.00  0.00     0.187 C 
ATOM     11  H   UNL A   1      30.435  27.244  23.799  1.00  0.00     0.349 HD
ATOM     12  C   UNL A   1      33.590  27.422  22.623  1.00  0.00     0.076 C 
ATOM     13  C   UNL A   1      33.471  28.190  24.989  1.00  0.00     0.048 C 
ATOM     14  C   UNL A   1      31.316  27.742  26.158  1.00  0.00     0.065 C 
ATOM     15  C   UNL A   1      34.119  28.453  23.636  1.00  0.00     0.016 C 
ATOM     16  C   UNL A   1      33.986  29.066  26.131  1.00  0.00     0.010 C 
ATOM     17  C   UNL A   1      31.855  28.458  27.407  1.00  0.00     0.006 C 
ATOM     18  C   UNL A   1      33.382  28.573  27.451  1.00  0.00     0.001 C 
BRANCH   9  19
ATOM     19  C   UNL A   1      30.911  28.898  22.736  1.00  0.00     0.269 C 
BRANCH  19  20
ATOM     20  C   UNL A   1      29.504  29.583  22.810  1.00  0.00     0.011 C 
ATOM     21  C   UNL A   1      28.364  28.582  23.056  1.00  0.00     0.017 C 
ATOM     22  C   UNL A   1      29.196  30.269  21.456  1.00  0.00     0.017 C 
ATOM     23  C   UNL A   1      29.509  30.696  23.857  1.00  0.00     0.017 C 
ENDBRANCH  19  20
ENDBRANCH   9  19
ENDBRANCH   5   8
ENDBRANCH   3   4
ENDBRANCH   2   3
ENDBRANCH   1   2
BRANCH   1  24
ATOM     24  C   UNL A   1      34.132  23.782  24.821  1.00  0.00     0.002 C 
BRANCH  24  25
ATOM     25  C   UNL A   1      35.160  23.677  25.947  1.00  0.00     0.021 C 
BRANCH  25  26
ATOM     26  C   UNL A   1      36.597  23.967  25.531  1.00  0.00     0.116 C 
BRANCH  26  27
ATOM     27  N   UNL A   1      37.477  22.843  25.812  1.00  0.00    -0.352 N 
ATOM     28  C   UNL A   1      38.759  22.871  26.309  1.00  0.00     0.251 C 
ATOM     29  H   UNL A   1      37.108  21.950  25.624  1.00  0.00     0.163 HD
ATOM     30  O   UNL A   1      39.473  21.877  26.278  1.00  0.00    -0.269 OA
BRANCH  28  31
ATOM     31  C   UNL A   1      39.277  24.133  26.877  1.00  0.00     0.039 A 
ATOM     32  C   UNL A   1      40.001  25.007  26.063  1.00  0.00     0.014 A 
ATOM     33  C   UNL A   1      39.029  24.451  28.216  1.00  0.00     0.014 A 
ATOM     34  C   UNL A   1      40.436  26.229  26.581  1.00  0.00     0.010 A 
ATOM     35  C   UNL A   1      39.410  25.694  28.713  1.00  0.00     0.010 A 
ATOM     36  C   UNL A   1      40.125  26.591  27.903  1.00  0.00    -0.014 A 
BRANCH  36  37
ATOM     37  C   UNL A   1      40.562  27.894  28.466  1.00  0.00     0.031 A 
ATOM     38  C   UNL A   1      42.004  28.107  28.829  1.00  0.00     0.074 A 
ATOM     39  C   UNL A   1      39.655  28.861  28.703  1.00  0.00     0.049 A 
ATOM     40  N   UNL A   1      42.576  29.147  29.382  1.00  0.00    -0.248 NA
ATOM     41  C   UNL A   1      42.924  26.991  28.560  1.00  0.00     0.031 C 
ATOM     42  C   UNL A   1      38.221  28.759  28.438  1.00  0.00     0.029 A 
ATOM     43  N   UNL A   1      39.807  30.119  29.233  1.00  0.00    -0.354 N 
ATOM     44  C   UNL A   1      43.913  28.805  29.538  1.00  0.00     0.074 A 
ATOM     45  C   UNL A   1      44.059  27.444  29.070  1.00  0.00     0.031 C 
ATOM     46  C   UNL A   1      37.626  29.911  28.788  1.00  0.00     0.029 A 
ATOM     47  C   UNL A   1      38.632  30.821  29.331  1.00  0.00     0.049 A 
ATOM     48  H   UNL A   1      40.678  30.483  29.516  1.00  0.00     0.167 HD
ATOM     49  C   UNL A   1      44.931  29.566  30.005  1.00  0.00     0.037 A 
ATOM     50  C   UNL A   1      38.393  32.058  29.807  1.00  0.00     0.037 A 
ATOM     51  C   UNL A   1      44.789  30.929  30.444  1.00  0.00     0.049 A 
ATOM     52  C   UNL A   1      39.542  32.885  30.319  1.00  0.00     0.074 A 
ATOM     53  C   UNL A   1      45.769  31.804  30.876  1.00  0.00     0.029 A 
ATOM     54  N   UNL A   1      43.584  31.614  30.509  1.00  0.00    -0.354 N 
ATOM     55  N   UNL A   1      40.814  32.577  30.395  1.00  0.00    -0.248 NA
ATOM     56  C   UNL A   1      39.223  34.234  30.804  1.00  0.00     0.031 C 
ATOM     57  C   UNL A   1      45.153  33.006  31.242  1.00  0.00     0.029 A 
ATOM     58  C   UNL A   1      43.795  32.895  30.993  1.00  0.00     0.049 A 
ATOM     59  H   UNL A   1      42.709  31.245  30.248  1.00  0.00     0.167 HD
ATOM     60  C   UNL A   1      41.449  33.699  30.907  1.00  0.00     0.074 A 
ATOM     61  C   UNL A   1      40.425  34.702  31.112  1.00  0.00     0.031 C 
ATOM     62  C   UNL A   1      42.763  33.883  31.183  1.00  0.00     0.037 A 
BRANCH  49  63
ATOM     63  C   UNL A   1      46.294  28.940  30.059  1.00  0.00     0.064 A 
ATOM     64  C   UNL A   1      46.742  28.252  31.197  1.00  0.00     0.173 A 
ATOM     65  C   UNL A   1      47.152  29.002  28.950  1.00  0.00     0.173 A 
ATOM     66  F   UNL A   1      45.965  28.173  32.288  1.00  0.00    -0.203 F 
ATOM     67  C   UNL A   1      48.009  27.676  31.233  1.00  0.00     0.198 A 
ATOM     68  C   UNL A   1      48.407  28.400  28.980  1.00  0.00     0.198 A 
ATOM     69  F   UNL A   1      46.772  29.644  27.835  1.00  0.00    -0.203 F 
ATOM     70  F   UNL A   1      48.435  27.067  32.349  1.00  0.00    -0.200 F 
ATOM     71  C   UNL A   1      48.838  27.744  30.124  1.00  0.00     0.200 A 
ATOM     72  F   UNL A   1      49.202  28.456  27.902  1.00  0.00    -0.200 F 
ATOM     73  F   UNL A   1      50.056  27.185  30.159  1.00  0.00    -0.200 F 
ENDBRANCH  49  63
BRANCH  50  74
ATOM     74  C   UNL A   1      37.011  32.604  29.793  1.00  0.00     0.064 A 
ATOM     75  C   UNL A   1      36.521  33.290  28.672  1.00  0.00     0.173 A 
ATOM     76  C   UNL A   1      36.154  32.455  30.892  1.00  0.00     0.173 A 
ATOM     77  F   UNL A   1      37.310  33.476  27.604  1.00  0.00    -0.203 F 
ATOM     78  C   UNL A   1      35.234  33.821  28.659  1.00  0.00     0.198 A 
ATOM     79  C   UNL A   1      34.858  32.964  30.868  1.00  0.00     0.198 A 
ATOM     80  F   UNL A   1      36.574  31.804  31.987  1.00  0.00    -0.203 F 
ATOM     81  F   UNL A   1      34.805  34.509  27.592  1.00  0.00    -0.200 F 
ATOM     82  C   UNL A   1      34.400  33.654  29.755  1.00  0.00     0.200 A 
ATOM     83  F   UNL A   1      34.052  32.788  31.924  1.00  0.00    -0.200 F 
ATOM     84  F   UNL A   1      33.161  34.161  29.740  1.00  0.00    -0.200 F 
ENDBRANCH  50  74
BRANCH  62  85
ATOM     85  C   UNL A   1      43.176  35.229  31.706  1.00  0.00     0.064 A 
ATOM     86  C   UNL A   1      43.134  35.529  33.075  1.00  0.00     0.173 A 
ATOM     87  C   UNL A   1      43.658  36.212  30.830  1.00  0.00     0.173 A 
ATOM     88  F   UNL A   1      42.666  34.627  33.951  1.00  0.00    -0.203 F 
ATOM     89  C   UNL A   1      43.538  36.776  33.545  1.00  0.00     0.198 A 
ATOM     90  C   UNL A   1      44.087  37.447  31.306  1.00  0.00     0.198 A 
ATOM     91  F   UNL A   1      43.723  35.971  29.512  1.00  0.00    -0.203 F 
ATOM     92  F   UNL A   1      43.448  37.058  34.852  1.00  0.00    -0.200 F 
ATOM     93  C   UNL A   1      44.021  37.730  32.663  1.00  0.00     0.200 A 
ATOM     94  F   UNL A   1      44.566  38.364  30.454  1.00  0.00    -0.200 F 
ATOM     95  F   UNL A   1      44.417  38.927  33.119  1.00  0.00    -0.200 F 
ENDBRANCH  62  85
ENDBRANCH  36  37
ENDBRANCH  28  31
ENDBRANCH  26  27
ENDBRANCH  25  26
ENDBRANCH  24  25
ENDBRANCH   1  24
TORSDOF 15
ENDMDL
MODEL 3
REMARK VINA RESULT:     -11.9      0.535      2.076
REMARK SMILES CC(C)(C)C[N@H+]1[C@@H](C(=O)NCCCCCCNC(=O)c2ccc(-c3c4nc(c(-c5c(F)c(F)c(F)c(F)c5F)c5ccc([nH]5)c(-c5c(F)c(F)c(F)c(F)c5F)c5nc(c(-c6c(F)c(F)c(F)c(F)c6F)c6ccc3[nH]6)C=C5)C=C4)cc2)CC[C@H]2CCCC[C@@H]21
REMARK SMILES IDX 13 1 12 2 11 3 10 4 8 5 9 6 7 8 6 9 90 10 83 12 85 13 89 14
REMARK SMILES IDX 84 15 86 16 88 17 87 18 5 19 2 20 1 21 3 22 4 23 14 24 15 25
REMARK SMILES IDX 16 26 17 27 18 28 19 30 20 31 21 32 82 33 22 34 81 35 23 36
REMARK SMILES IDX 24 37 25 38 75 39 26 40 80 41 74 42 76 43 27 44 79 45 73 46
REMARK SMILES IDX 72 47 28 49 60 50 40 51 59 52 41 53 44 54 58 55 77 56 42 57
REMARK SMILES IDX 43 58 57 60 78 61 45 62 29 63 30 64 38 65 31 66 32 67 36 68
REMARK SMILES IDX 39 69 33 70 34 71 37 72 35 73 61 74 62 75 70 76 63 77 64 78
REMARK SMILES IDX 68 79 71 80 65 81 66 82 69 83 67 84 46 85 47 86 55 87 48 88
REMARK SMILES IDX 49 89 53 90 56 91 50 92 51 93 54 94 52 95
REMARK H PARENT 10 7 6 11 17 29 76 48 44 59
REMARK Flexibility Score: inf
ROOT
ATOM      1  C   UNL A   1      31.797  29.264  26.588  1.00  0.00     0.002 C 
ENDROOT
BRANCH   1   2
ATOM      2  C   UNL A   1      31.574  27.956  25.806  1.00  0.00     0.021 C 
BRANCH   2   3
ATOM      3  C   UNL A   1      31.991  26.641  26.489  1.00  0.00     0.116 C 
BRANCH   3   4
ATOM      4  N   UNL A   1      30.952  25.641  26.625  1.00  0.00    -0.351 N 
ATOM      5  C   UNL A   1      31.004  24.283  26.510  1.00  0.00     0.278 C 
ATOM      6  O   UNL A   1      30.075  23.662  27.042  1.00  0.00    -0.268 OA
ATOM      7  H   UNL A   1      30.060  26.001  26.834  1.00  0.00     0.163 HD
BRANCH   5   8
ATOM      8  C   UNL A   1      32.210  23.559  25.885  1.00  0.00     0.274 C 
ATOM      9  N   UNL A   1      32.975  24.311  24.840  1.00  0.00    -0.322 N 
ATOM     10  C   UNL A   1      34.294  23.603  24.653  1.00  0.00     0.187 C 
ATOM     11  H   UNL A   1      33.048  25.266  25.189  1.00  0.00     0.349 HD
ATOM     12  C   UNL A   1      31.861  22.120  25.425  1.00  0.00     0.076 C 
ATOM     13  C   UNL A   1      34.334  22.124  25.136  1.00  0.00     0.048 C 
ATOM     14  C   UNL A   1      35.439  24.347  25.361  1.00  0.00     0.065 C 
ATOM     15  C   UNL A   1      33.046  21.411  24.746  1.00  0.00     0.016 C 
ATOM     16  C   UNL A   1      35.616  21.464  24.628  1.00  0.00     0.010 C 
ATOM     17  C   UNL A   1      36.793  23.697  25.032  1.00  0.00     0.006 C 
ATOM     18  C   UNL A   1      36.824  22.179  25.241  1.00  0.00     0.001 C 
BRANCH   9  19
ATOM     19  C   UNL A   1      32.325  24.444  23.489  1.00  0.00     0.269 C 
BRANCH  19  20
ATOM     20  C   UNL A   1      32.575  25.677  22.556  1.00  0.00     0.011 C 
ATOM     21  C   UNL A   1      33.653  26.630  23.099  1.00  0.00     0.017 C 
ATOM     22  C   UNL A   1      31.274  26.510  22.447  1.00  0.00     0.017 C 
ATOM     23  C   UNL A   1      32.900  25.213  21.137  1.00  0.00     0.017 C 
ENDBRANCH  19  20
ENDBRANCH   9  19
ENDBRANCH   5   8
ENDBRANCH   3   4
ENDBRANCH   2   3
ENDBRANCH   1   2
BRANCH   1  24
ATOM     24  C   UNL A   1      31.723  30.552  25.762  1.00  0.00     0.002 C 
BRANCH  24  25
ATOM     25  C   UNL A   1      31.432  31.836  26.541  1.00  0.00     0.021 C 
BRANCH  25  26
ATOM     26  C   UNL A   1      32.637  32.443  27.248  1.00  0.00     0.116 C 
BRANCH  26  27
ATOM     27  N   UNL A   1      32.452  33.863  27.505  1.00  0.00    -0.352 N 
ATOM     28  C   UNL A   1      33.035  34.631  28.486  1.00  0.00     0.251 C 
ATOM     29  H   UNL A   1      31.832  34.333  26.902  1.00  0.00     0.163 HD
ATOM     30  O   UNL A   1      32.620  35.754  28.742  1.00  0.00    -0.269 OA
BRANCH  28  31
ATOM     31  C   UNL A   1      34.176  34.077  29.244  1.00  0.00     0.039 A 
ATOM     32  C   UNL A   1      33.933  33.281  30.365  1.00  0.00     0.014 A 
ATOM     33  C   UNL A   1      35.485  34.338  28.828  1.00  0.00     0.014 A 
ATOM     34  C   UNL A   1      35.008  32.704  31.045  1.00  0.00     0.010 A 
ATOM     35  C   UNL A   1      36.551  33.713  29.470  1.00  0.00     0.010 A 
ATOM     36  C   UNL A   1      36.324  32.898  30.589  1.00  0.00    -0.014 A 
BRANCH  36  37
ATOM     37  C   UNL A   1      37.478  32.277  31.287  1.00  0.00     0.031 A 
ATOM     38  C   UNL A   1      38.211  31.131  30.647  1.00  0.00     0.074 A 
ATOM     39  C   UNL A   1      37.830  32.703  32.514  1.00  0.00     0.049 A 
ATOM     40  N   UNL A   1      39.205  30.418  31.114  1.00  0.00    -0.248 NA
ATOM     41  C   UNL A   1      37.747  30.712  29.315  1.00  0.00     0.031 C 
ATOM     42  C   UNL A   1      37.169  33.774  33.260  1.00  0.00     0.029 A 
ATOM     43  N   UNL A   1      38.827  32.277  33.357  1.00  0.00    -0.354 N 
ATOM     44  C   UNL A   1      39.474  29.463  30.142  1.00  0.00     0.074 A 
ATOM     45  C   UNL A   1      38.506  29.652  29.084  1.00  0.00     0.031 C 
ATOM     46  C   UNL A   1      37.788  33.935  34.441  1.00  0.00     0.029 A 
ATOM     47  C   UNL A   1      38.870  32.958  34.548  1.00  0.00     0.049 A 
ATOM     48  H   UNL A   1      39.452  31.551  33.129  1.00  0.00     0.167 HD
ATOM     49  C   UNL A   1      40.454  28.529  30.123  1.00  0.00     0.037 A 
ATOM     50  C   UNL A   1      39.688  32.810  35.608  1.00  0.00     0.037 A 
ATOM     51  C   UNL A   1      41.432  28.360  31.165  1.00  0.00     0.049 A 
ATOM     52  C   UNL A   1      40.771  31.766  35.562  1.00  0.00     0.074 A 
ATOM     53  C   UNL A   1      42.503  27.484  31.211  1.00  0.00     0.029 A 
ATOM     54  N   UNL A   1      41.456  29.084  32.348  1.00  0.00    -0.354 N 
ATOM     55  N   UNL A   1      41.060  30.915  34.607  1.00  0.00    -0.248 NA
ATOM     56  C   UNL A   1      41.646  31.666  36.738  1.00  0.00     0.031 C 
ATOM     57  C   UNL A   1      43.150  27.649  32.441  1.00  0.00     0.029 A 
ATOM     58  C   UNL A   1      42.511  28.660  33.140  1.00  0.00     0.049 A 
ATOM     59  H   UNL A   1      40.819  29.794  32.589  1.00  0.00     0.167 HD
ATOM     60  C   UNL A   1      42.165  30.202  35.052  1.00  0.00     0.074 A 
ATOM     61  C   UNL A   1      42.502  30.727  36.359  1.00  0.00     0.031 C 
ATOM     62  C   UNL A   1      42.838  29.201  34.435  1.00  0.00     0.037 A 
BRANCH  49  63
ATOM     63  C   UNL A   1      40.520  27.619  28.931  1.00  0.00     0.064 A 
ATOM     64  C   UNL A   1      41.377  27.882  27.852  1.00  0.00     0.173 A 
ATOM     65  C   UNL A   1      39.739  26.455  28.880  1.00  0.00     0.173 A 
ATOM     66  F   UNL A   1      42.136  28.988  27.847  1.00  0.00    -0.203 F 
ATOM     67  C   UNL A   1      41.427  27.029  26.752  1.00  0.00     0.198 A 
ATOM     68  C   UNL A   1      39.813  25.589  27.791  1.00  0.00     0.198 A 
ATOM     69  F   UNL A   1      38.906  26.153  29.887  1.00  0.00    -0.203 F 
ATOM     70  F   UNL A   1      42.217  27.328  25.711  1.00  0.00    -0.200 F 
ATOM     71  C   UNL A   1      40.651  25.881  26.726  1.00  0.00     0.200 A 
ATOM     72  F   UNL A   1      39.072  24.472  27.773  1.00  0.00    -0.200 F 
ATOM     73  F   UNL A   1      40.705  25.058  25.668  1.00  0.00    -0.200 F 
ENDBRANCH  49  63
BRANCH  50  74
ATOM     74  C   UNL A   1      39.535  33.694  36.793  1.00  0.00     0.064 A 
ATOM     75  C   UNL A   1      40.170  34.943  36.843  1.00  0.00     0.173 A 
ATOM     76  C   UNL A   1      38.756  33.313  37.894  1.00  0.00     0.173 A 
ATOM     77  F   UNL A   1      40.943  35.343  35.823  1.00  0.00    -0.203 F 
ATOM     78  C   UNL A   1      40.047  35.769  37.958  1.00  0.00     0.198 A 
ATOM     79  C   UNL A   1      38.613  34.150  38.998  1.00  0.00     0.198 A 
ATOM     80  F   UNL A   1      38.125  32.130  37.893  1.00  0.00    -0.203 F 
ATOM     81  F   UNL A   1      40.699  36.939  37.999  1.00  0.00    -0.200 F 
ATOM     82  C   UNL A   1      39.264  35.375  39.033  1.00  0.00     0.200 A 
ATOM     83  F   UNL A   1      37.844  33.772  40.028  1.00  0.00    -0.200 F 
ATOM     84  F   UNL A   1      39.142  36.171  40.103  1.00  0.00    -0.200 F 
ENDBRANCH  50  74
BRANCH  62  85
ATOM     85  C   UNL A   1      44.028  28.629  35.149  1.00  0.00     0.064 A 
ATOM     86  C   UNL A   1      43.911  27.525  36.006  1.00  0.00     0.173 A 
ATOM     87  C   UNL A   1      45.307  29.166  34.938  1.00  0.00     0.173 A 
ATOM     88  F   UNL A   1      42.707  26.985  36.251  1.00  0.00    -0.203 F 
ATOM     89  C   UNL A   1      45.029  26.995  36.645  1.00  0.00     0.198 A 
ATOM     90  C   UNL A   1      46.426  28.617  35.557  1.00  0.00     0.198 A 
ATOM     91  F   UNL A   1      45.472  30.219  34.123  1.00  0.00    -0.203 F 
ATOM     92  F   UNL A   1      44.888  25.968  37.494  1.00  0.00    -0.200 F 
ATOM     93  C   UNL A   1      46.285  27.536  36.414  1.00  0.00     0.200 A 
ATOM     94  F   UNL A   1      47.640  29.132  35.323  1.00  0.00    -0.200 F 
ATOM     95  F   UNL A   1      47.360  27.019  37.025  1.00  0.00    -0.200 F 
ENDBRANCH  62  85
ENDBRANCH  36  37
ENDBRANCH  28  31
ENDBRANCH  26  27
ENDBRANCH  25  26
ENDBRANCH  24  25
ENDBRANCH   1  24
TORSDOF 15
ENDMDL
