MODEL 1
REMARK VINA RESULT:     -13.0      0.000      0.000
REMARK SMILES Cc1ccc(S(=O)(=O)N(CC(=O)NCCCCCCNC(=O)c2ccc(-c3c4nc(c(-c5c(F)c(F)c(F)c(F)c5F)c5ccc([nH]5)c(-c5c(F)c(F)c(F)c(F)c5F)c5nc(c(-c6c(F)c(F)c(F)c(F)c6F)c6ccc3[nH]6)C=C5)C=C4)cc2)c2cc(Cl)cc(Cl)c2)cc1
REMARK SMILES IDX 16 1 15 2 14 3 13 4 11 5 12 6 10 8 9 9 6 10 7 11 8 12 5 13
REMARK SMILES IDX 1 14 2 15 3 16 95 17 4 18 94 19 86 20 87 21 93 22 88 23
REMARK SMILES IDX 91 24 89 25 90 26 92 27 17 28 18 29 19 30 20 31 21 32 22 34
REMARK SMILES IDX 23 35 24 36 85 37 25 38 84 39 26 40 27 41 28 42 78 43 29 44
REMARK SMILES IDX 83 45 77 46 79 47 30 48 82 49 76 50 75 51 31 53 63 54 43 55
REMARK SMILES IDX 62 56 44 57 47 58 61 59 80 60 45 61 46 62 60 64 81 65 48 66
REMARK SMILES IDX 32 67 33 68 41 69 34 70 35 71 39 72 42 73 36 74 37 75 40 76
REMARK SMILES IDX 38 77 64 78 65 79 73 80 66 81 67 82 71 83 74 84 68 85 69 86
REMARK SMILES IDX 72 87 70 88 49 89 50 90 58 91 51 92 52 93 56 94 59 95 53 96
REMARK SMILES IDX 54 97 57 98 55 99
REMARK H PARENT 13 7 20 33 79 52 47 63
REMARK Flexibility Score: inf
ROOT
ATOM      1  C   UNL A   1      32.088  28.391  25.559  1.00  0.00     0.002 C 
ENDROOT
BRANCH   1   2
ATOM      2  C   UNL A   1      31.263  27.297  26.242  1.00  0.00     0.021 C 
BRANCH   2   3
ATOM      3  C   UNL A   1      30.713  26.219  25.309  1.00  0.00     0.116 C 
BRANCH   3   4
ATOM      4  N   UNL A   1      30.289  25.002  25.974  1.00  0.00    -0.355 N 
ATOM      5  C   UNL A   1      30.994  23.967  26.517  1.00  0.00     0.240 C 
ATOM      6  O   UNL A   1      30.348  23.153  27.187  1.00  0.00    -0.273 OA
ATOM      7  H   UNL A   1      29.312  24.905  26.048  1.00  0.00     0.163 HD
BRANCH   5   8
ATOM      8  C   UNL A   1      32.500  23.768  26.341  1.00  0.00     0.235 C 
BRANCH   8   9
ATOM      9  N   UNL A   1      32.929  23.645  24.922  1.00  0.00    -0.257 N 
BRANCH   9  10
ATOM     10  S   UNL A   1      34.315  24.568  24.459  1.00  0.00     0.264 S 
ATOM     11  O   UNL A   1      34.307  25.735  25.331  1.00  0.00    -0.201 OA
ATOM     12  O   UNL A   1      34.283  24.720  23.023  1.00  0.00    -0.201 OA
BRANCH  10  13
ATOM     13  C   UNL A   1      35.869  23.718  24.819  1.00  0.00     0.088 A 
ATOM     14  C   UNL A   1      39.245  21.193  25.811  1.00  0.00     0.044 C 
ATOM     15  C   UNL A   1      38.107  22.094  25.431  1.00  0.00    -0.051 A 
ATOM     16  C   UNL A   1      37.300  21.804  24.327  1.00  0.00     0.005 A 
ATOM     17  C   UNL A   1      37.809  23.218  26.201  1.00  0.00     0.005 A 
ATOM     18  C   UNL A   1      36.194  22.610  24.019  1.00  0.00     0.022 A 
ATOM     19  C   UNL A   1      36.699  24.018  25.903  1.00  0.00     0.022 A 
ENDBRANCH  10  13
ENDBRANCH   9  10
BRANCH   9  20
ATOM     20  C   UNL A   1      32.907  22.226  24.504  1.00  0.00     0.055 A 
ATOM     21  C   UNL A   1      32.554  21.944  23.170  1.00  0.00     0.047 A 
ATOM     22  C   UNL A   1      32.977  21.151  25.398  1.00  0.00     0.047 A 
ATOM     23  C   UNL A   1      32.240  20.646  22.762  1.00  0.00     0.044 A 
ATOM     24  C   UNL A   1      32.692  19.848  24.969  1.00  0.00     0.044 A 
ATOM     25  Cl  UNL A   1      31.711  20.368  21.149  1.00  0.00    -0.084 Cl
ATOM     26  C   UNL A   1      32.305  19.591  23.658  1.00  0.00     0.041 A 
ATOM     27  Cl  UNL A   1      32.774  18.547  26.092  1.00  0.00    -0.084 Cl
ENDBRANCH   9  20
ENDBRANCH   8   9
ENDBRANCH   5   8
ENDBRANCH   3   4
ENDBRANCH   2   3
ENDBRANCH   1   2
BRANCH   1  28
ATOM     28  C   UNL A   1      31.408  29.761  25.422  1.00  0.00     0.002 C 
BRANCH  28  29
ATOM     29  C   UNL A   1      31.929  30.855  26.351  1.00  0.00     0.021 C 
BRANCH  29  30
ATOM     30  C   UNL A   1      33.042  30.407  27.281  1.00  0.00     0.116 C 
BRANCH  30  31
ATOM     31  N   UNL A   1      33.958  31.484  27.641  1.00  0.00    -0.352 N 
ATOM     32  C   UNL A   1      35.202  31.448  28.245  1.00  0.00     0.251 C 
ATOM     33  H   UNL A   1      33.638  32.387  27.416  1.00  0.00     0.163 HD
ATOM     34  O   UNL A   1      35.753  32.494  28.572  1.00  0.00    -0.269 OA
BRANCH  32  35
ATOM     35  C   UNL A   1      35.957  30.173  28.305  1.00  0.00     0.039 A 
ATOM     36  C   UNL A   1      36.169  29.643  29.587  1.00  0.00     0.014 A 
ATOM     37  C   UNL A   1      36.768  29.796  27.247  1.00  0.00     0.014 A 
ATOM     38  C   UNL A   1      37.382  29.040  29.871  1.00  0.00     0.010 A 
ATOM     39  C   UNL A   1      38.033  29.377  27.554  1.00  0.00     0.010 A 
ATOM     40  C   UNL A   1      38.352  29.069  28.881  1.00  0.00    -0.014 A 
BRANCH  40  41
ATOM     41  C   UNL A   1      39.743  28.744  29.082  1.00  0.00     0.031 A 
ATOM     42  C   UNL A   1      40.155  27.372  28.755  1.00  0.00     0.074 A 
ATOM     43  C   UNL A   1      40.614  29.751  29.308  1.00  0.00     0.049 A 
ATOM     44  N   UNL A   1      41.288  26.865  29.071  1.00  0.00    -0.248 NA
ATOM     45  C   UNL A   1      39.279  26.430  28.067  1.00  0.00     0.031 C 
ATOM     46  C   UNL A   1      42.063  29.747  29.139  1.00  0.00     0.029 A 
ATOM     47  N   UNL A   1      40.346  30.985  29.927  1.00  0.00    -0.354 N 
ATOM     48  C   UNL A   1      41.426  25.689  28.367  1.00  0.00     0.074 A 
ATOM     49  C   UNL A   1      40.110  25.406  27.858  1.00  0.00     0.031 C 
ATOM     50  C   UNL A   1      42.591  30.727  29.893  1.00  0.00     0.029 A 
ATOM     51  C   UNL A   1      41.506  31.275  30.686  1.00  0.00     0.049 A 
ATOM     52  H   UNL A   1      39.529  31.529  29.850  1.00  0.00     0.167 HD
ATOM     53  C   UNL A   1      42.690  25.209  28.196  1.00  0.00     0.037 A 
ATOM     54  C   UNL A   1      41.461  31.260  32.053  1.00  0.00     0.037 A 
ATOM     55  C   UNL A   1      43.623  25.999  29.006  1.00  0.00     0.049 A 
ATOM     56  C   UNL A   1      42.366  30.208  32.654  1.00  0.00     0.074 A 
ATOM     57  C   UNL A   1      44.487  27.038  28.707  1.00  0.00     0.029 A 
ATOM     58  N   UNL A   1      43.461  26.007  30.388  1.00  0.00    -0.354 N 
ATOM     59  N   UNL A   1      42.730  29.117  32.036  1.00  0.00    -0.248 NA
ATOM     60  C   UNL A   1      42.964  30.327  33.978  1.00  0.00     0.031 C 
ATOM     61  C   UNL A   1      44.812  27.699  29.923  1.00  0.00     0.029 A 
ATOM     62  C   UNL A   1      44.163  27.047  30.959  1.00  0.00     0.049 A 
ATOM     63  H   UNL A   1      42.916  25.359  30.891  1.00  0.00     0.167 HD
ATOM     64  C   UNL A   1      43.608  28.411  32.824  1.00  0.00     0.074 A 
ATOM     65  C   UNL A   1      43.720  29.216  34.026  1.00  0.00     0.031 C 
ATOM     66  C   UNL A   1      44.171  27.234  32.406  1.00  0.00     0.037 A 
BRANCH  53  67
ATOM     67  C   UNL A   1      43.143  24.228  27.132  1.00  0.00     0.064 A 
ATOM     68  C   UNL A   1      42.748  22.872  27.214  1.00  0.00     0.173 A 
ATOM     69  C   UNL A   1      44.011  24.509  26.059  1.00  0.00     0.173 A 
ATOM     70  F   UNL A   1      41.874  22.453  28.137  1.00  0.00    -0.203 F 
ATOM     71  C   UNL A   1      43.236  21.886  26.351  1.00  0.00     0.198 A 
ATOM     72  C   UNL A   1      44.513  23.521  25.205  1.00  0.00     0.198 A 
ATOM     73  F   UNL A   1      44.392  25.750  25.753  1.00  0.00    -0.203 F 
ATOM     74  F   UNL A   1      42.835  20.616  26.501  1.00  0.00    -0.200 F 
ATOM     75  C   UNL A   1      44.133  22.207  25.356  1.00  0.00     0.200 A 
ATOM     76  F   UNL A   1      45.370  23.862  24.231  1.00  0.00    -0.200 F 
ATOM     77  F   UNL A   1      44.615  21.262  24.538  1.00  0.00    -0.200 F 
ENDBRANCH  53  67
BRANCH  54  78
ATOM     78  C   UNL A   1      40.123  31.680  32.566  1.00  0.00     0.064 A 
ATOM     79  C   UNL A   1      39.723  33.008  32.298  1.00  0.00     0.173 A 
ATOM     80  C   UNL A   1      39.115  30.745  32.827  1.00  0.00     0.173 A 
ATOM     81  F   UNL A   1      40.651  33.951  32.064  1.00  0.00    -0.203 F 
ATOM     82  C   UNL A   1      38.383  33.334  32.100  1.00  0.00     0.198 A 
ATOM     83  C   UNL A   1      37.769  31.089  32.667  1.00  0.00     0.198 A 
ATOM     84  F   UNL A   1      39.426  29.470  33.100  1.00  0.00    -0.203 F 
ATOM     85  F   UNL A   1      38.051  34.560  31.670  1.00  0.00    -0.200 F 
ATOM     86  C   UNL A   1      37.410  32.363  32.247  1.00  0.00     0.200 A 
ATOM     87  F   UNL A   1      36.821  30.151  32.810  1.00  0.00    -0.200 F 
ATOM     88  F   UNL A   1      36.135  32.638  31.940  1.00  0.00    -0.200 F 
ENDBRANCH  54  78
BRANCH  66  89
ATOM     89  C   UNL A   1      44.869  26.179  33.257  1.00  0.00     0.064 A 
ATOM     90  C   UNL A   1      44.220  25.306  34.145  1.00  0.00     0.173 A 
ATOM     91  C   UNL A   1      46.259  25.916  33.089  1.00  0.00     0.173 A 
ATOM     92  F   UNL A   1      42.895  25.327  34.316  1.00  0.00    -0.203 F 
ATOM     93  C   UNL A   1      44.907  24.314  34.856  1.00  0.00     0.198 A 
ATOM     94  C   UNL A   1      46.922  24.876  33.737  1.00  0.00     0.198 A 
ATOM     95  F   UNL A   1      47.030  26.638  32.264  1.00  0.00    -0.203 F 
ATOM     96  F   UNL A   1      44.240  23.551  35.733  1.00  0.00    -0.200 F 
ATOM     97  C   UNL A   1      46.251  24.088  34.642  1.00  0.00     0.200 A 
ATOM     98  F   UNL A   1      48.211  24.633  33.457  1.00  0.00    -0.200 F 
ATOM     99  F   UNL A   1      46.890  23.102  35.284  1.00  0.00    -0.200 F 
ENDBRANCH  66  89
ENDBRANCH  40  41
ENDBRANCH  32  35
ENDBRANCH  30  31
ENDBRANCH  29  30
ENDBRANCH  28  29
ENDBRANCH   1  28
TORSDOF 17
ENDMDL
MODEL 2
REMARK VINA RESULT:     -13.0      1.610      3.025
REMARK SMILES Cc1ccc(S(=O)(=O)N(CC(=O)NCCCCCCNC(=O)c2ccc(-c3c4nc(c(-c5c(F)c(F)c(F)c(F)c5F)c5ccc([nH]5)c(-c5c(F)c(F)c(F)c(F)c5F)c5nc(c(-c6c(F)c(F)c(F)c(F)c6F)c6ccc3[nH]6)C=C5)C=C4)cc2)c2cc(Cl)cc(Cl)c2)cc1
REMARK SMILES IDX 16 1 15 2 14 3 13 4 11 5 12 6 10 8 9 9 6 10 7 11 8 12 5 13
REMARK SMILES IDX 1 14 2 15 3 16 95 17 4 18 94 19 86 20 87 21 93 22 88 23
REMARK SMILES IDX 91 24 89 25 90 26 92 27 17 28 18 29 19 30 20 31 21 32 22 34
REMARK SMILES IDX 23 35 24 36 85 37 25 38 84 39 26 40 27 41 28 42 78 43 29 44
REMARK SMILES IDX 83 45 77 46 79 47 30 48 82 49 76 50 75 51 31 53 63 54 43 55
REMARK SMILES IDX 62 56 44 57 47 58 61 59 80 60 45 61 46 62 60 64 81 65 48 66
REMARK SMILES IDX 32 67 33 68 41 69 34 70 35 71 39 72 42 73 36 74 37 75 40 76
REMARK SMILES IDX 38 77 64 78 65 79 73 80 66 81 67 82 71 83 74 84 68 85 69 86
REMARK SMILES IDX 72 87 70 88 49 89 50 90 58 91 51 92 52 93 56 94 59 95 53 96
REMARK SMILES IDX 54 97 57 98 55 99
REMARK H PARENT 13 7 20 33 79 52 47 63
REMARK Flexibility Score: inf
ROOT
ATOM      1  C   UNL A   1      32.366  28.732  26.599  1.00  0.00     0.002 C 
ENDROOT
BRANCH   1   2
ATOM      2  C   UNL A   1      31.491  27.636  27.212  1.00  0.00     0.021 C 
BRANCH   2   3
ATOM      3  C   UNL A   1      31.039  26.546  26.241  1.00  0.00     0.116 C 
BRANCH   3   4
ATOM      4  N   UNL A   1      31.088  25.199  26.777  1.00  0.00    -0.355 N 
ATOM      5  C   UNL A   1      32.061  24.242  26.750  1.00  0.00     0.240 C 
ATOM      6  O   UNL A   1      31.877  23.250  27.464  1.00  0.00    -0.273 OA
ATOM      7  H   UNL A   1      30.269  24.925  27.249  1.00  0.00     0.163 HD
BRANCH   5   8
ATOM      8  C   UNL A   1      33.330  24.332  25.901  1.00  0.00     0.235 C 
BRANCH   8   9
ATOM      9  N   UNL A   1      33.356  23.387  24.754  1.00  0.00    -0.257 N 
BRANCH   9  10
ATOM     10  S   UNL A   1      33.469  24.094  23.181  1.00  0.00     0.264 S 
ATOM     11  O   UNL A   1      32.674  23.234  22.316  1.00  0.00    -0.201 OA
ATOM     12  O   UNL A   1      34.866  24.330  22.903  1.00  0.00    -0.201 OA
BRANCH  10  13
ATOM     13  C   UNL A   1      32.680  25.718  23.091  1.00  0.00     0.088 A 
ATOM     14  C   UNL A   1      30.663  29.467  22.290  1.00  0.00     0.044 C 
ATOM     15  C   UNL A   1      31.345  28.170  22.619  1.00  0.00    -0.051 A 
ATOM     16  C   UNL A   1      30.643  26.961  22.581  1.00  0.00     0.005 A 
ATOM     17  C   UNL A   1      32.704  28.146  22.930  1.00  0.00     0.005 A 
ATOM     18  C   UNL A   1      31.302  25.746  22.820  1.00  0.00     0.022 A 
ATOM     19  C   UNL A   1      33.366  26.934  23.157  1.00  0.00     0.022 A 
ENDBRANCH  10  13
ENDBRANCH   9  10
BRANCH   9  20
ATOM     20  C   UNL A   1      34.271  22.260  25.042  1.00  0.00     0.055 A 
ATOM     21  C   UNL A   1      35.592  22.570  25.417  1.00  0.00     0.047 A 
ATOM     22  C   UNL A   1      33.979  20.926  24.735  1.00  0.00     0.047 A 
ATOM     23  C   UNL A   1      36.588  21.592  25.438  1.00  0.00     0.044 A 
ATOM     24  C   UNL A   1      34.980  19.947  24.793  1.00  0.00     0.044 A 
ATOM     25  Cl  UNL A   1      38.210  22.040  25.798  1.00  0.00    -0.084 Cl
ATOM     26  C   UNL A   1      36.290  20.276  25.125  1.00  0.00     0.041 A 
ATOM     27  Cl  UNL A   1      34.597  18.316  24.399  1.00  0.00    -0.084 Cl
ENDBRANCH   9  20
ENDBRANCH   8   9
ENDBRANCH   5   8
ENDBRANCH   3   4
ENDBRANCH   2   3
ENDBRANCH   1   2
BRANCH   1  28
ATOM     28  C   UNL A   1      31.856  30.171  26.762  1.00  0.00     0.002 C 
BRANCH  28  29
ATOM     29  C   UNL A   1      32.886  31.189  27.246  1.00  0.00     0.021 C 
BRANCH  29  30
ATOM     30  C   UNL A   1      34.296  30.640  27.369  1.00  0.00     0.116 C 
BRANCH  30  31
ATOM     31  N   UNL A   1      35.174  31.490  28.165  1.00  0.00    -0.352 N 
ATOM     32  C   UNL A   1      36.270  31.174  28.949  1.00  0.00     0.251 C 
ATOM     33  H   UNL A   1      34.952  32.448  28.140  1.00  0.00     0.163 HD
ATOM     34  O   UNL A   1      36.796  32.040  29.641  1.00  0.00    -0.269 OA
BRANCH  32  35
ATOM     35  C   UNL A   1      36.932  29.856  28.796  1.00  0.00     0.039 A 
ATOM     36  C   UNL A   1      37.074  29.098  29.968  1.00  0.00     0.014 A 
ATOM     37  C   UNL A   1      37.741  29.610  27.698  1.00  0.00     0.014 A 
ATOM     38  C   UNL A   1      38.235  28.368  30.158  1.00  0.00     0.010 A 
ATOM     39  C   UNL A   1      38.966  29.053  27.944  1.00  0.00     0.010 A 
ATOM     40  C   UNL A   1      39.229  28.497  29.200  1.00  0.00    -0.014 A 
BRANCH  40  41
ATOM     41  C   UNL A   1      40.589  28.041  29.359  1.00  0.00     0.031 A 
ATOM     42  C   UNL A   1      40.894  26.690  28.870  1.00  0.00     0.074 A 
ATOM     43  C   UNL A   1      41.534  28.943  29.703  1.00  0.00     0.049 A 
ATOM     44  N   UNL A   1      41.981  26.061  29.121  1.00  0.00    -0.248 NA
ATOM     45  C   UNL A   1      39.952  25.909  28.075  1.00  0.00     0.031 C 
ATOM     46  C   UNL A   1      42.979  28.843  29.533  1.00  0.00     0.029 A 
ATOM     47  N   UNL A   1      41.359  30.111  30.465  1.00  0.00    -0.354 N 
ATOM     48  C   UNL A   1      42.031  24.970  28.282  1.00  0.00     0.074 A 
ATOM     49  C   UNL A   1      40.701  24.855  27.744  1.00  0.00     0.031 C 
ATOM     50  C   UNL A   1      43.577  29.682  30.397  1.00  0.00     0.029 A 
ATOM     51  C   UNL A   1      42.533  30.216  31.252  1.00  0.00     0.049 A 
ATOM     52  H   UNL A   1      40.588  30.723  30.455  1.00  0.00     0.167 HD
ATOM     53  C   UNL A   1      43.256  24.416  28.052  1.00  0.00     0.037 A 
ATOM     54  C   UNL A   1      42.475  30.041  32.607  1.00  0.00     0.037 A 
ATOM     55  C   UNL A   1      44.241  25.027  28.950  1.00  0.00     0.049 A 
ATOM     56  C   UNL A   1      43.289  28.857  33.077  1.00  0.00     0.074 A 
ATOM     57  C   UNL A   1      45.187  26.023  28.776  1.00  0.00     0.029 A 
ATOM     58  N   UNL A   1      44.068  24.883  30.323  1.00  0.00    -0.354 N 
ATOM     59  N   UNL A   1      43.572  27.822  32.333  1.00  0.00    -0.248 NA
ATOM     60  C   UNL A   1      43.884  28.769  34.405  1.00  0.00     0.031 C 
ATOM     61  C   UNL A   1      45.552  26.506  30.062  1.00  0.00     0.029 A 
ATOM     62  C   UNL A   1      44.846  25.788  31.014  1.00  0.00     0.049 A 
ATOM     63  H   UNL A   1      43.470  24.224  30.746  1.00  0.00     0.167 HD
ATOM     64  C   UNL A   1      44.385  26.960  33.029  1.00  0.00     0.074 A 
ATOM     65  C   UNL A   1      44.550  27.604  34.319  1.00  0.00     0.031 C 
ATOM     66  C   UNL A   1      44.857  25.800  32.472  1.00  0.00     0.037 A 
BRANCH  53  67
ATOM     67  C   UNL A   1      43.639  23.536  26.879  1.00  0.00     0.064 A 
ATOM     68  C   UNL A   1      43.180  22.198  26.825  1.00  0.00     0.173 A 
ATOM     69  C   UNL A   1      44.496  23.891  25.819  1.00  0.00     0.173 A 
ATOM     70  F   UNL A   1      42.306  21.722  27.720  1.00  0.00    -0.203 F 
ATOM     71  C   UNL A   1      43.602  21.290  25.849  1.00  0.00     0.198 A 
ATOM     72  C   UNL A   1      44.932  22.979  24.852  1.00  0.00     0.198 A 
ATOM     73  F   UNL A   1      44.930  25.139  25.639  1.00  0.00    -0.203 F 
ATOM     74  F   UNL A   1      43.143  20.031  25.873  1.00  0.00    -0.200 F 
ATOM     75  C   UNL A   1      44.492  21.675  24.871  1.00  0.00     0.200 A 
ATOM     76  F   UNL A   1      45.784  23.384  23.899  1.00  0.00    -0.200 F 
ATOM     77  F   UNL A   1      44.911  20.803  23.944  1.00  0.00    -0.200 F 
ENDBRANCH  53  67
BRANCH  54  78
ATOM     78  C   UNL A   1      41.171  30.502  33.168  1.00  0.00     0.064 A 
ATOM     79  C   UNL A   1      40.876  31.879  33.057  1.00  0.00     0.173 A 
ATOM     80  C   UNL A   1      40.091  29.624  33.321  1.00  0.00     0.173 A 
ATOM     81  F   UNL A   1      41.876  32.768  32.933  1.00  0.00    -0.203 F 
ATOM     82  C   UNL A   1      39.567  32.329  32.902  1.00  0.00     0.198 A 
ATOM     83  C   UNL A   1      38.777  30.088  33.205  1.00  0.00     0.198 A 
ATOM     84  F   UNL A   1      40.300  28.306  33.443  1.00  0.00    -0.203 F 
ATOM     85  F   UNL A   1      39.334  33.619  32.618  1.00  0.00    -0.200 F 
ATOM     86  C   UNL A   1      38.521  31.426  32.937  1.00  0.00     0.200 A 
ATOM     87  F   UNL A   1      37.758  29.217  33.240  1.00  0.00    -0.200 F 
ATOM     88  F   UNL A   1      37.273  31.834  32.667  1.00  0.00    -0.200 F 
ENDBRANCH  54  78
BRANCH  66  89
ATOM     89  C   UNL A   1      45.462  24.599  33.190  1.00  0.00     0.064 A 
ATOM     90  C   UNL A   1      46.756  24.556  33.732  1.00  0.00     0.173 A 
ATOM     91  C   UNL A   1      44.667  23.455  33.484  1.00  0.00     0.173 A 
ATOM     92  F   UNL A   1      47.587  25.602  33.664  1.00  0.00    -0.203 F 
ATOM     93  C   UNL A   1      47.238  23.445  34.435  1.00  0.00     0.198 A 
ATOM     94  C   UNL A   1      45.123  22.387  34.255  1.00  0.00     0.198 A 
ATOM     95  F   UNL A   1      43.400  23.336  33.065  1.00  0.00    -0.203 F 
ATOM     96  F   UNL A   1      48.504  23.443  34.876  1.00  0.00    -0.200 F 
ATOM     97  C   UNL A   1      46.419  22.369  34.711  1.00  0.00     0.200 A 
ATOM     98  F   UNL A   1      44.285  21.387  34.568  1.00  0.00    -0.200 F 
ATOM     99  F   UNL A   1      46.869  21.334  35.432  1.00  0.00    -0.200 F 
ENDBRANCH  66  89
ENDBRANCH  40  41
ENDBRANCH  32  35
ENDBRANCH  30  31
ENDBRANCH  29  30
ENDBRANCH  28  29
ENDBRANCH   1  28
TORSDOF 17
ENDMDL
MODEL 3
REMARK VINA RESULT:     -12.8      3.016      9.156
REMARK SMILES Cc1ccc(S(=O)(=O)N(CC(=O)NCCCCCCNC(=O)c2ccc(-c3c4nc(c(-c5c(F)c(F)c(F)c(F)c5F)c5ccc([nH]5)c(-c5c(F)c(F)c(F)c(F)c5F)c5nc(c(-c6c(F)c(F)c(F)c(F)c6F)c6ccc3[nH]6)C=C5)C=C4)cc2)c2cc(Cl)cc(Cl)c2)cc1
REMARK SMILES IDX 16 1 15 2 14 3 13 4 11 5 12 6 10 8 9 9 6 10 7 11 8 12 5 13
REMARK SMILES IDX 1 14 2 15 3 16 95 17 4 18 94 19 86 20 87 21 93 22 88 23
REMARK SMILES IDX 91 24 89 25 90 26 92 27 17 28 18 29 19 30 20 31 21 32 22 34
REMARK SMILES IDX 23 35 24 36 85 37 25 38 84 39 26 40 27 41 28 42 78 43 29 44
REMARK SMILES IDX 83 45 77 46 79 47 30 48 82 49 76 50 75 51 31 53 63 54 43 55
REMARK SMILES IDX 62 56 44 57 47 58 61 59 80 60 45 61 46 62 60 64 81 65 48 66
REMARK SMILES IDX 32 67 33 68 41 69 34 70 35 71 39 72 42 73 36 74 37 75 40 76
REMARK SMILES IDX 38 77 64 78 65 79 73 80 66 81 67 82 71 83 74 84 68 85 69 86
REMARK SMILES IDX 72 87 70 88 49 89 50 90 58 91 51 92 52 93 56 94 59 95 53 96
REMARK SMILES IDX 54 97 57 98 55 99
REMARK H PARENT 13 7 20 33 79 52 47 63
REMARK Flexibility Score: inf
ROOT
ATOM      1  C   UNL A   1      34.752  20.284  24.711  1.00  0.00     0.002 C 
ENDROOT
BRANCH   1   2
ATOM      2  C   UNL A   1      33.280  20.475  25.087  1.00  0.00     0.021 C 
BRANCH   2   3
ATOM      3  C   UNL A   1      32.678  21.824  24.695  1.00  0.00     0.116 C 
BRANCH   3   4
ATOM      4  N   UNL A   1      32.918  22.218  23.321  1.00  0.00    -0.355 N 
ATOM      5  C   UNL A   1      33.258  23.416  22.762  1.00  0.00     0.240 C 
ATOM      6  O   UNL A   1      33.580  23.394  21.568  1.00  0.00    -0.273 OA
ATOM      7  H   UNL A   1      32.818  21.485  22.670  1.00  0.00     0.163 HD
BRANCH   5   8
ATOM      8  C   UNL A   1      33.259  24.746  23.516  1.00  0.00     0.235 C 
BRANCH   8   9
ATOM      9  N   UNL A   1      32.117  24.908  24.453  1.00  0.00    -0.257 N 
BRANCH   9  10
ATOM     10  S   UNL A   1      32.519  25.142  26.118  1.00  0.00     0.264 S 
ATOM     11  O   UNL A   1      33.817  24.505  26.292  1.00  0.00    -0.201 OA
ATOM     12  O   UNL A   1      31.383  24.730  26.908  1.00  0.00    -0.201 OA
BRANCH  10  13
ATOM     13  C   UNL A   1      32.786  26.882  26.530  1.00  0.00     0.088 A 
ATOM     14  C   UNL A   1      32.989  31.170  27.104  1.00  0.00     0.044 C 
ATOM     15  C   UNL A   1      32.932  29.678  26.958  1.00  0.00    -0.051 A 
ATOM     16  C   UNL A   1      31.777  28.966  27.299  1.00  0.00     0.005 A 
ATOM     17  C   UNL A   1      34.020  28.977  26.438  1.00  0.00     0.005 A 
ATOM     18  C   UNL A   1      31.706  27.581  27.092  1.00  0.00     0.022 A 
ATOM     19  C   UNL A   1      33.947  27.596  26.221  1.00  0.00     0.022 A 
ENDBRANCH  10  13
ENDBRANCH   9  10
BRANCH   9  20
ATOM     20  C   UNL A   1      31.110  25.827  23.878  1.00  0.00     0.055 A 
ATOM     21  C   UNL A   1      31.580  26.979  23.218  1.00  0.00     0.047 A 
ATOM     22  C   UNL A   1      29.740  25.749  24.154  1.00  0.00     0.047 A 
ATOM     23  C   UNL A   1      30.719  28.028  22.891  1.00  0.00     0.044 A 
ATOM     24  C   UNL A   1      28.881  26.795  23.791  1.00  0.00     0.044 A 
ATOM     25  Cl  UNL A   1      31.358  29.461  22.183  1.00  0.00    -0.084 Cl
ATOM     26  C   UNL A   1      29.365  27.944  23.177  1.00  0.00     0.041 A 
ATOM     27  Cl  UNL A   1      27.202  26.679  24.154  1.00  0.00    -0.084 Cl
ENDBRANCH   9  20
ENDBRANCH   8   9
ENDBRANCH   5   8
ENDBRANCH   3   4
ENDBRANCH   2   3
ENDBRANCH   1   2
BRANCH   1  28
ATOM     28  C   UNL A   1      35.766  21.104  25.521  1.00  0.00     0.002 C 
BRANCH  28  29
ATOM     29  C   UNL A   1      37.236  20.839  25.205  1.00  0.00     0.021 C 
BRANCH  29  30
ATOM     30  C   UNL A   1      38.104  22.085  25.184  1.00  0.00     0.116 C 
BRANCH  30  31
ATOM     31  N   UNL A   1      39.299  21.964  26.012  1.00  0.00    -0.352 N 
ATOM     32  C   UNL A   1      40.096  22.935  26.593  1.00  0.00     0.251 C 
ATOM     33  H   UNL A   1      39.586  21.040  26.188  1.00  0.00     0.163 HD
ATOM     34  O   UNL A   1      41.138  22.613  27.156  1.00  0.00    -0.269 OA
BRANCH  32  35
ATOM     35  C   UNL A   1      39.594  24.324  26.721  1.00  0.00     0.039 A 
ATOM     36  C   UNL A   1      40.318  25.306  26.028  1.00  0.00     0.014 A 
ATOM     37  C   UNL A   1      38.781  24.673  27.788  1.00  0.00     0.014 A 
ATOM     38  C   UNL A   1      40.504  26.544  26.621  1.00  0.00     0.010 A 
ATOM     39  C   UNL A   1      39.107  25.813  28.469  1.00  0.00     0.010 A 
ATOM     40  C   UNL A   1      40.023  26.709  27.911  1.00  0.00    -0.014 A 
BRANCH  40  41
ATOM     41  C   UNL A   1      40.357  27.813  28.778  1.00  0.00     0.031 A 
ATOM     42  C   UNL A   1      39.434  28.955  28.778  1.00  0.00     0.074 A 
ATOM     43  C   UNL A   1      41.327  27.636  29.701  1.00  0.00     0.049 A 
ATOM     44  N   UNL A   1      39.688  30.088  29.320  1.00  0.00    -0.248 NA
ATOM     45  C   UNL A   1      38.137  28.920  28.110  1.00  0.00     0.031 C 
ATOM     46  C   UNL A   1      41.566  28.405  30.917  1.00  0.00     0.029 A 
ATOM     47  N   UNL A   1      42.439  26.780  29.614  1.00  0.00    -0.354 N 
ATOM     48  C   UNL A   1      38.509  30.798  29.369  1.00  0.00     0.074 A 
ATOM     49  C   UNL A   1      37.610  30.082  28.502  1.00  0.00     0.031 C 
ATOM     50  C   UNL A   1      42.846  28.237  31.293  1.00  0.00     0.029 A 
ATOM     51  C   UNL A   1      43.497  27.488  30.235  1.00  0.00     0.049 A 
ATOM     52  H   UNL A   1      42.474  25.883  29.209  1.00  0.00     0.167 HD
ATOM     53  C   UNL A   1      38.430  31.815  30.273  1.00  0.00     0.037 A 
ATOM     54  C   UNL A   1      44.550  27.949  29.493  1.00  0.00     0.037 A 
ATOM     55  C   UNL A   1      39.752  32.039  30.867  1.00  0.00     0.049 A 
ATOM     56  C   UNL A   1      44.662  29.457  29.516  1.00  0.00     0.074 A 
ATOM     57  C   UNL A   1      40.325  31.652  32.067  1.00  0.00     0.029 A 
ATOM     58  N   UNL A   1      40.799  32.421  30.035  1.00  0.00    -0.354 N 
ATOM     59  N   UNL A   1      43.656  30.262  29.728  1.00  0.00    -0.248 NA
ATOM     60  C   UNL A   1      45.923  30.169  29.346  1.00  0.00     0.031 C 
ATOM     61  C   UNL A   1      41.736  31.767  31.932  1.00  0.00     0.029 A 
ATOM     62  C   UNL A   1      42.014  32.245  30.661  1.00  0.00     0.049 A 
ATOM     63  H   UNL A   1      40.688  32.769  29.120  1.00  0.00     0.167 HD
ATOM     64  C   UNL A   1      44.103  31.562  29.758  1.00  0.00     0.074 A 
ATOM     65  C   UNL A   1      45.529  31.444  29.516  1.00  0.00     0.031 C 
ATOM     66  C   UNL A   1      43.257  32.614  29.992  1.00  0.00     0.037 A 
BRANCH  53  67
ATOM     67  C   UNL A   1      37.160  32.433  30.823  1.00  0.00     0.064 A 
ATOM     68  C   UNL A   1      36.394  33.303  30.010  1.00  0.00     0.173 A 
ATOM     69  C   UNL A   1      36.667  32.291  32.134  1.00  0.00     0.173 A 
ATOM     70  F   UNL A   1      36.690  33.496  28.719  1.00  0.00    -0.203 F 
ATOM     71  C   UNL A   1      35.291  34.015  30.490  1.00  0.00     0.198 A 
ATOM     72  C   UNL A   1      35.572  33.015  32.620  1.00  0.00     0.198 A 
ATOM     73  F   UNL A   1      37.186  31.423  33.003  1.00  0.00    -0.203 F 
ATOM     74  F   UNL A   1      34.625  34.840  29.669  1.00  0.00    -0.200 F 
ATOM     75  C   UNL A   1      34.889  33.885  31.802  1.00  0.00     0.200 A 
ATOM     76  F   UNL A   1      35.189  32.856  33.896  1.00  0.00    -0.200 F 
ATOM     77  F   UNL A   1      33.843  34.578  32.269  1.00  0.00    -0.200 F 
ENDBRANCH  53  67
BRANCH  54  78
ATOM     78  C   UNL A   1      44.844  27.053  28.335  1.00  0.00     0.064 A 
ATOM     79  C   UNL A   1      45.283  25.744  28.634  1.00  0.00     0.173 A 
ATOM     80  C   UNL A   1      44.258  27.265  27.082  1.00  0.00     0.173 A 
ATOM     81  F   UNL A   1      45.874  25.491  29.813  1.00  0.00    -0.203 F 
ATOM     82  C   UNL A   1      44.967  24.669  27.807  1.00  0.00     0.198 A 
ATOM     83  C   UNL A   1      43.980  26.185  26.237  1.00  0.00     0.198 A 
ATOM     84  F   UNL A   1      43.829  28.485  26.729  1.00  0.00    -0.203 F 
ATOM     85  F   UNL A   1      45.240  23.418  28.205  1.00  0.00    -0.200 F 
ATOM     86  C   UNL A   1      44.281  24.887  26.627  1.00  0.00     0.200 A 
ATOM     87  F   UNL A   1      43.316  26.391  25.090  1.00  0.00    -0.200 F 
ATOM     88  F   UNL A   1      43.867  23.848  25.888  1.00  0.00    -0.200 F 
ENDBRANCH  54  78
BRANCH  66  89
ATOM     89  C   UNL A   1      43.511  34.093  29.724  1.00  0.00     0.064 A 
ATOM     90  C   UNL A   1      43.579  34.678  28.450  1.00  0.00     0.173 A 
ATOM     91  C   UNL A   1      43.557  35.026  30.800  1.00  0.00     0.173 A 
ATOM     92  F   UNL A   1      43.416  33.962  27.333  1.00  0.00    -0.203 F 
ATOM     93  C   UNL A   1      43.754  36.055  28.266  1.00  0.00     0.198 A 
ATOM     94  C   UNL A   1      43.649  36.403  30.610  1.00  0.00     0.198 A 
ATOM     95  F   UNL A   1      43.483  34.645  32.082  1.00  0.00    -0.203 F 
ATOM     96  F   UNL A   1      43.870  36.544  27.024  1.00  0.00    -0.200 F 
ATOM     97  C   UNL A   1      43.772  36.919  29.342  1.00  0.00     0.200 A 
ATOM     98  F   UNL A   1      43.593  37.225  31.669  1.00  0.00    -0.200 F 
ATOM     99  F   UNL A   1      43.884  38.240  29.157  1.00  0.00    -0.200 F 
ENDBRANCH  66  89
ENDBRANCH  40  41
ENDBRANCH  32  35
ENDBRANCH  30  31
ENDBRANCH  29  30
ENDBRANCH  28  29
ENDBRANCH   1  28
TORSDOF 17
ENDMDL
