MODEL 1
REMARK VINA RESULT:     -12.8      0.000      0.000
REMARK SMILES Cc1cccc(CC(=O)N2CCCC[C@@H]2C(=O)NCCCCCCNC(=O)c2ccc(-c3c4nc(c(-c5c(F)c(F)c(F)c(F)c5F)c5ccc([nH]5)c(-c5c(F)c(F)c(F)c(F)c5F)c5nc(c(-c6c(F)c(F)c(F)c(F)c6F)c6ccc3[nH]6)C=C5)C=C4)cc2)c1
REMARK SMILES IDX 21 1 20 2 19 3 18 4 16 5 17 6 15 8 10 9 11 10 12 11 14 12
REMARK SMILES IDX 13 13 8 14 9 15 7 16 6 17 1 18 2 19 3 20 91 21 4 22 5 23
REMARK SMILES IDX 22 24 23 25 24 26 25 27 26 28 27 30 28 31 29 32 90 33 30 34
REMARK SMILES IDX 89 35 31 36 32 37 33 38 83 39 34 40 88 41 82 42 84 43 35 44
REMARK SMILES IDX 87 45 81 46 80 47 36 49 68 50 48 51 67 52 49 53 52 54 66 55
REMARK SMILES IDX 85 56 50 57 51 58 65 60 86 61 53 62 37 63 38 64 46 65 39 66
REMARK SMILES IDX 40 67 44 68 47 69 41 70 42 71 45 72 43 73 69 74 70 75 78 76
REMARK SMILES IDX 71 77 72 78 76 79 79 80 73 81 74 82 77 83 75 84 54 85 55 86
REMARK SMILES IDX 63 87 56 88 57 89 61 90 64 91 58 92 59 93 62 94 60 95
REMARK H PARENT 18 7 25 29 84 48 52 59
REMARK Flexibility Score: inf
ROOT
ATOM      1  C   UNL A   1      32.099  28.899  25.537  1.00  0.00     0.002 C 
ENDROOT
BRANCH   1   2
ATOM      2  C   UNL A   1      31.332  27.804  26.292  1.00  0.00     0.021 C 
BRANCH   2   3
ATOM      3  C   UNL A   1      32.188  26.658  26.833  1.00  0.00     0.116 C 
BRANCH   3   4
ATOM      4  N   UNL A   1      31.504  25.383  26.752  1.00  0.00    -0.354 N 
ATOM      5  C   UNL A   1      31.989  24.153  26.423  1.00  0.00     0.242 C 
ATOM      6  O   UNL A   1      31.167  23.242  26.262  1.00  0.00    -0.273 OA
ATOM      7  H   UNL A   1      30.543  25.410  26.968  1.00  0.00     0.163 HD
BRANCH   5   8
ATOM      8  C   UNL A   1      33.465  23.929  26.007  1.00  0.00     0.174 C 
ATOM      9  N   UNL A   1      33.817  24.089  24.574  1.00  0.00    -0.330 N 
ATOM     10  C   UNL A   1      35.040  23.422  24.130  1.00  0.00     0.120 C 
ATOM     11  C   UNL A   1      35.109  21.962  24.525  1.00  0.00     0.022 C 
ATOM     12  C   UNL A   1      33.723  22.485  26.525  1.00  0.00     0.035 C 
ATOM     13  C   UNL A   1      35.002  21.832  26.033  1.00  0.00     0.004 C 
BRANCH   9  14
ATOM     14  C   UNL A   1      33.456  25.170  23.767  1.00  0.00     0.227 C 
ATOM     15  O   UNL A   1      33.950  26.285  23.976  1.00  0.00    -0.275 OA
BRANCH  14  16
ATOM     16  C   UNL A   1      32.333  25.032  22.749  1.00  0.00     0.135 C 
BRANCH  16  17
ATOM     17  C   UNL A   1      31.131  25.914  22.934  1.00  0.00    -0.038 A 
ATOM     18  C   UNL A   1      30.176  29.504  22.118  1.00  0.00     0.044 C 
ATOM     19  C   UNL A   1      30.077  28.090  22.606  1.00  0.00    -0.051 A 
ATOM     20  C   UNL A   1      28.991  27.673  23.378  1.00  0.00     0.003 A 
ATOM     21  C   UNL A   1      31.135  27.201  22.380  1.00  0.00     0.007 A 
ATOM     22  C   UNL A   1      28.941  26.370  23.870  1.00  0.00     0.001 A 
ATOM     23  C   UNL A   1      30.000  25.488  23.639  1.00  0.00     0.004 A 
ENDBRANCH  16  17
ENDBRANCH  14  16
ENDBRANCH   9  14
ENDBRANCH   5   8
ENDBRANCH   3   4
ENDBRANCH   2   3
ENDBRANCH   1   2
BRANCH   1  24
ATOM     24  C   UNL A   1      31.579  30.340  25.678  1.00  0.00     0.002 C 
BRANCH  24  25
ATOM     25  C   UNL A   1      32.034  31.129  26.906  1.00  0.00     0.021 C 
BRANCH  25  26
ATOM     26  C   UNL A   1      33.433  30.777  27.384  1.00  0.00     0.116 C 
BRANCH  26  27
ATOM     27  N   UNL A   1      34.027  31.732  28.310  1.00  0.00    -0.352 N 
ATOM     28  C   UNL A   1      35.143  31.591  29.124  1.00  0.00     0.251 C 
ATOM     29  H   UNL A   1      33.573  32.603  28.364  1.00  0.00     0.163 HD
ATOM     30  O   UNL A   1      35.443  32.461  29.919  1.00  0.00    -0.269 OA
BRANCH  28  31
ATOM     31  C   UNL A   1      36.051  30.432  28.913  1.00  0.00     0.039 A 
ATOM     32  C   UNL A   1      36.364  29.638  30.023  1.00  0.00     0.014 A 
ATOM     33  C   UNL A   1      36.759  30.284  27.725  1.00  0.00     0.014 A 
ATOM     34  C   UNL A   1      37.548  28.904  30.024  1.00  0.00     0.010 A 
ATOM     35  C   UNL A   1      37.991  29.667  27.767  1.00  0.00     0.010 A 
ATOM     36  C   UNL A   1      38.412  29.033  28.939  1.00  0.00    -0.014 A 
BRANCH  36  37
ATOM     37  C   UNL A   1      39.808  28.620  28.965  1.00  0.00     0.031 A 
ATOM     38  C   UNL A   1      40.179  27.249  28.563  1.00  0.00     0.074 A 
ATOM     39  C   UNL A   1      40.760  29.541  29.230  1.00  0.00     0.049 A 
ATOM     40  N   UNL A   1      41.283  26.670  28.893  1.00  0.00    -0.248 NA
ATOM     41  C   UNL A   1      39.305  26.399  27.763  1.00  0.00     0.031 C 
ATOM     42  C   UNL A   1      42.200  29.415  29.021  1.00  0.00     0.029 A 
ATOM     43  N   UNL A   1      40.619  30.749  29.937  1.00  0.00    -0.354 N 
ATOM     44  C   UNL A   1      41.391  25.515  28.153  1.00  0.00     0.074 A 
ATOM     45  C   UNL A   1      40.111  25.367  27.501  1.00  0.00     0.031 C 
ATOM     46  C   UNL A   1      42.833  30.288  29.821  1.00  0.00     0.029 A 
ATOM     47  C   UNL A   1      41.823  30.901  30.664  1.00  0.00     0.049 A 
ATOM     48  H   UNL A   1      39.846  31.359  29.929  1.00  0.00     0.167 HD
ATOM     49  C   UNL A   1      42.600  24.887  28.076  1.00  0.00     0.037 A 
ATOM     50  C   UNL A   1      41.832  30.886  32.029  1.00  0.00     0.037 A 
ATOM     51  C   UNL A   1      43.591  25.558  28.911  1.00  0.00     0.049 A 
ATOM     52  C   UNL A   1      42.662  29.770  32.620  1.00  0.00     0.074 A 
ATOM     53  C   UNL A   1      44.562  26.505  28.631  1.00  0.00     0.029 A 
ATOM     54  N   UNL A   1      43.440  25.544  30.293  1.00  0.00    -0.354 N 
ATOM     55  N   UNL A   1      43.029  28.711  31.951  1.00  0.00    -0.248 NA
ATOM     56  C   UNL A   1      43.129  29.741  34.004  1.00  0.00     0.031 C 
ATOM     57  C   UNL A   1      44.949  27.111  29.851  1.00  0.00     0.029 A 
ATOM     58  C   UNL A   1      44.236  26.511  30.874  1.00  0.00     0.049 A 
ATOM     59  H   UNL A   1      42.848  24.932  30.788  1.00  0.00     0.167 HD
ATOM     60  C   UNL A   1      43.753  27.881  32.764  1.00  0.00     0.074 A 
ATOM     61  C   UNL A   1      43.796  28.572  34.039  1.00  0.00     0.031 C 
ATOM     62  C   UNL A   1      44.255  26.692  32.316  1.00  0.00     0.037 A 
BRANCH  49  63
ATOM     63  C   UNL A   1      42.942  23.861  27.019  1.00  0.00     0.064 A 
ATOM     64  C   UNL A   1      42.614  22.499  27.198  1.00  0.00     0.173 A 
ATOM     65  C   UNL A   1      43.645  24.147  25.835  1.00  0.00     0.173 A 
ATOM     66  F   UNL A   1      41.854  22.089  28.222  1.00  0.00    -0.203 F 
ATOM     67  C   UNL A   1      43.063  21.498  26.333  1.00  0.00     0.198 A 
ATOM     68  C   UNL A   1      44.144  23.142  25.000  1.00  0.00     0.198 A 
ATOM     69  F   UNL A   1      43.827  25.409  25.427  1.00  0.00    -0.203 F 
ATOM     70  F   UNL A   1      42.729  20.221  26.562  1.00  0.00    -0.200 F 
ATOM     71  C   UNL A   1      43.864  21.816  25.255  1.00  0.00     0.200 A 
ATOM     72  F   UNL A   1      44.901  23.471  23.943  1.00  0.00    -0.200 F 
ATOM     73  F   UNL A   1      44.339  20.853  24.456  1.00  0.00    -0.200 F 
ENDBRANCH  49  63
BRANCH  50  74
ATOM     74  C   UNL A   1      40.593  31.461  32.616  1.00  0.00     0.064 A 
ATOM     75  C   UNL A   1      40.429  32.861  32.555  1.00  0.00     0.173 A 
ATOM     76  C   UNL A   1      39.447  30.686  32.828  1.00  0.00     0.173 A 
ATOM     77  F   UNL A   1      41.497  33.650  32.356  1.00  0.00    -0.203 F 
ATOM     78  C   UNL A   1      39.165  33.445  32.563  1.00  0.00     0.198 A 
ATOM     79  C   UNL A   1      38.182  31.278  32.856  1.00  0.00     0.198 A 
ATOM     80  F   UNL A   1      39.535  29.350  32.881  1.00  0.00    -0.203 F 
ATOM     81  F   UNL A   1      39.037  34.766  32.372  1.00  0.00    -0.200 F 
ATOM     82  C   UNL A   1      38.039  32.649  32.683  1.00  0.00     0.200 A 
ATOM     83  F   UNL A   1      37.088  30.507  32.952  1.00  0.00    -0.200 F 
ATOM     84  F   UNL A   1      36.818  33.194  32.589  1.00  0.00    -0.200 F 
ENDBRANCH  50  74
BRANCH  62  85
ATOM     85  C   UNL A   1      44.887  25.613  33.157  1.00  0.00     0.064 A 
ATOM     86  C   UNL A   1      46.254  25.301  33.125  1.00  0.00     0.173 A 
ATOM     87  C   UNL A   1      44.133  24.965  34.167  1.00  0.00     0.173 A 
ATOM     88  F   UNL A   1      47.089  25.920  32.280  1.00  0.00    -0.203 F 
ATOM     89  C   UNL A   1      46.819  24.381  34.014  1.00  0.00     0.198 A 
ATOM     90  C   UNL A   1      44.710  24.093  35.086  1.00  0.00     0.198 A 
ATOM     91  F   UNL A   1      42.817  25.184  34.307  1.00  0.00    -0.203 F 
ATOM     92  F   UNL A   1      48.125  24.092  33.927  1.00  0.00    -0.200 F 
ATOM     93  C   UNL A   1      46.051  23.791  35.002  1.00  0.00     0.200 A 
ATOM     94  F   UNL A   1      43.960  23.568  36.066  1.00  0.00    -0.200 F 
ATOM     95  F   UNL A   1      46.609  22.951  35.885  1.00  0.00    -0.200 F 
ENDBRANCH  62  85
ENDBRANCH  36  37
ENDBRANCH  28  31
ENDBRANCH  26  27
ENDBRANCH  25  26
ENDBRANCH  24  25
ENDBRANCH   1  24
TORSDOF 16
ENDMDL
MODEL 2
REMARK VINA RESULT:     -12.6      3.226      9.619
REMARK SMILES Cc1cccc(CC(=O)N2CCCC[C@@H]2C(=O)NCCCCCCNC(=O)c2ccc(-c3c4nc(c(-c5c(F)c(F)c(F)c(F)c5F)c5ccc([nH]5)c(-c5c(F)c(F)c(F)c(F)c5F)c5nc(c(-c6c(F)c(F)c(F)c(F)c6F)c6ccc3[nH]6)C=C5)C=C4)cc2)c1
REMARK SMILES IDX 21 1 20 2 19 3 18 4 16 5 17 6 15 8 10 9 11 10 12 11 14 12
REMARK SMILES IDX 13 13 8 14 9 15 7 16 6 17 1 18 2 19 3 20 91 21 4 22 5 23
REMARK SMILES IDX 22 24 23 25 24 26 25 27 26 28 27 30 28 31 29 32 90 33 30 34
REMARK SMILES IDX 89 35 31 36 32 37 33 38 83 39 34 40 88 41 82 42 84 43 35 44
REMARK SMILES IDX 87 45 81 46 80 47 36 49 68 50 48 51 67 52 49 53 52 54 66 55
REMARK SMILES IDX 85 56 50 57 51 58 65 60 86 61 53 62 37 63 38 64 46 65 39 66
REMARK SMILES IDX 40 67 44 68 47 69 41 70 42 71 45 72 43 73 69 74 70 75 78 76
REMARK SMILES IDX 71 77 72 78 76 79 79 80 73 81 74 82 77 83 75 84 54 85 55 86
REMARK SMILES IDX 63 87 56 88 57 89 61 90 64 91 58 92 59 93 62 94 60 95
REMARK H PARENT 18 7 25 29 84 48 52 59
REMARK Flexibility Score: inf
ROOT
ATOM      1  C   UNL A   1      36.131  22.025  24.979  1.00  0.00     0.002 C 
ENDROOT
BRANCH   1   2
ATOM      2  C   UNL A   1      35.849  23.340  24.239  1.00  0.00     0.021 C 
BRANCH   2   3
ATOM      3  C   UNL A   1      34.887  24.297  24.944  1.00  0.00     0.116 C 
BRANCH   3   4
ATOM      4  N   UNL A   1      34.394  25.327  24.053  1.00  0.00    -0.354 N 
ATOM      5  C   UNL A   1      33.690  26.460  24.335  1.00  0.00     0.242 C 
ATOM      6  O   UNL A   1      33.237  27.100  23.377  1.00  0.00    -0.273 OA
ATOM      7  H   UNL A   1      34.598  25.187  23.099  1.00  0.00     0.163 HD
BRANCH   5   8
ATOM      8  C   UNL A   1      33.238  26.817  25.773  1.00  0.00     0.174 C 
ATOM      9  N   UNL A   1      31.782  26.918  26.041  1.00  0.00    -0.330 N 
ATOM     10  C   UNL A   1      31.392  27.704  27.210  1.00  0.00     0.120 C 
ATOM     11  C   UNL A   1      32.027  29.079  27.252  1.00  0.00     0.022 C 
ATOM     12  C   UNL A   1      33.981  28.163  26.012  1.00  0.00     0.035 C 
ATOM     13  C   UNL A   1      33.539  28.947  27.234  1.00  0.00     0.004 C 
BRANCH   9  14
ATOM     14  C   UNL A   1      30.822  25.974  25.669  1.00  0.00     0.227 C 
ATOM     15  O   UNL A   1      29.822  26.332  25.033  1.00  0.00    -0.275 OA
BRANCH  14  16
ATOM     16  C   UNL A   1      30.903  24.545  26.185  1.00  0.00     0.135 C 
BRANCH  16  17
ATOM     17  C   UNL A   1      31.361  23.493  25.215  1.00  0.00    -0.038 A 
ATOM     18  C   UNL A   1      32.997  20.065  25.414  1.00  0.00     0.044 C 
ATOM     19  C   UNL A   1      32.364  21.299  24.846  1.00  0.00    -0.051 A 
ATOM     20  C   UNL A   1      32.385  21.547  23.472  1.00  0.00     0.003 A 
ATOM     21  C   UNL A   1      31.840  22.271  25.706  1.00  0.00     0.007 A 
ATOM     22  C   UNL A   1      31.841  22.726  22.965  1.00  0.00     0.001 A 
ATOM     23  C   UNL A   1      31.319  23.691  23.830  1.00  0.00     0.004 A 
ENDBRANCH  16  17
ENDBRANCH  14  16
ENDBRANCH   9  14
ENDBRANCH   5   8
ENDBRANCH   3   4
ENDBRANCH   2   3
ENDBRANCH   1   2
BRANCH   1  24
ATOM     24  C   UNL A   1      37.435  21.289  24.627  1.00  0.00     0.002 C 
BRANCH  24  25
ATOM     25  C   UNL A   1      38.546  21.298  25.677  1.00  0.00     0.021 C 
BRANCH  25  26
ATOM     26  C   UNL A   1      38.959  22.688  26.128  1.00  0.00     0.116 C 
BRANCH  26  27
ATOM     27  N   UNL A   1      40.390  22.870  26.335  1.00  0.00    -0.352 N 
ATOM     28  C   UNL A   1      41.105  24.039  26.563  1.00  0.00     0.251 C 
ATOM     29  H   UNL A   1      40.927  22.046  26.310  1.00  0.00     0.163 HD
ATOM     30  O   UNL A   1      42.320  24.021  26.611  1.00  0.00    -0.269 OA
BRANCH  28  31
ATOM     31  C   UNL A   1      40.366  25.286  26.893  1.00  0.00     0.039 A 
ATOM     32  C   UNL A   1      40.726  26.457  26.214  1.00  0.00     0.014 A 
ATOM     33  C   UNL A   1      39.527  25.350  28.000  1.00  0.00     0.014 A 
ATOM     34  C   UNL A   1      40.470  27.692  26.803  1.00  0.00     0.010 A 
ATOM     35  C   UNL A   1      39.386  26.558  28.649  1.00  0.00     0.010 A 
ATOM     36  C   UNL A   1      39.915  27.719  28.080  1.00  0.00    -0.014 A 
BRANCH  36  37
ATOM     37  C   UNL A   1      39.926  28.893  28.941  1.00  0.00     0.031 A 
ATOM     38  C   UNL A   1      38.882  29.927  28.794  1.00  0.00     0.074 A 
ATOM     39  C   UNL A   1      40.819  28.956  29.955  1.00  0.00     0.049 A 
ATOM     40  N   UNL A   1      38.998  31.139  29.216  1.00  0.00    -0.248 NA
ATOM     41  C   UNL A   1      37.613  29.672  28.124  1.00  0.00     0.031 C 
ATOM     42  C   UNL A   1      40.811  29.877  31.089  1.00  0.00     0.029 A 
ATOM     43  N   UNL A   1      42.053  28.291  30.060  1.00  0.00    -0.354 N 
ATOM     44  C   UNL A   1      37.761  31.736  29.124  1.00  0.00     0.074 A 
ATOM     45  C   UNL A   1      36.944  30.796  28.393  1.00  0.00     0.031 C 
ATOM     46  C   UNL A   1      42.054  29.962  31.586  1.00  0.00     0.029 A 
ATOM     47  C   UNL A   1      42.921  29.207  30.701  1.00  0.00     0.049 A 
ATOM     48  H   UNL A   1      42.269  27.380  29.752  1.00  0.00     0.167 HD
ATOM     49  C   UNL A   1      37.537  32.903  29.795  1.00  0.00     0.037 A 
ATOM     50  C   UNL A   1      44.014  29.712  30.059  1.00  0.00     0.037 A 
ATOM     51  C   UNL A   1      38.751  33.367  30.456  1.00  0.00     0.049 A 
ATOM     52  C   UNL A   1      43.989  31.216  29.908  1.00  0.00     0.074 A 
ATOM     53  C   UNL A   1      39.221  33.228  31.752  1.00  0.00     0.029 A 
ATOM     54  N   UNL A   1      39.834  33.777  29.687  1.00  0.00    -0.354 N 
ATOM     55  N   UNL A   1      42.906  31.936  30.023  1.00  0.00    -0.248 NA
ATOM     56  C   UNL A   1      45.164  32.028  29.599  1.00  0.00     0.031 C 
ATOM     57  C   UNL A   1      40.612  33.493  31.746  1.00  0.00     0.029 A 
ATOM     58  C   UNL A   1      40.981  33.823  30.453  1.00  0.00     0.049 A 
ATOM     59  H   UNL A   1      39.789  34.002  28.729  1.00  0.00     0.167 HD
ATOM     60  C   UNL A   1      43.206  33.256  29.817  1.00  0.00     0.074 A 
ATOM     61  C   UNL A   1      44.634  33.265  29.561  1.00  0.00     0.031 C 
ATOM     62  C   UNL A   1      42.250  34.228  29.872  1.00  0.00     0.037 A 
BRANCH  49  63
ATOM     63  C   UNL A   1      36.156  33.445  30.088  1.00  0.00     0.064 A 
ATOM     64  C   UNL A   1      35.363  34.005  29.062  1.00  0.00     0.173 A 
ATOM     65  C   UNL A   1      35.581  33.496  31.370  1.00  0.00     0.173 A 
ATOM     66  F   UNL A   1      35.729  33.934  27.776  1.00  0.00    -0.203 F 
ATOM     67  C   UNL A   1      34.162  34.670  29.319  1.00  0.00     0.198 A 
ATOM     68  C   UNL A   1      34.408  34.211  31.637  1.00  0.00     0.198 A 
ATOM     69  F   UNL A   1      36.111  32.814  32.394  1.00  0.00    -0.203 F 
ATOM     70  F   UNL A   1      33.460  35.192  28.303  1.00  0.00    -0.200 F 
ATOM     71  C   UNL A   1      33.705  34.810  30.612  1.00  0.00     0.200 A 
ATOM     72  F   UNL A   1      33.966  34.316  32.899  1.00  0.00    -0.200 F 
ATOM     73  F   UNL A   1      32.582  35.494  30.865  1.00  0.00    -0.200 F 
ENDBRANCH  49  63
BRANCH  50  74
ATOM     74  C   UNL A   1      44.614  28.746  29.102  1.00  0.00     0.064 A 
ATOM     75  C   UNL A   1      45.410  27.709  29.633  1.00  0.00     0.173 A 
ATOM     76  C   UNL A   1      44.105  28.572  27.811  1.00  0.00     0.173 A 
ATOM     77  F   UNL A   1      45.925  27.827  30.868  1.00  0.00    -0.203 F 
ATOM     78  C   UNL A   1      45.568  26.499  28.961  1.00  0.00     0.198 A 
ATOM     79  C   UNL A   1      44.284  27.364  27.131  1.00  0.00     0.198 A 
ATOM     80  F   UNL A   1      43.330  29.514  27.256  1.00  0.00    -0.203 F 
ATOM     81  F   UNL A   1      46.221  25.487  29.551  1.00  0.00    -0.200 F 
ATOM     82  C   UNL A   1      44.978  26.316  27.723  1.00  0.00     0.200 A 
ATOM     83  F   UNL A   1      43.697  27.177  25.940  1.00  0.00    -0.200 F 
ATOM     84  F   UNL A   1      45.042  25.122  27.118  1.00  0.00    -0.200 F 
ENDBRANCH  50  74
BRANCH  62  85
ATOM     85  C   UNL A   1      42.416  35.671  29.470  1.00  0.00     0.064 A 
ATOM     86  C   UNL A   1      43.185  36.597  30.189  1.00  0.00     0.173 A 
ATOM     87  C   UNL A   1      41.924  36.121  28.219  1.00  0.00     0.173 A 
ATOM     88  F   UNL A   1      43.784  36.260  31.339  1.00  0.00    -0.203 F 
ATOM     89  C   UNL A   1      43.415  37.891  29.711  1.00  0.00     0.198 A 
ATOM     90  C   UNL A   1      42.203  37.391  27.721  1.00  0.00     0.198 A 
ATOM     91  F   UNL A   1      41.182  35.329  27.431  1.00  0.00    -0.203 F 
ATOM     92  F   UNL A   1      44.132  38.752  30.448  1.00  0.00    -0.200 F 
ATOM     93  C   UNL A   1      42.939  38.281  28.472  1.00  0.00     0.200 A 
ATOM     94  F   UNL A   1      41.774  37.735  26.498  1.00  0.00    -0.200 F 
ATOM     95  F   UNL A   1      43.208  39.504  27.996  1.00  0.00    -0.200 F 
ENDBRANCH  62  85
ENDBRANCH  36  37
ENDBRANCH  28  31
ENDBRANCH  26  27
ENDBRANCH  25  26
ENDBRANCH  24  25
ENDBRANCH   1  24
TORSDOF 16
ENDMDL
MODEL 3
REMARK VINA RESULT:     -12.5      1.393      3.050
REMARK SMILES Cc1cccc(CC(=O)N2CCCC[C@@H]2C(=O)NCCCCCCNC(=O)c2ccc(-c3c4nc(c(-c5c(F)c(F)c(F)c(F)c5F)c5ccc([nH]5)c(-c5c(F)c(F)c(F)c(F)c5F)c5nc(c(-c6c(F)c(F)c(F)c(F)c6F)c6ccc3[nH]6)C=C5)C=C4)cc2)c1
REMARK SMILES IDX 21 1 20 2 19 3 18 4 16 5 17 6 15 8 10 9 11 10 12 11 14 12
REMARK SMILES IDX 13 13 8 14 9 15 7 16 6 17 1 18 2 19 3 20 91 21 4 22 5 23
REMARK SMILES IDX 22 24 23 25 24 26 25 27 26 28 27 30 28 31 29 32 90 33 30 34
REMARK SMILES IDX 89 35 31 36 32 37 33 38 83 39 34 40 88 41 82 42 84 43 35 44
REMARK SMILES IDX 87 45 81 46 80 47 36 49 68 50 48 51 67 52 49 53 52 54 66 55
REMARK SMILES IDX 85 56 50 57 51 58 65 60 86 61 53 62 37 63 38 64 46 65 39 66
REMARK SMILES IDX 40 67 44 68 47 69 41 70 42 71 45 72 43 73 69 74 70 75 78 76
REMARK SMILES IDX 71 77 72 78 76 79 79 80 73 81 74 82 77 83 75 84 54 85 55 86
REMARK SMILES IDX 63 87 56 88 57 89 61 90 64 91 58 92 59 93 62 94 60 95
REMARK H PARENT 18 7 25 29 84 48 52 59
REMARK Flexibility Score: inf
ROOT
ATOM      1  C   UNL A   1      32.186  28.451  25.857  1.00  0.00     0.002 C 
ENDROOT
BRANCH   1   2
ATOM      2  C   UNL A   1      31.018  27.571  25.390  1.00  0.00     0.021 C 
BRANCH   2   3
ATOM      3  C   UNL A   1      31.316  26.074  25.308  1.00  0.00     0.116 C 
BRANCH   3   4
ATOM      4  N   UNL A   1      32.539  25.802  24.581  1.00  0.00    -0.354 N 
ATOM      5  C   UNL A   1      32.986  24.637  24.032  1.00  0.00     0.242 C 
ATOM      6  O   UNL A   1      34.148  24.620  23.604  1.00  0.00    -0.273 OA
ATOM      7  H   UNL A   1      33.137  26.576  24.465  1.00  0.00     0.163 HD
BRANCH   5   8
ATOM      8  C   UNL A   1      32.201  23.308  24.159  1.00  0.00     0.174 C 
ATOM      9  N   UNL A   1      32.525  22.412  25.297  1.00  0.00    -0.330 N 
ATOM     10  C   UNL A   1      32.157  21.006  25.140  1.00  0.00     0.120 C 
ATOM     11  C   UNL A   1      32.645  20.396  23.842  1.00  0.00     0.022 C 
ATOM     12  C   UNL A   1      32.484  22.642  22.781  1.00  0.00     0.035 C 
ATOM     13  C   UNL A   1      32.091  21.180  22.666  1.00  0.00     0.004 C 
BRANCH   9  14
ATOM     14  C   UNL A   1      32.631  22.807  26.633  1.00  0.00     0.227 C 
ATOM     15  O   UNL A   1      31.636  23.247  27.225  1.00  0.00    -0.275 OA
BRANCH  14  16
ATOM     16  C   UNL A   1      33.989  22.867  27.314  1.00  0.00     0.135 C 
BRANCH  16  17
ATOM     17  C   UNL A   1      35.201  22.719  26.438  1.00  0.00    -0.038 A 
ATOM     18  C   UNL A   1      37.165  19.855  24.887  1.00  0.00     0.044 C 
ATOM     19  C   UNL A   1      36.734  21.246  25.240  1.00  0.00    -0.051 A 
ATOM     20  C   UNL A   1      37.541  22.344  24.936  1.00  0.00     0.003 A 
ATOM     21  C   UNL A   1      35.562  21.445  25.980  1.00  0.00     0.007 A 
ATOM     22  C   UNL A   1      37.152  23.627  25.319  1.00  0.00     0.001 A 
ATOM     23  C   UNL A   1      35.980  23.817  26.057  1.00  0.00     0.004 A 
ENDBRANCH  16  17
ENDBRANCH  14  16
ENDBRANCH   9  14
ENDBRANCH   5   8
ENDBRANCH   3   4
ENDBRANCH   2   3
ENDBRANCH   1   2
BRANCH   1  24
ATOM     24  C   UNL A   1      31.921  29.392  27.045  1.00  0.00     0.002 C 
BRANCH  24  25
ATOM     25  C   UNL A   1      32.774  30.658  27.135  1.00  0.00     0.021 C 
BRANCH  25  26
ATOM     26  C   UNL A   1      34.231  30.399  27.481  1.00  0.00     0.116 C 
BRANCH  26  27
ATOM     27  N   UNL A   1      34.777  31.253  28.528  1.00  0.00    -0.352 N 
ATOM     28  C   UNL A   1      35.834  31.013  29.397  1.00  0.00     0.251 C 
ATOM     29  H   UNL A   1      34.334  32.125  28.633  1.00  0.00     0.163 HD
ATOM     30  O   UNL A   1      36.093  31.800  30.287  1.00  0.00    -0.269 OA
BRANCH  28  31
ATOM     31  C   UNL A   1      36.735  29.860  29.139  1.00  0.00     0.039 A 
ATOM     32  C   UNL A   1      37.029  29.009  30.212  1.00  0.00     0.014 A 
ATOM     33  C   UNL A   1      37.456  29.765  27.954  1.00  0.00     0.014 A 
ATOM     34  C   UNL A   1      38.207  28.266  30.190  1.00  0.00     0.010 A 
ATOM     35  C   UNL A   1      38.683  29.136  27.980  1.00  0.00     0.010 A 
ATOM     36  C   UNL A   1      39.085  28.441  29.123  1.00  0.00    -0.014 A 
BRANCH  36  37
ATOM     37  C   UNL A   1      40.477  28.016  29.145  1.00  0.00     0.031 A 
ATOM     38  C   UNL A   1      40.854  26.694  28.607  1.00  0.00     0.074 A 
ATOM     39  C   UNL A   1      41.426  28.895  29.537  1.00  0.00     0.049 A 
ATOM     40  N   UNL A   1      41.944  26.074  28.904  1.00  0.00    -0.248 NA
ATOM     41  C   UNL A   1      40.000  25.944  27.694  1.00  0.00     0.031 C 
ATOM     42  C   UNL A   1      42.871  28.780  29.358  1.00  0.00     0.029 A 
ATOM     43  N   UNL A   1      41.270  30.020  30.367  1.00  0.00    -0.354 N 
ATOM     44  C   UNL A   1      42.068  25.005  28.046  1.00  0.00     0.074 A 
ATOM     45  C   UNL A   1      40.808  24.939  27.345  1.00  0.00     0.031 C 
ATOM     46  C   UNL A   1      43.484  29.556  30.266  1.00  0.00     0.029 A 
ATOM     47  C   UNL A   1      42.453  30.082  31.142  1.00  0.00     0.049 A 
ATOM     48  H   UNL A   1      40.500  30.634  30.402  1.00  0.00     0.167 HD
ATOM     49  C   UNL A   1      43.275  24.379  27.937  1.00  0.00     0.037 A 
ATOM     50  C   UNL A   1      42.420  29.919  32.497  1.00  0.00     0.037 A 
ATOM     51  C   UNL A   1      44.244  24.946  28.869  1.00  0.00     0.049 A 
ATOM     52  C   UNL A   1      43.226  28.738  32.986  1.00  0.00     0.074 A 
ATOM     53  C   UNL A   1      45.229  25.910  28.722  1.00  0.00     0.029 A 
ATOM     54  N   UNL A   1      44.052  24.784  30.236  1.00  0.00    -0.354 N 
ATOM     55  N   UNL A   1      43.608  27.755  32.217  1.00  0.00    -0.248 NA
ATOM     56  C   UNL A   1      43.651  28.554  34.372  1.00  0.00     0.031 C 
ATOM     57  C   UNL A   1      45.582  26.377  30.012  1.00  0.00     0.029 A 
ATOM     58  C   UNL A   1      44.835  25.675  30.942  1.00  0.00     0.049 A 
ATOM     59  H   UNL A   1      43.442  24.127  30.644  1.00  0.00     0.167 HD
ATOM     60  C   UNL A   1      44.303  26.835  32.955  1.00  0.00     0.074 A 
ATOM     61  C   UNL A   1      44.310  27.383  34.299  1.00  0.00     0.031 C 
ATOM     62  C   UNL A   1      44.811  25.698  32.395  1.00  0.00     0.037 A 
BRANCH  49  63
ATOM     63  C   UNL A   1      43.644  23.471  26.785  1.00  0.00     0.064 A 
ATOM     64  C   UNL A   1      43.188  22.135  26.741  1.00  0.00     0.173 A 
ATOM     65  C   UNL A   1      44.491  23.840  25.725  1.00  0.00     0.173 A 
ATOM     66  F   UNL A   1      42.293  21.670  27.621  1.00  0.00    -0.203 F 
ATOM     67  C   UNL A   1      43.645  21.217  25.791  1.00  0.00     0.198 A 
ATOM     68  C   UNL A   1      44.992  22.909  24.809  1.00  0.00     0.198 A 
ATOM     69  F   UNL A   1      44.818  25.122  25.515  1.00  0.00    -0.203 F 
ATOM     70  F   UNL A   1      43.185  19.958  25.808  1.00  0.00    -0.200 F 
ATOM     71  C   UNL A   1      44.579  21.594  24.850  1.00  0.00     0.200 A 
ATOM     72  F   UNL A   1      45.883  23.300  23.885  1.00  0.00    -0.200 F 
ATOM     73  F   UNL A   1      45.058  20.702  23.974  1.00  0.00    -0.200 F 
ENDBRANCH  49  63
BRANCH  50  74
ATOM     74  C   UNL A   1      41.167  30.437  33.106  1.00  0.00     0.064 A 
ATOM     75  C   UNL A   1      40.992  31.835  33.151  1.00  0.00     0.173 A 
ATOM     76  C   UNL A   1      40.025  29.638  33.238  1.00  0.00     0.173 A 
ATOM     77  F   UNL A   1      42.056  32.646  33.031  1.00  0.00    -0.203 F 
ATOM     78  C   UNL A   1      39.722  32.407  33.183  1.00  0.00     0.198 A 
ATOM     79  C   UNL A   1      38.754  30.217  33.291  1.00  0.00     0.198 A 
ATOM     80  F   UNL A   1      40.123  28.303  33.189  1.00  0.00    -0.203 F 
ATOM     81  F   UNL A   1      39.586  33.738  33.094  1.00  0.00    -0.200 F 
ATOM     82  C   UNL A   1      38.602  31.596  33.223  1.00  0.00     0.200 A 
ATOM     83  F   UNL A   1      37.666  29.433  33.309  1.00  0.00    -0.200 F 
ATOM     84  F   UNL A   1      37.378  32.137  33.152  1.00  0.00    -0.200 F 
ENDBRANCH  50  74
BRANCH  62  85
ATOM     85  C   UNL A   1      45.412  24.528  33.132  1.00  0.00     0.064 A 
ATOM     86  C   UNL A   1      46.726  24.509  33.624  1.00  0.00     0.173 A 
ATOM     87  C   UNL A   1      44.596  23.435  33.516  1.00  0.00     0.173 A 
ATOM     88  F   UNL A   1      47.564  25.531  33.410  1.00  0.00    -0.203 F 
ATOM     89  C   UNL A   1      47.200  23.455  34.411  1.00  0.00     0.198 A 
ATOM     90  C   UNL A   1      45.055  22.417  34.348  1.00  0.00     0.198 A 
ATOM     91  F   UNL A   1      43.319  23.341  33.118  1.00  0.00    -0.203 F 
ATOM     92  F   UNL A   1      48.472  23.465  34.834  1.00  0.00    -0.200 F 
ATOM     93  C   UNL A   1      46.362  22.420  34.786  1.00  0.00     0.200 A 
ATOM     94  F   UNL A   1      44.215  21.448  34.739  1.00  0.00    -0.200 F 
ATOM     95  F   UNL A   1      46.806  21.441  35.584  1.00  0.00    -0.200 F 
ENDBRANCH  62  85
ENDBRANCH  36  37
ENDBRANCH  28  31
ENDBRANCH  26  27
ENDBRANCH  25  26
ENDBRANCH  24  25
ENDBRANCH   1  24
TORSDOF 16
ENDMDL
