MODEL 1
REMARK VINA RESULT:     -14.3      0.000      0.000
REMARK SMILES O=C(NCCCCCCNC(=O)c1ccc(N2C(=O)[C@@H]3N=NC(c4ccccc4)=C3[C@H]2c2cccc(Br)c2)cc1)c1ccc(-c2c3nc(c(-c4c(F)c(F)c(F)c(F)c4F)c4ccc([nH]4)c(-c4c(F)c(F)c(F)c(F)c4F)c4nc(c(-c5c(F)c(F)c(F)c(F)c5F)c5ccc2[nH]5)C=C4)C=C3)cc1
REMARK SMILES IDX 6 1 5 2 4 3 3 4 1 5 2 6 41 8 42 9 103 10 43 11 102 12 44 13
REMARK SMILES IDX 45 14 46 15 96 16 47 17 101 18 95 19 97 20 48 21 100 22
REMARK SMILES IDX 94 23 93 24 49 26 81 27 61 28 80 29 62 30 65 31 79 32 98 33
REMARK SMILES IDX 63 34 64 35 78 37 99 38 66 39 50 40 51 41 59 42 52 43 53 44
REMARK SMILES IDX 57 45 60 46 54 47 55 48 58 49 56 50 82 51 83 52 91 53 84 54
REMARK SMILES IDX 85 55 89 56 92 57 86 58 87 59 90 60 88 61 67 62 68 63 76 64
REMARK SMILES IDX 69 65 70 66 74 67 77 68 71 69 72 70 75 71 73 72 7 73 8 74
REMARK SMILES IDX 9 75 10 76 11 77 12 79 13 80 14 81 40 82 15 83 39 84 16 85
REMARK SMILES IDX 17 86 18 87 31 88 20 89 19 90 30 91 21 92 23 93 22 94 32 95
REMARK SMILES IDX 33 96 38 97 34 98 36 99 35 100 37 101 24 102 25 103 29 104
REMARK SMILES IDX 26 105 28 106 27 107
REMARK H PARENT 3 7 97 25 65 36 10 78
REMARK Flexibility Score: inf
ROOT
ATOM      1  C   UNL A   1      35.853  23.157  24.182  1.00  0.00     0.002 C 
ENDROOT
BRANCH   1   2
ATOM      2  C   UNL A   1      37.178  22.390  24.302  1.00  0.00     0.021 C 
BRANCH   2   3
ATOM      3  C   UNL A   1      37.740  22.273  25.718  1.00  0.00     0.116 C 
BRANCH   3   4
ATOM      4  N   UNL A   1      39.122  21.842  25.781  1.00  0.00    -0.352 N 
ATOM      5  O   UNL A   1      41.264  21.608  26.262  1.00  0.00    -0.269 OA
ATOM      6  C   UNL A   1      40.281  22.354  26.296  1.00  0.00     0.251 C 
ATOM      7  H   UNL A   1      39.260  20.968  25.348  1.00  0.00     0.163 HD
BRANCH   6   8
ATOM      8  C   UNL A   1      40.461  23.730  26.840  1.00  0.00     0.039 A 
ATOM      9  C   UNL A   1      39.740  24.864  26.466  1.00  0.00     0.014 A 
ATOM     10  C   UNL A   1      41.444  23.867  27.843  1.00  0.00     0.014 A 
ATOM     11  C   UNL A   1      40.022  26.103  27.048  1.00  0.00     0.010 A 
ATOM     12  C   UNL A   1      41.726  25.100  28.430  1.00  0.00     0.010 A 
ATOM     13  C   UNL A   1      41.020  26.226  28.023  1.00  0.00    -0.014 A 
BRANCH  13  14
ATOM     14  C   UNL A   1      41.144  27.504  28.734  1.00  0.00     0.031 A 
ATOM     15  C   UNL A   1      42.327  28.322  28.331  1.00  0.00     0.074 A 
ATOM     16  C   UNL A   1      40.222  28.027  29.569  1.00  0.00     0.049 A 
ATOM     17  N   UNL A   1      43.300  28.740  29.073  1.00  0.00    -0.248 NA
ATOM     18  C   UNL A   1      42.480  28.651  26.905  1.00  0.00     0.031 C 
ATOM     19  C   UNL A   1      38.870  27.536  29.835  1.00  0.00     0.029 A 
ATOM     20  N   UNL A   1      40.279  29.187  30.295  1.00  0.00    -0.354 N 
ATOM     21  C   UNL A   1      44.116  29.513  28.247  1.00  0.00     0.074 A 
ATOM     22  C   UNL A   1      43.631  29.325  26.906  1.00  0.00     0.031 C 
ATOM     23  C   UNL A   1      38.171  28.487  30.499  1.00  0.00     0.029 A 
ATOM     24  C   UNL A   1      39.056  29.597  30.815  1.00  0.00     0.049 A 
ATOM     25  H   UNL A   1      41.115  29.687  30.438  1.00  0.00     0.167 HD
ATOM     26  C   UNL A   1      45.010  30.403  28.763  1.00  0.00     0.037 A 
ATOM     27  C   UNL A   1      38.779  30.781  31.418  1.00  0.00     0.037 A 
ATOM     28  C   UNL A   1      45.309  30.102  30.138  1.00  0.00     0.049 A 
ATOM     29  C   UNL A   1      40.059  31.381  31.861  1.00  0.00     0.074 A 
ATOM     30  C   UNL A   1      45.856  29.025  30.807  1.00  0.00     0.029 A 
ATOM     31  N   UNL A   1      44.740  30.887  31.106  1.00  0.00    -0.354 N 
ATOM     32  N   UNL A   1      40.780  30.933  32.846  1.00  0.00    -0.248 NA
ATOM     33  C   UNL A   1      40.733  32.299  30.958  1.00  0.00     0.031 C 
ATOM     34  C   UNL A   1      45.172  28.979  32.058  1.00  0.00     0.029 A 
ATOM     35  C   UNL A   1      44.288  30.056  32.095  1.00  0.00     0.049 A 
ATOM     36  H   UNL A   1      44.669  31.869  31.094  1.00  0.00     0.167 HD
ATOM     37  C   UNL A   1      42.086  31.141  32.439  1.00  0.00     0.074 A 
ATOM     38  C   UNL A   1      41.995  32.095  31.340  1.00  0.00     0.031 C 
ATOM     39  C   UNL A   1      43.081  30.302  32.845  1.00  0.00     0.037 A 
BRANCH  26  40
ATOM     40  C   UNL A   1      45.327  31.756  28.158  1.00  0.00     0.064 A 
ATOM     41  C   UNL A   1      44.270  32.658  27.911  1.00  0.00     0.173 A 
ATOM     42  C   UNL A   1      46.546  32.067  27.518  1.00  0.00     0.173 A 
ATOM     43  F   UNL A   1      43.063  32.468  28.465  1.00  0.00    -0.203 F 
ATOM     44  C   UNL A   1      44.391  33.714  27.002  1.00  0.00     0.198 A 
ATOM     45  C   UNL A   1      46.678  33.153  26.652  1.00  0.00     0.198 A 
ATOM     46  F   UNL A   1      47.623  31.281  27.609  1.00  0.00    -0.203 F 
ATOM     47  F   UNL A   1      43.315  34.447  26.687  1.00  0.00    -0.200 F 
ATOM     48  C   UNL A   1      45.592  33.951  26.362  1.00  0.00     0.200 A 
ATOM     49  F   UNL A   1      47.849  33.362  26.033  1.00  0.00    -0.200 F 
ATOM     50  F   UNL A   1      45.692  34.913  25.435  1.00  0.00    -0.200 F 
ENDBRANCH  26  40
BRANCH  27  51
ATOM     51  C   UNL A   1      37.518  31.565  31.446  1.00  0.00     0.064 A 
ATOM     52  C   UNL A   1      36.815  31.767  32.648  1.00  0.00     0.173 A 
ATOM     53  C   UNL A   1      37.143  32.377  30.360  1.00  0.00     0.173 A 
ATOM     54  F   UNL A   1      37.134  31.065  33.745  1.00  0.00    -0.203 F 
ATOM     55  C   UNL A   1      35.825  32.748  32.765  1.00  0.00     0.198 A 
ATOM     56  C   UNL A   1      36.149  33.350  30.476  1.00  0.00     0.198 A 
ATOM     57  F   UNL A   1      37.803  32.313  29.196  1.00  0.00    -0.203 F 
ATOM     58  F   UNL A   1      35.229  32.960  33.947  1.00  0.00    -0.200 F 
ATOM     59  C   UNL A   1      35.502  33.547  31.682  1.00  0.00     0.200 A 
ATOM     60  F   UNL A   1      35.870  34.141  29.431  1.00  0.00    -0.200 F 
ATOM     61  F   UNL A   1      34.603  34.533  31.811  1.00  0.00    -0.200 F 
ENDBRANCH  27  51
BRANCH  39  62
ATOM     62  C   UNL A   1      42.806  29.395  34.009  1.00  0.00     0.064 A 
ATOM     63  C   UNL A   1      42.100  28.182  33.925  1.00  0.00     0.173 A 
ATOM     64  C   UNL A   1      43.394  29.718  35.240  1.00  0.00     0.173 A 
ATOM     65  F   UNL A   1      41.598  27.751  32.760  1.00  0.00    -0.203 F 
ATOM     66  C   UNL A   1      41.949  27.361  35.040  1.00  0.00     0.198 A 
ATOM     67  C   UNL A   1      43.277  28.875  36.340  1.00  0.00     0.198 A 
ATOM     68  F   UNL A   1      44.124  30.839  35.365  1.00  0.00    -0.203 F 
ATOM     69  F   UNL A   1      41.254  26.218  34.944  1.00  0.00    -0.200 F 
ATOM     70  C   UNL A   1      42.544  27.704  36.244  1.00  0.00     0.200 A 
ATOM     71  F   UNL A   1      43.899  29.185  37.486  1.00  0.00    -0.200 F 
ATOM     72  F   UNL A   1      42.434  26.891  37.305  1.00  0.00    -0.200 F 
ENDBRANCH  39  62
ENDBRANCH  13  14
ENDBRANCH   6   8
ENDBRANCH   3   4
ENDBRANCH   2   3
ENDBRANCH   1   2
BRANCH   1  73
ATOM     73  C   UNL A   1      34.598  22.317  23.911  1.00  0.00     0.002 C 
BRANCH  73  74
ATOM     74  C   UNL A   1      34.530  20.948  24.600  1.00  0.00     0.021 C 
BRANCH  74  75
ATOM     75  C   UNL A   1      33.153  20.520  25.116  1.00  0.00     0.116 C 
BRANCH  75  76
ATOM     76  N   UNL A   1      32.969  20.813  26.527  1.00  0.00    -0.352 N 
ATOM     77  C   UNL A   1      32.564  21.978  27.132  1.00  0.00     0.251 C 
ATOM     78  H   UNL A   1      33.161  20.067  27.140  1.00  0.00     0.163 HD
ATOM     79  O   UNL A   1      32.601  22.076  28.356  1.00  0.00    -0.269 OA
BRANCH  77  80
ATOM     80  C   UNL A   1      32.126  23.143  26.327  1.00  0.00     0.039 A 
ATOM     81  C   UNL A   1      32.806  24.346  26.512  1.00  0.00     0.016 A 
ATOM     82  C   UNL A   1      31.044  23.090  25.436  1.00  0.00     0.016 A 
ATOM     83  C   UNL A   1      32.458  25.462  25.748  1.00  0.00     0.027 A 
ATOM     84  C   UNL A   1      30.683  24.225  24.678  1.00  0.00     0.027 A 
ATOM     85  C   UNL A   1      31.409  25.410  24.808  1.00  0.00     0.045 A 
BRANCH  85  86
ATOM     86  N   UNL A   1      31.186  26.529  23.939  1.00  0.00    -0.299 N 
ATOM     87  C   UNL A   1      32.083  26.602  22.812  1.00  0.00     0.259 C 
ATOM     88  C   UNL A   1      30.943  27.879  24.506  1.00  0.00     0.152 C 
ATOM     89  C   UNL A   1      32.534  28.034  22.685  1.00  0.00     0.248 C 
ATOM     90  O   UNL A   1      32.461  25.680  22.130  1.00  0.00    -0.271 OA
ATOM     91  C   UNL A   1      32.219  28.479  24.061  1.00  0.00     0.021 C 
ATOM     92  N   UNL A   1      33.986  28.251  22.625  1.00  0.00    -0.170 NA
ATOM     93  C   UNL A   1      33.308  29.080  24.526  1.00  0.00     0.097 C 
ATOM     94  N   UNL A   1      34.340  28.962  23.615  1.00  0.00    -0.154 NA
BRANCH  88  95
ATOM     95  C   UNL A   1      29.753  28.648  23.886  1.00  0.00    -0.020 A 
ATOM     96  C   UNL A   1      28.601  27.962  23.418  1.00  0.00     0.006 A 
ATOM     97  C   UNL A   1      29.779  30.037  23.698  1.00  0.00     0.022 A 
ATOM     98  C   UNL A   1      27.511  28.623  22.848  1.00  0.00     0.002 A 
ATOM     99  C   UNL A   1      28.693  30.694  23.091  1.00  0.00     0.018 A 
ATOM    100  C   UNL A   1      27.559  29.996  22.678  1.00  0.00     0.016 A 
ATOM    101  Br  UNL A   1      28.761  32.562  22.796  1.00  0.00    -0.051 Br
ENDBRANCH  88  95
BRANCH  93 102
ATOM    102  C   UNL A   1      33.584  29.647  25.845  1.00  0.00     0.002 A 
ATOM    103  C   UNL A   1      32.742  30.627  26.385  1.00  0.00     0.010 A 
ATOM    104  C   UNL A   1      34.809  29.377  26.467  1.00  0.00     0.010 A 
ATOM    105  C   UNL A   1      33.163  31.386  27.482  1.00  0.00     0.001 A 
ATOM    106  C   UNL A   1      35.224  30.133  27.565  1.00  0.00     0.001 A 
ATOM    107  C   UNL A   1      34.413  31.155  28.055  1.00  0.00     0.000 A 
ENDBRANCH  93 102
ENDBRANCH  85  86
ENDBRANCH  77  80
ENDBRANCH  75  76
ENDBRANCH  74  75
ENDBRANCH  73  74
ENDBRANCH   1  73
TORSDOF 16
ENDMDL
MODEL 2
REMARK VINA RESULT:     -14.1      1.381      2.217
REMARK SMILES O=C(NCCCCCCNC(=O)c1ccc(N2C(=O)[C@@H]3N=NC(c4ccccc4)=C3[C@H]2c2cccc(Br)c2)cc1)c1ccc(-c2c3nc(c(-c4c(F)c(F)c(F)c(F)c4F)c4ccc([nH]4)c(-c4c(F)c(F)c(F)c(F)c4F)c4nc(c(-c5c(F)c(F)c(F)c(F)c5F)c5ccc2[nH]5)C=C4)C=C3)cc1
REMARK SMILES IDX 6 1 5 2 4 3 3 4 1 5 2 6 41 8 42 9 103 10 43 11 102 12 44 13
REMARK SMILES IDX 45 14 46 15 96 16 47 17 101 18 95 19 97 20 48 21 100 22
REMARK SMILES IDX 94 23 93 24 49 26 81 27 61 28 80 29 62 30 65 31 79 32 98 33
REMARK SMILES IDX 63 34 64 35 78 37 99 38 66 39 50 40 51 41 59 42 52 43 53 44
REMARK SMILES IDX 57 45 60 46 54 47 55 48 58 49 56 50 82 51 83 52 91 53 84 54
REMARK SMILES IDX 85 55 89 56 92 57 86 58 87 59 90 60 88 61 67 62 68 63 76 64
REMARK SMILES IDX 69 65 70 66 74 67 77 68 71 69 72 70 75 71 73 72 7 73 8 74
REMARK SMILES IDX 9 75 10 76 11 77 12 79 13 80 14 81 40 82 15 83 39 84 16 85
REMARK SMILES IDX 17 86 18 87 31 88 20 89 19 90 30 91 21 92 23 93 22 94 32 95
REMARK SMILES IDX 33 96 38 97 34 98 36 99 35 100 37 101 24 102 25 103 29 104
REMARK SMILES IDX 26 105 28 106 27 107
REMARK H PARENT 3 7 97 25 65 36 10 78
REMARK Flexibility Score: inf
ROOT
ATOM      1  C   UNL A   1      38.419  22.795  26.098  1.00  0.00     0.002 C 
ENDROOT
BRANCH   1   2
ATOM      2  C   UNL A   1      39.333  21.562  26.143  1.00  0.00     0.021 C 
BRANCH   2   3
ATOM      3  C   UNL A   1      40.735  21.807  26.699  1.00  0.00     0.116 C 
BRANCH   3   4
ATOM      4  N   UNL A   1      41.676  22.345  25.737  1.00  0.00    -0.352 N 
ATOM      5  O   UNL A   1      43.190  23.555  24.681  1.00  0.00    -0.269 OA
ATOM      6  C   UNL A   1      42.357  23.521  25.591  1.00  0.00     0.251 C 
ATOM      7  H   UNL A   1      41.872  21.708  25.012  1.00  0.00     0.163 HD
BRANCH   6   8
ATOM      8  C   UNL A   1      42.146  24.758  26.398  1.00  0.00     0.039 A 
ATOM      9  C   UNL A   1      42.739  25.050  27.625  1.00  0.00     0.014 A 
ATOM     10  C   UNL A   1      41.278  25.715  25.833  1.00  0.00     0.014 A 
ATOM     11  C   UNL A   1      42.442  26.245  28.286  1.00  0.00     0.010 A 
ATOM     12  C   UNL A   1      40.981  26.911  26.485  1.00  0.00     0.010 A 
ATOM     13  C   UNL A   1      41.556  27.174  27.723  1.00  0.00    -0.014 A 
BRANCH  13  14
ATOM     14  C   UNL A   1      41.426  28.487  28.363  1.00  0.00     0.031 A 
ATOM     15  C   UNL A   1      42.522  29.447  28.032  1.00  0.00     0.074 A 
ATOM     16  C   UNL A   1      40.356  28.912  29.068  1.00  0.00     0.049 A 
ATOM     17  N   UNL A   1      43.343  30.033  28.841  1.00  0.00    -0.248 NA
ATOM     18  C   UNL A   1      42.781  29.729  26.611  1.00  0.00     0.031 C 
ATOM     19  C   UNL A   1      39.064  28.245  29.227  1.00  0.00     0.029 A 
ATOM     20  N   UNL A   1      40.175  30.100  29.724  1.00  0.00    -0.354 N 
ATOM     21  C   UNL A   1      44.130  30.876  28.055  1.00  0.00     0.074 A 
ATOM     22  C   UNL A   1      43.821  30.559  26.686  1.00  0.00     0.031 C 
ATOM     23  C   UNL A   1      38.174  29.116  29.759  1.00  0.00     0.029 A 
ATOM     24  C   UNL A   1      38.859  30.355  30.094  1.00  0.00     0.049 A 
ATOM     25  H   UNL A   1      40.914  30.720  29.920  1.00  0.00     0.167 HD
ATOM     26  C   UNL A   1      44.832  31.907  28.603  1.00  0.00     0.037 A 
ATOM     27  C   UNL A   1      38.358  31.514  30.593  1.00  0.00     0.037 A 
ATOM     28  C   UNL A   1      45.019  31.716  30.017  1.00  0.00     0.049 A 
ATOM     29  C   UNL A   1      39.489  32.309  31.125  1.00  0.00     0.074 A 
ATOM     30  C   UNL A   1      45.634  30.759  30.802  1.00  0.00     0.029 A 
ATOM     31  N   UNL A   1      44.247  32.454  30.874  1.00  0.00    -0.354 N 
ATOM     32  N   UNL A   1      40.154  32.015  32.203  1.00  0.00    -0.248 NA
ATOM     33  C   UNL A   1      40.124  33.273  30.239  1.00  0.00     0.031 C 
ATOM     34  C   UNL A   1      44.832  30.674  31.978  1.00  0.00     0.029 A 
ATOM     35  C   UNL A   1      43.810  31.614  31.861  1.00  0.00     0.049 A 
ATOM     36  H   UNL A   1      44.044  33.415  30.795  1.00  0.00     0.167 HD
ATOM     37  C   UNL A   1      41.456  32.389  31.916  1.00  0.00     0.074 A 
ATOM     38  C   UNL A   1      41.354  33.268  30.758  1.00  0.00     0.031 C 
ATOM     39  C   UNL A   1      42.507  31.719  32.470  1.00  0.00     0.037 A 
BRANCH  26  40
ATOM     40  C   UNL A   1      45.024  33.263  27.952  1.00  0.00     0.064 A 
ATOM     41  C   UNL A   1      46.334  33.699  27.657  1.00  0.00     0.173 A 
ATOM     42  C   UNL A   1      44.033  34.266  27.915  1.00  0.00     0.173 A 
ATOM     43  F   UNL A   1      47.361  32.836  27.661  1.00  0.00    -0.203 F 
ATOM     44  C   UNL A   1      46.641  35.049  27.462  1.00  0.00     0.198 A 
ATOM     45  C   UNL A   1      44.336  35.605  27.667  1.00  0.00     0.198 A 
ATOM     46  F   UNL A   1      42.755  34.023  28.225  1.00  0.00    -0.203 F 
ATOM     47  F   UNL A   1      47.919  35.428  27.337  1.00  0.00    -0.200 F 
ATOM     48  C   UNL A   1      45.642  36.003  27.480  1.00  0.00     0.200 A 
ATOM     49  F   UNL A   1      43.354  36.519  27.699  1.00  0.00    -0.200 F 
ATOM     50  F   UNL A   1      45.941  37.304  27.370  1.00  0.00    -0.200 F 
ENDBRANCH  26  40
BRANCH  27  51
ATOM     51  C   UNL A   1      37.007  32.110  30.447  1.00  0.00     0.064 A 
ATOM     52  C   UNL A   1      36.056  32.016  31.481  1.00  0.00     0.173 A 
ATOM     53  C   UNL A   1      36.727  33.034  29.424  1.00  0.00     0.173 A 
ATOM     54  F   UNL A   1      36.261  31.190  32.517  1.00  0.00    -0.203 F 
ATOM     55  C   UNL A   1      34.916  32.827  31.507  1.00  0.00     0.198 A 
ATOM     56  C   UNL A   1      35.584  33.835  29.447  1.00  0.00     0.198 A 
ATOM     57  F   UNL A   1      37.606  33.251  28.436  1.00  0.00    -0.203 F 
ATOM     58  F   UNL A   1      34.071  32.760  32.546  1.00  0.00    -0.200 F 
ATOM     59  C   UNL A   1      34.688  33.744  30.496  1.00  0.00     0.200 A 
ATOM     60  F   UNL A   1      35.392  34.746  28.482  1.00  0.00    -0.200 F 
ATOM     61  F   UNL A   1      33.633  34.569  30.554  1.00  0.00    -0.200 F 
ENDBRANCH  27  51
BRANCH  39  62
ATOM     62  C   UNL A   1      42.235  30.838  33.654  1.00  0.00     0.064 A 
ATOM     63  C   UNL A   1      42.221  31.278  34.989  1.00  0.00     0.173 A 
ATOM     64  C   UNL A   1      41.853  29.512  33.405  1.00  0.00     0.173 A 
ATOM     65  F   UNL A   1      42.473  32.556  35.300  1.00  0.00    -0.203 F 
ATOM     66  C   UNL A   1      41.889  30.410  36.027  1.00  0.00     0.198 A 
ATOM     67  C   UNL A   1      41.480  28.661  34.440  1.00  0.00     0.198 A 
ATOM     68  F   UNL A   1      41.798  29.052  32.145  1.00  0.00    -0.203 F 
ATOM     69  F   UNL A   1      41.902  30.845  37.296  1.00  0.00    -0.200 F 
ATOM     70  C   UNL A   1      41.511  29.106  35.752  1.00  0.00     0.200 A 
ATOM     71  F   UNL A   1      41.065  27.417  34.163  1.00  0.00    -0.200 F 
ATOM     72  F   UNL A   1      41.150  28.284  36.748  1.00  0.00    -0.200 F 
ENDBRANCH  39  62
ENDBRANCH  13  14
ENDBRANCH   6   8
ENDBRANCH   3   4
ENDBRANCH   2   3
ENDBRANCH   1   2
BRANCH   1  73
ATOM     73  C   UNL A   1      37.099  22.642  25.332  1.00  0.00     0.002 C 
BRANCH  73  74
ATOM     74  C   UNL A   1      36.804  21.254  24.749  1.00  0.00     0.021 C 
BRANCH  74  75
ATOM     75  C   UNL A   1      35.332  20.834  24.718  1.00  0.00     0.116 C 
BRANCH  75  76
ATOM     76  N   UNL A   1      34.761  20.698  26.046  1.00  0.00    -0.352 N 
ATOM     77  C   UNL A   1      33.828  21.483  26.679  1.00  0.00     0.251 C 
ATOM     78  H   UNL A   1      35.089  19.932  26.569  1.00  0.00     0.163 HD
ATOM     79  O   UNL A   1      33.568  21.288  27.864  1.00  0.00    -0.269 OA
BRANCH  77  80
ATOM     80  C   UNL A   1      33.159  22.599  25.968  1.00  0.00     0.039 A 
ATOM     81  C   UNL A   1      33.668  23.882  26.160  1.00  0.00     0.016 A 
ATOM     82  C   UNL A   1      32.028  22.417  25.159  1.00  0.00     0.016 A 
ATOM     83  C   UNL A   1      33.099  24.961  25.480  1.00  0.00     0.027 A 
ATOM     84  C   UNL A   1      31.443  23.512  24.487  1.00  0.00     0.027 A 
ATOM     85  C   UNL A   1      31.996  24.787  24.620  1.00  0.00     0.045 A 
BRANCH  85  86
ATOM     86  N   UNL A   1      31.540  25.891  23.826  1.00  0.00    -0.299 N 
ATOM     87  C   UNL A   1      32.335  26.154  22.652  1.00  0.00     0.259 C 
ATOM     88  C   UNL A   1      31.128  27.160  24.476  1.00  0.00     0.152 C 
ATOM     89  C   UNL A   1      32.546  27.644  22.572  1.00  0.00     0.248 C 
ATOM     90  O   UNL A   1      32.805  25.334  21.900  1.00  0.00    -0.271 OA
ATOM     91  C   UNL A   1      32.261  27.974  23.986  1.00  0.00     0.021 C 
ATOM     92  N   UNL A   1      33.938  28.092  22.434  1.00  0.00    -0.170 NA
ATOM     93  C   UNL A   1      33.271  28.722  24.414  1.00  0.00     0.097 C 
ATOM     94  N   UNL A   1      34.244  28.809  23.436  1.00  0.00    -0.154 NA
BRANCH  88  95
ATOM     95  C   UNL A   1      29.793  27.754  23.972  1.00  0.00    -0.020 A 
ATOM     96  C   UNL A   1      28.603  26.979  23.961  1.00  0.00     0.006 A 
ATOM     97  C   UNL A   1      29.704  29.052  23.447  1.00  0.00     0.022 A 
ATOM     98  C   UNL A   1      27.382  27.480  23.507  1.00  0.00     0.002 A 
ATOM     99  C   UNL A   1      28.478  29.540  22.959  1.00  0.00     0.018 A 
ATOM    100  C   UNL A   1      27.319  28.766  22.998  1.00  0.00     0.016 A 
ATOM    101  Br  UNL A   1      28.382  31.273  22.205  1.00  0.00    -0.051 Br
ENDBRANCH  88  95
BRANCH  93 102
ATOM    102  C   UNL A   1      33.545  29.270  25.741  1.00  0.00     0.002 A 
ATOM    103  C   UNL A   1      32.910  30.443  26.169  1.00  0.00     0.010 A 
ATOM    104  C   UNL A   1      34.607  28.752  26.493  1.00  0.00     0.010 A 
ATOM    105  C   UNL A   1      33.391  31.134  27.286  1.00  0.00     0.001 A 
ATOM    106  C   UNL A   1      35.081  29.441  27.611  1.00  0.00     0.001 A 
ATOM    107  C   UNL A   1      34.491  30.645  27.990  1.00  0.00     0.000 A 
ENDBRANCH  93 102
ENDBRANCH  85  86
ENDBRANCH  77  80
ENDBRANCH  75  76
ENDBRANCH  74  75
ENDBRANCH  73  74
ENDBRANCH   1  73
TORSDOF 16
ENDMDL
MODEL 3
REMARK VINA RESULT:     -13.8      3.370      9.153
REMARK SMILES O=C(NCCCCCCNC(=O)c1ccc(N2C(=O)[C@@H]3N=NC(c4ccccc4)=C3[C@H]2c2cccc(Br)c2)cc1)c1ccc(-c2c3nc(c(-c4c(F)c(F)c(F)c(F)c4F)c4ccc([nH]4)c(-c4c(F)c(F)c(F)c(F)c4F)c4nc(c(-c5c(F)c(F)c(F)c(F)c5F)c5ccc2[nH]5)C=C4)C=C3)cc1
REMARK SMILES IDX 6 1 5 2 4 3 3 4 1 5 2 6 41 8 42 9 103 10 43 11 102 12 44 13
REMARK SMILES IDX 45 14 46 15 96 16 47 17 101 18 95 19 97 20 48 21 100 22
REMARK SMILES IDX 94 23 93 24 49 26 81 27 61 28 80 29 62 30 65 31 79 32 98 33
REMARK SMILES IDX 63 34 64 35 78 37 99 38 66 39 50 40 51 41 59 42 52 43 53 44
REMARK SMILES IDX 57 45 60 46 54 47 55 48 58 49 56 50 82 51 83 52 91 53 84 54
REMARK SMILES IDX 85 55 89 56 92 57 86 58 87 59 90 60 88 61 67 62 68 63 76 64
REMARK SMILES IDX 69 65 70 66 74 67 77 68 71 69 72 70 75 71 73 72 7 73 8 74
REMARK SMILES IDX 9 75 10 76 11 77 12 79 13 80 14 81 40 82 15 83 39 84 16 85
REMARK SMILES IDX 17 86 18 87 31 88 20 89 19 90 30 91 21 92 23 93 22 94 32 95
REMARK SMILES IDX 33 96 38 97 34 98 36 99 35 100 37 101 24 102 25 103 29 104
REMARK SMILES IDX 26 105 28 106 27 107
REMARK H PARENT 3 7 97 25 65 36 10 78
REMARK Flexibility Score: inf
ROOT
ATOM      1  C   UNL A   1      31.800  28.184  26.830  1.00  0.00     0.002 C 
ENDROOT
BRANCH   1   2
ATOM      2  C   UNL A   1      32.112  29.671  27.054  1.00  0.00     0.021 C 
BRANCH   2   3
ATOM      3  C   UNL A   1      33.551  30.089  26.753  1.00  0.00     0.116 C 
BRANCH   3   4
ATOM      4  N   UNL A   1      33.956  31.332  27.379  1.00  0.00    -0.352 N 
ATOM      5  O   UNL A   1      35.095  32.994  28.282  1.00  0.00    -0.269 OA
ATOM      6  C   UNL A   1      35.095  31.798  27.974  1.00  0.00     0.251 C 
ATOM      7  H   UNL A   1      33.236  32.004  27.373  1.00  0.00     0.163 HD
BRANCH   6   8
ATOM      8  C   UNL A   1      36.296  30.984  28.320  1.00  0.00     0.039 A 
ATOM      9  C   UNL A   1      36.407  29.598  28.214  1.00  0.00     0.014 A 
ATOM     10  C   UNL A   1      37.417  31.709  28.772  1.00  0.00     0.014 A 
ATOM     11  C   UNL A   1      37.591  28.954  28.588  1.00  0.00     0.010 A 
ATOM     12  C   UNL A   1      38.602  31.074  29.141  1.00  0.00     0.010 A 
ATOM     13  C   UNL A   1      38.686  29.689  29.060  1.00  0.00    -0.014 A 
BRANCH  13  14
ATOM     14  C   UNL A   1      39.960  28.988  29.257  1.00  0.00     0.031 A 
ATOM     15  C   UNL A   1      40.353  28.810  30.686  1.00  0.00     0.074 A 
ATOM     16  C   UNL A   1      40.681  28.389  28.285  1.00  0.00     0.049 A 
ATOM     17  N   UNL A   1      41.422  29.232  31.280  1.00  0.00    -0.248 NA
ATOM     18  C   UNL A   1      39.397  28.142  31.583  1.00  0.00     0.031 C 
ATOM     19  C   UNL A   1      40.303  28.176  26.888  1.00  0.00     0.029 A 
ATOM     20  N   UNL A   1      41.889  27.752  28.380  1.00  0.00    -0.354 N 
ATOM     21  C   UNL A   1      41.353  28.758  32.591  1.00  0.00     0.074 A 
ATOM     22  C   UNL A   1      40.037  28.199  32.751  1.00  0.00     0.031 C 
ATOM     23  C   UNL A   1      41.162  27.295  26.322  1.00  0.00     0.029 A 
ATOM     24  C   UNL A   1      42.219  26.981  27.271  1.00  0.00     0.049 A 
ATOM     25  H   UNL A   1      42.476  27.834  29.166  1.00  0.00     0.167 HD
ATOM     26  C   UNL A   1      42.461  28.690  33.380  1.00  0.00     0.037 A 
ATOM     27  C   UNL A   1      43.255  26.111  27.157  1.00  0.00     0.037 A 
ATOM     28  C   UNL A   1      43.505  29.550  32.888  1.00  0.00     0.049 A 
ATOM     29  C   UNL A   1      44.250  26.445  28.201  1.00  0.00     0.074 A 
ATOM     30  C   UNL A   1      43.632  30.908  32.669  1.00  0.00     0.029 A 
ATOM     31  N   UNL A   1      44.559  28.972  32.232  1.00  0.00    -0.354 N 
ATOM     32  N   UNL A   1      45.006  27.504  28.188  1.00  0.00    -0.248 NA
ATOM     33  C   UNL A   1      44.158  25.757  29.479  1.00  0.00     0.031 C 
ATOM     34  C   UNL A   1      44.457  31.022  31.512  1.00  0.00     0.029 A 
ATOM     35  C   UNL A   1      44.822  29.733  31.126  1.00  0.00     0.049 A 
ATOM     36  H   UNL A   1      45.040  28.157  32.506  1.00  0.00     0.167 HD
ATOM     37  C   UNL A   1      45.110  27.869  29.519  1.00  0.00     0.074 A 
ATOM     38  C   UNL A   1      44.683  26.695  30.270  1.00  0.00     0.031 C 
ATOM     39  C   UNL A   1      45.258  29.178  29.869  1.00  0.00     0.037 A 
BRANCH  26  40
ATOM     40  C   UNL A   1      42.748  27.579  34.371  1.00  0.00     0.064 A 
ATOM     41  C   UNL A   1      43.210  26.335  33.887  1.00  0.00     0.173 A 
ATOM     42  C   UNL A   1      42.283  27.571  35.703  1.00  0.00     0.173 A 
ATOM     43  F   UNL A   1      43.676  26.218  32.635  1.00  0.00    -0.203 F 
ATOM     44  C   UNL A   1      43.100  25.160  34.635  1.00  0.00     0.198 A 
ATOM     45  C   UNL A   1      42.225  26.405  36.466  1.00  0.00     0.198 A 
ATOM     46  F   UNL A   1      41.764  28.656  36.286  1.00  0.00    -0.203 F 
ATOM     47  F   UNL A   1      43.409  23.983  34.075  1.00  0.00    -0.200 F 
ATOM     48  C   UNL A   1      42.594  25.194  35.920  1.00  0.00     0.200 A 
ATOM     49  F   UNL A   1      41.721  26.455  37.708  1.00  0.00    -0.200 F 
ATOM     50  F   UNL A   1      42.416  24.061  36.613  1.00  0.00    -0.200 F 
ENDBRANCH  26  40
BRANCH  27  51
ATOM     51  C   UNL A   1      43.366  24.858  26.368  1.00  0.00     0.064 A 
ATOM     52  C   UNL A   1      44.288  24.744  25.310  1.00  0.00     0.173 A 
ATOM     53  C   UNL A   1      42.790  23.659  26.825  1.00  0.00     0.173 A 
ATOM     54  F   UNL A   1      44.915  25.832  24.839  1.00  0.00    -0.203 F 
ATOM     55  C   UNL A   1      44.639  23.502  24.772  1.00  0.00     0.198 A 
ATOM     56  C   UNL A   1      43.135  22.421  26.280  1.00  0.00     0.198 A 
ATOM     57  F   UNL A   1      41.959  23.654  27.876  1.00  0.00    -0.203 F 
ATOM     58  F   UNL A   1      45.575  23.428  23.815  1.00  0.00    -0.200 F 
ATOM     59  C   UNL A   1      44.071  22.341  25.266  1.00  0.00     0.200 A 
ATOM     60  F   UNL A   1      42.606  21.300  26.791  1.00  0.00    -0.200 F 
ATOM     61  F   UNL A   1      44.457  21.145  24.799  1.00  0.00    -0.200 F 
ENDBRANCH  27  51
BRANCH  39  62
ATOM     62  C   UNL A   1      45.671  30.150  28.802  1.00  0.00     0.064 A 
ATOM     63  C   UNL A   1      44.784  30.773  27.906  1.00  0.00     0.173 A 
ATOM     64  C   UNL A   1      47.012  30.556  28.773  1.00  0.00     0.173 A 
ATOM     65  F   UNL A   1      43.470  30.517  27.941  1.00  0.00    -0.203 F 
ATOM     66  C   UNL A   1      45.238  31.720  26.990  1.00  0.00     0.198 A 
ATOM     67  C   UNL A   1      47.453  31.533  27.886  1.00  0.00     0.198 A 
ATOM     68  F   UNL A   1      47.893  30.033  29.641  1.00  0.00    -0.203 F 
ATOM     69  F   UNL A   1      44.380  32.287  26.129  1.00  0.00    -0.200 F 
ATOM     70  C   UNL A   1      46.569  32.104  26.986  1.00  0.00     0.200 A 
ATOM     71  F   UNL A   1      48.730  31.938  27.923  1.00  0.00    -0.200 F 
ATOM     72  F   UNL A   1      46.995  33.047  26.133  1.00  0.00    -0.200 F 
ENDBRANCH  39  62
ENDBRANCH  13  14
ENDBRANCH   6   8
ENDBRANCH   3   4
ENDBRANCH   2   3
ENDBRANCH   1   2
BRANCH   1  73
ATOM     73  C   UNL A   1      31.376  27.780  25.412  1.00  0.00     0.002 C 
BRANCH  73  74
ATOM     74  C   UNL A   1      30.938  28.915  24.479  1.00  0.00     0.021 C 
BRANCH  74  75
ATOM     75  C   UNL A   1      30.748  28.543  23.006  1.00  0.00     0.116 C 
BRANCH  75  76
ATOM     76  N   UNL A   1      31.964  28.698  22.228  1.00  0.00    -0.352 N 
ATOM     77  C   UNL A   1      32.981  27.801  22.009  1.00  0.00     0.251 C 
ATOM     78  H   UNL A   1      32.077  29.574  21.793  1.00  0.00     0.163 HD
ATOM     79  O   UNL A   1      34.004  28.164  21.432  1.00  0.00    -0.269 OA
BRANCH  77  80
ATOM     80  C   UNL A   1      32.888  26.406  22.503  1.00  0.00     0.039 A 
ATOM     81  C   UNL A   1      33.984  25.893  23.195  1.00  0.00     0.016 A 
ATOM     82  C   UNL A   1      31.775  25.587  22.263  1.00  0.00     0.016 A 
ATOM     83  C   UNL A   1      33.928  24.598  23.715  1.00  0.00     0.027 A 
ATOM     84  C   UNL A   1      31.729  24.272  22.774  1.00  0.00     0.027 A 
ATOM     85  C   UNL A   1      32.795  23.781  23.531  1.00  0.00     0.045 A 
BRANCH  85  86
ATOM     86  N   UNL A   1      32.719  22.520  24.209  1.00  0.00    -0.299 N 
ATOM     87  C   UNL A   1      32.138  22.581  25.528  1.00  0.00     0.259 C 
ATOM     88  C   UNL A   1      33.873  21.586  24.186  1.00  0.00     0.152 C 
ATOM     89  C   UNL A   1      32.995  21.741  26.439  1.00  0.00     0.248 C 
ATOM     90  O   UNL A   1      31.181  23.235  25.865  1.00  0.00    -0.271 OA
ATOM     91  C   UNL A   1      34.224  21.721  25.616  1.00  0.00     0.021 C 
ATOM     92  N   UNL A   1      33.467  22.395  27.667  1.00  0.00    -0.170 NA
ATOM     93  C   UNL A   1      35.225  22.071  26.417  1.00  0.00     0.097 C 
ATOM     94  N   UNL A   1      34.736  22.428  27.658  1.00  0.00    -0.154 NA
BRANCH  88  95
ATOM     95  C   UNL A   1      33.522  20.115  23.865  1.00  0.00    -0.020 A 
ATOM     96  C   UNL A   1      32.450  19.791  22.992  1.00  0.00     0.006 A 
ATOM     97  C   UNL A   1      34.198  19.040  24.460  1.00  0.00     0.022 A 
ATOM     98  C   UNL A   1      32.102  18.474  22.684  1.00  0.00     0.002 A 
ATOM     99  C   UNL A   1      33.820  17.715  24.174  1.00  0.00     0.018 A 
ATOM    100  C   UNL A   1      32.786  17.430  23.282  1.00  0.00     0.016 A 
ATOM    101  Br  UNL A   1      34.704  16.274  25.023  1.00  0.00    -0.051 Br
ENDBRANCH  88  95
BRANCH  93 102
ATOM    102  C   UNL A   1      36.641  22.281  26.122  1.00  0.00     0.002 A 
ATOM    103  C   UNL A   1      37.447  21.210  25.714  1.00  0.00     0.010 A 
ATOM    104  C   UNL A   1      37.242  23.498  26.464  1.00  0.00     0.010 A 
ATOM    105  C   UNL A   1      38.840  21.333  25.734  1.00  0.00     0.001 A 
ATOM    106  C   UNL A   1      38.632  23.620  26.478  1.00  0.00     0.001 A 
ATOM    107  C   UNL A   1      39.431  22.529  26.139  1.00  0.00     0.000 A 
ENDBRANCH  93 102
ENDBRANCH  85  86
ENDBRANCH  77  80
ENDBRANCH  75  76
ENDBRANCH  74  75
ENDBRANCH  73  74
ENDBRANCH   1  73
TORSDOF 16
ENDMDL
