MODEL 1
REMARK VINA RESULT:     -11.8      0.000      0.000
REMARK SMILES COc1c(C(=O)NCCCCCCNC(=O)c2ccc(-c3c4nc(c(-c5c(F)c(F)c(F)c(F)c5F)c5ccc([nH]5)c(-c5c(F)c(F)c(F)c(F)c5F)c5nc(c(-c6c(F)c(F)c(F)c(F)c6F)c6ccc3[nH]6)C=C5)C=C4)cc2)ccc(F)c1F
REMARK SMILES IDX 11 1 10 2 9 3 8 4 7 5 5 6 6 7 4 9 3 10 84 11 80 12 82 13
REMARK SMILES IDX 85 14 81 15 83 16 2 17 1 18 12 19 13 20 14 21 15 22 16 24
REMARK SMILES IDX 17 25 18 26 79 27 19 28 78 29 20 30 21 31 22 32 72 33 23 34
REMARK SMILES IDX 77 35 71 36 73 37 24 38 76 39 70 40 69 41 25 43 57 44 37 45
REMARK SMILES IDX 56 46 38 47 41 48 55 49 74 50 39 51 40 52 54 54 75 55 42 56
REMARK SMILES IDX 26 57 27 58 35 59 28 60 29 61 33 62 36 63 30 64 31 65 34 66
REMARK SMILES IDX 32 67 58 68 59 69 67 70 60 71 61 72 65 73 68 74 62 75 63 76
REMARK SMILES IDX 66 77 64 78 43 79 44 80 52 81 45 82 46 83 50 84 53 85 47 86
REMARK SMILES IDX 48 87 51 88 49 89
REMARK H PARENT 7 8 14 23 73 42 41 53
REMARK Flexibility Score: inf
ROOT
ATOM      1  C   UNL A   1      31.490  30.816  26.116  1.00  0.00     0.002 C 
ENDROOT
BRANCH   1   2
ATOM      2  C   UNL A   1      32.316  29.860  26.988  1.00  0.00     0.002 C 
BRANCH   2   3
ATOM      3  C   UNL A   1      31.611  28.548  27.373  1.00  0.00     0.021 C 
BRANCH   3   4
ATOM      4  C   UNL A   1      31.613  27.502  26.258  1.00  0.00     0.116 C 
BRANCH   4   5
ATOM      5  N   UNL A   1      31.379  26.180  26.795  1.00  0.00    -0.352 N 
ATOM      6  C   UNL A   1      31.819  24.908  26.552  1.00  0.00     0.255 C 
ATOM      7  O   UNL A   1      31.311  24.070  27.299  1.00  0.00    -0.269 OA
ATOM      8  H   UNL A   1      30.727  26.201  27.532  1.00  0.00     0.163 HD
BRANCH   6   9
ATOM      9  C   UNL A   1      32.845  24.501  25.527  1.00  0.00     0.085 A 
ATOM     10  C   UNL A   1      32.460  23.670  24.449  1.00  0.00     0.170 A 
ATOM     11  C   UNL A   1      33.416  23.111  23.590  1.00  0.00     0.201 A 
ATOM     12  C   UNL A   1      34.200  24.868  25.584  1.00  0.00     0.021 A 
ATOM     13  C   UNL A   1      34.757  23.419  23.738  1.00  0.00     0.162 A 
ATOM     14  F   UNL A   1      33.034  22.289  22.600  1.00  0.00    -0.200 F 
ATOM     15  C   UNL A   1      35.154  24.317  24.715  1.00  0.00     0.043 A 
ATOM     16  F   UNL A   1      35.675  22.883  22.924  1.00  0.00    -0.204 F 
BRANCH  10  17
ATOM     17  O   UNL A   1      31.154  23.332  24.186  1.00  0.00    -0.493 OA
ATOM     18  C   UNL A   1      30.573  24.276  23.280  1.00  0.00     0.278 C 
ENDBRANCH  10  17
ENDBRANCH   6   9
ENDBRANCH   4   5
ENDBRANCH   3   4
ENDBRANCH   2   3
ENDBRANCH   1   2
BRANCH   1  19
ATOM     19  C   UNL A   1      31.336  32.234  26.674  1.00  0.00     0.021 C 
BRANCH  19  20
ATOM     20  C   UNL A   1      32.630  32.846  27.196  1.00  0.00     0.116 C 
BRANCH  20  21
ATOM     21  N   UNL A   1      32.445  34.229  27.602  1.00  0.00    -0.352 N 
ATOM     22  C   UNL A   1      33.037  34.917  28.631  1.00  0.00     0.251 C 
ATOM     23  H   UNL A   1      31.805  34.745  27.063  1.00  0.00     0.163 HD
ATOM     24  O   UNL A   1      32.605  36.012  28.973  1.00  0.00    -0.269 OA
BRANCH  22  25
ATOM     25  C   UNL A   1      34.193  34.329  29.341  1.00  0.00     0.039 A 
ATOM     26  C   UNL A   1      33.964  33.571  30.491  1.00  0.00     0.014 A 
ATOM     27  C   UNL A   1      35.498  34.545  28.888  1.00  0.00     0.014 A 
ATOM     28  C   UNL A   1      35.041  32.989  31.161  1.00  0.00     0.010 A 
ATOM     29  C   UNL A   1      36.564  33.907  29.515  1.00  0.00     0.010 A 
ATOM     30  C   UNL A   1      36.347  33.131  30.663  1.00  0.00    -0.014 A 
BRANCH  30  31
ATOM     31  C   UNL A   1      37.496  32.478  31.337  1.00  0.00     0.031 A 
ATOM     32  C   UNL A   1      38.236  31.362  30.657  1.00  0.00     0.074 A 
ATOM     33  C   UNL A   1      37.843  32.863  32.581  1.00  0.00     0.049 A 
ATOM     34  N   UNL A   1      39.237  30.642  31.100  1.00  0.00    -0.248 NA
ATOM     35  C   UNL A   1      37.780  30.986  29.309  1.00  0.00     0.031 C 
ATOM     36  C   UNL A   1      37.172  33.906  33.357  1.00  0.00     0.029 A 
ATOM     37  N   UNL A   1      38.843  32.422  33.411  1.00  0.00    -0.354 N 
ATOM     38  C   UNL A   1      39.521  29.730  30.093  1.00  0.00     0.074 A 
ATOM     39  C   UNL A   1      38.555  29.945  29.038  1.00  0.00     0.031 C 
ATOM     40  C   UNL A   1      37.800  34.049  34.534  1.00  0.00     0.029 A 
ATOM     41  C   UNL A   1      38.892  33.084  34.613  1.00  0.00     0.049 A 
ATOM     42  H   UNL A   1      39.466  31.699  33.167  1.00  0.00     0.167 HD
ATOM     43  C   UNL A   1      40.517  28.816  30.042  1.00  0.00     0.037 A 
ATOM     44  C   UNL A   1      39.725  32.931  35.660  1.00  0.00     0.037 A 
ATOM     45  C   UNL A   1      41.495  28.628  31.081  1.00  0.00     0.049 A 
ATOM     46  C   UNL A   1      40.818  31.899  35.584  1.00  0.00     0.074 A 
ATOM     47  C   UNL A   1      42.578  27.767  31.098  1.00  0.00     0.029 A 
ATOM     48  N   UNL A   1      41.510  29.317  32.285  1.00  0.00    -0.354 N 
ATOM     49  N   UNL A   1      41.111  31.081  34.603  1.00  0.00    -0.248 NA
ATOM     50  C   UNL A   1      41.695  31.769  36.757  1.00  0.00     0.031 C 
ATOM     51  C   UNL A   1      43.221  27.900  32.332  1.00  0.00     0.029 A 
ATOM     52  C   UNL A   1      42.571  28.882  33.062  1.00  0.00     0.049 A 
ATOM     53  H   UNL A   1      40.864  30.012  32.547  1.00  0.00     0.167 HD
ATOM     54  C   UNL A   1      42.218  30.358  35.027  1.00  0.00     0.074 A 
ATOM     55  C   UNL A   1      42.551  30.841  36.351  1.00  0.00     0.031 C 
ATOM     56  C   UNL A   1      42.895  29.381  34.375  1.00  0.00     0.037 A 
BRANCH  43  57
ATOM     57  C   UNL A   1      40.619  27.955  28.816  1.00  0.00     0.064 A 
ATOM     58  C   UNL A   1      41.389  28.365  27.718  1.00  0.00     0.173 A 
ATOM     59  C   UNL A   1      39.895  26.758  28.700  1.00  0.00     0.173 A 
ATOM     60  F   UNL A   1      42.094  29.505  27.774  1.00  0.00    -0.203 F 
ATOM     61  C   UNL A   1      41.422  27.614  26.546  1.00  0.00     0.198 A 
ATOM     62  C   UNL A   1      39.954  25.996  27.537  1.00  0.00     0.198 A 
ATOM     63  F   UNL A   1      39.152  26.316  29.726  1.00  0.00    -0.203 F 
ATOM     64  F   UNL A   1      42.139  28.043  25.498  1.00  0.00    -0.200 F 
ATOM     65  C   UNL A   1      40.708  26.429  26.458  1.00  0.00     0.200 A 
ATOM     66  F   UNL A   1      39.283  24.837  27.464  1.00  0.00    -0.200 F 
ATOM     67  F   UNL A   1      40.750  25.702  25.333  1.00  0.00    -0.200 F 
ENDBRANCH  43  57
BRANCH  44  68
ATOM     68  C   UNL A   1      39.578  33.811  36.847  1.00  0.00     0.064 A 
ATOM     69  C   UNL A   1      38.803  33.429  37.952  1.00  0.00     0.173 A 
ATOM     70  C   UNL A   1      40.184  35.075  36.881  1.00  0.00     0.173 A 
ATOM     71  F   UNL A   1      38.198  32.233  37.967  1.00  0.00    -0.203 F 
ATOM     72  C   UNL A   1      38.620  34.288  39.035  1.00  0.00     0.198 A 
ATOM     73  C   UNL A   1      40.021  35.922  37.975  1.00  0.00     0.198 A 
ATOM     74  F   UNL A   1      40.949  35.477  35.856  1.00  0.00    -0.203 F 
ATOM     75  F   UNL A   1      37.842  33.914  40.060  1.00  0.00    -0.200 F 
ATOM     76  C   UNL A   1      39.233  35.532  39.046  1.00  0.00     0.200 A 
ATOM     77  F   UNL A   1      40.631  37.115  37.992  1.00  0.00    -0.200 F 
ATOM     78  F   UNL A   1      39.062  36.355  40.091  1.00  0.00    -0.200 F 
ENDBRANCH  44  68
BRANCH  56  79
ATOM     79  C   UNL A   1      44.079  28.770  35.065  1.00  0.00     0.064 A 
ATOM     80  C   UNL A   1      43.912  27.669  35.918  1.00  0.00     0.173 A 
ATOM     81  C   UNL A   1      45.356  29.337  34.961  1.00  0.00     0.173 A 
ATOM     82  F   UNL A   1      42.706  27.097  36.057  1.00  0.00    -0.203 F 
ATOM     83  C   UNL A   1      44.978  27.172  36.662  1.00  0.00     0.198 A 
ATOM     84  C   UNL A   1      46.427  28.820  35.685  1.00  0.00     0.198 A 
ATOM     85  F   UNL A   1      45.567  30.384  34.149  1.00  0.00    -0.203 F 
ATOM     86  F   UNL A   1      44.786  26.146  37.502  1.00  0.00    -0.200 F 
ATOM     87  C   UNL A   1      46.234  27.747  36.544  1.00  0.00     0.200 A 
ATOM     88  F   UNL A   1      47.645  29.362  35.556  1.00  0.00    -0.200 F 
ATOM     89  F   UNL A   1      47.260  27.268  37.260  1.00  0.00    -0.200 F 
ENDBRANCH  56  79
ENDBRANCH  30  31
ENDBRANCH  22  25
ENDBRANCH  20  21
ENDBRANCH  19  20
ENDBRANCH   1  19
TORSDOF 14
ENDMDL
MODEL 2
REMARK VINA RESULT:     -11.7      1.639      2.435
REMARK SMILES COc1c(C(=O)NCCCCCCNC(=O)c2ccc(-c3c4nc(c(-c5c(F)c(F)c(F)c(F)c5F)c5ccc([nH]5)c(-c5c(F)c(F)c(F)c(F)c5F)c5nc(c(-c6c(F)c(F)c(F)c(F)c6F)c6ccc3[nH]6)C=C5)C=C4)cc2)ccc(F)c1F
REMARK SMILES IDX 11 1 10 2 9 3 8 4 7 5 5 6 6 7 4 9 3 10 84 11 80 12 82 13
REMARK SMILES IDX 85 14 81 15 83 16 2 17 1 18 12 19 13 20 14 21 15 22 16 24
REMARK SMILES IDX 17 25 18 26 79 27 19 28 78 29 20 30 21 31 22 32 72 33 23 34
REMARK SMILES IDX 77 35 71 36 73 37 24 38 76 39 70 40 69 41 25 43 57 44 37 45
REMARK SMILES IDX 56 46 38 47 41 48 55 49 74 50 39 51 40 52 54 54 75 55 42 56
REMARK SMILES IDX 26 57 27 58 35 59 28 60 29 61 33 62 36 63 30 64 31 65 34 66
REMARK SMILES IDX 32 67 58 68 59 69 67 70 60 71 61 72 65 73 68 74 62 75 63 76
REMARK SMILES IDX 66 77 64 78 43 79 44 80 52 81 45 82 46 83 50 84 53 85 47 86
REMARK SMILES IDX 48 87 51 88 49 89
REMARK H PARENT 7 8 14 23 73 42 41 53
REMARK Flexibility Score: inf
ROOT
ATOM      1  C   UNL A   1      31.436  30.731  26.223  1.00  0.00     0.002 C 
ENDROOT
BRANCH   1   2
ATOM      2  C   UNL A   1      32.826  30.103  26.393  1.00  0.00     0.002 C 
BRANCH   2   3
ATOM      3  C   UNL A   1      32.870  28.830  27.256  1.00  0.00     0.021 C 
BRANCH   3   4
ATOM      4  C   UNL A   1      31.486  28.276  27.599  1.00  0.00     0.116 C 
BRANCH   4   5
ATOM      5  N   UNL A   1      31.291  26.975  27.000  1.00  0.00    -0.352 N 
ATOM      6  C   UNL A   1      30.970  26.478  25.766  1.00  0.00     0.255 C 
ATOM      7  O   UNL A   1      30.915  25.247  25.740  1.00  0.00    -0.269 OA
ATOM      8  H   UNL A   1      31.424  26.252  27.655  1.00  0.00     0.163 HD
BRANCH   6   9
ATOM      9  C   UNL A   1      30.734  27.284  24.516  1.00  0.00     0.085 A 
ATOM     10  C   UNL A   1      31.839  27.837  23.827  1.00  0.00     0.170 A 
ATOM     11  C   UNL A   1      31.653  28.750  22.780  1.00  0.00     0.201 A 
ATOM     12  C   UNL A   1      29.462  27.562  23.990  1.00  0.00     0.021 A 
ATOM     13  C   UNL A   1      30.378  29.077  22.352  1.00  0.00     0.162 A 
ATOM     14  F   UNL A   1      32.714  29.299  22.168  1.00  0.00    -0.200 F 
ATOM     15  C   UNL A   1      29.279  28.467  22.933  1.00  0.00     0.043 A 
ATOM     16  F   UNL A   1      30.195  29.953  21.356  1.00  0.00    -0.204 F 
BRANCH  10  17
ATOM     17  O   UNL A   1      33.145  27.552  24.142  1.00  0.00    -0.493 OA
ATOM     18  C   UNL A   1      33.603  26.428  23.383  1.00  0.00     0.278 C 
ENDBRANCH  10  17
ENDBRANCH   6   9
ENDBRANCH   4   5
ENDBRANCH   3   4
ENDBRANCH   2   3
ENDBRANCH   1   2
BRANCH   1  19
ATOM     19  C   UNL A   1      31.356  32.226  26.543  1.00  0.00     0.021 C 
BRANCH  19  20
ATOM     20  C   UNL A   1      32.610  32.796  27.193  1.00  0.00     0.116 C 
BRANCH  20  21
ATOM     21  N   UNL A   1      32.420  34.176  27.610  1.00  0.00    -0.352 N 
ATOM     22  C   UNL A   1      33.025  34.864  28.631  1.00  0.00     0.251 C 
ATOM     23  H   UNL A   1      31.765  34.689  27.085  1.00  0.00     0.163 HD
ATOM     24  O   UNL A   1      32.590  35.953  28.986  1.00  0.00    -0.269 OA
BRANCH  22  25
ATOM     25  C   UNL A   1      34.199  34.283  29.316  1.00  0.00     0.039 A 
ATOM     26  C   UNL A   1      33.999  33.514  30.464  1.00  0.00     0.014 A 
ATOM     27  C   UNL A   1      35.494  34.516  28.842  1.00  0.00     0.014 A 
ATOM     28  C   UNL A   1      35.093  32.938  31.111  1.00  0.00     0.010 A 
ATOM     29  C   UNL A   1      36.577  33.885  29.446  1.00  0.00     0.010 A 
ATOM     30  C   UNL A   1      36.389  33.098  30.592  1.00  0.00    -0.014 A 
BRANCH  30  31
ATOM     31  C   UNL A   1      37.556  32.452  31.240  1.00  0.00     0.031 A 
ATOM     32  C   UNL A   1      38.300  31.354  30.536  1.00  0.00     0.074 A 
ATOM     33  C   UNL A   1      37.916  32.827  32.483  1.00  0.00     0.049 A 
ATOM     34  N   UNL A   1      39.317  30.642  30.955  1.00  0.00    -0.248 NA
ATOM     35  C   UNL A   1      37.828  30.988  29.190  1.00  0.00     0.031 C 
ATOM     36  C   UNL A   1      37.244  33.852  33.281  1.00  0.00     0.029 A 
ATOM     37  N   UNL A   1      38.934  32.389  33.293  1.00  0.00    -0.354 N 
ATOM     38  C   UNL A   1      39.597  29.745  29.933  1.00  0.00     0.074 A 
ATOM     39  C   UNL A   1      38.612  29.960  28.896  1.00  0.00     0.031 C 
ATOM     40  C   UNL A   1      37.888  33.990  34.451  1.00  0.00     0.029 A 
ATOM     41  C   UNL A   1      38.993  33.038  34.502  1.00  0.00     0.049 A 
ATOM     42  H   UNL A   1      39.563  31.678  33.031  1.00  0.00     0.167 HD
ATOM     43  C   UNL A   1      40.604  28.845  29.857  1.00  0.00     0.037 A 
ATOM     44  C   UNL A   1      39.844  32.883  35.535  1.00  0.00     0.037 A 
ATOM     45  C   UNL A   1      41.599  28.658  30.878  1.00  0.00     0.049 A 
ATOM     46  C   UNL A   1      40.948  31.867  35.430  1.00  0.00     0.074 A 
ATOM     47  C   UNL A   1      42.693  27.810  30.870  1.00  0.00     0.029 A 
ATOM     48  N   UNL A   1      41.624  29.333  32.090  1.00  0.00    -0.354 N 
ATOM     49  N   UNL A   1      41.237  31.064  34.435  1.00  0.00    -0.248 NA
ATOM     50  C   UNL A   1      41.845  31.735  36.588  1.00  0.00     0.031 C 
ATOM     51  C   UNL A   1      43.353  27.937  32.095  1.00  0.00     0.029 A 
ATOM     52  C   UNL A   1      42.701  28.903  32.846  1.00  0.00     0.049 A 
ATOM     53  H   UNL A   1      40.973  30.017  32.370  1.00  0.00     0.167 HD
ATOM     54  C   UNL A   1      42.360  30.351  34.834  1.00  0.00     0.074 A 
ATOM     55  C   UNL A   1      42.706  30.822  36.158  1.00  0.00     0.031 C 
ATOM     56  C   UNL A   1      43.039  29.390  34.161  1.00  0.00     0.037 A 
BRANCH  43  57
ATOM     57  C   UNL A   1      40.698  28.000  28.620  1.00  0.00     0.064 A 
ATOM     58  C   UNL A   1      40.064  26.749  28.560  1.00  0.00     0.173 A 
ATOM     59  C   UNL A   1      41.475  28.395  27.520  1.00  0.00     0.173 A 
ATOM     60  F   UNL A   1      39.315  26.320  29.587  1.00  0.00    -0.203 F 
ATOM     61  C   UNL A   1      40.215  25.922  27.449  1.00  0.00     0.198 A 
ATOM     62  C   UNL A   1      41.599  27.578  26.400  1.00  0.00     0.198 A 
ATOM     63  F   UNL A   1      42.092  29.586  27.524  1.00  0.00    -0.203 F 
ATOM     64  F   UNL A   1      39.627  24.718  27.428  1.00  0.00    -0.200 F 
ATOM     65  C   UNL A   1      40.978  26.339  26.370  1.00  0.00     0.200 A 
ATOM     66  F   UNL A   1      42.317  27.994  25.347  1.00  0.00    -0.200 F 
ATOM     67  F   UNL A   1      41.112  25.547  25.297  1.00  0.00    -0.200 F 
ENDBRANCH  43  57
BRANCH  44  68
ATOM     68  C   UNL A   1      39.704  33.748  36.734  1.00  0.00     0.064 A 
ATOM     69  C   UNL A   1      38.905  33.368  37.823  1.00  0.00     0.173 A 
ATOM     70  C   UNL A   1      40.340  34.996  36.796  1.00  0.00     0.173 A 
ATOM     71  F   UNL A   1      38.271  32.187  37.811  1.00  0.00    -0.203 F 
ATOM     72  C   UNL A   1      38.730  34.213  38.917  1.00  0.00     0.198 A 
ATOM     73  C   UNL A   1      40.185  35.829  37.902  1.00  0.00     0.198 A 
ATOM     74  F   UNL A   1      41.128  35.395  35.787  1.00  0.00    -0.203 F 
ATOM     75  F   UNL A   1      37.930  33.842  39.926  1.00  0.00    -0.200 F 
ATOM     76  C   UNL A   1      39.373  35.442  38.956  1.00  0.00     0.200 A 
ATOM     77  F   UNL A   1      40.823  37.006  37.946  1.00  0.00    -0.200 F 
ATOM     78  F   UNL A   1      39.209  36.251  40.012  1.00  0.00    -0.200 F 
ENDBRANCH  44  68
BRANCH  56  79
ATOM     79  C   UNL A   1      44.241  28.787  34.825  1.00  0.00     0.064 A 
ATOM     80  C   UNL A   1      44.103  27.665  35.656  1.00  0.00     0.173 A 
ATOM     81  C   UNL A   1      45.507  29.379  34.720  1.00  0.00     0.173 A 
ATOM     82  F   UNL A   1      42.909  27.068  35.795  1.00  0.00    -0.203 F 
ATOM     83  C   UNL A   1      45.186  27.173  36.378  1.00  0.00     0.198 A 
ATOM     84  C   UNL A   1      46.594  28.867  35.423  1.00  0.00     0.198 A 
ATOM     85  F   UNL A   1      45.690  30.447  33.928  1.00  0.00    -0.203 F 
ATOM     86  F   UNL A   1      45.021  26.126  37.199  1.00  0.00    -0.200 F 
ATOM     87  C   UNL A   1      46.430  27.773  36.260  1.00  0.00     0.200 A 
ATOM     88  F   UNL A   1      47.801  29.434  35.293  1.00  0.00    -0.200 F 
ATOM     89  F   UNL A   1      47.472  27.297  36.955  1.00  0.00    -0.200 F 
ENDBRANCH  56  79
ENDBRANCH  30  31
ENDBRANCH  22  25
ENDBRANCH  20  21
ENDBRANCH  19  20
ENDBRANCH   1  19
TORSDOF 14
ENDMDL
MODEL 3
REMARK VINA RESULT:     -11.6      0.777      7.515
REMARK SMILES COc1c(C(=O)NCCCCCCNC(=O)c2ccc(-c3c4nc(c(-c5c(F)c(F)c(F)c(F)c5F)c5ccc([nH]5)c(-c5c(F)c(F)c(F)c(F)c5F)c5nc(c(-c6c(F)c(F)c(F)c(F)c6F)c6ccc3[nH]6)C=C5)C=C4)cc2)ccc(F)c1F
REMARK SMILES IDX 11 1 10 2 9 3 8 4 7 5 5 6 6 7 4 9 3 10 84 11 80 12 82 13
REMARK SMILES IDX 85 14 81 15 83 16 2 17 1 18 12 19 13 20 14 21 15 22 16 24
REMARK SMILES IDX 17 25 18 26 79 27 19 28 78 29 20 30 21 31 22 32 72 33 23 34
REMARK SMILES IDX 77 35 71 36 73 37 24 38 76 39 70 40 69 41 25 43 57 44 37 45
REMARK SMILES IDX 56 46 38 47 41 48 55 49 74 50 39 51 40 52 54 54 75 55 42 56
REMARK SMILES IDX 26 57 27 58 35 59 28 60 29 61 33 62 36 63 30 64 31 65 34 66
REMARK SMILES IDX 32 67 58 68 59 69 67 70 60 71 61 72 65 73 68 74 62 75 63 76
REMARK SMILES IDX 66 77 64 78 43 79 44 80 52 81 45 82 46 83 50 84 53 85 47 86
REMARK SMILES IDX 48 87 51 88 49 89
REMARK H PARENT 7 8 14 23 73 42 41 53
REMARK Flexibility Score: inf
ROOT
ATOM      1  C   UNL A   1      31.411  30.546  26.172  1.00  0.00     0.002 C 
ENDROOT
BRANCH   1   2
ATOM      2  C   UNL A   1      32.230  29.682  27.141  1.00  0.00     0.002 C 
BRANCH   2   3
ATOM      3  C   UNL A   1      31.591  28.334  27.518  1.00  0.00     0.021 C 
BRANCH   3   4
ATOM      4  C   UNL A   1      31.509  27.348  26.352  1.00  0.00     0.116 C 
BRANCH   4   5
ATOM      5  N   UNL A   1      31.308  26.000  26.834  1.00  0.00    -0.352 N 
ATOM      6  C   UNL A   1      31.779  24.750  26.539  1.00  0.00     0.255 C 
ATOM      7  O   UNL A   1      31.292  23.869  27.251  1.00  0.00    -0.269 OA
ATOM      8  H   UNL A   1      30.657  25.974  27.572  1.00  0.00     0.163 HD
BRANCH   6   9
ATOM      9  C   UNL A   1      32.813  24.411  25.498  1.00  0.00     0.085 A 
ATOM     10  C   UNL A   1      32.406  23.813  24.282  1.00  0.00     0.170 A 
ATOM     11  C   UNL A   1      33.348  23.305  23.377  1.00  0.00     0.201 A 
ATOM     12  C   UNL A   1      34.192  24.618  25.666  1.00  0.00     0.021 A 
ATOM     13  C   UNL A   1      34.702  23.441  23.624  1.00  0.00     0.162 A 
ATOM     14  F   UNL A   1      32.941  22.702  22.249  1.00  0.00    -0.200 F 
ATOM     15  C   UNL A   1      35.133  24.119  24.751  1.00  0.00     0.043 A 
ATOM     16  F   UNL A   1      35.606  22.952  22.764  1.00  0.00    -0.204 F 
BRANCH  10  17
ATOM     17  O   UNL A   1      31.090  23.663  23.919  1.00  0.00    -0.493 OA
ATOM     18  C   UNL A   1      30.654  24.797  23.161  1.00  0.00     0.278 C 
ENDBRANCH  10  17
ENDBRANCH   6   9
ENDBRANCH   4   5
ENDBRANCH   3   4
ENDBRANCH   2   3
ENDBRANCH   1   2
BRANCH   1  19
ATOM     19  C   UNL A   1      31.385  32.041  26.501  1.00  0.00     0.021 C 
BRANCH  19  20
ATOM     20  C   UNL A   1      32.679  32.574  27.103  1.00  0.00     0.116 C 
BRANCH  20  21
ATOM     21  N   UNL A   1      32.528  33.938  27.582  1.00  0.00    -0.352 N 
ATOM     22  C   UNL A   1      33.156  34.564  28.628  1.00  0.00     0.251 C 
ATOM     23  H   UNL A   1      31.884  34.491  27.085  1.00  0.00     0.163 HD
ATOM     24  O   UNL A   1      32.752  35.647  29.035  1.00  0.00    -0.269 OA
BRANCH  22  25
ATOM     25  C   UNL A   1      34.318  33.922  29.279  1.00  0.00     0.039 A 
ATOM     26  C   UNL A   1      34.093  32.988  30.293  1.00  0.00     0.014 A 
ATOM     27  C   UNL A   1      35.623  34.259  28.910  1.00  0.00     0.014 A 
ATOM     28  C   UNL A   1      35.177  32.355  30.902  1.00  0.00     0.010 A 
ATOM     29  C   UNL A   1      36.701  33.578  29.469  1.00  0.00     0.010 A 
ATOM     30  C   UNL A   1      36.488  32.625  30.477  1.00  0.00    -0.014 A 
BRANCH  30  31
ATOM     31  C   UNL A   1      37.647  31.925  31.082  1.00  0.00     0.031 A 
ATOM     32  C   UNL A   1      38.088  32.262  32.479  1.00  0.00     0.074 A 
ATOM     33  C   UNL A   1      38.330  31.019  30.356  1.00  0.00     0.049 A 
ATOM     34  N   UNL A   1      39.100  31.789  33.163  1.00  0.00    -0.248 NA
ATOM     35  C   UNL A   1      37.303  33.280  33.196  1.00  0.00     0.031 C 
ATOM     36  C   UNL A   1      38.020  30.641  28.977  1.00  0.00     0.029 A 
ATOM     37  N   UNL A   1      39.423  30.253  30.674  1.00  0.00    -0.354 N 
ATOM     38  C   UNL A   1      39.076  32.456  34.381  1.00  0.00     0.074 A 
ATOM     39  C   UNL A   1      37.987  33.406  34.325  1.00  0.00     0.031 C 
ATOM     40  C   UNL A   1      38.880  29.690  28.579  1.00  0.00     0.029 A 
ATOM     41  C   UNL A   1      39.824  29.419  29.659  1.00  0.00     0.049 A 
ATOM     42  H   UNL A   1      39.876  30.297  31.547  1.00  0.00     0.167 HD
ATOM     43  C   UNL A   1      39.874  32.270  35.457  1.00  0.00     0.037 A 
ATOM     44  C   UNL A   1      40.838  28.533  29.606  1.00  0.00     0.037 A 
ATOM     45  C   UNL A   1      40.935  31.301  35.518  1.00  0.00     0.049 A 
ATOM     46  C   UNL A   1      41.718  28.353  30.813  1.00  0.00     0.074 A 
ATOM     47  C   UNL A   1      41.764  30.997  36.585  1.00  0.00     0.029 A 
ATOM     48  N   UNL A   1      41.313  30.476  34.469  1.00  0.00    -0.354 N 
ATOM     49  N   UNL A   1      41.650  28.949  31.978  1.00  0.00    -0.248 NA
ATOM     50  C   UNL A   1      42.813  27.379  30.700  1.00  0.00     0.031 C 
ATOM     51  C   UNL A   1      42.673  30.021  36.166  1.00  0.00     0.029 A 
ATOM     52  C   UNL A   1      42.377  29.679  34.855  1.00  0.00     0.049 A 
ATOM     53  H   UNL A   1      40.886  30.458  33.581  1.00  0.00     0.167 HD
ATOM     54  C   UNL A   1      42.674  28.407  32.745  1.00  0.00     0.074 A 
ATOM     55  C   UNL A   1      43.342  27.426  31.915  1.00  0.00     0.031 C 
ATOM     56  C   UNL A   1      43.026  28.699  34.020  1.00  0.00     0.037 A 
BRANCH  43  57
ATOM     57  C   UNL A   1      39.624  33.116  36.672  1.00  0.00     0.064 A 
ATOM     58  C   UNL A   1      40.363  34.289  36.889  1.00  0.00     0.173 A 
ATOM     59  C   UNL A   1      38.702  32.729  37.657  1.00  0.00     0.173 A 
ATOM     60  F   UNL A   1      41.261  34.700  35.982  1.00  0.00    -0.203 F 
ATOM     61  C   UNL A   1      40.196  35.035  38.054  1.00  0.00     0.198 A 
ATOM     62  C   UNL A   1      38.518  33.493  38.805  1.00  0.00     0.198 A 
ATOM     63  F   UNL A   1      37.963  31.622  37.491  1.00  0.00    -0.203 F 
ATOM     64  F   UNL A   1      40.937  36.133  38.255  1.00  0.00    -0.200 F 
ATOM     65  C   UNL A   1      39.272  34.639  39.008  1.00  0.00     0.200 A 
ATOM     66  F   UNL A   1      37.606  33.122  39.715  1.00  0.00    -0.200 F 
ATOM     67  F   UNL A   1      39.105  35.365  40.122  1.00  0.00    -0.200 F 
ENDBRANCH  43  57
BRANCH  44  68
ATOM     68  C   UNL A   1      41.038  27.722  28.379  1.00  0.00     0.064 A 
ATOM     69  C   UNL A   1      40.419  26.474  28.215  1.00  0.00     0.173 A 
ATOM     70  C   UNL A   1      41.890  28.167  27.357  1.00  0.00     0.173 A 
ATOM     71  F   UNL A   1      39.600  26.000  29.165  1.00  0.00    -0.203 F 
ATOM     72  C   UNL A   1      40.662  25.692  27.087  1.00  0.00     0.198 A 
ATOM     73  C   UNL A   1      42.112  27.396  26.219  1.00  0.00     0.198 A 
ATOM     74  F   UNL A   1      42.490  29.361  27.461  1.00  0.00    -0.203 F 
ATOM     75  F   UNL A   1      40.088  24.487  26.974  1.00  0.00    -0.200 F 
ATOM     76  C   UNL A   1      41.506  26.156  26.089  1.00  0.00     0.200 A 
ATOM     77  F   UNL A   1      42.911  27.855  25.246  1.00  0.00    -0.200 F 
ATOM     78  F   UNL A   1      41.734  25.406  25.001  1.00  0.00    -0.200 F 
ENDBRANCH  44  68
BRANCH  56  79
ATOM     79  C   UNL A   1      44.175  27.944  34.620  1.00  0.00     0.064 A 
ATOM     80  C   UNL A   1      45.485  28.429  34.494  1.00  0.00     0.173 A 
ATOM     81  C   UNL A   1      43.990  26.694  35.226  1.00  0.00     0.173 A 
ATOM     82  F   UNL A   1      45.714  29.618  33.913  1.00  0.00    -0.203 F 
ATOM     83  C   UNL A   1      46.572  27.678  34.932  1.00  0.00     0.198 A 
ATOM     84  C   UNL A   1      45.077  25.958  35.689  1.00  0.00     0.198 A 
ATOM     85  F   UNL A   1      42.754  26.194  35.380  1.00  0.00    -0.203 F 
ATOM     86  F   UNL A   1      47.817  28.143  34.763  1.00  0.00    -0.200 F 
ATOM     87  C   UNL A   1      46.367  26.445  35.530  1.00  0.00     0.200 A 
ATOM     88  F   UNL A   1      44.878  24.775  36.285  1.00  0.00    -0.200 F 
ATOM     89  F   UNL A   1      47.413  25.723  35.953  1.00  0.00    -0.200 F 
ENDBRANCH  56  79
ENDBRANCH  30  31
ENDBRANCH  22  25
ENDBRANCH  20  21
ENDBRANCH  19  20
ENDBRANCH   1  19
TORSDOF 14
ENDMDL
