MODEL 1
REMARK VINA RESULT:     -12.8      0.000      0.000
REMARK SMILES O=C(NCCCCCCNC(=O)[C@H]1[C@H]2CC[C@H](CC2)[C@H]1C(=O)Nc1ccc(C(=O)N2CCCC2)cc1)c1ccc(-c2c3nc(c(-c4c(F)c(F)c(F)c(F)c4F)c4ccc([nH]4)c(-c4c(F)c(F)c(F)c(F)c4F)c4nc(c(-c5c(F)c(F)c(F)c(F)c5F)c5ccc2[nH]5)C=C4)C=C3)cc1
REMARK SMILES IDX 7 1 6 2 5 3 4 4 3 5 1 6 2 7 37 9 38 10 99 11 39 12 98 13
REMARK SMILES IDX 40 14 41 15 42 16 92 17 43 18 97 19 91 20 93 21 44 22 96 23
REMARK SMILES IDX 90 24 89 25 45 27 77 28 57 29 76 30 58 31 61 32 75 33 94 34
REMARK SMILES IDX 59 35 60 36 74 38 95 39 62 40 46 41 47 42 55 43 48 44 49 45
REMARK SMILES IDX 53 46 56 47 50 48 51 49 54 50 52 51 78 52 79 53 87 54 80 55
REMARK SMILES IDX 81 56 85 57 88 58 82 59 83 60 86 61 84 62 63 63 64 64 72 65
REMARK SMILES IDX 65 66 66 67 70 68 73 69 67 70 68 71 71 72 69 73 8 74 9 75
REMARK SMILES IDX 10 76 11 77 12 79 13 80 14 81 20 82 19 83 15 84 17 85 18 86
REMARK SMILES IDX 16 87 21 88 22 89 23 90 24 92 25 93 36 94 26 95 35 96 27 97
REMARK SMILES IDX 28 98 29 99 30 100 31 101 34 102 32 103 33 104
REMARK H PARENT 3 8 93 26 61 37 10 78 23 91
REMARK Flexibility Score: inf
ROOT
ATOM      1  C   UNL A   1      31.127  26.457  26.027  1.00  0.00     0.002 C 
ENDROOT
BRANCH   1   2
ATOM      2  C   UNL A   1      32.656  26.556  26.027  1.00  0.00     0.002 C 
BRANCH   2   3
ATOM      3  C   UNL A   1      33.217  27.640  26.944  1.00  0.00     0.021 C 
BRANCH   3   4
ATOM      4  C   UNL A   1      34.118  28.647  26.243  1.00  0.00     0.116 C 
BRANCH   4   5
ATOM      5  N   UNL A   1      33.876  30.009  26.689  1.00  0.00    -0.352 N 
ATOM      6  O   UNL A   1      34.174  31.827  27.997  1.00  0.00    -0.269 OA
ATOM      7  C   UNL A   1      34.597  30.755  27.588  1.00  0.00     0.251 C 
ATOM      8  H   UNL A   1      33.091  30.454  26.294  1.00  0.00     0.163 HD
BRANCH   7   9
ATOM      9  C   UNL A   1      35.885  30.228  28.081  1.00  0.00     0.039 A 
ATOM     10  C   UNL A   1      35.978  29.650  29.351  1.00  0.00     0.014 A 
ATOM     11  C   UNL A   1      37.014  30.337  27.267  1.00  0.00     0.014 A 
ATOM     12  C   UNL A   1      37.222  29.293  29.858  1.00  0.00     0.010 A 
ATOM     13  C   UNL A   1      38.250  29.904  27.747  1.00  0.00     0.010 A 
ATOM     14  C   UNL A   1      38.367  29.403  29.055  1.00  0.00    -0.014 A 
BRANCH  14  15
ATOM     15  C   UNL A   1      39.681  28.945  29.564  1.00  0.00     0.031 A 
ATOM     16  C   UNL A   1      40.467  29.787  30.526  1.00  0.00     0.074 A 
ATOM     17  C   UNL A   1      40.179  27.776  29.120  1.00  0.00     0.049 A 
ATOM     18  N   UNL A   1      41.674  29.597  30.996  1.00  0.00    -0.248 NA
ATOM     19  C   UNL A   1      39.816  31.010  31.016  1.00  0.00     0.031 C 
ATOM     20  C   UNL A   1      39.501  26.874  28.187  1.00  0.00     0.029 A 
ATOM     21  N   UNL A   1      41.372  27.153  29.380  1.00  0.00    -0.354 N 
ATOM     22  C   UNL A   1      41.937  30.687  31.815  1.00  0.00     0.074 A 
ATOM     23  C   UNL A   1      40.774  31.547  31.759  1.00  0.00     0.031 C 
ATOM     24  C   UNL A   1      40.283  25.811  27.958  1.00  0.00     0.029 A 
ATOM     25  C   UNL A   1      41.542  25.989  28.673  1.00  0.00     0.049 A 
ATOM     26  H   UNL A   1      42.040  27.505  30.011  1.00  0.00     0.167 HD
ATOM     27  C   UNL A   1      43.050  30.940  32.548  1.00  0.00     0.037 A 
ATOM     28  C   UNL A   1      42.609  25.175  28.577  1.00  0.00     0.037 A 
ATOM     29  C   UNL A   1      44.201  30.074  32.593  1.00  0.00     0.049 A 
ATOM     30  C   UNL A   1      43.849  25.500  29.359  1.00  0.00     0.074 A 
ATOM     31  C   UNL A   1      45.364  30.220  33.328  1.00  0.00     0.029 A 
ATOM     32  N   UNL A   1      44.339  28.903  31.857  1.00  0.00    -0.354 N 
ATOM     33  N   UNL A   1      44.078  26.515  30.156  1.00  0.00    -0.248 NA
ATOM     34  C   UNL A   1      44.977  24.570  29.229  1.00  0.00     0.031 C 
ATOM     35  C   UNL A   1      46.230  29.174  32.992  1.00  0.00     0.029 A 
ATOM     36  C   UNL A   1      45.580  28.334  32.101  1.00  0.00     0.049 A 
ATOM     37  H   UNL A   1      43.656  28.532  31.253  1.00  0.00     0.167 HD
ATOM     38  C   UNL A   1      45.362  26.330  30.649  1.00  0.00     0.074 A 
ATOM     39  C   UNL A   1      45.861  25.104  30.061  1.00  0.00     0.031 C 
ATOM     40  C   UNL A   1      46.058  27.105  31.517  1.00  0.00     0.037 A 
BRANCH  27  41
ATOM     41  C   UNL A   1      43.090  32.224  33.328  1.00  0.00     0.064 A 
ATOM     42  C   UNL A   1      42.648  32.300  34.658  1.00  0.00     0.173 A 
ATOM     43  C   UNL A   1      43.593  33.396  32.741  1.00  0.00     0.173 A 
ATOM     44  F   UNL A   1      42.149  31.214  35.268  1.00  0.00    -0.203 F 
ATOM     45  C   UNL A   1      42.668  33.507  35.354  1.00  0.00     0.198 A 
ATOM     46  C   UNL A   1      43.644  34.593  33.451  1.00  0.00     0.198 A 
ATOM     47  F   UNL A   1      44.038  33.381  31.476  1.00  0.00    -0.203 F 
ATOM     48  F   UNL A   1      42.179  33.568  36.601  1.00  0.00    -0.200 F 
ATOM     49  C   UNL A   1      43.170  34.651  34.753  1.00  0.00     0.200 A 
ATOM     50  F   UNL A   1      44.144  35.693  32.871  1.00  0.00    -0.200 F 
ATOM     51  F   UNL A   1      43.188  35.810  35.423  1.00  0.00    -0.200 F 
ENDBRANCH  27  41
BRANCH  28  52
ATOM     52  C   UNL A   1      42.534  23.981  27.699  1.00  0.00     0.064 A 
ATOM     53  C   UNL A   1      42.868  24.062  26.341  1.00  0.00     0.173 A 
ATOM     54  C   UNL A   1      42.173  22.724  28.210  1.00  0.00     0.173 A 
ATOM     55  F   UNL A   1      43.205  25.244  25.805  1.00  0.00    -0.203 F 
ATOM     56  C   UNL A   1      42.838  22.934  25.525  1.00  0.00     0.198 A 
ATOM     57  C   UNL A   1      42.173  21.591  27.401  1.00  0.00     0.198 A 
ATOM     58  F   UNL A   1      41.855  22.592  29.506  1.00  0.00    -0.203 F 
ATOM     59  F   UNL A   1      43.134  23.043  24.223  1.00  0.00    -0.200 F 
ATOM     60  C   UNL A   1      42.500  21.697  26.058  1.00  0.00     0.200 A 
ATOM     61  F   UNL A   1      41.867  20.397  27.924  1.00  0.00    -0.200 F 
ATOM     62  F   UNL A   1      42.488  20.610  25.275  1.00  0.00    -0.200 F 
ENDBRANCH  28  52
BRANCH  40  63
ATOM     63  C   UNL A   1      47.418  26.625  31.935  1.00  0.00     0.064 A 
ATOM     64  C   UNL A   1      47.592  25.682  32.958  1.00  0.00     0.173 A 
ATOM     65  C   UNL A   1      48.561  27.074  31.254  1.00  0.00     0.173 A 
ATOM     66  F   UNL A   1      46.534  25.234  33.651  1.00  0.00    -0.203 F 
ATOM     67  C   UNL A   1      48.862  25.216  33.293  1.00  0.00     0.198 A 
ATOM     68  C   UNL A   1      49.824  26.584  31.570  1.00  0.00     0.198 A 
ATOM     69  F   UNL A   1      48.448  27.975  30.265  1.00  0.00    -0.203 F 
ATOM     70  F   UNL A   1      49.010  24.345  34.299  1.00  0.00    -0.200 F 
ATOM     71  C   UNL A   1      49.974  25.660  32.592  1.00  0.00     0.200 A 
ATOM     72  F   UNL A   1      50.895  27.002  30.881  1.00  0.00    -0.200 F 
ATOM     73  F   UNL A   1      51.193  25.197  32.905  1.00  0.00    -0.200 F 
ENDBRANCH  40  63
ENDBRANCH  14  15
ENDBRANCH   7   9
ENDBRANCH   4   5
ENDBRANCH   3   4
ENDBRANCH   2   3
ENDBRANCH   1   2
BRANCH   1  74
ATOM     74  C   UNL A   1      30.558  25.033  25.879  1.00  0.00     0.021 C 
BRANCH  74  75
ATOM     75  C   UNL A   1      30.540  24.479  24.448  1.00  0.00     0.116 C 
BRANCH  75  76
ATOM     76  N   UNL A   1      30.845  23.070  24.477  1.00  0.00    -0.356 N 
ATOM     77  C   UNL A   1      32.032  22.456  24.291  1.00  0.00     0.224 C 
ATOM     78  H   UNL A   1      30.082  22.474  24.655  1.00  0.00     0.163 HD
ATOM     79  O   UNL A   1      32.002  21.465  23.555  1.00  0.00    -0.275 OA
BRANCH  77  80
ATOM     80  C   UNL A   1      33.323  22.974  24.886  1.00  0.00     0.094 C 
ATOM     81  C   UNL A   1      34.421  22.061  25.521  1.00  0.00     0.002 C 
ATOM     82  C   UNL A   1      34.000  24.010  23.967  1.00  0.00     0.094 C 
ATOM     83  C   UNL A   1      35.595  21.670  24.593  1.00  0.00     0.005 C 
ATOM     84  C   UNL A   1      35.106  22.938  26.596  1.00  0.00     0.005 C 
ATOM     85  C   UNL A   1      35.497  24.142  24.372  1.00  0.00     0.002 C 
ATOM     86  C   UNL A   1      36.256  22.890  23.946  1.00  0.00     0.005 C 
ATOM     87  C   UNL A   1      35.627  24.229  25.923  1.00  0.00     0.005 C 
BRANCH  82  88
ATOM     88  C   UNL A   1      33.745  24.076  22.425  1.00  0.00     0.228 C 
ATOM     89  O   UNL A   1      33.990  23.038  21.782  1.00  0.00    -0.274 OA
ATOM     90  N   UNL A   1      33.133  25.050  21.683  1.00  0.00    -0.326 N 
ATOM     91  H   UNL A   1      33.036  24.799  20.736  1.00  0.00     0.169 HD
BRANCH  90  92
ATOM     92  C   UNL A   1      32.611  26.319  21.956  1.00  0.00     0.041 A 
ATOM     93  C   UNL A   1      31.251  26.533  21.766  1.00  0.00     0.027 A 
ATOM     94  C   UNL A   1      33.375  27.404  22.352  1.00  0.00     0.027 A 
ATOM     95  C   UNL A   1      30.646  27.678  22.306  1.00  0.00     0.016 A 
ATOM     96  C   UNL A   1      32.784  28.549  22.914  1.00  0.00     0.016 A 
ATOM     97  C   UNL A   1      31.398  28.641  23.006  1.00  0.00     0.040 A 
BRANCH  97  98
ATOM     98  C   UNL A   1      30.633  29.505  23.974  1.00  0.00     0.253 C 
ATOM     99  O   UNL A   1      31.204  29.838  25.015  1.00  0.00    -0.269 OA
ATOM    100  N   UNL A   1      29.474  30.156  23.573  1.00  0.00    -0.339 N 
ATOM    101  C   UNL A   1      28.222  29.603  23.093  1.00  0.00     0.120 C 
ATOM    102  C   UNL A   1      29.265  31.543  23.971  1.00  0.00     0.120 C 
ATOM    103  C   UNL A   1      27.560  30.800  22.435  1.00  0.00     0.023 C 
ATOM    104  C   UNL A   1      27.908  31.938  23.390  1.00  0.00     0.023 C 
ENDBRANCH  97  98
ENDBRANCH  90  92
ENDBRANCH  82  88
ENDBRANCH  77  80
ENDBRANCH  75  76
ENDBRANCH  74  75
ENDBRANCH   1  74
TORSDOF 16
ENDMDL
MODEL 2
REMARK VINA RESULT:     -12.4      1.134      6.982
REMARK SMILES O=C(NCCCCCCNC(=O)[C@H]1[C@H]2CC[C@H](CC2)[C@H]1C(=O)Nc1ccc(C(=O)N2CCCC2)cc1)c1ccc(-c2c3nc(c(-c4c(F)c(F)c(F)c(F)c4F)c4ccc([nH]4)c(-c4c(F)c(F)c(F)c(F)c4F)c4nc(c(-c5c(F)c(F)c(F)c(F)c5F)c5ccc2[nH]5)C=C4)C=C3)cc1
REMARK SMILES IDX 7 1 6 2 5 3 4 4 3 5 1 6 2 7 37 9 38 10 99 11 39 12 98 13
REMARK SMILES IDX 40 14 41 15 42 16 92 17 43 18 97 19 91 20 93 21 44 22 96 23
REMARK SMILES IDX 90 24 89 25 45 27 77 28 57 29 76 30 58 31 61 32 75 33 94 34
REMARK SMILES IDX 59 35 60 36 74 38 95 39 62 40 46 41 47 42 55 43 48 44 49 45
REMARK SMILES IDX 53 46 56 47 50 48 51 49 54 50 52 51 78 52 79 53 87 54 80 55
REMARK SMILES IDX 81 56 85 57 88 58 82 59 83 60 86 61 84 62 63 63 64 64 72 65
REMARK SMILES IDX 65 66 66 67 70 68 73 69 67 70 68 71 71 72 69 73 8 74 9 75
REMARK SMILES IDX 10 76 11 77 12 79 13 80 14 81 20 82 19 83 15 84 17 85 18 86
REMARK SMILES IDX 16 87 21 88 22 89 23 90 24 92 25 93 36 94 26 95 35 96 27 97
REMARK SMILES IDX 28 98 29 99 30 100 31 101 34 102 32 103 33 104
REMARK H PARENT 3 8 93 26 61 37 10 78 23 91
REMARK Flexibility Score: inf
ROOT
ATOM      1  C   UNL A   1      30.931  26.328  25.984  1.00  0.00     0.002 C 
ENDROOT
BRANCH   1   2
ATOM      2  C   UNL A   1      32.456  26.460  26.033  1.00  0.00     0.002 C 
BRANCH   2   3
ATOM      3  C   UNL A   1      32.964  27.540  26.984  1.00  0.00     0.021 C 
BRANCH   3   4
ATOM      4  C   UNL A   1      34.079  28.405  26.411  1.00  0.00     0.116 C 
BRANCH   4   5
ATOM      5  N   UNL A   1      33.844  29.822  26.627  1.00  0.00    -0.352 N 
ATOM      6  O   UNL A   1      34.140  31.825  27.633  1.00  0.00    -0.269 OA
ATOM      7  C   UNL A   1      34.558  30.697  27.410  1.00  0.00     0.251 C 
ATOM      8  H   UNL A   1      33.073  30.205  26.151  1.00  0.00     0.163 HD
BRANCH   7   9
ATOM      9  C   UNL A   1      35.830  30.245  28.007  1.00  0.00     0.039 A 
ATOM     10  C   UNL A   1      35.851  29.660  29.277  1.00  0.00     0.014 A 
ATOM     11  C   UNL A   1      37.015  30.431  27.292  1.00  0.00     0.014 A 
ATOM     12  C   UNL A   1      37.068  29.374  29.885  1.00  0.00     0.010 A 
ATOM     13  C   UNL A   1      38.230  30.069  27.872  1.00  0.00     0.010 A 
ATOM     14  C   UNL A   1      38.268  29.563  29.182  1.00  0.00    -0.014 A 
BRANCH  14  15
ATOM     15  C   UNL A   1      39.560  29.180  29.799  1.00  0.00     0.031 A 
ATOM     16  C   UNL A   1      40.352  28.022  29.266  1.00  0.00     0.074 A 
ATOM     17  C   UNL A   1      39.996  29.866  30.872  1.00  0.00     0.049 A 
ATOM     18  N   UNL A   1      41.446  27.481  29.739  1.00  0.00    -0.248 NA
ATOM     19  C   UNL A   1      39.840  27.378  28.048  1.00  0.00     0.031 C 
ATOM     20  C   UNL A   1      39.310  31.011  31.472  1.00  0.00     0.029 A 
ATOM     21  N   UNL A   1      41.108  29.694  31.655  1.00  0.00    -0.354 N 
ATOM     22  C   UNL A   1      41.741  26.420  28.893  1.00  0.00     0.074 A 
ATOM     23  C   UNL A   1      40.696  26.378  27.892  1.00  0.00     0.031 C 
ATOM     24  C   UNL A   1      40.018  31.443  32.525  1.00  0.00     0.029 A 
ATOM     25  C   UNL A   1      41.168  30.567  32.712  1.00  0.00     0.049 A 
ATOM     26  H   UNL A   1      41.795  29.011  31.477  1.00  0.00     0.167 HD
ATOM     27  C   UNL A   1      42.791  25.564  28.950  1.00  0.00     0.037 A 
ATOM     28  C   UNL A   1      42.031  30.630  33.743  1.00  0.00     0.037 A 
ATOM     29  C   UNL A   1      43.823  25.620  29.955  1.00  0.00     0.049 A 
ATOM     30  C   UNL A   1      43.158  29.641  33.813  1.00  0.00     0.074 A 
ATOM     31  C   UNL A   1      44.947  24.824  30.083  1.00  0.00     0.029 A 
ATOM     32  N   UNL A   1      43.848  26.517  31.015  1.00  0.00    -0.354 N 
ATOM     33  N   UNL A   1      43.448  28.662  32.992  1.00  0.00    -0.248 NA
ATOM     34  C   UNL A   1      44.078  29.766  34.951  1.00  0.00     0.031 C 
ATOM     35  C   UNL A   1      45.618  25.196  31.252  1.00  0.00     0.029 A 
ATOM     36  C   UNL A   1      44.953  26.274  31.816  1.00  0.00     0.049 A 
ATOM     37  H   UNL A   1      43.179  27.223  31.173  1.00  0.00     0.167 HD
ATOM     38  C   UNL A   1      44.600  28.072  33.493  1.00  0.00     0.074 A 
ATOM     39  C   UNL A   1      44.957  28.807  34.689  1.00  0.00     0.031 C 
ATOM     40  C   UNL A   1      45.302  27.022  32.998  1.00  0.00     0.037 A 
BRANCH  27  41
ATOM     41  C   UNL A   1      42.853  24.472  27.920  1.00  0.00     0.064 A 
ATOM     42  C   UNL A   1      43.368  24.691  26.633  1.00  0.00     0.173 A 
ATOM     43  C   UNL A   1      42.403  23.178  28.231  1.00  0.00     0.173 A 
ATOM     44  F   UNL A   1      43.804  25.909  26.278  1.00  0.00    -0.203 F 
ATOM     45  C   UNL A   1      43.390  23.671  25.685  1.00  0.00     0.198 A 
ATOM     46  C   UNL A   1      42.459  22.152  27.291  1.00  0.00     0.198 A 
ATOM     47  F   UNL A   1      41.908  22.908  29.447  1.00  0.00    -0.203 F 
ATOM     48  F   UNL A   1      43.826  23.923  24.443  1.00  0.00    -0.200 F 
ATOM     49  C   UNL A   1      42.941  22.401  26.015  1.00  0.00     0.200 A 
ATOM     50  F   UNL A   1      42.037  20.922  27.618  1.00  0.00    -0.200 F 
ATOM     51  F   UNL A   1      42.961  21.422  25.101  1.00  0.00    -0.200 F 
ENDBRANCH  27  41
BRANCH  28  52
ATOM     52  C   UNL A   1      41.842  31.671  34.784  1.00  0.00     0.064 A 
ATOM     53  C   UNL A   1      42.553  32.877  34.735  1.00  0.00     0.173 A 
ATOM     54  C   UNL A   1      40.911  31.501  35.821  1.00  0.00     0.173 A 
ATOM     55  F   UNL A   1      43.462  33.079  33.771  1.00  0.00    -0.203 F 
ATOM     56  C   UNL A   1      42.346  33.871  35.688  1.00  0.00     0.198 A 
ATOM     57  C   UNL A   1      40.684  32.508  36.755  1.00  0.00     0.198 A 
ATOM     58  F   UNL A   1      40.198  30.368  35.904  1.00  0.00    -0.203 F 
ATOM     59  F   UNL A   1      43.060  35.004  35.636  1.00  0.00    -0.200 F 
ATOM     60  C   UNL A   1      41.404  33.690  36.691  1.00  0.00     0.200 A 
ATOM     61  F   UNL A   1      39.758  32.337  37.708  1.00  0.00    -0.200 F 
ATOM     62  F   UNL A   1      41.194  34.655  37.597  1.00  0.00    -0.200 F 
ENDBRANCH  28  52
BRANCH  40  63
ATOM     63  C   UNL A   1      46.563  26.634  33.716  1.00  0.00     0.064 A 
ATOM     64  C   UNL A   1      46.574  25.661  34.725  1.00  0.00     0.173 A 
ATOM     65  C   UNL A   1      47.789  27.206  33.340  1.00  0.00     0.173 A 
ATOM     66  F   UNL A   1      45.427  25.098  35.133  1.00  0.00    -0.203 F 
ATOM     67  C   UNL A   1      47.766  25.285  35.342  1.00  0.00     0.198 A 
ATOM     68  C   UNL A   1      48.980  26.805  33.935  1.00  0.00     0.198 A 
ATOM     69  F   UNL A   1      47.832  28.140  32.377  1.00  0.00    -0.203 F 
ATOM     70  F   UNL A   1      47.750  24.382  36.331  1.00  0.00    -0.200 F 
ATOM     71  C   UNL A   1      48.968  25.849  34.939  1.00  0.00     0.200 A 
ATOM     72  F   UNL A   1      50.142  27.340  33.533  1.00  0.00    -0.200 F 
ATOM     73  F   UNL A   1      50.114  25.472  35.522  1.00  0.00    -0.200 F 
ENDBRANCH  40  63
ENDBRANCH  14  15
ENDBRANCH   7   9
ENDBRANCH   4   5
ENDBRANCH   3   4
ENDBRANCH   2   3
ENDBRANCH   1   2
BRANCH   1  74
ATOM     74  C   UNL A   1      30.400  24.902  25.737  1.00  0.00     0.021 C 
BRANCH  74  75
ATOM     75  C   UNL A   1      30.645  24.346  24.327  1.00  0.00     0.116 C 
BRANCH  75  76
ATOM     76  N   UNL A   1      30.962  22.942  24.415  1.00  0.00    -0.356 N 
ATOM     77  C   UNL A   1      32.159  22.333  24.275  1.00  0.00     0.224 C 
ATOM     78  H   UNL A   1      30.202  22.347  24.603  1.00  0.00     0.163 HD
ATOM     79  O   UNL A   1      32.151  21.316  23.577  1.00  0.00    -0.275 OA
BRANCH  77  80
ATOM     80  C   UNL A   1      33.433  22.887  24.873  1.00  0.00     0.094 C 
ATOM     81  C   UNL A   1      34.567  22.003  25.486  1.00  0.00     0.002 C 
ATOM     82  C   UNL A   1      34.068  23.962  23.970  1.00  0.00     0.094 C 
ATOM     83  C   UNL A   1      35.749  21.671  24.545  1.00  0.00     0.005 C 
ATOM     84  C   UNL A   1      35.226  22.884  26.573  1.00  0.00     0.005 C 
ATOM     85  C   UNL A   1      35.562  24.141  24.369  1.00  0.00     0.002 C 
ATOM     86  C   UNL A   1      36.362  22.925  23.917  1.00  0.00     0.005 C 
ATOM     87  C   UNL A   1      35.697  24.204  25.921  1.00  0.00     0.005 C 
BRANCH  82  88
ATOM     88  C   UNL A   1      33.802  24.048  22.430  1.00  0.00     0.228 C 
ATOM     89  O   UNL A   1      34.027  23.013  21.775  1.00  0.00    -0.274 OA
ATOM     90  N   UNL A   1      33.198  25.038  21.703  1.00  0.00    -0.326 N 
ATOM     91  H   UNL A   1      33.090  24.797  20.755  1.00  0.00     0.169 HD
BRANCH  90  92
ATOM     92  C   UNL A   1      32.696  26.312  21.992  1.00  0.00     0.041 A 
ATOM     93  C   UNL A   1      31.361  26.579  21.715  1.00  0.00     0.027 A 
ATOM     94  C   UNL A   1      33.463  27.354  22.488  1.00  0.00     0.027 A 
ATOM     95  C   UNL A   1      30.754  27.720  22.260  1.00  0.00     0.016 A 
ATOM     96  C   UNL A   1      32.868  28.494  23.055  1.00  0.00     0.016 A 
ATOM     97  C   UNL A   1      31.482  28.628  23.053  1.00  0.00     0.040 A 
BRANCH  97  98
ATOM     98  C   UNL A   1      30.676  29.478  24.000  1.00  0.00     0.253 C 
ATOM     99  O   UNL A   1      31.231  29.865  25.031  1.00  0.00    -0.269 OA
ATOM    100  N   UNL A   1      29.485  30.058  23.585  1.00  0.00    -0.339 N 
ATOM    101  C   UNL A   1      28.262  29.430  23.123  1.00  0.00     0.120 C 
ATOM    102  C   UNL A   1      29.207  31.443  23.948  1.00  0.00     0.120 C 
ATOM    103  C   UNL A   1      27.538  30.575  22.437  1.00  0.00     0.023 C 
ATOM    104  C   UNL A   1      27.830  31.753  23.361  1.00  0.00     0.023 C 
ENDBRANCH  97  98
ENDBRANCH  90  92
ENDBRANCH  82  88
ENDBRANCH  77  80
ENDBRANCH  75  76
ENDBRANCH  74  75
ENDBRANCH   1  74
TORSDOF 16
ENDMDL
MODEL 3
REMARK VINA RESULT:     -12.3      3.911      8.354
REMARK SMILES O=C(NCCCCCCNC(=O)[C@H]1[C@H]2CC[C@H](CC2)[C@H]1C(=O)Nc1ccc(C(=O)N2CCCC2)cc1)c1ccc(-c2c3nc(c(-c4c(F)c(F)c(F)c(F)c4F)c4ccc([nH]4)c(-c4c(F)c(F)c(F)c(F)c4F)c4nc(c(-c5c(F)c(F)c(F)c(F)c5F)c5ccc2[nH]5)C=C4)C=C3)cc1
REMARK SMILES IDX 7 1 6 2 5 3 4 4 3 5 1 6 2 7 37 9 38 10 99 11 39 12 98 13
REMARK SMILES IDX 40 14 41 15 42 16 92 17 43 18 97 19 91 20 93 21 44 22 96 23
REMARK SMILES IDX 90 24 89 25 45 27 77 28 57 29 76 30 58 31 61 32 75 33 94 34
REMARK SMILES IDX 59 35 60 36 74 38 95 39 62 40 46 41 47 42 55 43 48 44 49 45
REMARK SMILES IDX 53 46 56 47 50 48 51 49 54 50 52 51 78 52 79 53 87 54 80 55
REMARK SMILES IDX 81 56 85 57 88 58 82 59 83 60 86 61 84 62 63 63 64 64 72 65
REMARK SMILES IDX 65 66 66 67 70 68 73 69 67 70 68 71 71 72 69 73 8 74 9 75
REMARK SMILES IDX 10 76 11 77 12 79 13 80 14 81 20 82 19 83 15 84 17 85 18 86
REMARK SMILES IDX 16 87 21 88 22 89 23 90 24 92 25 93 36 94 26 95 35 96 27 97
REMARK SMILES IDX 28 98 29 99 30 100 31 101 34 102 32 103 33 104
REMARK H PARENT 3 8 93 26 61 37 10 78 23 91
REMARK Flexibility Score: inf
ROOT
ATOM      1  C   UNL A   1      36.984  22.103  24.510  1.00  0.00     0.002 C 
ENDROOT
BRANCH   1   2
ATOM      2  C   UNL A   1      36.710  20.692  25.039  1.00  0.00     0.002 C 
BRANCH   2   3
ATOM      3  C   UNL A   1      37.904  19.744  24.952  1.00  0.00     0.021 C 
BRANCH   3   4
ATOM      4  C   UNL A   1      39.122  20.197  25.746  1.00  0.00     0.116 C 
BRANCH   4   5
ATOM      5  N   UNL A   1      40.142  19.166  25.828  1.00  0.00    -0.352 N 
ATOM      6  O   UNL A   1      42.255  18.368  25.912  1.00  0.00    -0.269 OA
ATOM      7  C   UNL A   1      41.491  19.314  26.042  1.00  0.00     0.251 C 
ATOM      8  H   UNL A   1      39.826  18.241  25.714  1.00  0.00     0.163 HD
BRANCH   7   9
ATOM      9  C   UNL A   1      42.014  20.647  26.404  1.00  0.00     0.039 A 
ATOM     10  C   UNL A   1      42.238  20.983  27.743  1.00  0.00     0.014 A 
ATOM     11  C   UNL A   1      42.261  21.573  25.390  1.00  0.00     0.014 A 
ATOM     12  C   UNL A   1      42.590  22.284  28.079  1.00  0.00     0.010 A 
ATOM     13  C   UNL A   1      42.692  22.857  25.723  1.00  0.00     0.010 A 
ATOM     14  C   UNL A   1      42.835  23.229  27.070  1.00  0.00    -0.014 A 
BRANCH  14  15
ATOM     15  C   UNL A   1      43.290  24.595  27.424  1.00  0.00     0.031 A 
ATOM     16  C   UNL A   1      42.330  25.604  27.981  1.00  0.00     0.074 A 
ATOM     17  C   UNL A   1      44.575  24.929  27.200  1.00  0.00     0.049 A 
ATOM     18  N   UNL A   1      42.525  26.871  28.250  1.00  0.00    -0.248 NA
ATOM     19  C   UNL A   1      40.967  25.132  28.263  1.00  0.00     0.031 C 
ATOM     20  C   UNL A   1      45.597  24.028  26.665  1.00  0.00     0.029 A 
ATOM     21  N   UNL A   1      45.236  26.116  27.380  1.00  0.00    -0.354 N 
ATOM     22  C   UNL A   1      41.306  27.353  28.708  1.00  0.00     0.074 A 
ATOM     23  C   UNL A   1      40.371  26.249  28.657  1.00  0.00     0.031 C 
ATOM     24  C   UNL A   1      46.757  24.691  26.566  1.00  0.00     0.029 A 
ATOM     25  C   UNL A   1      46.544  26.077  26.966  1.00  0.00     0.049 A 
ATOM     26  H   UNL A   1      44.815  26.917  27.767  1.00  0.00     0.167 HD
ATOM     27  C   UNL A   1      41.001  28.604  29.133  1.00  0.00     0.037 A 
ATOM     28  C   UNL A   1      47.461  27.058  26.879  1.00  0.00     0.037 A 
ATOM     29  C   UNL A   1      41.945  29.692  29.177  1.00  0.00     0.049 A 
ATOM     30  C   UNL A   1      47.088  28.447  27.309  1.00  0.00     0.074 A 
ATOM     31  C   UNL A   1      41.748  30.988  29.622  1.00  0.00     0.029 A 
ATOM     32  N   UNL A   1      43.262  29.616  28.744  1.00  0.00    -0.354 N 
ATOM     33  N   UNL A   1      45.944  28.887  27.772  1.00  0.00    -0.248 NA
ATOM     34  C   UNL A   1      48.132  29.474  27.207  1.00  0.00     0.031 C 
ATOM     35  C   UNL A   1      42.925  31.711  29.402  1.00  0.00     0.029 A 
ATOM     36  C   UNL A   1      43.880  30.849  28.886  1.00  0.00     0.049 A 
ATOM     37  H   UNL A   1      43.694  28.805  28.389  1.00  0.00     0.167 HD
ATOM     38  C   UNL A   1      46.136  30.233  28.046  1.00  0.00     0.074 A 
ATOM     39  C   UNL A   1      47.510  30.537  27.700  1.00  0.00     0.031 C 
ATOM     40  C   UNL A   1      45.253  31.133  28.548  1.00  0.00     0.037 A 
BRANCH  27  41
ATOM     41  C   UNL A   1      39.581  28.870  29.547  1.00  0.00     0.064 A 
ATOM     42  C   UNL A   1      38.620  29.348  28.643  1.00  0.00     0.173 A 
ATOM     43  C   UNL A   1      39.170  28.627  30.868  1.00  0.00     0.173 A 
ATOM     44  F   UNL A   1      38.958  29.605  27.371  1.00  0.00    -0.203 F 
ATOM     45  C   UNL A   1      37.316  29.614  29.055  1.00  0.00     0.198 A 
ATOM     46  C   UNL A   1      37.857  28.861  31.268  1.00  0.00     0.198 A 
ATOM     47  F   UNL A   1      40.043  28.162  31.773  1.00  0.00    -0.203 F 
ATOM     48  F   UNL A   1      36.435  30.132  28.189  1.00  0.00    -0.200 F 
ATOM     49  C   UNL A   1      36.934  29.366  30.365  1.00  0.00     0.200 A 
ATOM     50  F   UNL A   1      37.487  28.606  32.531  1.00  0.00    -0.200 F 
ATOM     51  F   UNL A   1      35.680  29.624  30.759  1.00  0.00    -0.200 F 
ENDBRANCH  27  41
BRANCH  28  52
ATOM     52  C   UNL A   1      48.814  26.742  26.356  1.00  0.00     0.064 A 
ATOM     53  C   UNL A   1      49.784  26.149  27.175  1.00  0.00     0.173 A 
ATOM     54  C   UNL A   1      49.148  26.981  25.013  1.00  0.00     0.173 A 
ATOM     55  F   UNL A   1      49.515  25.914  28.467  1.00  0.00    -0.203 F 
ATOM     56  C   UNL A   1      51.039  25.814  26.674  1.00  0.00     0.198 A 
ATOM     57  C   UNL A   1      50.392  26.618  24.506  1.00  0.00     0.198 A 
ATOM     58  F   UNL A   1      48.250  27.536  24.187  1.00  0.00    -0.203 F 
ATOM     59  F   UNL A   1      51.960  25.275  27.485  1.00  0.00    -0.200 F 
ATOM     60  C   UNL A   1      51.339  26.039  25.337  1.00  0.00     0.200 A 
ATOM     61  F   UNL A   1      50.670  26.817  23.211  1.00  0.00    -0.200 F 
ATOM     62  F   UNL A   1      52.542  25.700  24.853  1.00  0.00    -0.200 F 
ENDBRANCH  28  52
BRANCH  40  63
ATOM     63  C   UNL A   1      45.757  32.523  28.811  1.00  0.00     0.064 A 
ATOM     64  C   UNL A   1      46.374  32.874  30.020  1.00  0.00     0.173 A 
ATOM     65  C   UNL A   1      45.673  33.501  27.807  1.00  0.00     0.173 A 
ATOM     66  F   UNL A   1      46.464  31.980  31.017  1.00  0.00    -0.203 F 
ATOM     67  C   UNL A   1      46.876  34.158  30.220  1.00  0.00     0.198 A 
ATOM     68  C   UNL A   1      46.203  34.773  27.999  1.00  0.00     0.198 A 
ATOM     69  F   UNL A   1      45.094  33.215  26.631  1.00  0.00    -0.203 F 
ATOM     70  F   UNL A   1      47.427  34.484  31.396  1.00  0.00    -0.200 F 
ATOM     71  C   UNL A   1      46.799  35.102  29.206  1.00  0.00     0.200 A 
ATOM     72  F   UNL A   1      46.142  35.678  27.012  1.00  0.00    -0.200 F 
ATOM     73  F   UNL A   1      47.299  36.332  29.395  1.00  0.00    -0.200 F 
ENDBRANCH  40  63
ENDBRANCH  14  15
ENDBRANCH   7   9
ENDBRANCH   4   5
ENDBRANCH   3   4
ENDBRANCH   2   3
ENDBRANCH   1   2
BRANCH   1  74
ATOM     74  C   UNL A   1      35.832  22.743  23.711  1.00  0.00     0.021 C 
BRANCH  74  75
ATOM     75  C   UNL A   1      35.278  24.050  24.294  1.00  0.00     0.116 C 
BRANCH  75  76
ATOM     76  N   UNL A   1      34.743  24.861  23.227  1.00  0.00    -0.356 N 
ATOM     77  C   UNL A   1      33.695  25.711  23.252  1.00  0.00     0.224 C 
ATOM     78  H   UNL A   1      35.206  24.782  22.362  1.00  0.00     0.163 HD
ATOM     79  O   UNL A   1      32.925  25.624  22.292  1.00  0.00    -0.275 OA
BRANCH  77  80
ATOM     80  C   UNL A   1      33.440  26.661  24.401  1.00  0.00     0.094 C 
ATOM     81  C   UNL A   1      33.561  28.215  24.293  1.00  0.00     0.002 C 
ATOM     82  C   UNL A   1      32.143  26.309  25.156  1.00  0.00     0.094 C 
ATOM     83  C   UNL A   1      32.241  28.980  24.030  1.00  0.00     0.005 C 
ATOM     84  C   UNL A   1      33.960  28.691  25.711  1.00  0.00     0.005 C 
ATOM     85  C   UNL A   1      31.687  27.547  25.982  1.00  0.00     0.002 C 
ATOM     86  C   UNL A   1      31.150  28.620  25.042  1.00  0.00     0.005 C 
ATOM     87  C   UNL A   1      32.907  28.178  26.719  1.00  0.00     0.005 C 
BRANCH  82  88
ATOM     88  C   UNL A   1      30.970  25.505  24.505  1.00  0.00     0.228 C 
ATOM     89  O   UNL A   1      30.023  26.180  24.058  1.00  0.00    -0.274 OA
ATOM     90  N   UNL A   1      30.890  24.174  24.196  1.00  0.00    -0.326 N 
ATOM     91  H   UNL A   1      30.060  23.947  23.717  1.00  0.00     0.169 HD
BRANCH  90  92
ATOM     92  C   UNL A   1      31.712  23.061  24.399  1.00  0.00     0.041 A 
ATOM     93  C   UNL A   1      32.331  22.909  25.635  1.00  0.00     0.027 A 
ATOM     94  C   UNL A   1      32.000  22.119  23.425  1.00  0.00     0.027 A 
ATOM     95  C   UNL A   1      32.906  21.675  25.976  1.00  0.00     0.016 A 
ATOM     96  C   UNL A   1      32.557  20.872  23.755  1.00  0.00     0.016 A 
ATOM     97  C   UNL A   1      32.906  20.594  25.073  1.00  0.00     0.040 A 
BRANCH  97  98
ATOM     98  C   UNL A   1      33.038  19.222  25.682  1.00  0.00     0.253 C 
ATOM     99  O   UNL A   1      32.557  19.048  26.803  1.00  0.00    -0.269 OA
ATOM    100  N   UNL A   1      33.394  18.135  24.895  1.00  0.00    -0.339 N 
ATOM    101  C   UNL A   1      34.605  17.902  24.132  1.00  0.00     0.120 C 
ATOM    102  C   UNL A   1      32.686  16.872  25.069  1.00  0.00     0.120 C 
ATOM    103  C   UNL A   1      34.196  16.784  23.190  1.00  0.00     0.023 C 
ATOM    104  C   UNL A   1      33.330  15.900  24.081  1.00  0.00     0.023 C 
ENDBRANCH  97  98
ENDBRANCH  90  92
ENDBRANCH  82  88
ENDBRANCH  77  80
ENDBRANCH  75  76
ENDBRANCH  74  75
ENDBRANCH   1  74
TORSDOF 16
ENDMDL
