MODEL 1
REMARK VINA RESULT:     -12.4      0.000      0.000
REMARK SMILES CCc1noc(C[N@@H+]2CC[C@H](Cc3cccc(C(=O)NCCCCCCNC(=O)c4ccc(-c5c6nc(c(-c7c(F)c(F)c(F)c(F)c7F)c7ccc([nH]7)c(-c7c(F)c(F)c(F)c(F)c7F)c7nc(c(-c8c(F)c(F)c(F)c(F)c8F)c8ccc5[nH]8)C=C7)C=C6)cc4)c3)C2)n1
REMARK SMILES IDX 22 1 21 2 20 3 18 4 19 5 17 7 13 8 14 9 93 10 15 11 16 12
REMARK SMILES IDX 12 13 11 14 8 15 9 16 94 17 10 19 7 20 6 21 3 22 4 23 95 24
REMARK SMILES IDX 5 25 2 26 1 27 23 28 24 29 25 30 26 31 27 32 28 33 29 35
REMARK SMILES IDX 30 36 31 37 92 38 32 39 91 40 33 41 34 42 35 43 85 44 36 45
REMARK SMILES IDX 90 46 84 47 86 48 37 49 89 50 83 51 82 52 38 54 70 55 50 56
REMARK SMILES IDX 69 57 51 58 54 59 68 60 87 61 52 62 53 63 67 65 88 66 55 67
REMARK SMILES IDX 39 68 40 69 48 70 41 71 42 72 46 73 49 74 43 75 44 76 47 77
REMARK SMILES IDX 45 78 71 79 72 80 80 81 73 82 74 83 78 84 81 85 75 86 76 87
REMARK SMILES IDX 79 88 77 89 56 90 57 91 65 92 58 93 59 94 63 95 66 96 60 97
REMARK SMILES IDX 61 98 64 99 62 100
REMARK H PARENT 20 6 8 18 27 34 86 53 54 64
REMARK Flexibility Score: inf
ROOT
ATOM      1  C   UNL A   1      34.676  21.543  24.466  1.00  0.00     0.021 C 
ENDROOT
BRANCH   1   2
ATOM      2  C   UNL A   1      33.255  21.344  24.974  1.00  0.00     0.116 C 
BRANCH   2   3
ATOM      3  N   UNL A   1      33.097  21.472  26.415  1.00  0.00    -0.352 N 
ATOM      4  C   UNL A   1      32.607  22.508  27.188  1.00  0.00     0.251 C 
ATOM      5  O   UNL A   1      32.602  22.379  28.411  1.00  0.00    -0.269 OA
ATOM      6  H   UNL A   1      33.388  20.684  26.928  1.00  0.00     0.163 HD
BRANCH   4   7
ATOM      7  C   UNL A   1      32.141  23.790  26.590  1.00  0.00     0.040 A 
ATOM      8  C   UNL A   1      32.637  26.051  25.840  1.00  0.00    -0.047 A 
ATOM      9  C   UNL A   1      31.266  26.333  25.821  1.00  0.00     0.004 A 
ATOM     10  C   UNL A   1      33.040  24.744  26.120  1.00  0.00     0.017 A 
ATOM     11  C   UNL A   1      30.337  25.333  26.118  1.00  0.00     0.001 A 
ATOM     12  C   UNL A   1      30.774  24.073  26.536  1.00  0.00     0.014 A 
BRANCH   8  13
ATOM     13  C   UNL A   1      33.658  27.161  25.711  1.00  0.00     0.045 C 
BRANCH  13  14
ATOM     14  C   UNL A   1      33.963  27.627  24.279  1.00  0.00     0.054 C 
ATOM     15  N   UNL A   1      32.480  28.389  22.530  1.00  0.00    -0.327 N 
ATOM     16  C   UNL A   1      33.245  27.245  22.029  1.00  0.00     0.263 C 
ATOM     17  C   UNL A   1      33.076  28.787  23.812  1.00  0.00     0.266 C 
ATOM     18  H   UNL A   1      32.547  29.158  21.862  1.00  0.00     0.348 HD
ATOM     19  C   UNL A   1      33.755  26.518  23.253  1.00  0.00     0.071 C 
BRANCH  15  20
ATOM     20  C   UNL A   1      31.022  28.155  22.604  1.00  0.00     0.364 C 
BRANCH  20  21
ATOM     21  C   UNL A   1      30.133  29.349  22.493  1.00  0.00     0.281 A 
ATOM     22  C   UNL A   1      28.932  31.045  22.732  1.00  0.00     0.171 A 
ATOM     23  N   UNL A   1      28.712  30.692  21.459  1.00  0.00    -0.062 NA
ATOM     24  N   UNL A   1      29.807  30.234  23.410  1.00  0.00    -0.191 NA
ATOM     25  O   UNL A   1      29.525  29.568  21.291  1.00  0.00    -0.333 OA
BRANCH  22  26
ATOM     26  C   UNL A   1      28.223  32.181  23.373  1.00  0.00     0.078 C 
ATOM     27  C   UNL A   1      28.895  33.526  23.139  1.00  0.00     0.012 C 
ENDBRANCH  22  26
ENDBRANCH  20  21
ENDBRANCH  15  20
ENDBRANCH  13  14
ENDBRANCH   8  13
ENDBRANCH   4   7
ENDBRANCH   2   3
ENDBRANCH   1   2
BRANCH   1  28
ATOM     28  C   UNL A   1      35.721  20.557  24.978  1.00  0.00     0.002 C 
BRANCH  28  29
ATOM     29  C   UNL A   1      37.180  20.887  24.652  1.00  0.00     0.002 C 
BRANCH  29  30
ATOM     30  C   UNL A   1      38.202  19.778  24.915  1.00  0.00     0.021 C 
BRANCH  30  31
ATOM     31  C   UNL A   1      39.214  20.058  26.020  1.00  0.00     0.116 C 
BRANCH  31  32
ATOM     32  N   UNL A   1      40.348  19.151  25.988  1.00  0.00    -0.352 N 
ATOM     33  C   UNL A   1      41.691  19.422  26.069  1.00  0.00     0.251 C 
ATOM     34  H   UNL A   1      40.119  18.198  25.895  1.00  0.00     0.163 HD
ATOM     35  O   UNL A   1      42.512  18.537  25.860  1.00  0.00    -0.269 OA
BRANCH  33  36
ATOM     36  C   UNL A   1      42.154  20.791  26.386  1.00  0.00     0.039 A 
ATOM     37  C   UNL A   1      42.334  21.700  25.340  1.00  0.00     0.014 A 
ATOM     38  C   UNL A   1      42.429  21.175  27.702  1.00  0.00     0.014 A 
ATOM     39  C   UNL A   1      42.732  23.010  25.619  1.00  0.00     0.010 A 
ATOM     40  C   UNL A   1      42.749  22.500  27.985  1.00  0.00     0.010 A 
ATOM     41  C   UNL A   1      42.912  23.429  26.947  1.00  0.00    -0.014 A 
BRANCH  41  42
ATOM     42  C   UNL A   1      43.276  24.833  27.268  1.00  0.00     0.031 A 
ATOM     43  C   UNL A   1      44.675  25.326  27.024  1.00  0.00     0.074 A 
ATOM     44  C   UNL A   1      42.363  25.648  27.828  1.00  0.00     0.049 A 
ATOM     45  N   UNL A   1      45.200  26.497  27.282  1.00  0.00    -0.248 NA
ATOM     46  C   UNL A   1      45.618  24.363  26.436  1.00  0.00     0.031 C 
ATOM     47  C   UNL A   1      40.983  25.280  28.145  1.00  0.00     0.029 A 
ATOM     48  N   UNL A   1      42.458  26.957  28.233  1.00  0.00    -0.354 N 
ATOM     49  C   UNL A   1      46.531  26.408  26.895  1.00  0.00     0.074 A 
ATOM     50  C   UNL A   1      46.751  25.048  26.452  1.00  0.00     0.031 C 
ATOM     51  C   UNL A   1      40.351  26.346  28.660  1.00  0.00     0.029 A 
ATOM     52  C   UNL A   1      41.290  27.459  28.751  1.00  0.00     0.049 A 
ATOM     53  H   UNL A   1      43.287  27.484  28.160  1.00  0.00     0.167 HD
ATOM     54  C   UNL A   1      47.477  27.378  26.885  1.00  0.00     0.037 A 
ATOM     55  C   UNL A   1      41.011  28.680  29.244  1.00  0.00     0.037 A 
ATOM     56  C   UNL A   1      47.253  28.731  27.324  1.00  0.00     0.049 A 
ATOM     57  C   UNL A   1      42.092  29.726  29.268  1.00  0.00     0.074 A 
ATOM     58  C   UNL A   1      48.131  29.800  27.318  1.00  0.00     0.029 A 
ATOM     59  N   UNL A   1      46.060  29.199  27.860  1.00  0.00    -0.354 N 
ATOM     60  N   UNL A   1      43.329  29.652  28.841  1.00  0.00    -0.248 NA
ATOM     61  C   UNL A   1      41.733  31.031  29.842  1.00  0.00     0.031 C 
ATOM     62  C   UNL A   1      47.489  30.897  27.902  1.00  0.00     0.029 A 
ATOM     63  C   UNL A   1      46.189  30.533  28.214  1.00  0.00     0.049 A 
ATOM     64  H   UNL A   1      45.243  28.661  27.971  1.00  0.00     0.167 HD
ATOM     65  C   UNL A   1      43.886  30.906  29.058  1.00  0.00     0.074 A 
ATOM     66  C   UNL A   1      42.846  31.725  29.647  1.00  0.00     0.031 C 
ATOM     67  C   UNL A   1      45.143  31.339  28.791  1.00  0.00     0.037 A 
BRANCH  54  68
ATOM     68  C   UNL A   1      48.846  26.998  26.387  1.00  0.00     0.064 A 
ATOM     69  C   UNL A   1      49.204  27.138  25.037  1.00  0.00     0.173 A 
ATOM     70  C   UNL A   1      49.810  26.488  27.268  1.00  0.00     0.173 A 
ATOM     71  F   UNL A   1      48.318  27.612  24.148  1.00  0.00    -0.203 F 
ATOM     72  C   UNL A   1      50.456  26.733  24.579  1.00  0.00     0.198 A 
ATOM     73  C   UNL A   1      51.075  26.120  26.814  1.00  0.00     0.198 A 
ATOM     74  F   UNL A   1      49.528  26.340  28.571  1.00  0.00    -0.203 F 
ATOM     75  F   UNL A   1      50.747  26.807  23.273  1.00  0.00    -0.200 F 
ATOM     76  C   UNL A   1      51.392  26.229  25.469  1.00  0.00     0.200 A 
ATOM     77  F   UNL A   1      51.984  25.648  27.678  1.00  0.00    -0.200 F 
ATOM     78  F   UNL A   1      52.595  25.837  25.028  1.00  0.00    -0.200 F 
ENDBRANCH  54  68
BRANCH  55  79
ATOM     79  C   UNL A   1      39.637  28.994  29.716  1.00  0.00     0.064 A 
ATOM     80  C   UNL A   1      39.270  28.768  31.050  1.00  0.00     0.173 A 
ATOM     81  C   UNL A   1      38.666  29.527  28.854  1.00  0.00     0.173 A 
ATOM     82  F   UNL A   1      40.157  28.240  31.906  1.00  0.00    -0.203 F 
ATOM     83  C   UNL A   1      37.981  29.043  31.500  1.00  0.00     0.198 A 
ATOM     84  C   UNL A   1      37.386  29.830  29.314  1.00  0.00     0.198 A 
ATOM     85  F   UNL A   1      38.966  29.767  27.569  1.00  0.00    -0.203 F 
ATOM     86  F   UNL A   1      37.646  28.775  32.769  1.00  0.00    -0.200 F 
ATOM     87  C   UNL A   1      37.042  29.581  30.634  1.00  0.00     0.200 A 
ATOM     88  F   UNL A   1      36.485  30.363  28.477  1.00  0.00    -0.200 F 
ATOM     89  F   UNL A   1      35.804  29.851  31.069  1.00  0.00    -0.200 F 
ENDBRANCH  55  79
BRANCH  67  90
ATOM     90  C   UNL A   1      45.453  32.779  29.089  1.00  0.00     0.064 A 
ATOM     91  C   UNL A   1      46.046  33.176  30.296  1.00  0.00     0.173 A 
ATOM     92  C   UNL A   1      45.180  33.773  28.136  1.00  0.00     0.173 A 
ATOM     93  F   UNL A   1      46.313  32.268  31.248  1.00  0.00    -0.203 F 
ATOM     94  C   UNL A   1      46.329  34.516  30.550  1.00  0.00     0.198 A 
ATOM     95  C   UNL A   1      45.496  35.107  28.378  1.00  0.00     0.198 A 
ATOM     96  F   UNL A   1      44.617  33.448  26.962  1.00  0.00    -0.203 F 
ATOM     97  F   UNL A   1      46.847  34.877  31.732  1.00  0.00    -0.200 F 
ATOM     98  C   UNL A   1      46.062  35.479  29.588  1.00  0.00     0.200 A 
ATOM     99  F   UNL A   1      45.251  36.033  27.441  1.00  0.00    -0.200 F 
ATOM    100  F   UNL A   1      46.342  36.767  29.830  1.00  0.00    -0.200 F 
ENDBRANCH  67  90
ENDBRANCH  41  42
ENDBRANCH  33  36
ENDBRANCH  31  32
ENDBRANCH  30  31
ENDBRANCH  29  30
ENDBRANCH  28  29
ENDBRANCH   1  28
TORSDOF 18
ENDMDL
MODEL 2
REMARK VINA RESULT:     -12.4      5.918     11.818
REMARK SMILES CCc1noc(C[N@@H+]2CC[C@H](Cc3cccc(C(=O)NCCCCCCNC(=O)c4ccc(-c5c6nc(c(-c7c(F)c(F)c(F)c(F)c7F)c7ccc([nH]7)c(-c7c(F)c(F)c(F)c(F)c7F)c7nc(c(-c8c(F)c(F)c(F)c(F)c8F)c8ccc5[nH]8)C=C7)C=C6)cc4)c3)C2)n1
REMARK SMILES IDX 22 1 21 2 20 3 18 4 19 5 17 7 13 8 14 9 93 10 15 11 16 12
REMARK SMILES IDX 12 13 11 14 8 15 9 16 94 17 10 19 7 20 6 21 3 22 4 23 95 24
REMARK SMILES IDX 5 25 2 26 1 27 23 28 24 29 25 30 26 31 27 32 28 33 29 35
REMARK SMILES IDX 30 36 31 37 92 38 32 39 91 40 33 41 34 42 35 43 85 44 36 45
REMARK SMILES IDX 90 46 84 47 86 48 37 49 89 50 83 51 82 52 38 54 70 55 50 56
REMARK SMILES IDX 69 57 51 58 54 59 68 60 87 61 52 62 53 63 67 65 88 66 55 67
REMARK SMILES IDX 39 68 40 69 48 70 41 71 42 72 46 73 49 74 43 75 44 76 47 77
REMARK SMILES IDX 45 78 71 79 72 80 80 81 73 82 74 83 78 84 81 85 75 86 76 87
REMARK SMILES IDX 79 88 77 89 56 90 57 91 65 92 58 93 59 94 63 95 66 96 60 97
REMARK SMILES IDX 61 98 64 99 62 100
REMARK H PARENT 20 6 8 18 27 34 86 53 54 64
REMARK Flexibility Score: inf
ROOT
ATOM      1  C   UNL A   1      35.404  31.544  27.828  1.00  0.00     0.021 C 
ENDROOT
BRANCH   1   2
ATOM      2  C   UNL A   1      35.087  30.092  27.500  1.00  0.00     0.116 C 
BRANCH   2   3
ATOM      3  N   UNL A   1      33.767  29.644  27.918  1.00  0.00    -0.352 N 
ATOM      4  C   UNL A   1      32.795  28.925  27.248  1.00  0.00     0.251 C 
ATOM      5  O   UNL A   1      31.734  28.691  27.823  1.00  0.00    -0.269 OA
ATOM      6  H   UNL A   1      33.525  29.896  28.839  1.00  0.00     0.163 HD
BRANCH   4   7
ATOM      7  C   UNL A   1      32.973  28.477  25.839  1.00  0.00     0.040 A 
ATOM      8  C   UNL A   1      33.516  26.708  24.258  1.00  0.00    -0.047 A 
ATOM      9  C   UNL A   1      33.679  27.671  23.255  1.00  0.00     0.004 A 
ATOM     10  C   UNL A   1      33.056  27.127  25.508  1.00  0.00     0.017 A 
ATOM     11  C   UNL A   1      33.425  29.018  23.523  1.00  0.00     0.001 A 
ATOM     12  C   UNL A   1      33.105  29.426  24.822  1.00  0.00     0.014 A 
BRANCH   8  13
ATOM     13  C   UNL A   1      33.968  25.280  24.042  1.00  0.00     0.045 C 
BRANCH  13  14
ATOM     14  C   UNL A   1      32.894  24.307  23.534  1.00  0.00     0.054 C 
ATOM     15  N   UNL A   1      32.421  22.024  24.168  1.00  0.00    -0.327 N 
ATOM     16  C   UNL A   1      32.676  22.066  22.727  1.00  0.00     0.263 C 
ATOM     17  C   UNL A   1      32.311  23.413  24.634  1.00  0.00     0.266 C 
ATOM     18  H   UNL A   1      31.545  21.529  24.342  1.00  0.00     0.348 HD
ATOM     19  C   UNL A   1      33.433  23.350  22.475  1.00  0.00     0.071 C 
BRANCH  15  20
ATOM     20  C   UNL A   1      33.400  21.221  24.931  1.00  0.00     0.364 C 
BRANCH  20  21
ATOM     21  C   UNL A   1      33.271  19.736  24.855  1.00  0.00     0.281 A 
ATOM     22  C   UNL A   1      33.456  17.668  24.592  1.00  0.00     0.171 A 
ATOM     23  N   UNL A   1      32.167  17.821  24.921  1.00  0.00    -0.062 NA
ATOM     24  N   UNL A   1      34.176  18.835  24.538  1.00  0.00    -0.191 NA
ATOM     25  O   UNL A   1      32.043  19.199  25.113  1.00  0.00    -0.333 OA
BRANCH  22  26
ATOM     26  C   UNL A   1      34.034  16.346  24.241  1.00  0.00     0.078 C 
ATOM     27  C   UNL A   1      35.101  15.873  25.217  1.00  0.00     0.012 C 
ENDBRANCH  22  26
ENDBRANCH  20  21
ENDBRANCH  15  20
ENDBRANCH  13  14
ENDBRANCH   8  13
ENDBRANCH   4   7
ENDBRANCH   2   3
ENDBRANCH   1   2
BRANCH   1  28
ATOM     28  C   UNL A   1      34.502  32.217  28.858  1.00  0.00     0.002 C 
BRANCH  28  29
ATOM     29  C   UNL A   1      34.627  33.738  28.976  1.00  0.00     0.002 C 
BRANCH  29  30
ATOM     30  C   UNL A   1      33.318  34.532  28.945  1.00  0.00     0.021 C 
BRANCH  30  31
ATOM     31  C   UNL A   1      33.390  35.949  29.501  1.00  0.00     0.116 C 
BRANCH  31  32
ATOM     32  N   UNL A   1      32.509  36.152  30.639  1.00  0.00    -0.352 N 
ATOM     33  C   UNL A   1      32.615  35.684  31.925  1.00  0.00     0.251 C 
ATOM     34  H   UNL A   1      31.717  36.709  30.460  1.00  0.00     0.163 HD
ATOM     35  O   UNL A   1      31.685  35.826  32.710  1.00  0.00    -0.269 OA
BRANCH  33  36
ATOM     36  C   UNL A   1      33.843  34.986  32.362  1.00  0.00     0.039 A 
ATOM     37  C   UNL A   1      33.749  33.657  32.785  1.00  0.00     0.014 A 
ATOM     38  C   UNL A   1      35.080  35.638  32.376  1.00  0.00     0.014 A 
ATOM     39  C   UNL A   1      34.901  32.966  33.164  1.00  0.00     0.010 A 
ATOM     40  C   UNL A   1      36.236  34.925  32.679  1.00  0.00     0.010 A 
ATOM     41  C   UNL A   1      36.159  33.585  33.084  1.00  0.00    -0.014 A 
BRANCH  41  42
ATOM     42  C   UNL A   1      37.402  32.848  33.426  1.00  0.00     0.031 A 
ATOM     43  C   UNL A   1      38.125  33.138  34.712  1.00  0.00     0.074 A 
ATOM     44  C   UNL A   1      37.911  31.956  32.555  1.00  0.00     0.049 A 
ATOM     45  N   UNL A   1      39.247  32.638  35.166  1.00  0.00    -0.248 NA
ATOM     46  C   UNL A   1      37.518  34.146  35.594  1.00  0.00     0.031 C 
ATOM     47  C   UNL A   1      37.323  31.609  31.260  1.00  0.00     0.029 A 
ATOM     48  N   UNL A   1      39.040  31.177  32.625  1.00  0.00    -0.354 N 
ATOM     49  C   UNL A   1      39.481  33.275  36.378  1.00  0.00     0.074 A 
ATOM     50  C   UNL A   1      38.424  34.248  36.554  1.00  0.00     0.031 C 
ATOM     51  C   UNL A   1      38.074  30.663  30.676  1.00  0.00     0.029 A 
ATOM     52  C   UNL A   1      39.218  30.367  31.531  1.00  0.00     0.049 A 
ATOM     53  H   UNL A   1      39.662  31.199  33.388  1.00  0.00     0.167 HD
ATOM     54  C   UNL A   1      40.471  33.052  37.275  1.00  0.00     0.037 A 
ATOM     55  C   UNL A   1      40.197  29.486  31.251  1.00  0.00     0.037 A 
ATOM     56  C   UNL A   1      41.520  32.081  37.096  1.00  0.00     0.049 A 
ATOM     57  C   UNL A   1      41.314  29.291  32.241  1.00  0.00     0.074 A 
ATOM     58  C   UNL A   1      42.548  31.747  37.961  1.00  0.00     0.029 A 
ATOM     59  N   UNL A   1      41.678  31.290  35.966  1.00  0.00    -0.354 N 
ATOM     60  N   UNL A   1      41.492  29.851  33.412  1.00  0.00    -0.248 NA
ATOM     61  C   UNL A   1      42.365  28.334  31.867  1.00  0.00     0.031 C 
ATOM     62  C   UNL A   1      43.359  30.799  37.330  1.00  0.00     0.029 A 
ATOM     63  C   UNL A   1      42.803  30.491  36.099  1.00  0.00     0.049 A 
ATOM     64  H   UNL A   1      41.079  31.296  35.185  1.00  0.00     0.167 HD
ATOM     65  C   UNL A   1      42.651  29.291  33.933  1.00  0.00     0.074 A 
ATOM     66  C   UNL A   1      43.128  28.338  32.951  1.00  0.00     0.031 C 
ATOM     67  C   UNL A   1      43.262  29.540  35.117  1.00  0.00     0.037 A 
BRANCH  54  68
ATOM     68  C   UNL A   1      40.465  33.885  38.528  1.00  0.00     0.064 A 
ATOM     69  C   UNL A   1      41.211  35.070  38.629  1.00  0.00     0.173 A 
ATOM     70  C   UNL A   1      39.706  33.495  39.641  1.00  0.00     0.173 A 
ATOM     71  F   UNL A   1      41.963  35.486  37.599  1.00  0.00    -0.203 F 
ATOM     72  C   UNL A   1      41.239  35.804  39.813  1.00  0.00     0.198 A 
ATOM     73  C   UNL A   1      39.704  34.253  40.811  1.00  0.00     0.198 A 
ATOM     74  F   UNL A   1      38.966  32.377  39.599  1.00  0.00    -0.203 F 
ATOM     75  F   UNL A   1      42.018  36.890  39.909  1.00  0.00    -0.200 F 
ATOM     76  C   UNL A   1      40.482  35.397  40.900  1.00  0.00     0.200 A 
ATOM     77  F   UNL A   1      38.960  33.866  41.856  1.00  0.00    -0.200 F 
ATOM     78  F   UNL A   1      40.511  36.101  42.041  1.00  0.00    -0.200 F 
ENDBRANCH  54  68
BRANCH  55  79
ATOM     79  C   UNL A   1      40.142  28.689  29.998  1.00  0.00     0.064 A 
ATOM     80  C   UNL A   1      39.523  27.430  29.979  1.00  0.00     0.173 A 
ATOM     81  C   UNL A   1      40.699  29.160  28.800  1.00  0.00     0.173 A 
ATOM     82  F   UNL A   1      38.996  26.928  31.104  1.00  0.00    -0.203 F 
ATOM     83  C   UNL A   1      39.480  26.666  28.815  1.00  0.00     0.198 A 
ATOM     84  C   UNL A   1      40.628  28.407  27.629  1.00  0.00     0.198 A 
ATOM     85  F   UNL A   1      41.298  30.359  28.763  1.00  0.00    -0.203 F 
ATOM     86  F   UNL A   1      38.922  25.448  28.836  1.00  0.00    -0.200 F 
ATOM     87  C   UNL A   1      40.025  27.158  27.639  1.00  0.00     0.200 A 
ATOM     88  F   UNL A   1      41.143  28.892  26.491  1.00  0.00    -0.200 F 
ATOM     89  F   UNL A   1      39.978  26.426  26.518  1.00  0.00    -0.200 F 
ENDBRANCH  55  79
BRANCH  67  90
ATOM     90  C   UNL A   1      44.491  28.738  35.441  1.00  0.00     0.064 A 
ATOM     91  C   UNL A   1      45.778  29.184  35.107  1.00  0.00     0.173 A 
ATOM     92  C   UNL A   1      44.378  27.517  36.126  1.00  0.00     0.173 A 
ATOM     93  F   UNL A   1      45.941  30.337  34.438  1.00  0.00    -0.203 F 
ATOM     94  C   UNL A   1      46.903  28.426  35.421  1.00  0.00     0.198 A 
ATOM     95  C   UNL A   1      45.508  26.779  36.469  1.00  0.00     0.198 A 
ATOM     96  F   UNL A   1      43.172  27.046  36.474  1.00  0.00    -0.203 F 
ATOM     97  F   UNL A   1      48.119  28.848  35.044  1.00  0.00    -0.200 F 
ATOM     98  C   UNL A   1      46.769  27.230  36.108  1.00  0.00     0.200 A 
ATOM     99  F   UNL A   1      45.375  25.631  37.147  1.00  0.00    -0.200 F 
ATOM    100  F   UNL A   1      47.853  26.505  36.417  1.00  0.00    -0.200 F 
ENDBRANCH  67  90
ENDBRANCH  41  42
ENDBRANCH  33  36
ENDBRANCH  31  32
ENDBRANCH  30  31
ENDBRANCH  29  30
ENDBRANCH  28  29
ENDBRANCH   1  28
TORSDOF 18
ENDMDL
MODEL 3
REMARK VINA RESULT:     -12.3      5.917     11.184
REMARK SMILES CCc1noc(C[N@@H+]2CC[C@H](Cc3cccc(C(=O)NCCCCCCNC(=O)c4ccc(-c5c6nc(c(-c7c(F)c(F)c(F)c(F)c7F)c7ccc([nH]7)c(-c7c(F)c(F)c(F)c(F)c7F)c7nc(c(-c8c(F)c(F)c(F)c(F)c8F)c8ccc5[nH]8)C=C7)C=C6)cc4)c3)C2)n1
REMARK SMILES IDX 22 1 21 2 20 3 18 4 19 5 17 7 13 8 14 9 93 10 15 11 16 12
REMARK SMILES IDX 12 13 11 14 8 15 9 16 94 17 10 19 7 20 6 21 3 22 4 23 95 24
REMARK SMILES IDX 5 25 2 26 1 27 23 28 24 29 25 30 26 31 27 32 28 33 29 35
REMARK SMILES IDX 30 36 31 37 92 38 32 39 91 40 33 41 34 42 35 43 85 44 36 45
REMARK SMILES IDX 90 46 84 47 86 48 37 49 89 50 83 51 82 52 38 54 70 55 50 56
REMARK SMILES IDX 69 57 51 58 54 59 68 60 87 61 52 62 53 63 67 65 88 66 55 67
REMARK SMILES IDX 39 68 40 69 48 70 41 71 42 72 46 73 49 74 43 75 44 76 47 77
REMARK SMILES IDX 45 78 71 79 72 80 80 81 73 82 74 83 78 84 81 85 75 86 76 87
REMARK SMILES IDX 79 88 77 89 56 90 57 91 65 92 58 93 59 94 63 95 66 96 60 97
REMARK SMILES IDX 61 98 64 99 62 100
REMARK H PARENT 20 6 8 18 27 34 86 53 54 64
REMARK Flexibility Score: inf
ROOT
ATOM      1  C   UNL A   1      35.579  31.870  28.025  1.00  0.00     0.021 C 
ENDROOT
BRANCH   1   2
ATOM      2  C   UNL A   1      34.593  30.748  27.731  1.00  0.00     0.116 C 
BRANCH   2   3
ATOM      3  N   UNL A   1      33.353  31.173  27.099  1.00  0.00    -0.352 N 
ATOM      4  C   UNL A   1      32.335  30.446  26.511  1.00  0.00     0.251 C 
ATOM      5  O   UNL A   1      31.388  31.053  26.015  1.00  0.00    -0.269 OA
ATOM      6  H   UNL A   1      33.215  32.148  27.089  1.00  0.00     0.163 HD
BRANCH   4   7
ATOM      7  C   UNL A   1      32.379  28.960  26.412  1.00  0.00     0.040 A 
ATOM      8  C   UNL A   1      33.225  26.960  25.313  1.00  0.00    -0.047 A 
ATOM      9  C   UNL A   1      32.222  26.209  25.935  1.00  0.00     0.004 A 
ATOM     10  C   UNL A   1      33.349  28.309  25.654  1.00  0.00     0.017 A 
ATOM     11  C   UNL A   1      31.348  26.813  26.840  1.00  0.00     0.001 A 
ATOM     12  C   UNL A   1      31.404  28.193  27.054  1.00  0.00     0.014 A 
BRANCH   8  13
ATOM     13  C   UNL A   1      34.054  26.370  24.191  1.00  0.00     0.045 C 
BRANCH  13  14
ATOM     14  C   UNL A   1      33.510  26.589  22.772  1.00  0.00     0.054 C 
ATOM     15  N   UNL A   1      31.376  27.443  22.025  1.00  0.00    -0.327 N 
ATOM     16  C   UNL A   1      31.574  26.111  21.450  1.00  0.00     0.263 C 
ATOM     17  C   UNL A   1      32.649  27.850  22.635  1.00  0.00     0.266 C 
ATOM     18  H   UNL A   1      31.122  28.096  21.283  1.00  0.00     0.348 HD
ATOM     19  C   UNL A   1      32.622  25.439  22.308  1.00  0.00     0.071 C 
BRANCH  15  20
ATOM     20  C   UNL A   1      30.223  27.538  22.946  1.00  0.00     0.364 C 
BRANCH  20  21
ATOM     21  C   UNL A   1      29.280  28.677  22.742  1.00  0.00     0.281 A 
ATOM     22  C   UNL A   1      28.286  30.481  22.374  1.00  0.00     0.171 A 
ATOM     23  N   UNL A   1      27.326  29.703  22.891  1.00  0.00    -0.062 NA
ATOM     24  N   UNL A   1      29.516  29.881  22.268  1.00  0.00    -0.191 NA
ATOM     25  O   UNL A   1      27.982  28.492  23.124  1.00  0.00    -0.333 OA
BRANCH  22  26
ATOM     26  C   UNL A   1      28.049  31.903  22.018  1.00  0.00     0.078 C 
ATOM     27  C   UNL A   1      28.019  32.155  20.518  1.00  0.00     0.012 C 
ENDBRANCH  22  26
ENDBRANCH  20  21
ENDBRANCH  15  20
ENDBRANCH  13  14
ENDBRANCH   8  13
ENDBRANCH   4   7
ENDBRANCH   2   3
ENDBRANCH   1   2
BRANCH   1  28
ATOM     28  C   UNL A   1      35.083  32.982  28.942  1.00  0.00     0.002 C 
BRANCH  28  29
ATOM     29  C   UNL A   1      34.647  34.280  28.258  1.00  0.00     0.002 C 
BRANCH  29  30
ATOM     30  C   UNL A   1      33.333  34.896  28.746  1.00  0.00     0.021 C 
BRANCH  30  31
ATOM     31  C   UNL A   1      33.463  36.191  29.540  1.00  0.00     0.116 C 
BRANCH  31  32
ATOM     32  N   UNL A   1      32.518  36.274  30.641  1.00  0.00    -0.352 N 
ATOM     33  C   UNL A   1      32.575  35.706  31.889  1.00  0.00     0.251 C 
ATOM     34  H   UNL A   1      31.718  36.819  30.465  1.00  0.00     0.163 HD
ATOM     35  O   UNL A   1      31.602  35.755  32.633  1.00  0.00    -0.269 OA
BRANCH  33  36
ATOM     36  C   UNL A   1      33.803  35.012  32.335  1.00  0.00     0.039 A 
ATOM     37  C   UNL A   1      33.707  33.689  32.774  1.00  0.00     0.014 A 
ATOM     38  C   UNL A   1      35.040  35.664  32.341  1.00  0.00     0.014 A 
ATOM     39  C   UNL A   1      34.859  33.001  33.161  1.00  0.00     0.010 A 
ATOM     40  C   UNL A   1      36.196  34.953  32.652  1.00  0.00     0.010 A 
ATOM     41  C   UNL A   1      36.118  33.618  33.073  1.00  0.00    -0.014 A 
BRANCH  41  42
ATOM     42  C   UNL A   1      37.361  32.884  33.423  1.00  0.00     0.031 A 
ATOM     43  C   UNL A   1      38.068  33.169  34.719  1.00  0.00     0.074 A 
ATOM     44  C   UNL A   1      37.882  32.000  32.552  1.00  0.00     0.049 A 
ATOM     45  N   UNL A   1      39.187  32.671  35.182  1.00  0.00    -0.248 NA
ATOM     46  C   UNL A   1      37.447  34.169  35.601  1.00  0.00     0.031 C 
ATOM     47  C   UNL A   1      37.310  31.660  31.249  1.00  0.00     0.029 A 
ATOM     48  N   UNL A   1      39.014  31.226  32.629  1.00  0.00    -0.354 N 
ATOM     49  C   UNL A   1      39.405  33.301  36.400  1.00  0.00     0.074 A 
ATOM     50  C   UNL A   1      38.342  34.267  36.572  1.00  0.00     0.031 C 
ATOM     51  C   UNL A   1      38.071  30.721  30.666  1.00  0.00     0.029 A 
ATOM     52  C   UNL A   1      39.208  30.424  31.532  1.00  0.00     0.049 A 
ATOM     53  H   UNL A   1      39.628  31.246  33.399  1.00  0.00     0.167 HD
ATOM     54  C   UNL A   1      40.387  33.076  37.307  1.00  0.00     0.037 A 
ATOM     55  C   UNL A   1      40.193  29.549  31.257  1.00  0.00     0.037 A 
ATOM     56  C   UNL A   1      41.441  32.110  37.133  1.00  0.00     0.049 A 
ATOM     57  C   UNL A   1      41.300  29.353  32.257  1.00  0.00     0.074 A 
ATOM     58  C   UNL A   1      42.461  31.776  38.006  1.00  0.00     0.029 A 
ATOM     59  N   UNL A   1      41.615  31.328  35.999  1.00  0.00    -0.354 N 
ATOM     60  N   UNL A   1      41.463  29.905  33.434  1.00  0.00    -0.248 NA
ATOM     61  C   UNL A   1      42.360  28.403  31.889  1.00  0.00     0.031 C 
ATOM     62  C   UNL A   1      43.284  30.835  37.378  1.00  0.00     0.029 A 
ATOM     63  C   UNL A   1      42.742  30.533  36.139  1.00  0.00     0.049 A 
ATOM     64  H   UNL A   1      41.024  31.336  35.212  1.00  0.00     0.167 HD
ATOM     65  C   UNL A   1      42.619  29.347  33.963  1.00  0.00     0.074 A 
ATOM     66  C   UNL A   1      43.111  28.403  32.980  1.00  0.00     0.031 C 
ATOM     67  C   UNL A   1      43.217  29.591  35.156  1.00  0.00     0.037 A 
BRANCH  54  68
ATOM     68  C   UNL A   1      40.363  33.901  38.565  1.00  0.00     0.064 A 
ATOM     69  C   UNL A   1      39.603  33.520  39.682  1.00  0.00     0.173 A 
ATOM     70  C   UNL A   1      41.107  35.087  38.656  1.00  0.00     0.173 A 
ATOM     71  F   UNL A   1      38.865  32.399  39.648  1.00  0.00    -0.203 F 
ATOM     72  C   UNL A   1      39.548  34.319  40.822  1.00  0.00     0.198 A 
ATOM     73  C   UNL A   1      41.080  35.864  39.811  1.00  0.00     0.198 A 
ATOM     74  F   UNL A   1      41.858  35.496  37.623  1.00  0.00    -0.203 F 
ATOM     75  F   UNL A   1      38.757  33.971  41.845  1.00  0.00    -0.200 F 
ATOM     76  C   UNL A   1      40.290  35.488  40.887  1.00  0.00     0.200 A 
ATOM     77  F   UNL A   1      41.810  36.986  39.879  1.00  0.00    -0.200 F 
ATOM     78  F   UNL A   1      40.235  36.260  41.981  1.00  0.00    -0.200 F 
ENDBRANCH  54  68
BRANCH  55  79
ATOM     79  C   UNL A   1      40.156  28.760  29.998  1.00  0.00     0.064 A 
ATOM     80  C   UNL A   1      39.488  27.528  29.947  1.00  0.00     0.173 A 
ATOM     81  C   UNL A   1      40.777  29.214  28.825  1.00  0.00     0.173 A 
ATOM     82  F   UNL A   1      38.897  27.042  31.048  1.00  0.00    -0.203 F 
ATOM     83  C   UNL A   1      39.460  26.771  28.777  1.00  0.00     0.198 A 
ATOM     84  C   UNL A   1      40.722  28.470  27.648  1.00  0.00     0.198 A 
ATOM     85  F   UNL A   1      41.425  30.388  28.819  1.00  0.00    -0.203 F 
ATOM     86  F   UNL A   1      38.853  25.577  28.770  1.00  0.00    -0.200 F 
ATOM     87  C   UNL A   1      40.070  27.246  27.627  1.00  0.00     0.200 A 
ATOM     88  F   UNL A   1      41.301  28.938  26.534  1.00  0.00    -0.200 F 
ATOM     89  F   UNL A   1      40.038  26.520  26.501  1.00  0.00    -0.200 F 
ENDBRANCH  55  79
BRANCH  67  90
ATOM     90  C   UNL A   1      44.445  28.792  35.488  1.00  0.00     0.064 A 
ATOM     91  C   UNL A   1      44.371  27.559  36.154  1.00  0.00     0.173 A 
ATOM     92  C   UNL A   1      45.714  29.253  35.104  1.00  0.00     0.173 A 
ATOM     93  F   UNL A   1      43.184  27.080  36.558  1.00  0.00    -0.203 F 
ATOM     94  C   UNL A   1      45.522  26.833  36.448  1.00  0.00     0.198 A 
ATOM     95  C   UNL A   1      46.859  28.507  35.367  1.00  0.00     0.198 A 
ATOM     96  F   UNL A   1      45.842  30.422  34.459  1.00  0.00    -0.203 F 
ATOM     97  F   UNL A   1      45.430  25.684  37.132  1.00  0.00    -0.200 F 
ATOM     98  C   UNL A   1      46.764  27.302  36.048  1.00  0.00     0.200 A 
ATOM     99  F   UNL A   1      48.057  28.955  34.965  1.00  0.00    -0.200 F 
ATOM    100  F   UNL A   1      47.870  26.598  36.323  1.00  0.00    -0.200 F 
ENDBRANCH  67  90
ENDBRANCH  41  42
ENDBRANCH  33  36
ENDBRANCH  31  32
ENDBRANCH  30  31
ENDBRANCH  29  30
ENDBRANCH  28  29
ENDBRANCH   1  28
TORSDOF 18
ENDMDL
