MODEL 1
REMARK VINA RESULT:     -11.5      0.000      0.000
REMARK SMILES NC(=O)C[C@@H](CC(=O)NCCCCCCNC(=O)c1ccc(-c2c3nc(c(-c4c(F)c(F)c(F)c(F)c4F)c4ccc([nH]4)c(-c4c(F)c(F)c(F)c(F)c4F)c4nc(c(-c5c(F)c(F)c(F)c(F)c5F)c5ccc2[nH]5)C=C4)C=C3)cc1)c1cccc(Br)c1
REMARK SMILES IDX 12 1 11 2 10 3 9 4 7 5 8 6 6 8 5 9 4 10 2 11 1 12 3 15 82 16
REMARK SMILES IDX 83 17 88 18 84 19 86 20 85 21 87 22 13 23 14 24 15 25 16 26
REMARK SMILES IDX 17 27 18 29 19 30 20 31 81 32 21 33 80 34 22 35 23 36 24 37
REMARK SMILES IDX 74 38 25 39 79 40 73 41 75 42 26 43 78 44 72 45 71 46 27 48
REMARK SMILES IDX 59 49 39 50 58 51 40 52 43 53 57 54 76 55 41 56 42 57 56 59
REMARK SMILES IDX 77 60 44 61 28 62 29 63 37 64 30 65 31 66 35 67 38 68 32 69
REMARK SMILES IDX 33 70 36 71 34 72 60 73 61 74 69 75 62 76 63 77 67 78 70 79
REMARK SMILES IDX 64 80 65 81 68 82 66 83 45 84 46 85 54 86 47 87 48 88 52 89
REMARK SMILES IDX 55 90 49 91 50 92 53 93 51 94
REMARK H PARENT 9 7 1 13 1 14 16 28 75 47 43 58
REMARK Flexibility Score: inf
ROOT
ATOM      1  C   UNL A   1      32.781  30.142  26.424  1.00  0.00     0.002 C 
ENDROOT
BRANCH   1   2
ATOM      2  C   UNL A   1      32.634  28.764  27.071  1.00  0.00     0.021 C 
BRANCH   2   3
ATOM      3  C   UNL A   1      31.308  28.068  26.762  1.00  0.00     0.116 C 
BRANCH   3   4
ATOM      4  N   UNL A   1      31.325  26.685  27.175  1.00  0.00    -0.356 N 
ATOM      5  C   UNL A   1      31.679  25.554  26.512  1.00  0.00     0.220 C 
ATOM      6  O   UNL A   1      31.604  24.495  27.139  1.00  0.00    -0.275 OA
ATOM      7  H   UNL A   1      31.029  26.534  28.101  1.00  0.00     0.163 HD
BRANCH   5   8
ATOM      8  C   UNL A   1      32.218  25.565  25.089  1.00  0.00     0.108 C 
BRANCH   8   9
ATOM      9  C   UNL A   1      31.308  25.577  23.836  1.00  0.00     0.038 C 
BRANCH   9  10
ATOM     10  C   UNL A   1      31.712  24.786  22.577  1.00  0.00     0.108 C 
BRANCH  10  11
ATOM     11  C   UNL A   1      32.551  25.429  21.480  1.00  0.00     0.218 C 
ATOM     12  N   UNL A   1      32.011  25.719  20.273  1.00  0.00    -0.370 N 
ATOM     13  H   UNL A   1      32.564  26.133  19.572  1.00  0.00     0.159 HD
ATOM     14  H   UNL A   1      31.064  25.513  20.096  1.00  0.00     0.159 HD
ATOM     15  O   UNL A   1      33.763  25.597  21.622  1.00  0.00    -0.275 OA
ENDBRANCH  10  11
ENDBRANCH   9  10
BRANCH   9  16
ATOM     16  C   UNL A   1      30.872  26.983  23.406  1.00  0.00    -0.043 A 
ATOM     17  C   UNL A   1      31.848  27.954  23.119  1.00  0.00     0.004 A 
ATOM     18  C   UNL A   1      29.527  27.383  23.362  1.00  0.00     0.019 A 
ATOM     19  C   UNL A   1      31.487  29.262  22.779  1.00  0.00     0.001 A 
ATOM     20  C   UNL A   1      29.169  28.685  23.007  1.00  0.00     0.018 A 
ATOM     21  C   UNL A   1      30.144  29.628  22.714  1.00  0.00     0.016 A 
ATOM     22  Br  UNL A   1      27.339  29.162  22.939  1.00  0.00    -0.051 Br
ENDBRANCH   9  16
ENDBRANCH   8   9
ENDBRANCH   5   8
ENDBRANCH   3   4
ENDBRANCH   2   3
ENDBRANCH   1   2
BRANCH   1  23
ATOM     23  C   UNL A   1      31.453  30.828  26.087  1.00  0.00     0.002 C 
BRANCH  23  24
ATOM     24  C   UNL A   1      31.349  32.292  26.526  1.00  0.00     0.021 C 
BRANCH  24  25
ATOM     25  C   UNL A   1      32.598  32.843  27.206  1.00  0.00     0.116 C 
BRANCH  25  26
ATOM     26  N   UNL A   1      32.417  34.221  27.632  1.00  0.00    -0.352 N 
ATOM     27  C   UNL A   1      33.012  34.902  28.660  1.00  0.00     0.251 C 
ATOM     28  H   UNL A   1      31.770  34.743  27.104  1.00  0.00     0.163 HD
ATOM     29  O   UNL A   1      32.557  35.991  29.026  1.00  0.00    -0.269 OA
BRANCH  27  30
ATOM     30  C   UNL A   1      34.192  34.339  29.342  1.00  0.00     0.039 A 
ATOM     31  C   UNL A   1      34.017  33.648  30.542  1.00  0.00     0.014 A 
ATOM     32  C   UNL A   1      35.475  34.523  28.816  1.00  0.00     0.014 A 
ATOM     33  C   UNL A   1      35.122  33.095  31.192  1.00  0.00     0.010 A 
ATOM     34  C   UNL A   1      36.567  33.913  29.425  1.00  0.00     0.010 A 
ATOM     35  C   UNL A   1      36.402  33.202  30.624  1.00  0.00    -0.014 A 
BRANCH  35  36
ATOM     36  C   UNL A   1      37.582  32.580  31.273  1.00  0.00     0.031 A 
ATOM     37  C   UNL A   1      38.310  31.452  30.599  1.00  0.00     0.074 A 
ATOM     38  C   UNL A   1      37.954  32.986  32.501  1.00  0.00     0.049 A 
ATOM     39  N   UNL A   1      39.317  30.738  31.033  1.00  0.00    -0.248 NA
ATOM     40  C   UNL A   1      37.820  31.055  29.270  1.00  0.00     0.031 C 
ATOM     41  C   UNL A   1      37.291  34.032  33.281  1.00  0.00     0.029 A 
ATOM     42  N   UNL A   1      38.968  32.554  33.317  1.00  0.00    -0.354 N 
ATOM     43  C   UNL A   1      39.572  29.803  30.039  1.00  0.00     0.074 A 
ATOM     44  C   UNL A   1      38.577  30.001  29.007  1.00  0.00     0.031 C 
ATOM     45  C   UNL A   1      37.922  34.169  34.456  1.00  0.00     0.029 A 
ATOM     46  C   UNL A   1      39.011  33.199  34.528  1.00  0.00     0.049 A 
ATOM     47  H   UNL A   1      39.606  31.850  33.059  1.00  0.00     0.167 HD
ATOM     48  C   UNL A   1      40.563  28.880  29.980  1.00  0.00     0.037 A 
ATOM     49  C   UNL A   1      39.830  33.022  35.582  1.00  0.00     0.037 A 
ATOM     50  C   UNL A   1      41.556  28.695  31.006  1.00  0.00     0.049 A 
ATOM     51  C   UNL A   1      40.923  31.993  35.497  1.00  0.00     0.074 A 
ATOM     52  C   UNL A   1      42.634  27.828  31.019  1.00  0.00     0.029 A 
ATOM     53  N   UNL A   1      41.586  29.388  32.208  1.00  0.00    -0.354 N 
ATOM     54  N   UNL A   1      41.204  31.163  34.521  1.00  0.00    -0.248 NA
ATOM     55  C   UNL A   1      41.820  31.883  36.654  1.00  0.00     0.031 C 
ATOM     56  C   UNL A   1      43.288  27.962  32.250  1.00  0.00     0.029 A 
ATOM     57  C   UNL A   1      42.650  28.952  32.981  1.00  0.00     0.049 A 
ATOM     58  H   UNL A   1      40.945  30.087  32.473  1.00  0.00     0.167 HD
ATOM     59  C   UNL A   1      42.318  30.448  34.935  1.00  0.00     0.074 A 
ATOM     60  C   UNL A   1      42.673  30.953  36.245  1.00  0.00     0.031 C 
ATOM     61  C   UNL A   1      42.987  29.462  34.287  1.00  0.00     0.037 A 
BRANCH  48  62
ATOM     62  C   UNL A   1      40.611  28.000  28.762  1.00  0.00     0.064 A 
ATOM     63  C   UNL A   1      39.913  26.783  28.707  1.00  0.00     0.173 A 
ATOM     64  C   UNL A   1      41.359  28.376  27.637  1.00  0.00     0.173 A 
ATOM     65  F   UNL A   1      39.191  26.370  29.759  1.00  0.00    -0.203 F 
ATOM     66  C   UNL A   1      39.999  25.956  27.589  1.00  0.00     0.198 A 
ATOM     67  C   UNL A   1      41.415  27.563  26.508  1.00  0.00     0.198 A 
ATOM     68  F   UNL A   1      42.039  29.533  27.631  1.00  0.00    -0.203 F 
ATOM     69  F   UNL A   1      39.377  24.769  27.588  1.00  0.00    -0.200 F 
ATOM     70  C   UNL A   1      40.745  26.349  26.490  1.00  0.00     0.200 A 
ATOM     71  F   UNL A   1      42.125  27.950  25.439  1.00  0.00    -0.200 F 
ATOM     72  F   UNL A   1      40.829  25.551  25.415  1.00  0.00    -0.200 F 
ENDBRANCH  48  62
BRANCH  49  73
ATOM     73  C   UNL A   1      39.653  33.861  36.794  1.00  0.00     0.064 A 
ATOM     74  C   UNL A   1      40.240  35.129  36.885  1.00  0.00     0.173 A 
ATOM     75  C   UNL A   1      38.863  33.427  37.869  1.00  0.00     0.173 A 
ATOM     76  F   UNL A   1      41.017  35.581  35.890  1.00  0.00    -0.203 F 
ATOM     77  C   UNL A   1      40.054  35.929  38.011  1.00  0.00     0.198 A 
ATOM     78  C   UNL A   1      38.655  34.238  38.983  1.00  0.00     0.198 A 
ATOM     79  F   UNL A   1      38.271  32.225  37.826  1.00  0.00    -0.203 F 
ATOM     80  F   UNL A   1      40.652  37.125  38.088  1.00  0.00    -0.200 F 
ATOM     81  C   UNL A   1      39.254  35.486  39.055  1.00  0.00     0.200 A 
ATOM     82  F   UNL A   1      37.868  33.814  39.981  1.00  0.00    -0.200 F 
ATOM     83  F   UNL A   1      39.064  36.262  40.131  1.00  0.00    -0.200 F 
ENDBRANCH  49  73
BRANCH  61  84
ATOM     84  C   UNL A   1      44.185  28.877  34.978  1.00  0.00     0.064 A 
ATOM     85  C   UNL A   1      45.469  29.415  34.809  1.00  0.00     0.173 A 
ATOM     86  C   UNL A   1      44.039  27.787  35.849  1.00  0.00     0.173 A 
ATOM     87  F   UNL A   1      45.663  30.448  33.973  1.00  0.00    -0.203 F 
ATOM     88  C   UNL A   1      46.567  28.870  35.470  1.00  0.00     0.198 A 
ATOM     89  C   UNL A   1      45.134  27.263  36.532  1.00  0.00     0.198 A 
ATOM     90  F   UNL A   1      42.832  27.237  36.051  1.00  0.00    -0.203 F 
ATOM     91  F   UNL A   1      47.790  29.371  35.257  1.00  0.00    -0.200 F 
ATOM     92  C   UNL A   1      46.397  27.800  36.336  1.00  0.00     0.200 A 
ATOM     93  F   UNL A   1      44.966  26.237  37.378  1.00  0.00    -0.200 F 
ATOM     94  F   UNL A   1      47.453  27.281  36.976  1.00  0.00    -0.200 F 
ENDBRANCH  61  84
ENDBRANCH  35  36
ENDBRANCH  27  30
ENDBRANCH  25  26
ENDBRANCH  24  25
ENDBRANCH  23  24
ENDBRANCH   1  23
TORSDOF 17
ENDMDL
MODEL 2
REMARK VINA RESULT:     -11.5      1.511      2.864
REMARK SMILES NC(=O)C[C@@H](CC(=O)NCCCCCCNC(=O)c1ccc(-c2c3nc(c(-c4c(F)c(F)c(F)c(F)c4F)c4ccc([nH]4)c(-c4c(F)c(F)c(F)c(F)c4F)c4nc(c(-c5c(F)c(F)c(F)c(F)c5F)c5ccc2[nH]5)C=C4)C=C3)cc1)c1cccc(Br)c1
REMARK SMILES IDX 12 1 11 2 10 3 9 4 7 5 8 6 6 8 5 9 4 10 2 11 1 12 3 15 82 16
REMARK SMILES IDX 83 17 88 18 84 19 86 20 85 21 87 22 13 23 14 24 15 25 16 26
REMARK SMILES IDX 17 27 18 29 19 30 20 31 81 32 21 33 80 34 22 35 23 36 24 37
REMARK SMILES IDX 74 38 25 39 79 40 73 41 75 42 26 43 78 44 72 45 71 46 27 48
REMARK SMILES IDX 59 49 39 50 58 51 40 52 43 53 57 54 76 55 41 56 42 57 56 59
REMARK SMILES IDX 77 60 44 61 28 62 29 63 37 64 30 65 31 66 35 67 38 68 32 69
REMARK SMILES IDX 33 70 36 71 34 72 60 73 61 74 69 75 62 76 63 77 67 78 70 79
REMARK SMILES IDX 64 80 65 81 68 82 66 83 45 84 46 85 54 86 47 87 48 88 52 89
REMARK SMILES IDX 55 90 49 91 50 92 53 93 51 94
REMARK H PARENT 9 7 1 13 1 14 16 28 75 47 43 58
REMARK Flexibility Score: inf
ROOT
ATOM      1  C   UNL A   1      32.613  30.143  26.362  1.00  0.00     0.002 C 
ENDROOT
BRANCH   1   2
ATOM      2  C   UNL A   1      32.298  29.132  27.466  1.00  0.00     0.021 C 
BRANCH   2   3
ATOM      3  C   UNL A   1      32.744  27.704  27.149  1.00  0.00     0.116 C 
BRANCH   3   4
ATOM      4  N   UNL A   1      31.625  26.791  27.125  1.00  0.00    -0.356 N 
ATOM      5  C   UNL A   1      30.781  26.432  26.124  1.00  0.00     0.220 C 
ATOM      6  O   UNL A   1      29.911  25.603  26.402  1.00  0.00    -0.275 OA
ATOM      7  H   UNL A   1      31.442  26.352  27.986  1.00  0.00     0.163 HD
BRANCH   5   8
ATOM      8  C   UNL A   1      30.919  26.951  24.701  1.00  0.00     0.108 C 
BRANCH   8   9
ATOM      9  C   UNL A   1      32.285  27.198  24.014  1.00  0.00     0.038 C 
BRANCH   9  10
ATOM     10  C   UNL A   1      32.375  28.098  22.768  1.00  0.00     0.108 C 
BRANCH  10  11
ATOM     11  C   UNL A   1      31.122  28.682  22.127  1.00  0.00     0.218 C 
ATOM     12  N   UNL A   1      31.027  30.009  21.874  1.00  0.00    -0.370 N 
ATOM     13  H   UNL A   1      30.212  30.374  21.460  1.00  0.00     0.159 HD
ATOM     14  H   UNL A   1      31.774  30.608  22.104  1.00  0.00     0.159 HD
ATOM     15  O   UNL A   1      30.125  27.987  21.928  1.00  0.00    -0.275 OA
ENDBRANCH  10  11
ENDBRANCH   9  10
BRANCH   9  16
ATOM     16  C   UNL A   1      33.077  25.912  23.743  1.00  0.00    -0.043 A 
ATOM     17  C   UNL A   1      32.696  25.075  22.680  1.00  0.00     0.004 A 
ATOM     18  C   UNL A   1      34.130  25.479  24.565  1.00  0.00     0.019 A 
ATOM     19  C   UNL A   1      33.360  23.868  22.437  1.00  0.00     0.001 A 
ATOM     20  C   UNL A   1      34.801  24.282  24.311  1.00  0.00     0.018 A 
ATOM     21  C   UNL A   1      34.421  23.473  23.249  1.00  0.00     0.016 A 
ATOM     22  Br  UNL A   1      36.230  23.759  25.436  1.00  0.00    -0.051 Br
ENDBRANCH   9  16
ENDBRANCH   8   9
ENDBRANCH   5   8
ENDBRANCH   3   4
ENDBRANCH   2   3
ENDBRANCH   1   2
BRANCH   1  23
ATOM     23  C   UNL A   1      31.400  30.937  25.866  1.00  0.00     0.002 C 
BRANCH  23  24
ATOM     24  C   UNL A   1      31.245  32.335  26.475  1.00  0.00     0.021 C 
BRANCH  24  25
ATOM     25  C   UNL A   1      32.473  32.842  27.225  1.00  0.00     0.116 C 
BRANCH  25  26
ATOM     26  N   UNL A   1      32.346  34.245  27.583  1.00  0.00    -0.352 N 
ATOM     27  C   UNL A   1      32.970  34.953  28.574  1.00  0.00     0.251 C 
ATOM     28  H   UNL A   1      31.717  34.763  27.031  1.00  0.00     0.163 HD
ATOM     29  O   UNL A   1      32.558  36.074  28.887  1.00  0.00    -0.269 OA
BRANCH  27  30
ATOM     30  C   UNL A   1      34.131  34.380  29.280  1.00  0.00     0.039 A 
ATOM     31  C   UNL A   1      33.926  33.698  30.481  1.00  0.00     0.014 A 
ATOM     32  C   UNL A   1      35.425  34.545  28.777  1.00  0.00     0.014 A 
ATOM     33  C   UNL A   1      35.013  33.135  31.154  1.00  0.00     0.010 A 
ATOM     34  C   UNL A   1      36.499  33.926  29.409  1.00  0.00     0.010 A 
ATOM     35  C   UNL A   1      36.304  33.224  30.608  1.00  0.00    -0.014 A 
BRANCH  35  36
ATOM     36  C   UNL A   1      37.465  32.593  31.282  1.00  0.00     0.031 A 
ATOM     37  C   UNL A   1      38.179  31.439  30.637  1.00  0.00     0.074 A 
ATOM     38  C   UNL A   1      37.830  33.013  32.508  1.00  0.00     0.049 A 
ATOM     39  N   UNL A   1      39.167  30.714  31.096  1.00  0.00    -0.248 NA
ATOM     40  C   UNL A   1      37.697  31.028  29.310  1.00  0.00     0.031 C 
ATOM     41  C   UNL A   1      37.178  34.085  33.260  1.00  0.00     0.029 A 
ATOM     42  N   UNL A   1      38.827  32.578  33.343  1.00  0.00    -0.354 N 
ATOM     43  C   UNL A   1      39.416  29.757  30.121  1.00  0.00     0.074 A 
ATOM     44  C   UNL A   1      38.437  29.955  29.075  1.00  0.00     0.031 C 
ATOM     45  C   UNL A   1      37.798  34.232  34.441  1.00  0.00     0.029 A 
ATOM     46  C   UNL A   1      38.868  33.243  34.542  1.00  0.00     0.049 A 
ATOM     47  H   UNL A   1      39.455  31.857  33.105  1.00  0.00     0.167 HD
ATOM     48  C   UNL A   1      40.391  28.815  30.090  1.00  0.00     0.037 A 
ATOM     49  C   UNL A   1      39.671  33.070  35.608  1.00  0.00     0.037 A 
ATOM     50  C   UNL A   1      41.369  28.630  31.131  1.00  0.00     0.049 A 
ATOM     51  C   UNL A   1      40.747  32.020  35.555  1.00  0.00     0.074 A 
ATOM     52  C   UNL A   1      42.430  27.744  31.172  1.00  0.00     0.029 A 
ATOM     53  N   UNL A   1      41.397  29.345  32.321  1.00  0.00    -0.354 N 
ATOM     54  N   UNL A   1      41.022  31.168  34.597  1.00  0.00    -0.248 NA
ATOM     55  C   UNL A   1      41.628  31.914  36.725  1.00  0.00     0.031 C 
ATOM     56  C   UNL A   1      43.071  27.888  32.408  1.00  0.00     0.029 A 
ATOM     57  C   UNL A   1      42.444  28.902  33.114  1.00  0.00     0.049 A 
ATOM     58  H   UNL A   1      40.766  30.060  32.566  1.00  0.00     0.167 HD
ATOM     59  C   UNL A   1      42.118  30.440  35.037  1.00  0.00     0.074 A 
ATOM     60  C   UNL A   1      42.467  30.962  36.342  1.00  0.00     0.031 C 
ATOM     61  C   UNL A   1      42.776  29.430  34.414  1.00  0.00     0.037 A 
BRANCH  48  62
ATOM     62  C   UNL A   1      40.436  27.913  28.889  1.00  0.00     0.064 A 
ATOM     63  C   UNL A   1      41.200  28.233  27.756  1.00  0.00     0.173 A 
ATOM     64  C   UNL A   1      39.711  26.712  28.871  1.00  0.00     0.173 A 
ATOM     65  F   UNL A   1      41.903  29.374  27.717  1.00  0.00    -0.203 F 
ATOM     66  C   UNL A   1      41.200  27.409  26.633  1.00  0.00     0.198 A 
ATOM     67  C   UNL A   1      39.740  25.873  27.759  1.00  0.00     0.198 A 
ATOM     68  F   UNL A   1      38.970  26.351  29.929  1.00  0.00    -0.203 F 
ATOM     69  F   UNL A   1      41.884  27.771  25.540  1.00  0.00    -0.200 F 
ATOM     70  C   UNL A   1      40.475  26.228  26.638  1.00  0.00     0.200 A 
ATOM     71  F   UNL A   1      39.051  24.724  27.770  1.00  0.00    -0.200 F 
ATOM     72  F   UNL A   1      40.474  25.437  25.556  1.00  0.00    -0.200 F 
ENDBRANCH  48  62
BRANCH  49  73
ATOM     73  C   UNL A   1      39.496  33.935  36.804  1.00  0.00     0.064 A 
ATOM     74  C   UNL A   1      38.741  33.503  37.901  1.00  0.00     0.173 A 
ATOM     75  C   UNL A   1      40.110  35.193  36.886  1.00  0.00     0.173 A 
ATOM     76  F   UNL A   1      38.122  32.314  37.863  1.00  0.00    -0.203 F 
ATOM     77  C   UNL A   1      38.597  34.301  39.034  1.00  0.00     0.198 A 
ATOM     78  C   UNL A   1      39.988  35.980  38.029  1.00  0.00     0.198 A 
ATOM     79  F   UNL A   1      40.851  35.648  35.865  1.00  0.00    -0.203 F 
ATOM     80  F   UNL A   1      37.845  33.879  40.059  1.00  0.00    -0.200 F 
ATOM     81  C   UNL A   1      39.228  35.535  39.101  1.00  0.00     0.200 A 
ATOM     82  F   UNL A   1      40.613  37.163  38.097  1.00  0.00    -0.200 F 
ATOM     83  F   UNL A   1      39.102  36.296  40.196  1.00  0.00    -0.200 F 
ENDBRANCH  49  73
BRANCH  61  84
ATOM     84  C   UNL A   1      43.955  28.835  35.130  1.00  0.00     0.064 A 
ATOM     85  C   UNL A   1      43.813  27.749  36.006  1.00  0.00     0.173 A 
ATOM     86  C   UNL A   1      45.246  29.334  34.906  1.00  0.00     0.173 A 
ATOM     87  F   UNL A   1      42.597  27.245  36.266  1.00  0.00    -0.203 F 
ATOM     88  C   UNL A   1      44.920  27.199  36.648  1.00  0.00     0.198 A 
ATOM     89  C   UNL A   1      46.354  28.763  35.526  1.00  0.00     0.198 A 
ATOM     90  F   UNL A   1      45.438  30.369  34.073  1.00  0.00    -0.203 F 
ATOM     91  F   UNL A   1      44.755  26.192  37.516  1.00  0.00    -0.200 F 
ATOM     92  C   UNL A   1      46.189  27.702  36.403  1.00  0.00     0.200 A 
ATOM     93  F   UNL A   1      47.581  29.242  35.278  1.00  0.00    -0.200 F 
ATOM     94  F   UNL A   1      47.253  27.166  37.016  1.00  0.00    -0.200 F 
ENDBRANCH  61  84
ENDBRANCH  35  36
ENDBRANCH  27  30
ENDBRANCH  25  26
ENDBRANCH  24  25
ENDBRANCH  23  24
ENDBRANCH   1  23
TORSDOF 17
ENDMDL
MODEL 3
REMARK VINA RESULT:     -11.4      1.658      2.839
REMARK SMILES NC(=O)C[C@@H](CC(=O)NCCCCCCNC(=O)c1ccc(-c2c3nc(c(-c4c(F)c(F)c(F)c(F)c4F)c4ccc([nH]4)c(-c4c(F)c(F)c(F)c(F)c4F)c4nc(c(-c5c(F)c(F)c(F)c(F)c5F)c5ccc2[nH]5)C=C4)C=C3)cc1)c1cccc(Br)c1
REMARK SMILES IDX 12 1 11 2 10 3 9 4 7 5 8 6 6 8 5 9 4 10 2 11 1 12 3 15 82 16
REMARK SMILES IDX 83 17 88 18 84 19 86 20 85 21 87 22 13 23 14 24 15 25 16 26
REMARK SMILES IDX 17 27 18 29 19 30 20 31 81 32 21 33 80 34 22 35 23 36 24 37
REMARK SMILES IDX 74 38 25 39 79 40 73 41 75 42 26 43 78 44 72 45 71 46 27 48
REMARK SMILES IDX 59 49 39 50 58 51 40 52 43 53 57 54 76 55 41 56 42 57 56 59
REMARK SMILES IDX 77 60 44 61 28 62 29 63 37 64 30 65 31 66 35 67 38 68 32 69
REMARK SMILES IDX 33 70 36 71 34 72 60 73 61 74 69 75 62 76 63 77 67 78 70 79
REMARK SMILES IDX 64 80 65 81 68 82 66 83 45 84 46 85 54 86 47 87 48 88 52 89
REMARK SMILES IDX 55 90 49 91 50 92 53 93 51 94
REMARK H PARENT 9 7 1 13 1 14 16 28 75 47 43 58
REMARK Flexibility Score: inf
ROOT
ATOM      1  C   UNL A   1      32.777  29.850  26.633  1.00  0.00     0.002 C 
ENDROOT
BRANCH   1   2
ATOM      2  C   UNL A   1      32.828  28.373  26.239  1.00  0.00     0.021 C 
BRANCH   2   3
ATOM      3  C   UNL A   1      31.461  27.687  26.212  1.00  0.00     0.116 C 
BRANCH   3   4
ATOM      4  N   UNL A   1      31.500  26.401  26.868  1.00  0.00    -0.356 N 
ATOM      5  C   UNL A   1      31.333  25.143  26.386  1.00  0.00     0.220 C 
ATOM      6  O   UNL A   1      31.439  24.219  27.196  1.00  0.00    -0.275 OA
ATOM      7  H   UNL A   1      31.680  26.444  27.834  1.00  0.00     0.163 HD
BRANCH   5   8
ATOM      8  C   UNL A   1      31.099  24.847  24.912  1.00  0.00     0.108 C 
BRANCH   8   9
ATOM      9  C   UNL A   1      32.238  24.792  23.865  1.00  0.00     0.038 C 
BRANCH   9  10
ATOM     10  C   UNL A   1      31.907  24.720  22.363  1.00  0.00     0.108 C 
BRANCH  10  11
ATOM     11  C   UNL A   1      32.630  25.604  21.354  1.00  0.00     0.218 C 
ATOM     12  N   UNL A   1      32.124  25.796  20.112  1.00  0.00    -0.370 N 
ATOM     13  H   UNL A   1      32.601  26.370  19.470  1.00  0.00     0.159 HD
ATOM     14  H   UNL A   1      31.281  25.360  19.853  1.00  0.00     0.159 HD
ATOM     15  O   UNL A   1      33.740  26.075  21.601  1.00  0.00    -0.275 OA
ENDBRANCH  10  11
ENDBRANCH   9  10
BRANCH   9  16
ATOM     16  C   UNL A   1      33.310  23.739  24.177  1.00  0.00    -0.043 A 
ATOM     17  C   UNL A   1      32.973  22.375  24.133  1.00  0.00     0.004 A 
ATOM     18  C   UNL A   1      34.609  24.074  24.590  1.00  0.00     0.019 A 
ATOM     19  C   UNL A   1      33.909  21.389  24.465  1.00  0.00     0.001 A 
ATOM     20  C   UNL A   1      35.545  23.088  24.906  1.00  0.00     0.018 A 
ATOM     21  C   UNL A   1      35.201  21.745  24.845  1.00  0.00     0.016 A 
ATOM     22  Br  UNL A   1      37.290  23.596  25.434  1.00  0.00    -0.051 Br
ENDBRANCH   9  16
ENDBRANCH   8   9
ENDBRANCH   5   8
ENDBRANCH   3   4
ENDBRANCH   2   3
ENDBRANCH   1   2
BRANCH   1  23
ATOM     23  C   UNL A   1      31.610  30.630  26.020  1.00  0.00     0.002 C 
BRANCH  23  24
ATOM     24  C   UNL A   1      31.476  32.080  26.496  1.00  0.00     0.021 C 
BRANCH  24  25
ATOM     25  C   UNL A   1      32.652  32.589  27.323  1.00  0.00     0.116 C 
BRANCH  25  26
ATOM     26  N   UNL A   1      32.524  34.005  27.628  1.00  0.00    -0.352 N 
ATOM     27  C   UNL A   1      33.133  34.746  28.605  1.00  0.00     0.251 C 
ATOM     28  H   UNL A   1      31.907  34.506  27.047  1.00  0.00     0.163 HD
ATOM     29  O   UNL A   1      32.720  35.879  28.870  1.00  0.00    -0.269 OA
BRANCH  27  30
ATOM     30  C   UNL A   1      34.279  34.194  29.351  1.00  0.00     0.039 A 
ATOM     31  C   UNL A   1      34.041  33.450  30.509  1.00  0.00     0.014 A 
ATOM     32  C   UNL A   1      35.590  34.440  28.931  1.00  0.00     0.014 A 
ATOM     33  C   UNL A   1      35.114  32.908  31.218  1.00  0.00     0.010 A 
ATOM     34  C   UNL A   1      36.655  33.842  29.597  1.00  0.00     0.010 A 
ATOM     35  C   UNL A   1      36.428  33.079  30.752  1.00  0.00    -0.014 A 
BRANCH  35  36
ATOM     36  C   UNL A   1      37.578  32.470  31.464  1.00  0.00     0.031 A 
ATOM     37  C   UNL A   1      38.300  31.295  30.869  1.00  0.00     0.074 A 
ATOM     38  C   UNL A   1      37.925  32.933  32.679  1.00  0.00     0.049 A 
ATOM     39  N   UNL A   1      39.281  30.586  31.367  1.00  0.00    -0.248 NA
ATOM     40  C   UNL A   1      37.837  30.839  29.550  1.00  0.00     0.031 C 
ATOM     41  C   UNL A   1      37.264  34.030  33.385  1.00  0.00     0.029 A 
ATOM     42  N   UNL A   1      38.910  32.526  33.544  1.00  0.00    -0.354 N 
ATOM     43  C   UNL A   1      39.544  29.596  30.429  1.00  0.00     0.074 A 
ATOM     44  C   UNL A   1      38.580  29.758  29.363  1.00  0.00     0.031 C 
ATOM     45  C   UNL A   1      37.866  34.217  34.569  1.00  0.00     0.029 A 
ATOM     46  C   UNL A   1      38.934  33.232  34.720  1.00  0.00     0.049 A 
ATOM     47  H   UNL A   1      39.540  31.797  33.340  1.00  0.00     0.167 HD
ATOM     48  C   UNL A   1      40.518  28.653  30.445  1.00  0.00     0.037 A 
ATOM     49  C   UNL A   1      39.721  33.095  35.803  1.00  0.00     0.037 A 
ATOM     50  C   UNL A   1      41.480  28.504  31.505  1.00  0.00     0.049 A 
ATOM     51  C   UNL A   1      40.796  32.044  35.801  1.00  0.00     0.074 A 
ATOM     52  C   UNL A   1      42.540  27.619  31.593  1.00  0.00     0.029 A 
ATOM     53  N   UNL A   1      41.492  29.258  32.671  1.00  0.00    -0.354 N 
ATOM     54  N   UNL A   1      41.085  31.159  34.877  1.00  0.00    -0.248 NA
ATOM     55  C   UNL A   1      41.661  31.978  36.987  1.00  0.00     0.031 C 
ATOM     56  C   UNL A   1      43.164  27.805  32.832  1.00  0.00     0.029 A 
ATOM     57  C   UNL A   1      42.527  28.843  33.494  1.00  0.00     0.049 A 
ATOM     58  H   UNL A   1      40.858  29.982  32.882  1.00  0.00     0.167 HD
ATOM     59  C   UNL A   1      42.174  30.446  35.358  1.00  0.00     0.074 A 
ATOM     60  C   UNL A   1      42.505  31.012  36.649  1.00  0.00     0.031 C 
ATOM     61  C   UNL A   1      42.840  29.415  34.780  1.00  0.00     0.037 A 
BRANCH  48  62
ATOM     62  C   UNL A   1      40.579  27.710  29.277  1.00  0.00     0.064 A 
ATOM     63  C   UNL A   1      41.469  27.916  28.210  1.00  0.00     0.173 A 
ATOM     64  C   UNL A   1      39.744  26.585  29.222  1.00  0.00     0.173 A 
ATOM     65  F   UNL A   1      42.284  28.982  28.208  1.00  0.00    -0.203 F 
ATOM     66  C   UNL A   1      41.488  27.058  27.114  1.00  0.00     0.198 A 
ATOM     67  C   UNL A   1      39.788  25.710  28.139  1.00  0.00     0.198 A 
ATOM     68  F   UNL A   1      38.879  26.333  30.216  1.00  0.00    -0.203 F 
ATOM     69  F   UNL A   1      42.299  27.315  26.079  1.00  0.00    -0.200 F 
ATOM     70  C   UNL A   1      40.651  25.954  27.081  1.00  0.00     0.200 A 
ATOM     71  F   UNL A   1      38.990  24.634  28.115  1.00  0.00    -0.200 F 
ATOM     72  F   UNL A   1      40.668  25.129  26.024  1.00  0.00    -0.200 F 
ENDBRANCH  48  62
BRANCH  49  73
ATOM     73  C   UNL A   1      39.530  34.000  36.965  1.00  0.00     0.064 A 
ATOM     74  C   UNL A   1      38.777  33.597  38.076  1.00  0.00     0.173 A 
ATOM     75  C   UNL A   1      40.124  35.270  37.003  1.00  0.00     0.173 A 
ATOM     76  F   UNL A   1      38.176  32.399  38.079  1.00  0.00    -0.203 F 
ATOM     77  C   UNL A   1      38.618  34.435  39.178  1.00  0.00     0.198 A 
ATOM     78  C   UNL A   1      39.987  36.096  38.117  1.00  0.00     0.198 A 
ATOM     79  F   UNL A   1      40.862  35.698  35.969  1.00  0.00    -0.203 F 
ATOM     80  F   UNL A   1      37.868  34.039  40.215  1.00  0.00    -0.200 F 
ATOM     81  C   UNL A   1      39.230  35.680  39.201  1.00  0.00     0.200 A 
ATOM     82  F   UNL A   1      40.594  37.290  38.142  1.00  0.00    -0.200 F 
ATOM     83  F   UNL A   1      39.089  36.478  40.268  1.00  0.00    -0.200 F 
ENDBRANCH  49  73
BRANCH  61  84
ATOM     84  C   UNL A   1      44.008  28.844  35.533  1.00  0.00     0.064 A 
ATOM     85  C   UNL A   1      45.316  29.304  35.320  1.00  0.00     0.173 A 
ATOM     86  C   UNL A   1      43.809  27.853  36.505  1.00  0.00     0.173 A 
ATOM     87  F   UNL A   1      45.560  30.240  34.390  1.00  0.00    -0.203 F 
ATOM     88  C   UNL A   1      46.385  28.775  36.038  1.00  0.00     0.198 A 
ATOM     89  C   UNL A   1      44.877  27.347  37.242  1.00  0.00     0.198 A 
ATOM     90  F   UNL A   1      42.577  27.382  36.751  1.00  0.00    -0.203 F 
ATOM     91  F   UNL A   1      47.632  29.196  35.786  1.00  0.00    -0.200 F 
ATOM     92  C   UNL A   1      46.164  27.803  37.003  1.00  0.00     0.200 A 
ATOM     93  F   UNL A   1      44.660  26.418  38.183  1.00  0.00    -0.200 F 
ATOM     94  F   UNL A   1      47.194  27.301  37.698  1.00  0.00    -0.200 F 
ENDBRANCH  61  84
ENDBRANCH  35  36
ENDBRANCH  27  30
ENDBRANCH  25  26
ENDBRANCH  24  25
ENDBRANCH  23  24
ENDBRANCH   1  23
TORSDOF 17
ENDMDL
