MODEL 1
REMARK VINA RESULT:     -13.0      0.000      0.000
REMARK SMILES N#Cc1ccccc1C[C@@H](NC(=O)OCC1c2ccccc2-c2ccccc21)C(=O)NCCCCCCNC(=O)c1ccc(-c2c3nc(c(-c4c(F)c(F)c(F)c(F)c4F)c4ccc([nH]4)c(-c4c(F)c(F)c(F)c(F)c4F)c4nc(c(-c5c(F)c(F)c(F)c(F)c5F)c5ccc2[nH]5)C=C4)C=C3)cc1
REMARK SMILES IDX 33 1 32 2 31 3 29 4 30 5 10 7 9 8 8 9 3 10 4 11 5 12 7 13
REMARK SMILES IDX 6 14 2 15 1 16 11 17 12 18 13 20 14 21 15 22 16 23 17 24
REMARK SMILES IDX 28 25 18 26 22 27 23 28 27 29 19 30 21 31 24 32 26 33 20 34
REMARK SMILES IDX 25 35 34 36 35 37 36 38 37 39 38 40 39 41 40 43 41 44 42 45
REMARK SMILES IDX 103 46 43 47 102 48 44 49 45 50 46 51 96 52 47 53 101 54
REMARK SMILES IDX 95 55 97 56 48 57 100 58 94 59 93 60 49 62 81 63 61 64 80 65
REMARK SMILES IDX 62 66 65 67 79 68 98 69 63 70 64 71 78 73 99 74 66 75 50 76
REMARK SMILES IDX 51 77 59 78 52 79 53 80 57 81 60 82 54 83 55 84 58 85 56 86
REMARK SMILES IDX 82 87 83 88 91 89 84 90 85 91 89 92 92 93 86 94 87 95 90 96
REMARK SMILES IDX 88 97 67 98 68 99 76 100 69 101 70 102 74 103 77 104 71 105
REMARK SMILES IDX 72 106 75 107 73 108
REMARK H PARENT 31 6 11 19 38 42 97 61 65 72
REMARK Flexibility Score: inf
ROOT
ATOM      1  C   UNL A   1      33.023  29.475  25.213  1.00  0.00     0.021 C 
ENDROOT
BRANCH   1   2
ATOM      2  C   UNL A   1      33.359  28.530  26.350  1.00  0.00     0.116 C 
BRANCH   2   3
ATOM      3  N   UNL A   1      34.021  27.336  25.851  1.00  0.00    -0.354 N 
ATOM      4  C   UNL A   1      33.498  26.111  25.539  1.00  0.00     0.243 C 
ATOM      5  O   UNL A   1      34.246  25.263  25.048  1.00  0.00    -0.273 OA
ATOM      6  H   UNL A   1      34.992  27.421  25.718  1.00  0.00     0.163 HD
BRANCH   4   7
ATOM      7  C   UNL A   1      32.021  25.797  25.850  1.00  0.00     0.179 C 
BRANCH   7   8
ATOM      8  C   UNL A   1      31.284  25.531  24.501  1.00  0.00     0.072 C 
BRANCH   8   9
ATOM      9  C   UNL A   1      30.744  26.732  23.742  1.00  0.00    -0.028 A 
ATOM     10  C   UNL A   1      31.455  27.324  22.680  1.00  0.00     0.055 A 
ATOM     11  C   UNL A   1      30.928  28.445  22.021  1.00  0.00     0.020 A 
ATOM     12  C   UNL A   1      29.690  28.970  22.390  1.00  0.00     0.001 A 
ATOM     13  C   UNL A   1      29.453  27.216  24.024  1.00  0.00     0.005 A 
ATOM     14  C   UNL A   1      28.945  28.345  23.381  1.00  0.00     0.000 A 
BRANCH  10  15
ATOM     15  C   UNL A   1      32.687  26.769  22.186  1.00  0.00     0.099 C 
ATOM     16  N   UNL A   1      33.658  26.293  21.773  1.00  0.00    -0.192 NA
ENDBRANCH  10  15
ENDBRANCH   8   9
ENDBRANCH   7   8
BRANCH   7  17
ATOM     17  N   UNL A   1      31.813  24.766  26.872  1.00  0.00    -0.309 N 
ATOM     18  C   UNL A   1      31.386  23.486  26.704  1.00  0.00     0.407 C 
ATOM     19  H   UNL A   1      32.010  25.034  27.798  1.00  0.00     0.167 HD
ATOM     20  O   UNL A   1      30.603  22.982  27.496  1.00  0.00    -0.225 OA
BRANCH  18  21
ATOM     21  O   UNL A   1      31.957  22.872  25.640  1.00  0.00    -0.449 OA
BRANCH  21  22
ATOM     22  C   UNL A   1      33.036  21.959  25.920  1.00  0.00     0.248 C 
BRANCH  22  23
ATOM     23  C   UNL A   1      33.714  21.470  24.628  1.00  0.00     0.088 C 
ATOM     24  C   UNL A   1      35.231  21.606  24.706  1.00  0.00    -0.029 A 
ATOM     25  C   UNL A   1      33.556  19.959  24.489  1.00  0.00    -0.029 A 
ATOM     26  C   UNL A   1      35.990  22.767  24.728  1.00  0.00     0.005 A 
ATOM     27  C   UNL A   1      35.827  20.338  24.837  1.00  0.00    -0.014 A 
ATOM     28  C   UNL A   1      34.811  19.326  24.636  1.00  0.00    -0.014 A 
ATOM     29  C   UNL A   1      32.402  19.226  24.253  1.00  0.00     0.005 A 
ATOM     30  C   UNL A   1      37.341  22.662  25.049  1.00  0.00     0.000 A 
ATOM     31  C   UNL A   1      37.175  20.231  25.132  1.00  0.00     0.009 A 
ATOM     32  C   UNL A   1      34.922  17.950  24.524  1.00  0.00     0.009 A 
ATOM     33  C   UNL A   1      32.516  17.839  24.143  1.00  0.00     0.000 A 
ATOM     34  C   UNL A   1      37.924  21.406  25.272  1.00  0.00     0.001 A 
ATOM     35  C   UNL A   1      33.764  17.208  24.272  1.00  0.00     0.001 A 
ENDBRANCH  22  23
ENDBRANCH  21  22
ENDBRANCH  18  21
ENDBRANCH   7  17
ENDBRANCH   4   7
ENDBRANCH   2   3
ENDBRANCH   1   2
BRANCH   1  36
ATOM     36  C   UNL A   1      31.627  30.084  25.375  1.00  0.00     0.002 C 
BRANCH  36  37
ATOM     37  C   UNL A   1      31.403  30.794  26.717  1.00  0.00     0.002 C 
BRANCH  37  38
ATOM     38  C   UNL A   1      31.404  32.322  26.632  1.00  0.00     0.021 C 
BRANCH  38  39
ATOM     39  C   UNL A   1      32.692  32.957  27.137  1.00  0.00     0.116 C 
BRANCH  39  40
ATOM     40  N   UNL A   1      32.469  34.316  27.602  1.00  0.00    -0.352 N 
ATOM     41  C   UNL A   1      33.009  34.956  28.684  1.00  0.00     0.251 C 
ATOM     42  H   UNL A   1      31.840  34.850  27.064  1.00  0.00     0.163 HD
ATOM     43  O   UNL A   1      32.541  36.019  29.075  1.00  0.00    -0.269 OA
BRANCH  41  44
ATOM     44  C   UNL A   1      34.156  34.346  29.380  1.00  0.00     0.039 A 
ATOM     45  C   UNL A   1      33.915  33.513  30.472  1.00  0.00     0.014 A 
ATOM     46  C   UNL A   1      35.463  34.600  28.956  1.00  0.00     0.014 A 
ATOM     47  C   UNL A   1      34.989  32.907  31.120  1.00  0.00     0.010 A 
ATOM     48  C   UNL A   1      36.524  33.919  29.539  1.00  0.00     0.010 A 
ATOM     49  C   UNL A   1      36.299  33.086  30.644  1.00  0.00    -0.014 A 
BRANCH  49  50
ATOM     50  C   UNL A   1      37.448  32.430  31.316  1.00  0.00     0.031 A 
ATOM     51  C   UNL A   1      38.164  31.292  30.643  1.00  0.00     0.074 A 
ATOM     52  C   UNL A   1      37.824  32.841  32.541  1.00  0.00     0.049 A 
ATOM     53  N   UNL A   1      39.179  30.584  31.071  1.00  0.00    -0.248 NA
ATOM     54  C   UNL A   1      37.656  30.873  29.327  1.00  0.00     0.031 C 
ATOM     55  C   UNL A   1      37.178  33.904  33.312  1.00  0.00     0.029 A 
ATOM     56  N   UNL A   1      38.845  32.416  33.352  1.00  0.00    -0.354 N 
ATOM     57  C   UNL A   1      39.423  29.639  30.083  1.00  0.00     0.074 A 
ATOM     58  C   UNL A   1      38.406  29.814  29.070  1.00  0.00     0.031 C 
ATOM     59  C   UNL A   1      37.840  34.075  34.466  1.00  0.00     0.029 A 
ATOM     60  C   UNL A   1      38.928  33.104  34.538  1.00  0.00     0.049 A 
ATOM     61  H   UNL A   1      39.460  31.686  33.109  1.00  0.00     0.167 HD
ATOM     62  C   UNL A   1      40.423  28.729  30.012  1.00  0.00     0.037 A 
ATOM     63  C   UNL A   1      39.783  32.963  35.568  1.00  0.00     0.037 A 
ATOM     64  C   UNL A   1      41.436  28.567  31.022  1.00  0.00     0.049 A 
ATOM     65  C   UNL A   1      40.866  31.921  35.478  1.00  0.00     0.074 A 
ATOM     66  C   UNL A   1      42.517  27.706  31.029  1.00  0.00     0.029 A 
ATOM     67  N   UNL A   1      41.483  29.277  32.214  1.00  0.00    -0.354 N 
ATOM     68  N   UNL A   1      41.133  31.080  34.508  1.00  0.00    -0.248 NA
ATOM     69  C   UNL A   1      41.776  31.817  36.627  1.00  0.00     0.031 C 
ATOM     70  C   UNL A   1      43.178  27.843  32.254  1.00  0.00     0.029 A 
ATOM     71  C   UNL A   1      42.559  28.850  32.977  1.00  0.00     0.049 A 
ATOM     72  H   UNL A   1      40.847  29.981  32.478  1.00  0.00     0.167 HD
ATOM     73  C   UNL A   1      42.260  30.376  34.910  1.00  0.00     0.074 A 
ATOM     74  C   UNL A   1      42.635  30.902  36.206  1.00  0.00     0.031 C 
ATOM     75  C   UNL A   1      42.925  29.387  34.265  1.00  0.00     0.037 A 
BRANCH  62  76
ATOM     76  C   UNL A   1      40.463  27.834  28.805  1.00  0.00     0.064 A 
ATOM     77  C   UNL A   1      39.756  26.621  28.756  1.00  0.00     0.173 A 
ATOM     78  C   UNL A   1      41.202  28.203  27.670  1.00  0.00     0.173 A 
ATOM     79  F   UNL A   1      39.041  26.213  29.816  1.00  0.00    -0.203 F 
ATOM     80  C   UNL A   1      39.819  25.796  27.636  1.00  0.00     0.198 A 
ATOM     81  C   UNL A   1      41.230  27.395  26.537  1.00  0.00     0.198 A 
ATOM     82  F   UNL A   1      41.894  29.352  27.657  1.00  0.00    -0.203 F 
ATOM     83  F   UNL A   1      39.188  24.614  27.641  1.00  0.00    -0.200 F 
ATOM     84  C   UNL A   1      40.549  26.187  26.524  1.00  0.00     0.200 A 
ATOM     85  F   UNL A   1      41.922  27.783  25.456  1.00  0.00    -0.200 F 
ATOM     86  F   UNL A   1      40.603  25.396  25.444  1.00  0.00    -0.200 F 
ENDBRANCH  62  76
BRANCH  63  87
ATOM     87  C   UNL A   1      39.665  33.844  36.760  1.00  0.00     0.064 A 
ATOM     88  C   UNL A   1      38.882  33.469  37.861  1.00  0.00     0.173 A 
ATOM     89  C   UNL A   1      40.320  35.082  36.819  1.00  0.00     0.173 A 
ATOM     90  F   UNL A   1      38.221  32.301  37.847  1.00  0.00    -0.203 F 
ATOM     91  C   UNL A   1      38.734  34.311  38.961  1.00  0.00     0.198 A 
ATOM     92  C   UNL A   1      40.201  35.908  37.936  1.00  0.00     0.198 A 
ATOM     93  F   UNL A   1      41.088  35.487  35.797  1.00  0.00    -0.203 F 
ATOM     94  F   UNL A   1      37.931  33.954  39.973  1.00  0.00    -0.200 F 
ATOM     95  C   UNL A   1      39.398  35.528  39.000  1.00  0.00     0.200 A 
ATOM     96  F   UNL A   1      40.859  37.074  37.976  1.00  0.00    -0.200 F 
ATOM     97  F   UNL A   1      39.257  36.337  40.059  1.00  0.00    -0.200 F 
ENDBRANCH  63  87
BRANCH  75  98
ATOM     98  C   UNL A   1      44.163  28.843  34.924  1.00  0.00     0.064 A 
ATOM     99  C   UNL A   1      44.125  27.737  35.787  1.00  0.00     0.173 A 
ATOM    100  C   UNL A   1      45.414  29.427  34.666  1.00  0.00     0.173 A 
ATOM    101  F   UNL A   1      42.956  27.145  36.075  1.00  0.00    -0.203 F 
ATOM    102  C   UNL A   1      45.284  27.266  36.400  1.00  0.00     0.198 A 
ATOM    103  C   UNL A   1      46.575  28.927  35.247  1.00  0.00     0.198 A 
ATOM    104  F   UNL A   1      45.512  30.480  33.841  1.00  0.00    -0.203 F 
ATOM    105  F   UNL A   1      45.211  26.252  37.274  1.00  0.00    -0.200 F 
ATOM    106  C   UNL A   1      46.508  27.856  36.124  1.00  0.00     0.200 A 
ATOM    107  F   UNL A   1      47.759  29.486  34.962  1.00  0.00    -0.200 F 
ATOM    108  F   UNL A   1      47.621  27.397  36.711  1.00  0.00    -0.200 F 
ENDBRANCH  75  98
ENDBRANCH  49  50
ENDBRANCH  41  44
ENDBRANCH  39  40
ENDBRANCH  38  39
ENDBRANCH  37  38
ENDBRANCH  36  37
ENDBRANCH   1  36
TORSDOF 20
ENDMDL
MODEL 2
REMARK VINA RESULT:     -12.9      4.848      9.937
REMARK SMILES N#Cc1ccccc1C[C@@H](NC(=O)OCC1c2ccccc2-c2ccccc21)C(=O)NCCCCCCNC(=O)c1ccc(-c2c3nc(c(-c4c(F)c(F)c(F)c(F)c4F)c4ccc([nH]4)c(-c4c(F)c(F)c(F)c(F)c4F)c4nc(c(-c5c(F)c(F)c(F)c(F)c5F)c5ccc2[nH]5)C=C4)C=C3)cc1
REMARK SMILES IDX 33 1 32 2 31 3 29 4 30 5 10 7 9 8 8 9 3 10 4 11 5 12 7 13
REMARK SMILES IDX 6 14 2 15 1 16 11 17 12 18 13 20 14 21 15 22 16 23 17 24
REMARK SMILES IDX 28 25 18 26 22 27 23 28 27 29 19 30 21 31 24 32 26 33 20 34
REMARK SMILES IDX 25 35 34 36 35 37 36 38 37 39 38 40 39 41 40 43 41 44 42 45
REMARK SMILES IDX 103 46 43 47 102 48 44 49 45 50 46 51 96 52 47 53 101 54
REMARK SMILES IDX 95 55 97 56 48 57 100 58 94 59 93 60 49 62 81 63 61 64 80 65
REMARK SMILES IDX 62 66 65 67 79 68 98 69 63 70 64 71 78 73 99 74 66 75 50 76
REMARK SMILES IDX 51 77 59 78 52 79 53 80 57 81 60 82 54 83 55 84 58 85 56 86
REMARK SMILES IDX 82 87 83 88 91 89 84 90 85 91 89 92 92 93 86 94 87 95 90 96
REMARK SMILES IDX 88 97 67 98 68 99 76 100 69 101 70 102 74 103 77 104 71 105
REMARK SMILES IDX 72 106 75 107 73 108
REMARK H PARENT 31 6 11 19 38 42 97 61 65 72
REMARK Flexibility Score: inf
ROOT
ATOM      1  C   UNL A   1      36.912  22.651  25.751  1.00  0.00     0.021 C 
ENDROOT
BRANCH   1   2
ATOM      2  C   UNL A   1      36.489  24.026  25.271  1.00  0.00     0.116 C 
BRANCH   2   3
ATOM      3  N   UNL A   1      35.172  24.370  25.781  1.00  0.00    -0.354 N 
ATOM      4  C   UNL A   1      33.934  24.057  25.291  1.00  0.00     0.243 C 
ATOM      5  O   UNL A   1      32.944  24.390  25.944  1.00  0.00    -0.273 OA
ATOM      6  H   UNL A   1      35.171  24.910  26.604  1.00  0.00     0.163 HD
BRANCH   4   7
ATOM      7  C   UNL A   1      33.797  23.351  23.926  1.00  0.00     0.179 C 
BRANCH   7   8
ATOM      8  C   UNL A   1      32.496  22.491  23.949  1.00  0.00     0.072 C 
BRANCH   8   9
ATOM      9  C   UNL A   1      32.645  20.983  23.843  1.00  0.00    -0.028 A 
ATOM     10  C   UNL A   1      33.156  20.207  24.902  1.00  0.00     0.055 A 
ATOM     11  C   UNL A   1      33.296  18.818  24.752  1.00  0.00     0.020 A 
ATOM     12  C   UNL A   1      32.912  18.189  23.569  1.00  0.00     0.001 A 
ATOM     13  C   UNL A   1      32.168  20.310  22.702  1.00  0.00     0.005 A 
ATOM     14  C   UNL A   1      32.331  18.934  22.550  1.00  0.00     0.000 A 
BRANCH  10  15
ATOM     15  C   UNL A   1      33.476  20.782  26.182  1.00  0.00     0.099 C 
ATOM     16  N   UNL A   1      33.732  21.208  27.226  1.00  0.00    -0.192 NA
ENDBRANCH  10  15
ENDBRANCH   8   9
ENDBRANCH   7   8
BRANCH   7  17
ATOM     17  N   UNL A   1      33.924  24.235  22.762  1.00  0.00    -0.309 N 
ATOM     18  C   UNL A   1      32.942  24.905  22.102  1.00  0.00     0.407 C 
ATOM     19  H   UNL A   1      34.836  24.360  22.415  1.00  0.00     0.167 HD
ATOM     20  O   UNL A   1      32.954  24.985  20.882  1.00  0.00    -0.225 OA
BRANCH  18  21
ATOM     21  O   UNL A   1      32.042  25.482  22.934  1.00  0.00    -0.449 OA
BRANCH  21  22
ATOM     22  C   UNL A   1      32.339  26.818  23.386  1.00  0.00     0.248 C 
BRANCH  22  23
ATOM     23  C   UNL A   1      31.325  27.297  24.440  1.00  0.00     0.088 C 
ATOM     24  C   UNL A   1      32.000  28.128  25.527  1.00  0.00    -0.029 A 
ATOM     25  C   UNL A   1      30.374  28.321  23.829  1.00  0.00    -0.029 A 
ATOM     26  C   UNL A   1      32.894  27.707  26.501  1.00  0.00     0.005 A 
ATOM     27  C   UNL A   1      31.654  29.486  25.387  1.00  0.00    -0.014 A 
ATOM     28  C   UNL A   1      30.607  29.596  24.394  1.00  0.00    -0.014 A 
ATOM     29  C   UNL A   1      29.395  28.127  22.865  1.00  0.00     0.005 A 
ATOM     30  C   UNL A   1      33.572  28.679  27.234  1.00  0.00     0.000 A 
ATOM     31  C   UNL A   1      32.309  30.450  26.133  1.00  0.00     0.009 A 
ATOM     32  C   UNL A   1      29.842  30.684  24.010  1.00  0.00     0.009 A 
ATOM     33  C   UNL A   1      28.628  29.227  22.478  1.00  0.00     0.000 A 
ATOM     34  C   UNL A   1      33.298  30.040  27.035  1.00  0.00     0.001 A 
ATOM     35  C   UNL A   1      28.845  30.492  23.048  1.00  0.00     0.001 A 
ENDBRANCH  22  23
ENDBRANCH  21  22
ENDBRANCH  18  21
ENDBRANCH   7  17
ENDBRANCH   4   7
ENDBRANCH   2   3
ENDBRANCH   1   2
BRANCH   1  36
ATOM     36  C   UNL A   1      37.096  21.675  24.586  1.00  0.00     0.002 C 
BRANCH  36  37
ATOM     37  C   UNL A   1      36.903  20.200  24.965  1.00  0.00     0.002 C 
BRANCH  37  38
ATOM     38  C   UNL A   1      38.184  19.364  24.928  1.00  0.00     0.021 C 
BRANCH  38  39
ATOM     39  C   UNL A   1      39.309  19.940  25.776  1.00  0.00     0.116 C 
BRANCH  39  40
ATOM     40  N   UNL A   1      40.423  19.013  25.884  1.00  0.00    -0.352 N 
ATOM     41  C   UNL A   1      41.753  19.281  26.065  1.00  0.00     0.251 C 
ATOM     42  H   UNL A   1      40.189  18.059  25.816  1.00  0.00     0.163 HD
ATOM     43  O   UNL A   1      42.592  18.403  25.899  1.00  0.00    -0.269 OA
BRANCH  41  44
ATOM     44  C   UNL A   1      42.165  20.642  26.454  1.00  0.00     0.039 A 
ATOM     45  C   UNL A   1      42.477  21.562  25.453  1.00  0.00     0.014 A 
ATOM     46  C   UNL A   1      42.245  21.004  27.801  1.00  0.00     0.014 A 
ATOM     47  C   UNL A   1      42.840  22.859  25.807  1.00  0.00     0.010 A 
ATOM     48  C   UNL A   1      42.510  22.322  28.148  1.00  0.00     0.010 A 
ATOM     49  C   UNL A   1      42.836  23.257  27.155  1.00  0.00    -0.014 A 
BRANCH  49  50
ATOM     50  C   UNL A   1      43.202  24.642  27.540  1.00  0.00     0.031 A 
ATOM     51  C   UNL A   1      44.646  25.059  27.568  1.00  0.00     0.074 A 
ATOM     52  C   UNL A   1      42.236  25.511  27.891  1.00  0.00     0.049 A 
ATOM     53  N   UNL A   1      45.167  26.217  27.889  1.00  0.00    -0.248 NA
ATOM     54  C   UNL A   1      45.641  24.032  27.219  1.00  0.00     0.031 C 
ATOM     55  C   UNL A   1      40.805  25.208  27.945  1.00  0.00     0.029 A 
ATOM     56  N   UNL A   1      42.311  26.828  28.265  1.00  0.00    -0.354 N 
ATOM     57  C   UNL A   1      46.542  26.053  27.784  1.00  0.00     0.074 A 
ATOM     58  C   UNL A   1      46.779  24.668  27.445  1.00  0.00     0.031 C 
ATOM     59  C   UNL A   1      40.134  26.317  28.291  1.00  0.00     0.029 A 
ATOM     60  C   UNL A   1      41.089  27.396  28.529  1.00  0.00     0.049 A 
ATOM     61  H   UNL A   1      43.161  27.320  28.338  1.00  0.00     0.167 HD
ATOM     62  C   UNL A   1      47.517  26.981  27.927  1.00  0.00     0.037 A 
ATOM     63  C   UNL A   1      40.776  28.644  28.922  1.00  0.00     0.037 A 
ATOM     64  C   UNL A   1      47.271  28.361  28.257  1.00  0.00     0.049 A 
ATOM     65  C   UNL A   1      41.882  29.649  29.106  1.00  0.00     0.074 A 
ATOM     66  C   UNL A   1      48.183  29.394  28.384  1.00  0.00     0.029 A 
ATOM     67  N   UNL A   1      46.020  28.898  28.525  1.00  0.00    -0.354 N 
ATOM     68  N   UNL A   1      43.174  29.504  28.935  1.00  0.00    -0.248 NA
ATOM     69  C   UNL A   1      41.481  30.998  29.528  1.00  0.00     0.031 C 
ATOM     70  C   UNL A   1      47.493  30.538  28.798  1.00  0.00     0.029 A 
ATOM     71  C   UNL A   1      46.140  30.241  28.848  1.00  0.00     0.049 A 
ATOM     72  H   UNL A   1      45.172  28.400  28.491  1.00  0.00     0.167 HD
ATOM     73  C   UNL A   1      43.736  30.748  29.191  1.00  0.00     0.074 A 
ATOM     74  C   UNL A   1      42.641  31.639  29.511  1.00  0.00     0.031 C 
ATOM     75  C   UNL A   1      45.040  31.119  29.159  1.00  0.00     0.037 A 
BRANCH  62  76
ATOM     76  C   UNL A   1      48.939  26.532  27.735  1.00  0.00     0.064 A 
ATOM     77  C   UNL A   1      49.506  26.390  26.457  1.00  0.00     0.173 A 
ATOM     78  C   UNL A   1      49.756  26.260  28.843  1.00  0.00     0.173 A 
ATOM     79  F   UNL A   1      48.769  26.625  25.360  1.00  0.00    -0.203 F 
ATOM     80  C   UNL A   1      50.819  25.955  26.297  1.00  0.00     0.198 A 
ATOM     81  C   UNL A   1      51.081  25.866  28.681  1.00  0.00     0.198 A 
ATOM     82  F   UNL A   1      49.270  26.384  30.088  1.00  0.00    -0.203 F 
ATOM     83  F   UNL A   1      51.315  25.765  25.067  1.00  0.00    -0.200 F 
ATOM     84  C   UNL A   1      51.608  25.702  27.409  1.00  0.00     0.200 A 
ATOM     85  F   UNL A   1      51.847  25.638  29.756  1.00  0.00    -0.200 F 
ATOM     86  F   UNL A   1      52.874  25.291  27.254  1.00  0.00    -0.200 F 
ENDBRANCH  62  76
BRANCH  63  87
ATOM     87  C   UNL A   1      39.355  29.021  29.146  1.00  0.00     0.064 A 
ATOM     88  C   UNL A   1      38.552  29.474  28.090  1.00  0.00     0.173 A 
ATOM     89  C   UNL A   1      38.774  28.949  30.421  1.00  0.00     0.173 A 
ATOM     90  F   UNL A   1      39.065  29.577  26.855  1.00  0.00    -0.203 F 
ATOM     91  C   UNL A   1      37.233  29.870  28.305  1.00  0.00     0.198 A 
ATOM     92  C   UNL A   1      37.444  29.310  30.628  1.00  0.00     0.198 A 
ATOM     93  F   UNL A   1      39.495  28.516  31.465  1.00  0.00    -0.203 F 
ATOM     94  F   UNL A   1      36.507  30.355  27.289  1.00  0.00    -0.200 F 
ATOM     95  C   UNL A   1      36.678  29.782  29.573  1.00  0.00     0.200 A 
ATOM     96  F   UNL A   1      36.907  29.207  31.852  1.00  0.00    -0.200 F 
ATOM     97  F   UNL A   1      35.410  30.161  29.779  1.00  0.00    -0.200 F 
ENDBRANCH  63  87
BRANCH  75  98
ATOM     98  C   UNL A   1      45.351  32.566  29.426  1.00  0.00     0.064 A 
ATOM     99  C   UNL A   1      45.370  33.526  28.402  1.00  0.00     0.173 A 
ATOM    100  C   UNL A   1      45.613  33.002  30.735  1.00  0.00     0.173 A 
ATOM    101  F   UNL A   1      45.137  33.165  27.132  1.00  0.00    -0.203 F 
ATOM    102  C   UNL A   1      45.682  34.857  28.673  1.00  0.00     0.198 A 
ATOM    103  C   UNL A   1      45.881  34.341  31.007  1.00  0.00     0.198 A 
ATOM    104  F   UNL A   1      45.598  32.131  31.754  1.00  0.00    -0.203 F 
ATOM    105  F   UNL A   1      45.761  35.741  27.668  1.00  0.00    -0.200 F 
ATOM    106  C   UNL A   1      45.929  35.264  29.975  1.00  0.00     0.200 A 
ATOM    107  F   UNL A   1      46.099  34.735  32.269  1.00  0.00    -0.200 F 
ATOM    108  F   UNL A   1      46.223  36.545  30.233  1.00  0.00    -0.200 F 
ENDBRANCH  75  98
ENDBRANCH  49  50
ENDBRANCH  41  44
ENDBRANCH  39  40
ENDBRANCH  38  39
ENDBRANCH  37  38
ENDBRANCH  36  37
ENDBRANCH   1  36
TORSDOF 20
ENDMDL
MODEL 3
REMARK VINA RESULT:     -12.9      0.661      6.844
REMARK SMILES N#Cc1ccccc1C[C@@H](NC(=O)OCC1c2ccccc2-c2ccccc21)C(=O)NCCCCCCNC(=O)c1ccc(-c2c3nc(c(-c4c(F)c(F)c(F)c(F)c4F)c4ccc([nH]4)c(-c4c(F)c(F)c(F)c(F)c4F)c4nc(c(-c5c(F)c(F)c(F)c(F)c5F)c5ccc2[nH]5)C=C4)C=C3)cc1
REMARK SMILES IDX 33 1 32 2 31 3 29 4 30 5 10 7 9 8 8 9 3 10 4 11 5 12 7 13
REMARK SMILES IDX 6 14 2 15 1 16 11 17 12 18 13 20 14 21 15 22 16 23 17 24
REMARK SMILES IDX 28 25 18 26 22 27 23 28 27 29 19 30 21 31 24 32 26 33 20 34
REMARK SMILES IDX 25 35 34 36 35 37 36 38 37 39 38 40 39 41 40 43 41 44 42 45
REMARK SMILES IDX 103 46 43 47 102 48 44 49 45 50 46 51 96 52 47 53 101 54
REMARK SMILES IDX 95 55 97 56 48 57 100 58 94 59 93 60 49 62 81 63 61 64 80 65
REMARK SMILES IDX 62 66 65 67 79 68 98 69 63 70 64 71 78 73 99 74 66 75 50 76
REMARK SMILES IDX 51 77 59 78 52 79 53 80 57 81 60 82 54 83 55 84 58 85 56 86
REMARK SMILES IDX 82 87 83 88 91 89 84 90 85 91 89 92 92 93 86 94 87 95 90 96
REMARK SMILES IDX 88 97 67 98 68 99 76 100 69 101 70 102 74 103 77 104 71 105
REMARK SMILES IDX 72 106 75 107 73 108
REMARK H PARENT 31 6 11 19 38 42 97 61 65 72
REMARK Flexibility Score: inf
ROOT
ATOM      1  C   UNL A   1      32.908  29.373  25.173  1.00  0.00     0.021 C 
ENDROOT
BRANCH   1   2
ATOM      2  C   UNL A   1      33.199  28.462  26.351  1.00  0.00     0.116 C 
BRANCH   2   3
ATOM      3  N   UNL A   1      33.918  27.275  25.921  1.00  0.00    -0.354 N 
ATOM      4  C   UNL A   1      33.447  26.028  25.616  1.00  0.00     0.243 C 
ATOM      5  O   UNL A   1      34.242  25.189  25.189  1.00  0.00    -0.273 OA
ATOM      6  H   UNL A   1      34.893  27.385  25.836  1.00  0.00     0.163 HD
BRANCH   4   7
ATOM      7  C   UNL A   1      31.964  25.680  25.859  1.00  0.00     0.179 C 
BRANCH   7   8
ATOM      8  C   UNL A   1      31.290  25.424  24.476  1.00  0.00     0.072 C 
BRANCH   8   9
ATOM      9  C   UNL A   1      30.745  26.626  23.723  1.00  0.00    -0.028 A 
ATOM     10  C   UNL A   1      31.466  27.245  22.683  1.00  0.00     0.055 A 
ATOM     11  C   UNL A   1      30.932  28.367  22.030  1.00  0.00     0.020 A 
ATOM     12  C   UNL A   1      29.679  28.865  22.382  1.00  0.00     0.001 A 
ATOM     13  C   UNL A   1      29.439  27.084  23.985  1.00  0.00     0.005 A 
ATOM     14  C   UNL A   1      28.925  28.213  23.349  1.00  0.00     0.000 A 
BRANCH  10  15
ATOM     15  C   UNL A   1      32.717  26.719  22.206  1.00  0.00     0.099 C 
ATOM     16  N   UNL A   1      33.716  26.262  21.843  1.00  0.00    -0.192 NA
ENDBRANCH  10  15
ENDBRANCH   8   9
ENDBRANCH   7   8
BRANCH   7  17
ATOM     17  N   UNL A   1      31.735  24.626  26.854  1.00  0.00    -0.309 N 
ATOM     18  C   UNL A   1      31.321  23.348  26.647  1.00  0.00     0.407 C 
ATOM     19  H   UNL A   1      31.903  24.876  27.791  1.00  0.00     0.167 HD
ATOM     20  O   UNL A   1      30.520  22.822  27.406  1.00  0.00    -0.225 OA
BRANCH  18  21
ATOM     21  O   UNL A   1      31.927  22.759  25.588  1.00  0.00    -0.449 OA
BRANCH  21  22
ATOM     22  C   UNL A   1      33.001  21.844  25.879  1.00  0.00     0.248 C 
BRANCH  22  23
ATOM     23  C   UNL A   1      33.688  21.349  24.595  1.00  0.00     0.088 C 
ATOM     24  C   UNL A   1      35.200  21.541  24.660  1.00  0.00    -0.029 A 
ATOM     25  C   UNL A   1      33.585  19.830  24.493  1.00  0.00    -0.029 A 
ATOM     26  C   UNL A   1      35.917  22.729  24.650  1.00  0.00     0.005 A 
ATOM     27  C   UNL A   1      35.842  20.298  24.817  1.00  0.00    -0.014 A 
ATOM     28  C   UNL A   1      34.862  19.246  24.646  1.00  0.00    -0.014 A 
ATOM     29  C   UNL A   1      32.456  19.052  24.281  1.00  0.00     0.005 A 
ATOM     30  C   UNL A   1      37.273  22.679  24.964  1.00  0.00     0.000 A 
ATOM     31  C   UNL A   1      37.195  20.246  25.105  1.00  0.00     0.009 A 
ATOM     32  C   UNL A   1      35.022  17.873  24.565  1.00  0.00     0.009 A 
ATOM     33  C   UNL A   1      32.619  17.668  24.203  1.00  0.00     0.000 A 
ATOM     34  C   UNL A   1      37.902  21.451  25.213  1.00  0.00     0.001 A 
ATOM     35  C   UNL A   1      33.890  17.084  24.339  1.00  0.00     0.001 A 
ENDBRANCH  22  23
ENDBRANCH  21  22
ENDBRANCH  18  21
ENDBRANCH   7  17
ENDBRANCH   4   7
ENDBRANCH   2   3
ENDBRANCH   1   2
BRANCH   1  36
ATOM     36  C   UNL A   1      31.563  30.089  25.328  1.00  0.00     0.002 C 
BRANCH  36  37
ATOM     37  C   UNL A   1      31.366  30.769  26.690  1.00  0.00     0.002 C 
BRANCH  37  38
ATOM     38  C   UNL A   1      31.367  32.298  26.638  1.00  0.00     0.021 C 
BRANCH  38  39
ATOM     39  C   UNL A   1      32.706  32.918  27.013  1.00  0.00     0.116 C 
BRANCH  39  40
ATOM     40  N   UNL A   1      32.534  34.201  27.674  1.00  0.00    -0.352 N 
ATOM     41  C   UNL A   1      33.141  34.677  28.803  1.00  0.00     0.251 C 
ATOM     42  H   UNL A   1      31.889  34.812  27.249  1.00  0.00     0.163 HD
ATOM     43  O   UNL A   1      32.714  35.681  29.363  1.00  0.00    -0.269 OA
BRANCH  41  44
ATOM     44  C   UNL A   1      34.310  33.962  29.346  1.00  0.00     0.039 A 
ATOM     45  C   UNL A   1      35.587  34.369  28.959  1.00  0.00     0.014 A 
ATOM     46  C   UNL A   1      34.144  32.893  30.230  1.00  0.00     0.014 A 
ATOM     47  C   UNL A   1      36.700  33.720  29.487  1.00  0.00     0.010 A 
ATOM     48  C   UNL A   1      35.254  32.313  30.830  1.00  0.00     0.010 A 
ATOM     49  C   UNL A   1      36.544  32.704  30.445  1.00  0.00    -0.014 A 
BRANCH  49  50
ATOM     50  C   UNL A   1      37.724  32.020  31.027  1.00  0.00     0.031 A 
ATOM     51  C   UNL A   1      38.196  32.379  32.409  1.00  0.00     0.074 A 
ATOM     52  C   UNL A   1      38.385  31.100  30.300  1.00  0.00     0.049 A 
ATOM     53  N   UNL A   1      39.212  31.904  33.086  1.00  0.00    -0.248 NA
ATOM     54  C   UNL A   1      37.447  33.431  33.115  1.00  0.00     0.031 C 
ATOM     55  C   UNL A   1      38.048  30.702  28.933  1.00  0.00     0.029 A 
ATOM     56  N   UNL A   1      39.476  30.329  30.612  1.00  0.00    -0.354 N 
ATOM     57  C   UNL A   1      39.223  32.601  34.287  1.00  0.00     0.074 A 
ATOM     58  C   UNL A   1      38.162  33.582  34.217  1.00  0.00     0.031 C 
ATOM     59  C   UNL A   1      38.889  29.734  28.538  1.00  0.00     0.029 A 
ATOM     60  C   UNL A   1      39.852  29.476  29.604  1.00  0.00     0.049 A 
ATOM     61  H   UNL A   1      39.945  30.383  31.476  1.00  0.00     0.167 HD
ATOM     62  C   UNL A   1      40.025  32.420  35.363  1.00  0.00     0.037 A 
ATOM     63  C   UNL A   1      40.863  28.590  29.546  1.00  0.00     0.037 A 
ATOM     64  C   UNL A   1      41.073  31.435  35.426  1.00  0.00     0.049 A 
ATOM     65  C   UNL A   1      41.762  28.430  30.745  1.00  0.00     0.074 A 
ATOM     66  C   UNL A   1      41.915  31.138  36.482  1.00  0.00     0.029 A 
ATOM     67  N   UNL A   1      41.431  30.594  34.382  1.00  0.00    -0.354 N 
ATOM     68  N   UNL A   1      41.720  29.044  31.902  1.00  0.00    -0.248 NA
ATOM     69  C   UNL A   1      42.843  27.442  30.629  1.00  0.00     0.031 C 
ATOM     70  C   UNL A   1      42.828  30.169  36.056  1.00  0.00     0.029 A 
ATOM     71  C   UNL A   1      42.502  29.800  34.760  1.00  0.00     0.049 A 
ATOM     72  H   UNL A   1      40.989  30.564  33.504  1.00  0.00     0.167 HD
ATOM     73  C   UNL A   1      42.741  28.493  32.665  1.00  0.00     0.074 A 
ATOM     74  C   UNL A   1      43.372  27.482  31.842  1.00  0.00     0.031 C 
ATOM     75  C   UNL A   1      43.119  28.792  33.932  1.00  0.00     0.037 A 
BRANCH  62  76
ATOM     76  C   UNL A   1      39.803  33.310  36.554  1.00  0.00     0.064 A 
ATOM     77  C   UNL A   1      38.887  32.980  37.566  1.00  0.00     0.173 A 
ATOM     78  C   UNL A   1      40.532  34.500  36.698  1.00  0.00     0.173 A 
ATOM     79  F   UNL A   1      38.154  31.859  37.476  1.00  0.00    -0.203 F 
ATOM     80  C   UNL A   1      38.681  33.824  38.654  1.00  0.00     0.198 A 
ATOM     81  C   UNL A   1      40.354  35.322  37.808  1.00  0.00     0.198 A 
ATOM     82  F   UNL A   1      41.424  34.865  35.766  1.00  0.00    -0.203 F 
ATOM     83  F   UNL A   1      37.754  33.518  39.573  1.00  0.00    -0.200 F 
ATOM     84  C   UNL A   1      39.421  34.991  38.778  1.00  0.00     0.200 A 
ATOM     85  F   UNL A   1      41.082  36.440  37.935  1.00  0.00    -0.200 F 
ATOM     86  F   UNL A   1      39.228  35.800  39.829  1.00  0.00    -0.200 F 
ENDBRANCH  62  76
BRANCH  63  87
ATOM     87  C   UNL A   1      41.067  27.770  28.323  1.00  0.00     0.064 A 
ATOM     88  C   UNL A   1      40.405  26.546  28.154  1.00  0.00     0.173 A 
ATOM     89  C   UNL A   1      41.937  28.185  27.304  1.00  0.00     0.173 A 
ATOM     90  F   UNL A   1      39.575  26.096  29.107  1.00  0.00    -0.203 F 
ATOM     91  C   UNL A   1      40.627  25.754  27.028  1.00  0.00     0.198 A 
ATOM     92  C   UNL A   1      42.131  27.410  26.162  1.00  0.00     0.198 A 
ATOM     93  F   UNL A   1      42.591  29.351  27.411  1.00  0.00    -0.203 F 
ATOM     94  F   UNL A   1      40.027  24.562  26.922  1.00  0.00    -0.200 F 
ATOM     95  C   UNL A   1      41.486  26.190  26.031  1.00  0.00     0.200 A 
ATOM     96  F   UNL A   1      42.948  27.844  25.192  1.00  0.00    -0.200 F 
ATOM     97  F   UNL A   1      41.699  25.430  24.949  1.00  0.00    -0.200 F 
ENDBRANCH  63  87
BRANCH  75  98
ATOM     98  C   UNL A   1      44.235  27.980  34.530  1.00  0.00     0.064 A 
ATOM     99  C   UNL A   1      45.575  28.392  34.465  1.00  0.00     0.173 A 
ATOM    100  C   UNL A   1      43.953  26.779  35.201  1.00  0.00     0.173 A 
ATOM    101  F   UNL A   1      45.903  29.526  33.828  1.00  0.00    -0.203 F 
ATOM    102  C   UNL A   1      46.592  27.611  35.009  1.00  0.00     0.198 A 
ATOM    103  C   UNL A   1      44.967  26.023  35.781  1.00  0.00     0.198 A 
ATOM    104  F   UNL A   1      42.689  26.342  35.303  1.00  0.00    -0.203 F 
ATOM    105  F   UNL A   1      47.870  27.991  34.873  1.00  0.00    -0.200 F 
ATOM    106  C   UNL A   1      46.286  26.432  35.673  1.00  0.00     0.200 A 
ATOM    107  F   UNL A   1      44.667  24.896  36.440  1.00  0.00    -0.200 F 
ATOM    108  F   UNL A   1      47.266  25.686  36.200  1.00  0.00    -0.200 F 
ENDBRANCH  75  98
ENDBRANCH  49  50
ENDBRANCH  41  44
ENDBRANCH  39  40
ENDBRANCH  38  39
ENDBRANCH  37  38
ENDBRANCH  36  37
ENDBRANCH   1  36
TORSDOF 20
ENDMDL
