MODEL 1
REMARK VINA RESULT:     -12.9      0.000      0.000
REMARK SMILES CC(C)CCc1cc2c(cc1Cl)C=C(C(=O)NCCCCCCNC(=O)c1ccc(-c3c4nc(c(-c5c(F)c(F)c(F)c(F)c5F)c5ccc([nH]5)c(-c5c(F)c(F)c(F)c(F)c5F)c5nc(c(-c6c(F)c(F)c(F)c(F)c6F)c6ccc3[nH]6)C=C5)C=C4)cc1)[C@H](C(F)(F)F)O2
REMARK SMILES IDX 20 1 19 2 18 3 17 4 15 5 16 6 14 8 6 9 7 10 11 11 8 12 10 13
REMARK SMILES IDX 12 14 9 15 95 16 13 17 90 18 5 19 4 20 2 21 1 22 3 23 91 24
REMARK SMILES IDX 92 25 93 26 94 27 21 28 22 29 23 30 24 31 25 32 26 34 27 35
REMARK SMILES IDX 28 36 89 37 29 38 88 39 30 40 31 41 32 42 82 43 33 44 87 45
REMARK SMILES IDX 81 46 83 47 34 48 86 49 80 50 79 51 35 53 67 54 47 55 66 56
REMARK SMILES IDX 48 57 51 58 65 59 84 60 49 61 50 62 64 64 85 65 52 66 36 67
REMARK SMILES IDX 37 68 45 69 38 70 39 71 43 72 46 73 40 74 41 75 44 76 42 77
REMARK SMILES IDX 68 78 69 79 77 80 70 81 71 82 75 83 78 84 72 85 73 86 76 87
REMARK SMILES IDX 74 88 53 89 54 90 62 91 55 92 56 93 60 94 63 95 57 96 58 97
REMARK SMILES IDX 61 98 59 99
REMARK H PARENT 17 7 24 33 83 52 51 63
REMARK Flexibility Score: inf
ROOT
ATOM      1  C   UNL A   1      32.457  29.786  27.251  1.00  0.00     0.002 C 
ENDROOT
BRANCH   1   2
ATOM      2  C   UNL A   1      33.947  29.593  26.960  1.00  0.00     0.021 C 
BRANCH   2   3
ATOM      3  C   UNL A   1      34.285  28.278  26.259  1.00  0.00     0.116 C 
BRANCH   3   4
ATOM      4  N   UNL A   1      34.018  28.341  24.833  1.00  0.00    -0.352 N 
ATOM      5  C   UNL A   1      33.505  27.534  23.874  1.00  0.00     0.251 C 
ATOM      6  O   UNL A   1      33.414  28.047  22.754  1.00  0.00    -0.270 OA
ATOM      7  H   UNL A   1      34.284  29.212  24.460  1.00  0.00     0.163 HD
BRANCH   5   8
ATOM      8  C   UNL A   1      33.062  26.121  24.072  1.00  0.00     0.067 C 
ATOM      9  C   UNL A   1      32.937  21.095  24.695  1.00  0.00    -0.026 A 
ATOM     10  C   UNL A   1      31.985  22.110  24.547  1.00  0.00     0.052 A 
ATOM     11  C   UNL A   1      34.290  21.482  24.741  1.00  0.00     0.045 A 
ATOM     12  C   UNL A   1      32.363  23.435  24.354  1.00  0.00     0.128 A 
ATOM     13  C   UNL A   1      34.669  22.825  24.579  1.00  0.00     0.032 A 
ATOM     14  Cl  UNL A   1      35.553  20.328  24.997  1.00  0.00    -0.084 Cl
ATOM     15  C   UNL A   1      33.700  23.808  24.368  1.00  0.00     0.019 A 
ATOM     16  O   UNL A   1      31.343  24.299  24.095  1.00  0.00    -0.475 OA
ATOM     17  C   UNL A   1      34.047  25.204  24.134  1.00  0.00     0.025 C 
ATOM     18  C   UNL A   1      31.628  25.709  24.255  1.00  0.00     0.314 C 
BRANCH   9  19
ATOM     19  C   UNL A   1      32.518  19.643  24.818  1.00  0.00     0.037 C 
BRANCH  19  20
ATOM     20  C   UNL A   1      32.616  18.758  23.557  1.00  0.00     0.008 C 
BRANCH  20  21
ATOM     21  C   UNL A   1      32.896  17.259  23.809  1.00  0.00    -0.017 C 
ATOM     22  C   UNL A   1      34.189  16.789  23.145  1.00  0.00     0.007 C 
ATOM     23  C   UNL A   1      32.943  16.986  25.315  1.00  0.00     0.007 C 
ENDBRANCH  20  21
ENDBRANCH  19  20
ENDBRANCH   9  19
BRANCH  18  24
ATOM     24  C   UNL A   1      31.007  26.186  25.577  1.00  0.00     0.429 C 
ATOM     25  F   UNL A   1      29.870  25.529  25.897  1.00  0.00    -0.167 F 
ATOM     26  F   UNL A   1      31.875  25.983  26.602  1.00  0.00    -0.167 F 
ATOM     27  F   UNL A   1      30.705  27.504  25.565  1.00  0.00    -0.167 F 
ENDBRANCH  18  24
ENDBRANCH   5   8
ENDBRANCH   3   4
ENDBRANCH   2   3
ENDBRANCH   1   2
BRANCH   1  28
ATOM     28  C   UNL A   1      31.701  30.680  26.261  1.00  0.00     0.002 C 
BRANCH  28  29
ATOM     29  C   UNL A   1      31.455  32.117  26.726  1.00  0.00     0.021 C 
BRANCH  29  30
ATOM     30  C   UNL A   1      32.667  32.812  27.336  1.00  0.00     0.116 C 
BRANCH  30  31
ATOM     31  N   UNL A   1      32.418  34.215  27.626  1.00  0.00    -0.352 N 
ATOM     32  C   UNL A   1      32.977  35.020  28.588  1.00  0.00     0.251 C 
ATOM     33  H   UNL A   1      31.750  34.651  27.049  1.00  0.00     0.163 HD
ATOM     34  O   UNL A   1      32.528  36.142  28.799  1.00  0.00    -0.269 OA
BRANCH  32  35
ATOM     35  C   UNL A   1      34.106  34.514  29.397  1.00  0.00     0.039 A 
ATOM     36  C   UNL A   1      35.408  34.534  28.894  1.00  0.00     0.014 A 
ATOM     37  C   UNL A   1      33.849  33.992  30.668  1.00  0.00     0.014 A 
ATOM     38  C   UNL A   1      36.424  33.888  29.591  1.00  0.00     0.010 A 
ATOM     39  C   UNL A   1      34.887  33.410  31.400  1.00  0.00     0.010 A 
ATOM     40  C   UNL A   1      36.173  33.310  30.846  1.00  0.00    -0.014 A 
BRANCH  40  41
ATOM     41  C   UNL A   1      37.261  32.586  31.551  1.00  0.00     0.031 A 
ATOM     42  C   UNL A   1      37.988  31.454  30.877  1.00  0.00     0.074 A 
ATOM     43  C   UNL A   1      37.631  32.985  32.782  1.00  0.00     0.049 A 
ATOM     44  N   UNL A   1      38.964  30.711  31.334  1.00  0.00    -0.248 NA
ATOM     45  C   UNL A   1      37.563  31.108  29.512  1.00  0.00     0.031 C 
ATOM     46  C   UNL A   1      37.012  34.079  33.531  1.00  0.00     0.029 A 
ATOM     47  N   UNL A   1      38.626  32.534  33.610  1.00  0.00    -0.354 N 
ATOM     48  C   UNL A   1      39.256  29.802  30.326  1.00  0.00     0.074 A 
ATOM     49  C   UNL A   1      38.337  30.066  29.241  1.00  0.00     0.031 C 
ATOM     50  C   UNL A   1      37.672  34.248  34.687  1.00  0.00     0.029 A 
ATOM     51  C   UNL A   1      38.720  33.237  34.786  1.00  0.00     0.049 A 
ATOM     52  H   UNL A   1      39.215  31.779  33.384  1.00  0.00     0.167 HD
ATOM     53  C   UNL A   1      40.212  28.843  30.303  1.00  0.00     0.037 A 
ATOM     54  C   UNL A   1      39.550  33.078  35.834  1.00  0.00     0.037 A 
ATOM     55  C   UNL A   1      41.145  28.600  31.373  1.00  0.00     0.049 A 
ATOM     56  C   UNL A   1      40.574  31.979  35.800  1.00  0.00     0.074 A 
ATOM     57  C   UNL A   1      42.169  27.671  31.430  1.00  0.00     0.029 A 
ATOM     58  N   UNL A   1      41.166  29.292  32.575  1.00  0.00    -0.354 N 
ATOM     59  N   UNL A   1      40.840  31.128  34.841  1.00  0.00    -0.248 NA
ATOM     60  C   UNL A   1      41.404  31.811  37.002  1.00  0.00     0.031 C 
ATOM     61  C   UNL A   1      42.785  27.775  32.680  1.00  0.00     0.029 A 
ATOM     62  C   UNL A   1      42.172  28.795  33.388  1.00  0.00     0.049 A 
ATOM     63  H   UNL A   1      40.557  30.028  32.815  1.00  0.00     0.167 HD
ATOM     64  C   UNL A   1      41.866  30.326  35.317  1.00  0.00     0.074 A 
ATOM     65  C   UNL A   1      42.193  30.807  36.644  1.00  0.00     0.031 C 
ATOM     66  C   UNL A   1      42.476  29.278  34.711  1.00  0.00     0.037 A 
BRANCH  53  67
ATOM     67  C   UNL A   1      40.302  27.974  29.083  1.00  0.00     0.064 A 
ATOM     68  C   UNL A   1      39.613  26.756  28.996  1.00  0.00     0.173 A 
ATOM     69  C   UNL A   1      41.040  28.393  27.966  1.00  0.00     0.173 A 
ATOM     70  F   UNL A   1      38.903  26.306  30.042  1.00  0.00    -0.203 F 
ATOM     71  C   UNL A   1      39.672  25.981  27.840  1.00  0.00     0.198 A 
ATOM     72  C   UNL A   1      41.077  27.627  26.803  1.00  0.00     0.198 A 
ATOM     73  F   UNL A   1      41.714  29.553  27.996  1.00  0.00    -0.203 F 
ATOM     74  F   UNL A   1      39.032  24.804  27.791  1.00  0.00    -0.200 F 
ATOM     75  C   UNL A   1      40.397  26.421  26.742  1.00  0.00     0.200 A 
ATOM     76  F   UNL A   1      41.771  28.059  25.739  1.00  0.00    -0.200 F 
ATOM     77  F   UNL A   1      40.444  25.678  25.628  1.00  0.00    -0.200 F 
ENDBRANCH  53  67
BRANCH  54  78
ATOM     78  C   UNL A   1      39.439  33.993  36.998  1.00  0.00     0.064 A 
ATOM     79  C   UNL A   1      38.705  33.626  38.132  1.00  0.00     0.173 A 
ATOM     80  C   UNL A   1      40.098  35.231  37.015  1.00  0.00     0.173 A 
ATOM     81  F   UNL A   1      38.042  32.460  38.153  1.00  0.00    -0.203 F 
ATOM     82  C   UNL A   1      38.633  34.464  39.242  1.00  0.00     0.198 A 
ATOM     83  C   UNL A   1      40.046  36.057  38.135  1.00  0.00     0.198 A 
ATOM     84  F   UNL A   1      40.815  35.625  35.952  1.00  0.00    -0.203 F 
ATOM     85  F   UNL A   1      37.905  34.101  40.307  1.00  0.00    -0.200 F 
ATOM     86  C   UNL A   1      39.311  35.674  39.247  1.00  0.00     0.200 A 
ATOM     87  F   UNL A   1      40.715  37.217  38.140  1.00  0.00    -0.200 F 
ATOM     88  F   UNL A   1      39.256  36.472  40.321  1.00  0.00    -0.200 F 
ENDBRANCH  54  78
BRANCH  66  89
ATOM     89  C   UNL A   1      43.556  28.575  35.477  1.00  0.00     0.064 A 
ATOM     90  C   UNL A   1      43.255  27.539  36.373  1.00  0.00     0.173 A 
ATOM     91  C   UNL A   1      44.905  28.898  35.270  1.00  0.00     0.173 A 
ATOM     92  F   UNL A   1      41.980  27.204  36.615  1.00  0.00    -0.203 F 
ATOM     93  C   UNL A   1      44.268  26.860  37.047  1.00  0.00     0.198 A 
ATOM     94  C   UNL A   1      45.916  28.200  35.926  1.00  0.00     0.198 A 
ATOM     95  F   UNL A   1      45.244  29.877  34.418  1.00  0.00    -0.203 F 
ATOM     96  F   UNL A   1      43.957  25.896  37.924  1.00  0.00    -0.200 F 
ATOM     97  C   UNL A   1      45.597  27.186  36.816  1.00  0.00     0.200 A 
ATOM     98  F   UNL A   1      47.200  28.507  35.693  1.00  0.00    -0.200 F 
ATOM     99  F   UNL A   1      46.570  26.524  37.456  1.00  0.00    -0.200 F 
ENDBRANCH  66  89
ENDBRANCH  40  41
ENDBRANCH  32  35
ENDBRANCH  30  31
ENDBRANCH  29  30
ENDBRANCH  28  29
ENDBRANCH   1  28
TORSDOF 17
ENDMDL
MODEL 2
REMARK VINA RESULT:     -12.8      0.728      7.120
REMARK SMILES CC(C)CCc1cc2c(cc1Cl)C=C(C(=O)NCCCCCCNC(=O)c1ccc(-c3c4nc(c(-c5c(F)c(F)c(F)c(F)c5F)c5ccc([nH]5)c(-c5c(F)c(F)c(F)c(F)c5F)c5nc(c(-c6c(F)c(F)c(F)c(F)c6F)c6ccc3[nH]6)C=C5)C=C4)cc1)[C@H](C(F)(F)F)O2
REMARK SMILES IDX 20 1 19 2 18 3 17 4 15 5 16 6 14 8 6 9 7 10 11 11 8 12 10 13
REMARK SMILES IDX 12 14 9 15 95 16 13 17 90 18 5 19 4 20 2 21 1 22 3 23 91 24
REMARK SMILES IDX 92 25 93 26 94 27 21 28 22 29 23 30 24 31 25 32 26 34 27 35
REMARK SMILES IDX 28 36 89 37 29 38 88 39 30 40 31 41 32 42 82 43 33 44 87 45
REMARK SMILES IDX 81 46 83 47 34 48 86 49 80 50 79 51 35 53 67 54 47 55 66 56
REMARK SMILES IDX 48 57 51 58 65 59 84 60 49 61 50 62 64 64 85 65 52 66 36 67
REMARK SMILES IDX 37 68 45 69 38 70 39 71 43 72 46 73 40 74 41 75 44 76 42 77
REMARK SMILES IDX 68 78 69 79 77 80 70 81 71 82 75 83 78 84 72 85 73 86 76 87
REMARK SMILES IDX 74 88 53 89 54 90 62 91 55 92 56 93 60 94 63 95 57 96 58 97
REMARK SMILES IDX 61 98 59 99
REMARK H PARENT 17 7 24 33 83 52 51 63
REMARK Flexibility Score: inf
ROOT
ATOM      1  C   UNL A   1      32.067  29.705  27.309  1.00  0.00     0.002 C 
ENDROOT
BRANCH   1   2
ATOM      2  C   UNL A   1      32.727  28.401  26.854  1.00  0.00     0.021 C 
BRANCH   2   3
ATOM      3  C   UNL A   1      34.087  28.586  26.181  1.00  0.00     0.116 C 
BRANCH   3   4
ATOM      4  N   UNL A   1      33.952  28.936  24.778  1.00  0.00    -0.352 N 
ATOM      5  C   UNL A   1      33.542  28.340  23.633  1.00  0.00     0.251 C 
ATOM      6  O   UNL A   1      33.547  29.068  22.635  1.00  0.00    -0.270 OA
ATOM      7  H   UNL A   1      34.239  29.863  24.613  1.00  0.00     0.163 HD
BRANCH   5   8
ATOM      8  C   UNL A   1      33.102  26.918  23.502  1.00  0.00     0.067 C 
ATOM      9  C   UNL A   1      32.918  21.856  23.498  1.00  0.00    -0.026 A 
ATOM     10  C   UNL A   1      32.056  22.890  23.115  1.00  0.00     0.052 A 
ATOM     11  C   UNL A   1      34.145  22.223  24.083  1.00  0.00     0.045 A 
ATOM     12  C   UNL A   1      32.435  24.224  23.218  1.00  0.00     0.128 A 
ATOM     13  C   UNL A   1      34.513  23.572  24.217  1.00  0.00     0.032 A 
ATOM     14  Cl  UNL A   1      35.260  21.036  24.666  1.00  0.00    -0.084 Cl
ATOM     15  C   UNL A   1      33.660  24.581  23.766  1.00  0.00     0.019 A 
ATOM     16  O   UNL A   1      31.557  25.121  22.692  1.00  0.00    -0.475 OA
ATOM     17  C   UNL A   1      34.024  25.991  23.828  1.00  0.00     0.025 C 
ATOM     18  C   UNL A   1      31.716  26.502  23.095  1.00  0.00     0.314 C 
BRANCH   9  19
ATOM     19  C   UNL A   1      32.530  20.403  23.302  1.00  0.00     0.037 C 
BRANCH  19  20
ATOM     20  C   UNL A   1      32.366  19.527  24.562  1.00  0.00     0.008 C 
BRANCH  20  21
ATOM     21  C   UNL A   1      33.098  18.166  24.533  1.00  0.00    -0.017 C 
ATOM     22  C   UNL A   1      32.549  17.189  25.571  1.00  0.00     0.007 C 
ATOM     23  C   UNL A   1      33.008  17.557  23.131  1.00  0.00     0.007 C 
ENDBRANCH  20  21
ENDBRANCH  19  20
ENDBRANCH   9  19
BRANCH  18  24
ATOM     24  C   UNL A   1      30.635  26.836  24.134  1.00  0.00     0.429 C 
ATOM     25  F   UNL A   1      29.433  26.295  23.842  1.00  0.00    -0.167 F 
ATOM     26  F   UNL A   1      30.994  26.355  25.353  1.00  0.00    -0.167 F 
ATOM     27  F   UNL A   1      30.440  28.168  24.273  1.00  0.00    -0.167 F 
ENDBRANCH  18  24
ENDBRANCH   5   8
ENDBRANCH   3   4
ENDBRANCH   2   3
ENDBRANCH   1   2
BRANCH   1  28
ATOM     28  C   UNL A   1      31.634  30.653  26.184  1.00  0.00     0.002 C 
BRANCH  28  29
ATOM     29  C   UNL A   1      31.409  32.108  26.599  1.00  0.00     0.021 C 
BRANCH  29  30
ATOM     30  C   UNL A   1      32.596  32.771  27.288  1.00  0.00     0.116 C 
BRANCH  30  31
ATOM     31  N   UNL A   1      32.346  34.167  27.608  1.00  0.00    -0.352 N 
ATOM     32  C   UNL A   1      32.949  34.969  28.547  1.00  0.00     0.251 C 
ATOM     33  H   UNL A   1      31.642  34.602  27.075  1.00  0.00     0.163 HD
ATOM     34  O   UNL A   1      32.499  36.083  28.795  1.00  0.00    -0.269 OA
BRANCH  32  35
ATOM     35  C   UNL A   1      34.127  34.469  29.286  1.00  0.00     0.039 A 
ATOM     36  C   UNL A   1      35.408  34.576  28.740  1.00  0.00     0.014 A 
ATOM     37  C   UNL A   1      33.940  33.864  30.532  1.00  0.00     0.014 A 
ATOM     38  C   UNL A   1      36.476  33.937  29.363  1.00  0.00     0.010 A 
ATOM     39  C   UNL A   1      35.028  33.289  31.193  1.00  0.00     0.010 A 
ATOM     40  C   UNL A   1      36.296  33.278  30.590  1.00  0.00    -0.014 A 
BRANCH  40  41
ATOM     41  C   UNL A   1      37.440  32.564  31.213  1.00  0.00     0.031 A 
ATOM     42  C   UNL A   1      37.885  32.906  32.609  1.00  0.00     0.074 A 
ATOM     43  C   UNL A   1      38.044  31.569  30.538  1.00  0.00     0.049 A 
ATOM     44  N   UNL A   1      38.858  32.388  33.316  1.00  0.00    -0.248 NA
ATOM     45  C   UNL A   1      37.144  33.971  33.303  1.00  0.00     0.031 C 
ATOM     46  C   UNL A   1      37.691  31.136  29.186  1.00  0.00     0.029 A 
ATOM     47  N   UNL A   1      39.064  30.728  30.903  1.00  0.00    -0.354 N 
ATOM     48  C   UNL A   1      38.858  33.073  34.524  1.00  0.00     0.074 A 
ATOM     49  C   UNL A   1      37.806  34.063  34.448  1.00  0.00     0.031 C 
ATOM     50  C   UNL A   1      38.447  30.079  28.853  1.00  0.00     0.029 A 
ATOM     51  C   UNL A   1      39.376  29.798  29.943  1.00  0.00     0.049 A 
ATOM     52  H   UNL A   1      39.527  30.786  31.770  1.00  0.00     0.167 HD
ATOM     53  C   UNL A   1      39.654  32.883  35.603  1.00  0.00     0.037 A 
ATOM     54  C   UNL A   1      40.315  28.833  29.935  1.00  0.00     0.037 A 
ATOM     55  C   UNL A   1      40.682  31.878  35.688  1.00  0.00     0.049 A 
ATOM     56  C   UNL A   1      41.213  28.672  31.128  1.00  0.00     0.074 A 
ATOM     57  C   UNL A   1      41.520  31.588  36.750  1.00  0.00     0.029 A 
ATOM     58  N   UNL A   1      41.011  30.996  34.668  1.00  0.00    -0.354 N 
ATOM     59  N   UNL A   1      41.202  29.324  32.264  1.00  0.00    -0.248 NA
ATOM     60  C   UNL A   1      42.264  27.648  31.032  1.00  0.00     0.031 C 
ATOM     61  C   UNL A   1      42.382  30.559  36.360  1.00  0.00     0.029 A 
ATOM     62  C   UNL A   1      42.055  30.178  35.070  1.00  0.00     0.049 A 
ATOM     63  H   UNL A   1      40.568  30.958  33.789  1.00  0.00     0.167 HD
ATOM     64  C   UNL A   1      42.237  28.793  33.019  1.00  0.00     0.074 A 
ATOM     65  C   UNL A   1      42.842  27.745  32.221  1.00  0.00     0.031 C 
ATOM     66  C   UNL A   1      42.653  29.148  34.259  1.00  0.00     0.037 A 
BRANCH  53  67
ATOM     67  C   UNL A   1      39.455  33.783  36.787  1.00  0.00     0.064 A 
ATOM     68  C   UNL A   1      38.688  33.385  37.891  1.00  0.00     0.173 A 
ATOM     69  C   UNL A   1      40.087  35.035  36.842  1.00  0.00     0.173 A 
ATOM     70  F   UNL A   1      38.054  32.203  37.882  1.00  0.00    -0.203 F 
ATOM     71  C   UNL A   1      38.547  34.215  39.001  1.00  0.00     0.198 A 
ATOM     72  C   UNL A   1      39.963  35.851  37.963  1.00  0.00     0.198 A 
ATOM     73  F   UNL A   1      40.836  35.460  35.813  1.00  0.00    -0.203 F 
ATOM     74  F   UNL A   1      37.781  33.828  40.031  1.00  0.00    -0.200 F 
ATOM     75  C   UNL A   1      39.191  35.443  39.040  1.00  0.00     0.200 A 
ATOM     76  F   UNL A   1      40.595  37.033  38.003  1.00  0.00    -0.200 F 
ATOM     77  F   UNL A   1      39.063  36.234  40.113  1.00  0.00    -0.200 F 
ENDBRANCH  53  67
BRANCH  54  78
ATOM     78  C   UNL A   1      40.441  27.947  28.750  1.00  0.00     0.064 A 
ATOM     79  C   UNL A   1      39.754  26.728  28.689  1.00  0.00     0.173 A 
ATOM     80  C   UNL A   1      41.215  28.320  27.642  1.00  0.00     0.173 A 
ATOM     81  F   UNL A   1      39.018  26.321  29.733  1.00  0.00    -0.203 F 
ATOM     82  C   UNL A   1      39.838  25.914  27.562  1.00  0.00     0.198 A 
ATOM     83  C   UNL A   1      41.278  27.518  26.506  1.00  0.00     0.198 A 
ATOM     84  F   UNL A   1      41.890  29.480  27.654  1.00  0.00    -0.203 F 
ATOM     85  F   UNL A   1      39.190  24.741  27.536  1.00  0.00    -0.200 F 
ATOM     86  C   UNL A   1      40.591  26.314  26.467  1.00  0.00     0.200 A 
ATOM     87  F   UNL A   1      41.994  27.916  25.446  1.00  0.00    -0.200 F 
ATOM     88  F   UNL A   1      40.656  25.539  25.377  1.00  0.00    -0.200 F 
ENDBRANCH  54  78
BRANCH  66  89
ATOM     89  C   UNL A   1      43.822  28.404  34.831  1.00  0.00     0.064 A 
ATOM     90  C   UNL A   1      45.125  28.916  34.741  1.00  0.00     0.173 A 
ATOM     91  C   UNL A   1      43.632  27.200  35.526  1.00  0.00     0.173 A 
ATOM     92  F   UNL A   1      45.357  30.055  34.074  1.00  0.00    -0.203 F 
ATOM     93  C   UNL A   1      46.199  28.240  35.315  1.00  0.00     0.198 A 
ATOM     94  C   UNL A   1      44.705  26.541  36.120  1.00  0.00     0.198 A 
ATOM     95  F   UNL A   1      42.404  26.674  35.645  1.00  0.00    -0.203 F 
ATOM     96  F   UNL A   1      47.440  28.730  35.188  1.00  0.00    -0.200 F 
ATOM     97  C   UNL A   1      45.987  27.059  36.010  1.00  0.00     0.200 A 
ATOM     98  F   UNL A   1      44.497  25.407  36.802  1.00  0.00    -0.200 F 
ATOM     99  F   UNL A   1      47.020  26.417  36.572  1.00  0.00    -0.200 F 
ENDBRANCH  66  89
ENDBRANCH  40  41
ENDBRANCH  32  35
ENDBRANCH  30  31
ENDBRANCH  29  30
ENDBRANCH  28  29
ENDBRANCH   1  28
TORSDOF 17
ENDMDL
MODEL 3
REMARK VINA RESULT:     -12.7      0.656      2.041
REMARK SMILES CC(C)CCc1cc2c(cc1Cl)C=C(C(=O)NCCCCCCNC(=O)c1ccc(-c3c4nc(c(-c5c(F)c(F)c(F)c(F)c5F)c5ccc([nH]5)c(-c5c(F)c(F)c(F)c(F)c5F)c5nc(c(-c6c(F)c(F)c(F)c(F)c6F)c6ccc3[nH]6)C=C5)C=C4)cc1)[C@H](C(F)(F)F)O2
REMARK SMILES IDX 20 1 19 2 18 3 17 4 15 5 16 6 14 8 6 9 7 10 11 11 8 12 10 13
REMARK SMILES IDX 12 14 9 15 95 16 13 17 90 18 5 19 4 20 2 21 1 22 3 23 91 24
REMARK SMILES IDX 92 25 93 26 94 27 21 28 22 29 23 30 24 31 25 32 26 34 27 35
REMARK SMILES IDX 28 36 89 37 29 38 88 39 30 40 31 41 32 42 82 43 33 44 87 45
REMARK SMILES IDX 81 46 83 47 34 48 86 49 80 50 79 51 35 53 67 54 47 55 66 56
REMARK SMILES IDX 48 57 51 58 65 59 84 60 49 61 50 62 64 64 85 65 52 66 36 67
REMARK SMILES IDX 37 68 45 69 38 70 39 71 43 72 46 73 40 74 41 75 44 76 42 77
REMARK SMILES IDX 68 78 69 79 77 80 70 81 71 82 75 83 78 84 72 85 73 86 76 87
REMARK SMILES IDX 74 88 53 89 54 90 62 91 55 92 56 93 60 94 63 95 57 96 58 97
REMARK SMILES IDX 61 98 59 99
REMARK H PARENT 17 7 24 33 83 52 51 63
REMARK Flexibility Score: inf
ROOT
ATOM      1  C   UNL A   1      32.132  29.705  27.259  1.00  0.00     0.002 C 
ENDROOT
BRANCH   1   2
ATOM      2  C   UNL A   1      32.746  28.405  26.732  1.00  0.00     0.021 C 
BRANCH   2   3
ATOM      3  C   UNL A   1      34.079  28.588  26.008  1.00  0.00     0.116 C 
BRANCH   3   4
ATOM      4  N   UNL A   1      33.891  28.895  24.601  1.00  0.00    -0.352 N 
ATOM      5  C   UNL A   1      33.440  28.265  23.490  1.00  0.00     0.251 C 
ATOM      6  O   UNL A   1      33.406  28.963  22.471  1.00  0.00    -0.270 OA
ATOM      7  H   UNL A   1      34.169  29.817  24.398  1.00  0.00     0.163 HD
BRANCH   5   8
ATOM      8  C   UNL A   1      32.999  26.839  23.418  1.00  0.00     0.067 C 
ATOM      9  C   UNL A   1      32.826  21.779  23.573  1.00  0.00    -0.026 A 
ATOM     10  C   UNL A   1      31.948  22.800  23.191  1.00  0.00     0.052 A 
ATOM     11  C   UNL A   1      34.074  22.165  24.101  1.00  0.00     0.045 A 
ATOM     12  C   UNL A   1      32.328  24.137  23.240  1.00  0.00     0.128 A 
ATOM     13  C   UNL A   1      34.443  23.518  24.180  1.00  0.00     0.032 A 
ATOM     14  Cl  UNL A   1      35.212  20.997  24.677  1.00  0.00    -0.084 Cl
ATOM     15  C   UNL A   1      33.572  24.512  23.732  1.00  0.00     0.019 A 
ATOM     16  O   UNL A   1      31.429  25.017  22.720  1.00  0.00    -0.475 OA
ATOM     17  C   UNL A   1      33.934  25.923  23.737  1.00  0.00     0.025 C 
ATOM     18  C   UNL A   1      31.600  26.409  23.075  1.00  0.00     0.314 C 
BRANCH   9  19
ATOM     19  C   UNL A   1      32.435  20.320  23.435  1.00  0.00     0.037 C 
BRANCH  19  20
ATOM     20  C   UNL A   1      32.464  19.446  24.706  1.00  0.00     0.008 C 
BRANCH  20  21
ATOM     21  C   UNL A   1      33.128  18.058  24.551  1.00  0.00    -0.017 C 
ATOM     22  C   UNL A   1      32.476  16.999  25.438  1.00  0.00     0.007 C 
ATOM     23  C   UNL A   1      33.084  17.622  23.084  1.00  0.00     0.007 C 
ENDBRANCH  20  21
ENDBRANCH  19  20
ENDBRANCH   9  19
BRANCH  18  24
ATOM     24  C   UNL A   1      30.557  26.773  24.143  1.00  0.00     0.429 C 
ATOM     25  F   UNL A   1      29.347  26.217  23.915  1.00  0.00    -0.167 F 
ATOM     26  F   UNL A   1      30.964  26.334  25.363  1.00  0.00    -0.167 F 
ATOM     27  F   UNL A   1      30.360  28.108  24.245  1.00  0.00    -0.167 F 
ENDBRANCH  18  24
ENDBRANCH   5   8
ENDBRANCH   3   4
ENDBRANCH   2   3
ENDBRANCH   1   2
BRANCH   1  28
ATOM     28  C   UNL A   1      31.666  30.696  26.187  1.00  0.00     0.002 C 
BRANCH  28  29
ATOM     29  C   UNL A   1      31.418  32.125  26.673  1.00  0.00     0.021 C 
BRANCH  29  30
ATOM     30  C   UNL A   1      32.629  32.812  27.295  1.00  0.00     0.116 C 
BRANCH  30  31
ATOM     31  N   UNL A   1      32.378  34.210  27.606  1.00  0.00    -0.352 N 
ATOM     32  C   UNL A   1      32.955  35.009  28.563  1.00  0.00     0.251 C 
ATOM     33  H   UNL A   1      31.694  34.649  27.049  1.00  0.00     0.163 HD
ATOM     34  O   UNL A   1      32.504  36.126  28.795  1.00  0.00    -0.269 OA
BRANCH  32  35
ATOM     35  C   UNL A   1      34.105  34.501  29.340  1.00  0.00     0.039 A 
ATOM     36  C   UNL A   1      35.400  34.568  28.821  1.00  0.00     0.014 A 
ATOM     37  C   UNL A   1      33.876  33.932  30.596  1.00  0.00     0.014 A 
ATOM     38  C   UNL A   1      36.439  33.922  29.483  1.00  0.00     0.010 A 
ATOM     39  C   UNL A   1      34.937  33.349  31.295  1.00  0.00     0.010 A 
ATOM     40  C   UNL A   1      36.217  33.297  30.721  1.00  0.00    -0.014 A 
BRANCH  40  41
ATOM     41  C   UNL A   1      37.331  32.574  31.387  1.00  0.00     0.031 A 
ATOM     42  C   UNL A   1      38.067  31.477  30.670  1.00  0.00     0.074 A 
ATOM     43  C   UNL A   1      37.713  32.946  32.624  1.00  0.00     0.049 A 
ATOM     44  N   UNL A   1      39.065  30.739  31.090  1.00  0.00    -0.248 NA
ATOM     45  C   UNL A   1      37.626  31.161  29.303  1.00  0.00     0.031 C 
ATOM     46  C   UNL A   1      37.086  34.006  33.413  1.00  0.00     0.029 A 
ATOM     47  N   UNL A   1      38.731  32.491  33.422  1.00  0.00    -0.354 N 
ATOM     48  C   UNL A   1      39.357  29.866  30.051  1.00  0.00     0.074 A 
ATOM     49  C   UNL A   1      38.415  30.142  28.989  1.00  0.00     0.031 C 
ATOM     50  C   UNL A   1      37.762  34.154  34.563  1.00  0.00     0.029 A 
ATOM     51  C   UNL A   1      38.831  33.161  34.616  1.00  0.00     0.049 A 
ATOM     52  H   UNL A   1      39.330  31.754  33.165  1.00  0.00     0.167 HD
ATOM     53  C   UNL A   1      40.331  28.926  29.985  1.00  0.00     0.037 A 
ATOM     54  C   UNL A   1      39.681  32.989  35.646  1.00  0.00     0.037 A 
ATOM     55  C   UNL A   1      41.286  28.671  31.033  1.00  0.00     0.049 A 
ATOM     56  C   UNL A   1      40.725  31.912  35.564  1.00  0.00     0.074 A 
ATOM     57  C   UNL A   1      42.328  27.761  31.047  1.00  0.00     0.029 A 
ATOM     58  N   UNL A   1      41.314  29.329  32.254  1.00  0.00    -0.354 N 
ATOM     59  N   UNL A   1      40.991  31.093  34.576  1.00  0.00    -0.248 NA
ATOM     60  C   UNL A   1      41.577  31.726  36.746  1.00  0.00     0.031 C 
ATOM     61  C   UNL A   1      42.963  27.841  32.290  1.00  0.00     0.029 A 
ATOM     62  C   UNL A   1      42.343  28.829  33.036  1.00  0.00     0.049 A 
ATOM     63  H   UNL A   1      40.695  30.046  32.524  1.00  0.00     0.167 HD
ATOM     64  C   UNL A   1      42.040  30.298  35.013  1.00  0.00     0.074 A 
ATOM     65  C   UNL A   1      42.379  30.748  36.347  1.00  0.00     0.031 C 
ATOM     66  C   UNL A   1      42.659  29.280  34.367  1.00  0.00     0.037 A 
BRANCH  53  67
ATOM     67  C   UNL A   1      40.417  28.094  28.740  1.00  0.00     0.064 A 
ATOM     68  C   UNL A   1      41.200  28.488  27.645  1.00  0.00     0.173 A 
ATOM     69  C   UNL A   1      39.756  26.859  28.664  1.00  0.00     0.173 A 
ATOM     70  F   UNL A   1      41.842  29.666  27.664  1.00  0.00    -0.203 F 
ATOM     71  C   UNL A   1      41.304  27.685  26.513  1.00  0.00     0.198 A 
ATOM     72  C   UNL A   1      39.882  26.047  27.539  1.00  0.00     0.198 A 
ATOM     73  F   UNL A   1      38.998  26.433  29.686  1.00  0.00    -0.203 F 
ATOM     74  F   UNL A   1      42.030  28.097  25.465  1.00  0.00    -0.200 F 
ATOM     75  C   UNL A   1      40.652  26.461  26.464  1.00  0.00     0.200 A 
ATOM     76  F   UNL A   1      39.259  24.860  27.499  1.00  0.00    -0.200 F 
ATOM     77  F   UNL A   1      40.762  25.685  25.378  1.00  0.00    -0.200 F 
ENDBRANCH  53  67
BRANCH  54  78
ATOM     78  C   UNL A   1      39.572  33.868  36.837  1.00  0.00     0.064 A 
ATOM     79  C   UNL A   1      40.198  35.121  36.864  1.00  0.00     0.173 A 
ATOM     80  C   UNL A   1      38.809  33.491  37.951  1.00  0.00     0.173 A 
ATOM     81  F   UNL A   1      40.954  35.514  35.830  1.00  0.00    -0.203 F 
ATOM     82  C   UNL A   1      40.064  35.965  37.964  1.00  0.00     0.198 A 
ATOM     83  C   UNL A   1      38.655  34.347  39.039  1.00  0.00     0.198 A 
ATOM     84  F   UNL A   1      38.190  32.301  37.970  1.00  0.00    -0.203 F 
ATOM     85  F   UNL A   1      40.691  37.150  37.977  1.00  0.00    -0.200 F 
ATOM     86  C   UNL A   1      39.285  35.582  39.046  1.00  0.00     0.200 A 
ATOM     87  F   UNL A   1      37.889  33.978  40.075  1.00  0.00    -0.200 F 
ATOM     88  F   UNL A   1      39.142  36.402  40.095  1.00  0.00    -0.200 F 
ENDBRANCH  54  78
BRANCH  66  89
ATOM     89  C   UNL A   1      43.765  28.576  35.095  1.00  0.00     0.064 A 
ATOM     90  C   UNL A   1      45.089  29.035  35.026  1.00  0.00     0.173 A 
ATOM     91  C   UNL A   1      43.491  27.472  35.915  1.00  0.00     0.173 A 
ATOM     92  F   UNL A   1      45.401  30.078  34.244  1.00  0.00    -0.203 F 
ATOM     93  C   UNL A   1      46.102  28.403  35.742  1.00  0.00     0.198 A 
ATOM     94  C   UNL A   1      44.503  26.858  36.649  1.00  0.00     0.198 A 
ATOM     95  F   UNL A   1      42.240  27.000  36.019  1.00  0.00    -0.203 F 
ATOM     96  F   UNL A   1      47.366  28.837  35.635  1.00  0.00    -0.200 F 
ATOM     97  C   UNL A   1      45.807  27.321  36.559  1.00  0.00     0.200 A 
ATOM     98  F   UNL A   1      44.214  25.821  37.447  1.00  0.00    -0.200 F 
ATOM     99  F   UNL A   1      46.781  26.721  37.255  1.00  0.00    -0.200 F 
ENDBRANCH  66  89
ENDBRANCH  40  41
ENDBRANCH  32  35
ENDBRANCH  30  31
ENDBRANCH  29  30
ENDBRANCH  28  29
ENDBRANCH   1  28
TORSDOF 17
ENDMDL
