MODEL 1
REMARK VINA RESULT:     -12.6      0.000      0.000
REMARK SMILES C[C@@H](C(=O)NCCCCCCNC(=O)c1ccc(-c2c3nc(c(-c4c(F)c(F)c(F)c(F)c4F)c4ccc([nH]4)c(-c4c(F)c(F)c(F)c(F)c4F)c4nc(c(-c5c(F)c(F)c(F)c(F)c5F)c5ccc2[nH]5)C=C4)C=C3)cc1)c1cc(C(=O)c2ccccc2)ccc1O
REMARK SMILES IDX 8 1 7 2 6 3 5 4 3 5 4 6 2 8 1 9 78 10 79 11 91 12 80 13
REMARK SMILES IDX 90 14 89 15 92 16 81 18 82 19 83 20 84 21 88 22 85 23 87 24
REMARK SMILES IDX 86 25 9 26 10 27 11 28 12 29 13 30 14 32 15 33 16 34 77 35
REMARK SMILES IDX 17 36 76 37 18 38 19 39 20 40 70 41 21 42 75 43 69 44 71 45
REMARK SMILES IDX 22 46 74 47 68 48 67 49 23 51 55 52 35 53 54 54 36 55 39 56
REMARK SMILES IDX 53 57 72 58 37 59 38 60 52 62 73 63 40 64 24 65 25 66 33 67
REMARK SMILES IDX 26 68 27 69 31 70 34 71 28 72 29 73 32 74 30 75 56 76 57 77
REMARK SMILES IDX 65 78 58 79 59 80 63 81 66 82 60 83 61 84 64 85 62 86 41 87
REMARK SMILES IDX 42 88 50 89 43 90 44 91 48 92 51 93 45 94 46 95 49 96 47 97
REMARK H PARENT 5 7 92 17 12 31 71 50 39 61
REMARK Flexibility Score: inf
ROOT
ATOM      1  C   UNL A   1      32.324  30.025  26.212  1.00  0.00     0.002 C 
ENDROOT
BRANCH   1   2
ATOM      2  C   UNL A   1      31.819  28.798  26.985  1.00  0.00     0.021 C 
BRANCH   2   3
ATOM      3  C   UNL A   1      32.342  27.458  26.461  1.00  0.00     0.116 C 
BRANCH   3   4
ATOM      4  N   UNL A   1      31.371  26.410  26.680  1.00  0.00    -0.356 N 
ATOM      5  C   UNL A   1      30.338  25.978  25.912  1.00  0.00     0.227 C 
ATOM      6  O   UNL A   1      29.610  25.125  26.433  1.00  0.00    -0.274 OA
ATOM      7  H   UNL A   1      31.477  25.928  27.532  1.00  0.00     0.163 HD
BRANCH   5   8
ATOM      8  C   UNL A   1      30.134  26.491  24.474  1.00  0.00     0.109 C 
ATOM      9  C   UNL A   1      28.689  26.427  23.975  1.00  0.00     0.023 C 
BRANCH   8  10
ATOM     10  C   UNL A   1      31.006  25.789  23.426  1.00  0.00     0.007 A 
ATOM     11  C   UNL A   1      31.494  24.500  23.719  1.00  0.00     0.020 A 
ATOM     12  C   UNL A   1      31.466  26.403  22.250  1.00  0.00     0.119 A 
ATOM     13  C   UNL A   1      32.396  23.852  22.859  1.00  0.00     0.023 A 
ATOM     14  C   UNL A   1      32.322  25.751  21.369  1.00  0.00     0.047 A 
ATOM     15  C   UNL A   1      32.768  24.467  21.659  1.00  0.00     0.016 A 
BRANCH  12  16
ATOM     16  O   UNL A   1      31.120  27.675  21.897  1.00  0.00    -0.508 OA
ATOM     17  H   UNL A   1      30.338  28.060  22.241  1.00  0.00     0.293 HD
ENDBRANCH  12  16
BRANCH  13  18
ATOM     18  C   UNL A   1      32.941  22.525  23.262  1.00  0.00     0.193 C 
ATOM     19  O   UNL A   1      32.234  21.524  23.197  1.00  0.00    -0.289 OA
BRANCH  18  20
ATOM     20  C   UNL A   1      34.341  22.391  23.733  1.00  0.00     0.022 A 
ATOM     21  C   UNL A   1      34.624  21.437  24.715  1.00  0.00     0.012 A 
ATOM     22  C   UNL A   1      35.369  23.180  23.203  1.00  0.00     0.012 A 
ATOM     23  C   UNL A   1      35.943  21.230  25.117  1.00  0.00     0.001 A 
ATOM     24  C   UNL A   1      36.688  22.963  23.603  1.00  0.00     0.001 A 
ATOM     25  C   UNL A   1      36.974  21.981  24.552  1.00  0.00     0.000 A 
ENDBRANCH  18  20
ENDBRANCH  13  18
ENDBRANCH   8  10
ENDBRANCH   5   8
ENDBRANCH   3   4
ENDBRANCH   2   3
ENDBRANCH   1   2
BRANCH   1  26
ATOM     26  C   UNL A   1      31.234  30.968  25.695  1.00  0.00     0.002 C 
BRANCH  26  27
ATOM     27  C   UNL A   1      31.128  32.299  26.440  1.00  0.00     0.021 C 
BRANCH  27  28
ATOM     28  C   UNL A   1      32.419  32.748  27.110  1.00  0.00     0.116 C 
BRANCH  28  29
ATOM     29  N   UNL A   1      32.359  34.135  27.540  1.00  0.00    -0.352 N 
ATOM     30  C   UNL A   1      33.089  34.767  28.511  1.00  0.00     0.251 C 
ATOM     31  H   UNL A   1      31.706  34.699  27.066  1.00  0.00     0.163 HD
ATOM     32  O   UNL A   1      32.778  35.900  28.882  1.00  0.00    -0.269 OA
BRANCH  30  33
ATOM     33  C   UNL A   1      34.244  34.085  29.131  1.00  0.00     0.039 A 
ATOM     34  C   UNL A   1      35.535  34.467  28.760  1.00  0.00     0.014 A 
ATOM     35  C   UNL A   1      34.055  33.054  30.057  1.00  0.00     0.014 A 
ATOM     36  C   UNL A   1      36.637  33.836  29.340  1.00  0.00     0.010 A 
ATOM     37  C   UNL A   1      35.152  32.486  30.695  1.00  0.00     0.010 A 
ATOM     38  C   UNL A   1      36.455  32.850  30.324  1.00  0.00    -0.014 A 
BRANCH  38  39
ATOM     39  C   UNL A   1      37.613  32.147  30.929  1.00  0.00     0.031 A 
ATOM     40  C   UNL A   1      38.063  32.509  32.319  1.00  0.00     0.074 A 
ATOM     41  C   UNL A   1      38.285  31.221  30.221  1.00  0.00     0.049 A 
ATOM     42  N   UNL A   1      39.072  32.043  33.013  1.00  0.00    -0.248 NA
ATOM     43  C   UNL A   1      37.297  33.559  33.010  1.00  0.00     0.031 C 
ATOM     44  C   UNL A   1      37.971  30.813  28.851  1.00  0.00     0.029 A 
ATOM     45  N   UNL A   1      39.372  30.454  30.556  1.00  0.00    -0.354 N 
ATOM     46  C   UNL A   1      39.071  32.758  34.205  1.00  0.00     0.074 A 
ATOM     47  C   UNL A   1      38.003  33.729  34.117  1.00  0.00     0.031 C 
ATOM     48  C   UNL A   1      38.826  29.847  28.474  1.00  0.00     0.029 A 
ATOM     49  C   UNL A   1      39.766  29.592  29.562  1.00  0.00     0.049 A 
ATOM     50  H   UNL A   1      39.827  30.516  31.427  1.00  0.00     0.167 HD
ATOM     51  C   UNL A   1      39.873  32.602  35.286  1.00  0.00     0.037 A 
ATOM     52  C   UNL A   1      40.771  28.695  29.536  1.00  0.00     0.037 A 
ATOM     53  C   UNL A   1      40.911  31.610  35.382  1.00  0.00     0.049 A 
ATOM     54  C   UNL A   1      41.643  28.537  30.754  1.00  0.00     0.074 A 
ATOM     55  C   UNL A   1      41.733  31.323  36.456  1.00  0.00     0.029 A 
ATOM     56  N   UNL A   1      41.269  30.743  34.360  1.00  0.00    -0.354 N 
ATOM     57  N   UNL A   1      41.587  29.165  31.903  1.00  0.00    -0.248 NA
ATOM     58  C   UNL A   1      42.712  27.533  30.671  1.00  0.00     0.031 C 
ATOM     59  C   UNL A   1      42.624  30.318  36.067  1.00  0.00     0.029 A 
ATOM     60  C   UNL A   1      42.316  29.935  34.772  1.00  0.00     0.049 A 
ATOM     61  H   UNL A   1      40.841  30.707  33.474  1.00  0.00     0.167 HD
ATOM     62  C   UNL A   1      42.580  28.603  32.695  1.00  0.00     0.074 A 
ATOM     63  C   UNL A   1      43.218  27.578  31.895  1.00  0.00     0.031 C 
ATOM     64  C   UNL A   1      42.928  28.905  33.970  1.00  0.00     0.037 A 
BRANCH  51  65
ATOM     65  C   UNL A   1      39.660  33.532  36.447  1.00  0.00     0.064 A 
ATOM     66  C   UNL A   1      40.287  34.786  36.518  1.00  0.00     0.173 A 
ATOM     67  C   UNL A   1      38.803  33.171  37.498  1.00  0.00     0.173 A 
ATOM     68  F   UNL A   1      41.127  35.178  35.547  1.00  0.00    -0.203 F 
ATOM     69  C   UNL A   1      40.095  35.625  37.614  1.00  0.00     0.198 A 
ATOM     70  C   UNL A   1      38.585  34.027  38.575  1.00  0.00     0.198 A 
ATOM     71  F   UNL A   1      38.171  31.987  37.480  1.00  0.00    -0.203 F 
ATOM     72  F   UNL A   1      40.754  36.789  37.687  1.00  0.00    -0.200 F 
ATOM     73  C   UNL A   1      39.239  35.248  38.637  1.00  0.00     0.200 A 
ATOM     74  F   UNL A   1      37.746  33.667  39.556  1.00  0.00    -0.200 F 
ATOM     75  F   UNL A   1      39.054  36.057  39.689  1.00  0.00    -0.200 F 
ENDBRANCH  51  65
BRANCH  52  76
ATOM     76  C   UNL A   1      40.976  27.842  28.337  1.00  0.00     0.064 A 
ATOM     77  C   UNL A   1      41.785  28.276  27.278  1.00  0.00     0.173 A 
ATOM     78  C   UNL A   1      40.366  26.585  28.217  1.00  0.00     0.173 A 
ATOM     79  F   UNL A   1      42.375  29.479  27.338  1.00  0.00    -0.203 F 
ATOM     80  C   UNL A   1      41.957  27.499  26.135  1.00  0.00     0.198 A 
ATOM     81  C   UNL A   1      40.561  25.795  27.087  1.00  0.00     0.198 A 
ATOM     82  F   UNL A   1      39.586  26.119  29.205  1.00  0.00    -0.203 F 
ATOM     83  F   UNL A   1      42.696  27.961  25.117  1.00  0.00    -0.200 F 
ATOM     84  C   UNL A   1      41.349  26.256  26.042  1.00  0.00     0.200 A 
ATOM     85  F   UNL A   1      39.984  24.588  27.007  1.00  0.00    -0.200 F 
ATOM     86  F   UNL A   1      41.515  25.507  24.945  1.00  0.00    -0.200 F 
ENDBRANCH  52  76
BRANCH  64  87
ATOM     87  C   UNL A   1      44.006  28.073  34.606  1.00  0.00     0.064 A 
ATOM     88  C   UNL A   1      43.727  26.855  35.242  1.00  0.00     0.173 A 
ATOM     89  C   UNL A   1      45.344  28.494  34.548  1.00  0.00     0.173 A 
ATOM     90  F   UNL A   1      42.463  26.415  35.335  1.00  0.00    -0.203 F 
ATOM     91  C   UNL A   1      44.745  26.105  35.826  1.00  0.00     0.198 A 
ATOM     92  C   UNL A   1      46.362  27.723  35.101  1.00  0.00     0.198 A 
ATOM     93  F   UNL A   1      45.667  29.647  33.943  1.00  0.00    -0.203 F 
ATOM     94  F   UNL A   1      44.449  24.973  36.478  1.00  0.00    -0.200 F 
ATOM     95  C   UNL A   1      46.062  26.536  35.749  1.00  0.00     0.200 A 
ATOM     96  F   UNL A   1      47.636  28.133  35.012  1.00  0.00    -0.200 F 
ATOM     97  F   UNL A   1      47.040  25.808  36.307  1.00  0.00    -0.200 F 
ENDBRANCH  64  87
ENDBRANCH  38  39
ENDBRANCH  30  33
ENDBRANCH  28  29
ENDBRANCH  27  28
ENDBRANCH  26  27
ENDBRANCH   1  26
TORSDOF 17
ENDMDL
MODEL 2
REMARK VINA RESULT:     -12.5      1.961      4.394
REMARK SMILES C[C@@H](C(=O)NCCCCCCNC(=O)c1ccc(-c2c3nc(c(-c4c(F)c(F)c(F)c(F)c4F)c4ccc([nH]4)c(-c4c(F)c(F)c(F)c(F)c4F)c4nc(c(-c5c(F)c(F)c(F)c(F)c5F)c5ccc2[nH]5)C=C4)C=C3)cc1)c1cc(C(=O)c2ccccc2)ccc1O
REMARK SMILES IDX 8 1 7 2 6 3 5 4 3 5 4 6 2 8 1 9 78 10 79 11 91 12 80 13
REMARK SMILES IDX 90 14 89 15 92 16 81 18 82 19 83 20 84 21 88 22 85 23 87 24
REMARK SMILES IDX 86 25 9 26 10 27 11 28 12 29 13 30 14 32 15 33 16 34 77 35
REMARK SMILES IDX 17 36 76 37 18 38 19 39 20 40 70 41 21 42 75 43 69 44 71 45
REMARK SMILES IDX 22 46 74 47 68 48 67 49 23 51 55 52 35 53 54 54 36 55 39 56
REMARK SMILES IDX 53 57 72 58 37 59 38 60 52 62 73 63 40 64 24 65 25 66 33 67
REMARK SMILES IDX 26 68 27 69 31 70 34 71 28 72 29 73 32 74 30 75 56 76 57 77
REMARK SMILES IDX 65 78 58 79 59 80 63 81 66 82 60 83 61 84 64 85 62 86 41 87
REMARK SMILES IDX 42 88 50 89 43 90 44 91 48 92 51 93 45 94 46 95 49 96 47 97
REMARK H PARENT 5 7 92 17 12 31 71 50 39 61
REMARK Flexibility Score: inf
ROOT
ATOM      1  C   UNL A   1      33.964  26.194  25.026  1.00  0.00     0.002 C 
ENDROOT
BRANCH   1   2
ATOM      2  C   UNL A   1      34.727  24.909  25.377  1.00  0.00     0.021 C 
BRANCH   2   3
ATOM      3  C   UNL A   1      34.587  23.785  24.346  1.00  0.00     0.116 C 
BRANCH   3   4
ATOM      4  N   UNL A   1      34.102  22.576  24.972  1.00  0.00    -0.356 N 
ATOM      5  C   UNL A   1      32.887  21.973  24.923  1.00  0.00     0.227 C 
ATOM      6  O   UNL A   1      32.748  20.996  25.667  1.00  0.00    -0.274 OA
ATOM      7  H   UNL A   1      34.767  22.111  25.529  1.00  0.00     0.163 HD
BRANCH   5   8
ATOM      8  C   UNL A   1      31.786  22.458  23.961  1.00  0.00     0.109 C 
ATOM      9  C   UNL A   1      32.257  22.699  22.525  1.00  0.00     0.023 C 
BRANCH   8  10
ATOM     10  C   UNL A   1      31.064  23.730  24.420  1.00  0.00     0.007 A 
ATOM     11  C   UNL A   1      30.926  24.788  23.499  1.00  0.00     0.020 A 
ATOM     12  C   UNL A   1      30.653  23.966  25.742  1.00  0.00     0.119 A 
ATOM     13  C   UNL A   1      30.387  26.024  23.889  1.00  0.00     0.023 A 
ATOM     14  C   UNL A   1      30.074  25.170  26.126  1.00  0.00     0.047 A 
ATOM     15  C   UNL A   1      29.918  26.191  25.196  1.00  0.00     0.016 A 
BRANCH  12  16
ATOM     16  O   UNL A   1      30.801  23.043  26.737  1.00  0.00    -0.508 OA
ATOM     17  H   UNL A   1      30.360  23.163  27.555  1.00  0.00     0.293 HD
ENDBRANCH  12  16
BRANCH  13  18
ATOM     18  C   UNL A   1      30.342  27.132  22.893  1.00  0.00     0.193 C 
ATOM     19  O   UNL A   1      31.028  27.075  21.877  1.00  0.00    -0.289 OA
BRANCH  18  20
ATOM     20  C   UNL A   1      29.462  28.308  23.104  1.00  0.00     0.022 A 
ATOM     21  C   UNL A   1      30.056  29.542  23.381  1.00  0.00     0.012 A 
ATOM     22  C   UNL A   1      28.068  28.203  23.013  1.00  0.00     0.012 A 
ATOM     23  C   UNL A   1      29.260  30.681  23.501  1.00  0.00     0.001 A 
ATOM     24  C   UNL A   1      27.278  29.347  23.126  1.00  0.00     0.001 A 
ATOM     25  C   UNL A   1      27.875  30.585  23.360  1.00  0.00     0.000 A 
ENDBRANCH  18  20
ENDBRANCH  13  18
ENDBRANCH   8  10
ENDBRANCH   5   8
ENDBRANCH   3   4
ENDBRANCH   2   3
ENDBRANCH   1   2
BRANCH   1  26
ATOM     26  C   UNL A   1      33.345  26.934  26.216  1.00  0.00     0.002 C 
BRANCH  26  27
ATOM     27  C   UNL A   1      32.675  28.264  25.868  1.00  0.00     0.021 C 
BRANCH  27  28
ATOM     28  C   UNL A   1      33.646  29.394  25.556  1.00  0.00     0.116 C 
BRANCH  28  29
ATOM     29  N   UNL A   1      33.168  30.677  26.044  1.00  0.00    -0.352 N 
ATOM     30  C   UNL A   1      33.574  31.384  27.144  1.00  0.00     0.251 C 
ATOM     31  H   UNL A   1      32.456  31.096  25.509  1.00  0.00     0.163 HD
ATOM     32  O   UNL A   1      32.931  32.363  27.524  1.00  0.00    -0.269 OA
BRANCH  30  33
ATOM     33  C   UNL A   1      34.779  30.964  27.890  1.00  0.00     0.039 A 
ATOM     34  C   UNL A   1      35.851  31.852  28.000  1.00  0.00     0.014 A 
ATOM     35  C   UNL A   1      34.862  29.690  28.460  1.00  0.00     0.014 A 
ATOM     36  C   UNL A   1      36.994  31.473  28.706  1.00  0.00     0.010 A 
ATOM     37  C   UNL A   1      35.965  29.345  29.233  1.00  0.00     0.010 A 
ATOM     38  C   UNL A   1      37.055  30.222  29.341  1.00  0.00    -0.014 A 
BRANCH  38  39
ATOM     39  C   UNL A   1      38.274  29.789  30.070  1.00  0.00     0.031 A 
ATOM     40  C   UNL A   1      38.517  30.278  31.472  1.00  0.00     0.074 A 
ATOM     41  C   UNL A   1      39.177  28.999  29.462  1.00  0.00     0.049 A 
ATOM     42  N   UNL A   1      39.534  30.050  32.266  1.00  0.00    -0.248 NA
ATOM     43  C   UNL A   1      37.498  31.169  32.049  1.00  0.00     0.031 C 
ATOM     44  C   UNL A   1      39.074  28.494  28.092  1.00  0.00     0.029 A 
ATOM     45  N   UNL A   1      40.363  28.481  29.919  1.00  0.00    -0.354 N 
ATOM     46  C   UNL A   1      39.285  30.785  33.418  1.00  0.00     0.074 A 
ATOM     47  C   UNL A   1      38.055  31.513  33.199  1.00  0.00     0.031 C 
ATOM     48  C   UNL A   1      40.136  27.713  27.832  1.00  0.00     0.029 A 
ATOM     49  C   UNL A   1      41.008  27.689  29.002  1.00  0.00     0.049 A 
ATOM     50  H   UNL A   1      40.718  28.662  30.820  1.00  0.00     0.167 HD
ATOM     51  C   UNL A   1      40.003  30.829  34.566  1.00  0.00     0.037 A 
ATOM     52  C   UNL A   1      42.171  27.017  29.099  1.00  0.00     0.037 A 
ATOM     53  C   UNL A   1      41.207  30.074  34.793  1.00  0.00     0.049 A 
ATOM     54  C   UNL A   1      42.947  27.077  30.389  1.00  0.00     0.074 A 
ATOM     55  C   UNL A   1      41.973  29.994  35.941  1.00  0.00     0.029 A 
ATOM     56  N   UNL A   1      41.821  29.268  33.844  1.00  0.00    -0.354 N 
ATOM     57  N   UNL A   1      42.665  27.715  31.498  1.00  0.00    -0.248 NA
ATOM     58  C   UNL A   1      44.200  26.311  30.440  1.00  0.00     0.031 C 
ATOM     59  C   UNL A   1      43.079  29.181  35.673  1.00  0.00     0.029 A 
ATOM     60  C   UNL A   1      42.969  28.704  34.376  1.00  0.00     0.049 A 
ATOM     61  H   UNL A   1      41.489  29.118  32.929  1.00  0.00     0.167 HD
ATOM     62  C   UNL A   1      43.677  27.392  32.393  1.00  0.00     0.074 A 
ATOM     63  C   UNL A   1      44.577  26.496  31.696  1.00  0.00     0.031 C 
ATOM     64  C   UNL A   1      43.843  27.797  33.676  1.00  0.00     0.037 A 
BRANCH  51  65
ATOM     65  C   UNL A   1      39.506  31.731  35.661  1.00  0.00     0.064 A 
ATOM     66  C   UNL A   1      38.542  31.308  36.590  1.00  0.00     0.173 A 
ATOM     67  C   UNL A   1      40.016  33.032  35.795  1.00  0.00     0.173 A 
ATOM     68  F   UNL A   1      38.012  30.078  36.501  1.00  0.00    -0.203 F 
ATOM     69  C   UNL A   1      38.077  32.166  37.584  1.00  0.00     0.198 A 
ATOM     70  C   UNL A   1      39.575  33.875  36.813  1.00  0.00     0.198 A 
ATOM     71  F   UNL A   1      40.944  33.487  34.941  1.00  0.00    -0.203 F 
ATOM     72  F   UNL A   1      37.110  31.760  38.419  1.00  0.00    -0.200 F 
ATOM     73  C   UNL A   1      38.599  33.445  37.699  1.00  0.00     0.200 A 
ATOM     74  F   UNL A   1      40.091  35.106  36.932  1.00  0.00    -0.200 F 
ATOM     75  F   UNL A   1      38.153  34.268  38.658  1.00  0.00    -0.200 F 
ENDBRANCH  51  65
BRANCH  52  76
ATOM     76  C   UNL A   1      42.649  26.187  27.962  1.00  0.00     0.064 A 
ATOM     77  C   UNL A   1      42.250  24.849  27.835  1.00  0.00     0.173 A 
ATOM     78  C   UNL A   1      43.516  26.704  26.989  1.00  0.00     0.173 A 
ATOM     79  F   UNL A   1      41.436  24.304  28.751  1.00  0.00    -0.203 F 
ATOM     80  C   UNL A   1      42.718  24.053  26.793  1.00  0.00     0.198 A 
ATOM     81  C   UNL A   1      43.961  25.915  25.931  1.00  0.00     0.198 A 
ATOM     82  F   UNL A   1      43.924  27.980  27.061  1.00  0.00    -0.203 F 
ATOM     83  F   UNL A   1      42.359  22.763  26.723  1.00  0.00    -0.200 F 
ATOM     84  C   UNL A   1      43.570  24.587  25.837  1.00  0.00     0.200 A 
ATOM     85  F   UNL A   1      44.771  26.440  25.001  1.00  0.00    -0.200 F 
ATOM     86  F   UNL A   1      44.019  23.823  24.834  1.00  0.00    -0.200 F 
ENDBRANCH  52  76
BRANCH  64  87
ATOM     87  C   UNL A   1      45.007  27.224  34.435  1.00  0.00     0.064 A 
ATOM     88  C   UNL A   1      46.252  27.868  34.485  1.00  0.00     0.173 A 
ATOM     89  C   UNL A   1      44.858  26.024  35.149  1.00  0.00     0.173 A 
ATOM     90  F   UNL A   1      46.450  29.010  33.810  1.00  0.00    -0.203 F 
ATOM     91  C   UNL A   1      47.314  27.314  35.193  1.00  0.00     0.198 A 
ATOM     92  C   UNL A   1      45.913  25.493  35.885  1.00  0.00     0.198 A 
ATOM     93  F   UNL A   1      43.686  25.372  35.143  1.00  0.00    -0.203 F 
ATOM     94  F   UNL A   1      48.512  27.916  35.180  1.00  0.00    -0.200 F 
ATOM     95  C   UNL A   1      47.143  26.131  35.898  1.00  0.00     0.200 A 
ATOM     96  F   UNL A   1      45.740  24.359  36.580  1.00  0.00    -0.200 F 
ATOM     97  F   UNL A   1      48.166  25.604  36.585  1.00  0.00    -0.200 F 
ENDBRANCH  64  87
ENDBRANCH  38  39
ENDBRANCH  30  33
ENDBRANCH  28  29
ENDBRANCH  27  28
ENDBRANCH  26  27
ENDBRANCH   1  26
TORSDOF 17
ENDMDL
MODEL 3
REMARK VINA RESULT:     -12.4      5.246      9.644
REMARK SMILES C[C@@H](C(=O)NCCCCCCNC(=O)c1ccc(-c2c3nc(c(-c4c(F)c(F)c(F)c(F)c4F)c4ccc([nH]4)c(-c4c(F)c(F)c(F)c(F)c4F)c4nc(c(-c5c(F)c(F)c(F)c(F)c5F)c5ccc2[nH]5)C=C4)C=C3)cc1)c1cc(C(=O)c2ccccc2)ccc1O
REMARK SMILES IDX 8 1 7 2 6 3 5 4 3 5 4 6 2 8 1 9 78 10 79 11 91 12 80 13
REMARK SMILES IDX 90 14 89 15 92 16 81 18 82 19 83 20 84 21 88 22 85 23 87 24
REMARK SMILES IDX 86 25 9 26 10 27 11 28 12 29 13 30 14 32 15 33 16 34 77 35
REMARK SMILES IDX 17 36 76 37 18 38 19 39 20 40 70 41 21 42 75 43 69 44 71 45
REMARK SMILES IDX 22 46 74 47 68 48 67 49 23 51 55 52 35 53 54 54 36 55 39 56
REMARK SMILES IDX 53 57 72 58 37 59 38 60 52 62 73 63 40 64 24 65 25 66 33 67
REMARK SMILES IDX 26 68 27 69 31 70 34 71 28 72 29 73 32 74 30 75 56 76 57 77
REMARK SMILES IDX 65 78 58 79 59 80 63 81 66 82 60 83 61 84 64 85 62 86 41 87
REMARK SMILES IDX 42 88 50 89 43 90 44 91 48 92 51 93 45 94 46 95 49 96 47 97
REMARK H PARENT 5 7 92 17 12 31 71 50 39 61
REMARK Flexibility Score: inf
ROOT
ATOM      1  C   UNL A   1      37.368  21.773  24.275  1.00  0.00     0.002 C 
ENDROOT
BRANCH   1   2
ATOM      2  C   UNL A   1      36.866  22.969  25.097  1.00  0.00     0.021 C 
BRANCH   2   3
ATOM      3  C   UNL A   1      35.358  23.215  25.005  1.00  0.00     0.116 C 
BRANCH   3   4
ATOM      4  N   UNL A   1      34.974  23.534  23.649  1.00  0.00    -0.356 N 
ATOM      5  C   UNL A   1      33.970  23.056  22.870  1.00  0.00     0.227 C 
ATOM      6  O   UNL A   1      33.971  23.451  21.699  1.00  0.00    -0.274 OA
ATOM      7  H   UNL A   1      35.538  24.215  23.215  1.00  0.00     0.163 HD
BRANCH   5   8
ATOM      8  C   UNL A   1      32.884  22.123  23.440  1.00  0.00     0.109 C 
ATOM      9  C   UNL A   1      32.039  21.411  22.382  1.00  0.00     0.023 C 
BRANCH   8  10
ATOM     10  C   UNL A   1      31.914  22.807  24.410  1.00  0.00     0.007 A 
ATOM     11  C   UNL A   1      31.692  24.191  24.267  1.00  0.00     0.020 A 
ATOM     12  C   UNL A   1      31.336  22.171  25.521  1.00  0.00     0.119 A 
ATOM     13  C   UNL A   1      30.913  24.901  25.195  1.00  0.00     0.023 A 
ATOM     14  C   UNL A   1      30.524  22.856  26.418  1.00  0.00     0.047 A 
ATOM     15  C   UNL A   1      30.292  24.215  26.243  1.00  0.00     0.016 A 
BRANCH  12  16
ATOM     16  O   UNL A   1      31.538  20.851  25.803  1.00  0.00    -0.508 OA
ATOM     17  H   UNL A   1      30.922  20.387  26.337  1.00  0.00     0.293 HD
ENDBRANCH  12  16
BRANCH  13  18
ATOM     18  C   UNL A   1      30.781  26.377  25.037  1.00  0.00     0.193 C 
ATOM     19  O   UNL A   1      29.852  26.847  24.388  1.00  0.00    -0.289 OA
BRANCH  18  20
ATOM     20  C   UNL A   1      31.758  27.298  25.670  1.00  0.00     0.022 A 
ATOM     21  C   UNL A   1      31.542  27.690  26.994  1.00  0.00     0.012 A 
ATOM     22  C   UNL A   1      32.885  27.757  24.975  1.00  0.00     0.012 A 
ATOM     23  C   UNL A   1      32.486  28.487  27.642  1.00  0.00     0.001 A 
ATOM     24  C   UNL A   1      33.829  28.547  25.631  1.00  0.00     0.001 A 
ATOM     25  C   UNL A   1      33.633  28.903  26.966  1.00  0.00     0.000 A 
ENDBRANCH  18  20
ENDBRANCH  13  18
ENDBRANCH   8  10
ENDBRANCH   5   8
ENDBRANCH   3   4
ENDBRANCH   2   3
ENDBRANCH   1   2
BRANCH   1  26
ATOM     26  C   UNL A   1      36.951  20.396  24.801  1.00  0.00     0.002 C 
BRANCH  26  27
ATOM     27  C   UNL A   1      38.102  19.410  25.006  1.00  0.00     0.021 C 
BRANCH  27  28
ATOM     28  C   UNL A   1      39.252  19.952  25.845  1.00  0.00     0.116 C 
BRANCH  28  29
ATOM     29  N   UNL A   1      40.348  19.003  25.949  1.00  0.00    -0.352 N 
ATOM     30  C   UNL A   1      41.686  19.249  26.099  1.00  0.00     0.251 C 
ATOM     31  H   UNL A   1      40.093  18.054  25.906  1.00  0.00     0.163 HD
ATOM     32  O   UNL A   1      42.503  18.335  25.976  1.00  0.00    -0.269 OA
BRANCH  30  33
ATOM     33  C   UNL A   1      42.159  20.618  26.395  1.00  0.00     0.039 A 
ATOM     34  C   UNL A   1      42.258  21.027  27.726  1.00  0.00     0.014 A 
ATOM     35  C   UNL A   1      42.481  21.504  25.361  1.00  0.00     0.014 A 
ATOM     36  C   UNL A   1      42.708  22.315  28.022  1.00  0.00     0.010 A 
ATOM     37  C   UNL A   1      43.008  22.755  25.660  1.00  0.00     0.010 A 
ATOM     38  C   UNL A   1      43.101  23.185  26.992  1.00  0.00    -0.014 A 
BRANCH  38  39
ATOM     39  C   UNL A   1      43.552  24.568  27.286  1.00  0.00     0.031 A 
ATOM     40  C   UNL A   1      42.552  25.602  27.728  1.00  0.00     0.074 A 
ATOM     41  C   UNL A   1      44.844  24.906  27.115  1.00  0.00     0.049 A 
ATOM     42  N   UNL A   1      42.733  26.872  27.996  1.00  0.00    -0.248 NA
ATOM     43  C   UNL A   1      41.154  25.159  27.853  1.00  0.00     0.031 C 
ATOM     44  C   UNL A   1      45.900  24.005  26.652  1.00  0.00     0.029 A 
ATOM     45  N   UNL A   1      45.489  26.102  27.311  1.00  0.00    -0.354 N 
ATOM     46  C   UNL A   1      41.474  27.376  28.298  1.00  0.00     0.074 A 
ATOM     47  C   UNL A   1      40.530  26.295  28.120  1.00  0.00     0.031 C 
ATOM     48  C   UNL A   1      47.066  24.670  26.631  1.00  0.00     0.029 A 
ATOM     49  C   UNL A   1      46.835  26.051  27.047  1.00  0.00     0.049 A 
ATOM     50  H   UNL A   1      45.029  26.918  27.613  1.00  0.00     0.167 HD
ATOM     51  C   UNL A   1      41.138  28.622  28.710  1.00  0.00     0.037 A 
ATOM     52  C   UNL A   1      47.775  27.011  27.135  1.00  0.00     0.037 A 
ATOM     53  C   UNL A   1      42.087  29.685  28.919  1.00  0.00     0.049 A 
ATOM     54  C   UNL A   1      47.376  28.386  27.602  1.00  0.00     0.074 A 
ATOM     55  C   UNL A   1      41.861  30.961  29.400  1.00  0.00     0.029 A 
ATOM     56  N   UNL A   1      43.446  29.589  28.657  1.00  0.00    -0.354 N 
ATOM     57  N   UNL A   1      46.196  28.833  27.957  1.00  0.00    -0.248 NA
ATOM     58  C   UNL A   1      48.448  29.387  27.693  1.00  0.00     0.031 C 
ATOM     59  C   UNL A   1      43.074  31.656  29.380  1.00  0.00     0.029 A 
ATOM     60  C   UNL A   1      44.067  30.794  28.946  1.00  0.00     0.049 A 
ATOM     61  H   UNL A   1      43.901  28.785  28.317  1.00  0.00     0.167 HD
ATOM     62  C   UNL A   1      46.389  30.150  28.355  1.00  0.00     0.074 A 
ATOM     63  C   UNL A   1      47.803  30.426  28.203  1.00  0.00     0.031 C 
ATOM     64  C   UNL A   1      45.480  31.046  28.809  1.00  0.00     0.037 A 
BRANCH  51  65
ATOM     65  C   UNL A   1      39.682  28.904  28.954  1.00  0.00     0.064 A 
ATOM     66  C   UNL A   1      39.096  28.736  30.218  1.00  0.00     0.173 A 
ATOM     67  C   UNL A   1      38.864  29.364  27.910  1.00  0.00     0.173 A 
ATOM     68  F   UNL A   1      39.829  28.287  31.248  1.00  0.00    -0.203 F 
ATOM     69  C   UNL A   1      37.739  28.981  30.419  1.00  0.00     0.198 A 
ATOM     70  C   UNL A   1      37.515  29.642  28.124  1.00  0.00     0.198 A 
ATOM     71  F   UNL A   1      39.371  29.549  26.682  1.00  0.00    -0.203 F 
ATOM     72  F   UNL A   1      37.190  28.753  31.620  1.00  0.00    -0.200 F 
ATOM     73  C   UNL A   1      36.952  29.440  29.374  1.00  0.00     0.200 A 
ATOM     74  F   UNL A   1      36.760  30.099  27.116  1.00  0.00    -0.200 F 
ATOM     75  F   UNL A   1      35.648  29.677  29.570  1.00  0.00    -0.200 F 
ENDBRANCH  51  65
BRANCH  52  76
ATOM     76  C   UNL A   1      49.193  26.695  26.823  1.00  0.00     0.064 A 
ATOM     77  C   UNL A   1      49.686  26.827  25.517  1.00  0.00     0.173 A 
ATOM     78  C   UNL A   1      50.081  26.249  27.812  1.00  0.00     0.173 A 
ATOM     79  F   UNL A   1      48.870  27.233  24.532  1.00  0.00    -0.203 F 
ATOM     80  C   UNL A   1      51.004  26.502  25.207  1.00  0.00     0.198 A 
ATOM     81  C   UNL A   1      51.408  25.951  27.507  1.00  0.00     0.198 A 
ATOM     82  F   UNL A   1      49.662  26.111  29.079  1.00  0.00    -0.203 F 
ATOM     83  F   UNL A   1      51.434  26.589  23.941  1.00  0.00    -0.200 F 
ATOM     84  C   UNL A   1      51.867  26.069  26.203  1.00  0.00     0.200 A 
ATOM     85  F   UNL A   1      52.241  25.548  28.476  1.00  0.00    -0.200 F 
ATOM     86  F   UNL A   1      53.134  25.757  25.906  1.00  0.00    -0.200 F 
ENDBRANCH  52  76
BRANCH  64  87
ATOM     87  C   UNL A   1      45.993  32.392  29.239  1.00  0.00     0.064 A 
ATOM     88  C   UNL A   1      46.059  33.479  28.355  1.00  0.00     0.173 A 
ATOM     89  C   UNL A   1      46.394  32.600  30.568  1.00  0.00     0.173 A 
ATOM     90  F   UNL A   1      45.699  33.330  27.071  1.00  0.00    -0.203 F 
ATOM     91  C   UNL A   1      46.541  34.715  28.779  1.00  0.00     0.198 A 
ATOM     92  C   UNL A   1      46.841  33.846  30.996  1.00  0.00     0.198 A 
ATOM     93  F   UNL A   1      46.342  31.596  31.457  1.00  0.00    -0.203 F 
ATOM     94  F   UNL A   1      46.650  35.724  27.904  1.00  0.00    -0.200 F 
ATOM     95  C   UNL A   1      46.925  34.900  30.099  1.00  0.00     0.200 A 
ATOM     96  F   UNL A   1      47.195  34.027  32.276  1.00  0.00    -0.200 F 
ATOM     97  F   UNL A   1      47.382  36.092  30.505  1.00  0.00    -0.200 F 
ENDBRANCH  64  87
ENDBRANCH  38  39
ENDBRANCH  30  33
ENDBRANCH  28  29
ENDBRANCH  27  28
ENDBRANCH  26  27
ENDBRANCH   1  26
TORSDOF 17
ENDMDL
