MODEL 1
REMARK VINA RESULT:     -10.5      0.000      0.000
REMARK SMILES O=C(CCC(=O)Nc1ncc([N+](=O)[O-])s1)NCCCCCCNC(=O)c1ccc(-c2c3nc(c(-c4c(F)c(F)c(F)c(F)c4F)c4ccc([nH]4)c(-c4c(F)c(F)c(F)c(F)c4F)c4nc(c(-c5c(F)c(F)c(F)c(F)c5F)c5ccc2[nH]5)C=C4)C=C3)cc1
REMARK SMILES IDX 18 1 17 2 16 3 1 4 2 5 3 7 4 8 5 9 6 10 7 11 8 13 9 14 15 15
REMARK SMILES IDX 10 16 11 17 12 18 13 19 14 20 19 21 20 22 21 23 22 24 23 25
REMARK SMILES IDX 24 26 25 28 26 29 27 30 88 31 28 32 87 33 29 34 30 35 31 36
REMARK SMILES IDX 81 37 32 38 86 39 80 40 82 41 33 42 85 43 79 44 78 45 34 47
REMARK SMILES IDX 66 48 46 49 65 50 47 51 50 52 64 53 83 54 48 55 49 56 63 58
REMARK SMILES IDX 84 59 51 60 35 61 36 62 44 63 37 64 38 65 42 66 45 67 39 68
REMARK SMILES IDX 40 69 43 70 41 71 67 72 68 73 76 74 69 75 70 76 74 77 77 78
REMARK SMILES IDX 71 79 72 80 75 81 73 82 52 83 53 84 61 85 54 86 55 87 59 88
REMARK SMILES IDX 62 89 56 90 57 91 60 92 58 93
REMARK H PARENT 16 6 7 12 23 27 82 46 50 57
REMARK Flexibility Score: inf
ROOT
ATOM      1  C   UNL A   1      38.579  33.837  28.999  1.00  0.00     0.021 C 
ENDROOT
BRANCH   1   2
ATOM      2  C   UNL A   1      39.075  34.775  30.093  1.00  0.00     0.116 C 
BRANCH   2   3
ATOM      3  N   UNL A   1      38.343  34.632  31.333  1.00  0.00    -0.356 N 
ATOM      4  O   UNL A   1      40.187  34.458  32.693  1.00  0.00    -0.275 OA
ATOM      5  C   UNL A   1      38.972  34.551  32.557  1.00  0.00     0.220 C 
ATOM      6  H   UNL A   1      37.360  34.591  31.302  1.00  0.00     0.163 HD
BRANCH   5   7
ATOM      7  C   UNL A   1      38.018  34.602  33.734  1.00  0.00     0.110 C 
BRANCH   7   8
ATOM      8  C   UNL A   1      36.551  34.440  33.348  1.00  0.00     0.110 C 
BRANCH   8   9
ATOM      9  C   UNL A   1      35.614  34.431  34.543  1.00  0.00     0.226 C 
ATOM     10  O   UNL A   1      35.783  33.604  35.446  1.00  0.00    -0.275 OA
ATOM     11  N   UNL A   1      34.539  35.258  34.644  1.00  0.00    -0.302 N 
ATOM     12  H   UNL A   1      34.111  35.326  35.528  1.00  0.00     0.172 HD
BRANCH  11  13
ATOM     13  C   UNL A   1      34.000  36.002  33.638  1.00  0.00     0.195 A 
ATOM     14  N   UNL A   1      34.039  37.296  33.466  1.00  0.00    -0.221 NA
ATOM     15  S   UNL A   1      33.331  35.088  32.357  1.00  0.00    -0.024 S 
ATOM     16  C   UNL A   1      33.700  37.595  32.160  1.00  0.00     0.212 A 
ATOM     17  C   UNL A   1      33.326  36.507  31.411  1.00  0.00     0.345 A 
BRANCH  17  18
ATOM     18  N   UNL A   1      33.025  36.482  30.017  1.00  0.00     0.076 N 
ATOM     19  O   UNL A   1      33.112  37.541  29.386  1.00  0.00    -0.257 OA
ATOM     20  O   UNL A   1      32.675  35.392  29.551  1.00  0.00    -0.257 OA
ENDBRANCH  17  18
ENDBRANCH  11  13
ENDBRANCH   8   9
ENDBRANCH   7   8
ENDBRANCH   5   7
ENDBRANCH   2   3
ENDBRANCH   1   2
BRANCH   1  21
ATOM     21  C   UNL A   1      37.055  33.713  28.883  1.00  0.00     0.002 C 
BRANCH  21  22
ATOM     22  C   UNL A   1      36.367  32.866  29.957  1.00  0.00     0.002 C 
BRANCH  22  23
ATOM     23  C   UNL A   1      34.884  32.573  29.726  1.00  0.00     0.021 C 
BRANCH  23  24
ATOM     24  C   UNL A   1      34.460  32.414  28.268  1.00  0.00     0.116 C 
BRANCH  24  25
ATOM     25  N   UNL A   1      33.891  31.111  27.972  1.00  0.00    -0.352 N 
ATOM     26  C   UNL A   1      34.496  29.881  27.908  1.00  0.00     0.251 C 
ATOM     27  H   UNL A   1      32.923  31.109  27.789  1.00  0.00     0.163 HD
ATOM     28  O   UNL A   1      33.848  28.901  27.544  1.00  0.00    -0.269 OA
BRANCH  26  29
ATOM     29  C   UNL A   1      35.931  29.728  28.234  1.00  0.00     0.039 A 
ATOM     30  C   UNL A   1      36.276  29.257  29.504  1.00  0.00     0.014 A 
ATOM     31  C   UNL A   1      36.934  30.050  27.314  1.00  0.00     0.014 A 
ATOM     32  C   UNL A   1      37.618  29.049  29.828  1.00  0.00     0.010 A 
ATOM     33  C   UNL A   1      38.268  29.772  27.612  1.00  0.00     0.010 A 
ATOM     34  C   UNL A   1      38.625  29.269  28.872  1.00  0.00    -0.014 A 
BRANCH  34  35
ATOM     35  C   UNL A   1      40.042  28.946  29.180  1.00  0.00     0.031 A 
ATOM     36  C   UNL A   1      40.883  29.878  30.005  1.00  0.00     0.074 A 
ATOM     37  C   UNL A   1      40.584  27.821  28.674  1.00  0.00     0.049 A 
ATOM     38  N   UNL A   1      42.128  29.748  30.390  1.00  0.00    -0.248 NA
ATOM     39  C   UNL A   1      40.253  31.136  30.435  1.00  0.00     0.031 C 
ATOM     40  C   UNL A   1      39.891  26.866  27.809  1.00  0.00     0.029 A 
ATOM     41  N   UNL A   1      41.840  27.287  28.819  1.00  0.00    -0.354 N 
ATOM     42  C   UNL A   1      42.432  30.905  31.094  1.00  0.00     0.074 A 
ATOM     43  C   UNL A   1      41.259  31.752  31.037  1.00  0.00     0.031 C 
ATOM     44  C   UNL A   1      40.715  25.843  27.536  1.00  0.00     0.029 A 
ATOM     45  C   UNL A   1      42.003  26.085  28.177  1.00  0.00     0.049 A 
ATOM     46  H   UNL A   1      42.556  27.725  29.333  1.00  0.00     0.167 HD
ATOM     47  C   UNL A   1      43.577  31.225  31.746  1.00  0.00     0.037 A 
ATOM     48  C   UNL A   1      43.068  25.263  28.121  1.00  0.00     0.037 A 
ATOM     49  C   UNL A   1      44.735  30.370  31.816  1.00  0.00     0.049 A 
ATOM     50  C   UNL A   1      44.325  25.641  28.856  1.00  0.00     0.074 A 
ATOM     51  C   UNL A   1      45.912  30.565  32.519  1.00  0.00     0.029 A 
ATOM     52  N   UNL A   1      44.868  29.160  31.149  1.00  0.00    -0.354 N 
ATOM     53  N   UNL A   1      44.568  26.692  29.599  1.00  0.00    -0.248 NA
ATOM     54  C   UNL A   1      45.454  24.705  28.750  1.00  0.00     0.031 C 
ATOM     55  C   UNL A   1      46.777  29.504  32.231  1.00  0.00     0.029 A 
ATOM     56  C   UNL A   1      46.119  28.615  31.396  1.00  0.00     0.049 A 
ATOM     57  H   UNL A   1      44.174  28.750  30.583  1.00  0.00     0.167 HD
ATOM     58  C   UNL A   1      45.865  26.535  30.069  1.00  0.00     0.074 A 
ATOM     59  C   UNL A   1      46.347  25.274  29.545  1.00  0.00     0.031 C 
ATOM     60  C   UNL A   1      46.592  27.364  30.861  1.00  0.00     0.037 A 
BRANCH  47  61
ATOM     61  C   UNL A   1      43.636  32.562  32.430  1.00  0.00     0.064 A 
ATOM     62  C   UNL A   1      44.110  33.709  31.774  1.00  0.00     0.173 A 
ATOM     63  C   UNL A   1      43.189  32.704  33.752  1.00  0.00     0.173 A 
ATOM     64  F   UNL A   1      44.559  33.629  30.511  1.00  0.00    -0.203 F 
ATOM     65  C   UNL A   1      44.171  34.937  32.427  1.00  0.00     0.198 A 
ATOM     66  C   UNL A   1      43.220  33.941  34.392  1.00  0.00     0.198 A 
ATOM     67  F   UNL A   1      42.719  31.643  34.425  1.00  0.00    -0.203 F 
ATOM     68  F   UNL A   1      44.682  36.004  31.799  1.00  0.00    -0.200 F 
ATOM     69  C   UNL A   1      43.720  35.054  33.734  1.00  0.00     0.200 A 
ATOM     70  F   UNL A   1      42.771  34.054  35.649  1.00  0.00    -0.200 F 
ATOM     71  F   UNL A   1      43.777  36.237  34.360  1.00  0.00    -0.200 F 
ENDBRANCH  47  61
BRANCH  48  72
ATOM     72  C   UNL A   1      42.977  23.978  27.379  1.00  0.00     0.064 A 
ATOM     73  C   UNL A   1      43.344  23.905  26.028  1.00  0.00     0.173 A 
ATOM     74  C   UNL A   1      42.526  22.804  27.998  1.00  0.00     0.173 A 
ATOM     75  F   UNL A   1      43.763  25.007  25.388  1.00  0.00    -0.203 F 
ATOM     76  C   UNL A   1      43.246  22.710  25.319  1.00  0.00     0.198 A 
ATOM     77  C   UNL A   1      42.455  21.603  27.295  1.00  0.00     0.198 A 
ATOM     78  F   UNL A   1      42.167  22.821  29.290  1.00  0.00    -0.203 F 
ATOM     79  F   UNL A   1      43.561  22.679  24.017  1.00  0.00    -0.200 F 
ATOM     80  C   UNL A   1      42.808  21.559  25.955  1.00  0.00     0.200 A 
ATOM     81  F   UNL A   1      42.045  20.489  27.917  1.00  0.00    -0.200 F 
ATOM     82  F   UNL A   1      42.718  20.408  25.274  1.00  0.00    -0.200 F 
ENDBRANCH  48  72
BRANCH  60  83
ATOM     83  C   UNL A   1      47.978  26.912  31.227  1.00  0.00     0.064 A 
ATOM     84  C   UNL A   1      49.103  27.320  30.494  1.00  0.00     0.173 A 
ATOM     85  C   UNL A   1      48.184  26.064  32.325  1.00  0.00     0.173 A 
ATOM     86  F   UNL A   1      48.961  28.119  29.425  1.00  0.00    -0.203 F 
ATOM     87  C   UNL A   1      50.376  26.861  30.822  1.00  0.00     0.198 A 
ATOM     88  C   UNL A   1      49.463  25.636  32.671  1.00  0.00     0.198 A 
ATOM     89  F   UNL A   1      47.144  25.649  33.065  1.00  0.00    -0.203 F 
ATOM     90  F   UNL A   1      51.427  27.209  30.066  1.00  0.00    -0.200 F 
ATOM     91  C   UNL A   1      50.556  26.023  31.912  1.00  0.00     0.200 A 
ATOM     92  F   UNL A   1      49.635  24.838  33.734  1.00  0.00    -0.200 F 
ATOM     93  F   UNL A   1      51.782  25.580  32.225  1.00  0.00    -0.200 F 
ENDBRANCH  60  83
ENDBRANCH  34  35
ENDBRANCH  26  29
ENDBRANCH  24  25
ENDBRANCH  23  24
ENDBRANCH  22  23
ENDBRANCH  21  22
ENDBRANCH   1  21
TORSDOF 17
ENDMDL
MODEL 2
REMARK VINA RESULT:     -10.4      6.461     12.112
REMARK SMILES O=C(CCC(=O)Nc1ncc([N+](=O)[O-])s1)NCCCCCCNC(=O)c1ccc(-c2c3nc(c(-c4c(F)c(F)c(F)c(F)c4F)c4ccc([nH]4)c(-c4c(F)c(F)c(F)c(F)c4F)c4nc(c(-c5c(F)c(F)c(F)c(F)c5F)c5ccc2[nH]5)C=C4)C=C3)cc1
REMARK SMILES IDX 18 1 17 2 16 3 1 4 2 5 3 7 4 8 5 9 6 10 7 11 8 13 9 14 15 15
REMARK SMILES IDX 10 16 11 17 12 18 13 19 14 20 19 21 20 22 21 23 22 24 23 25
REMARK SMILES IDX 24 26 25 28 26 29 27 30 88 31 28 32 87 33 29 34 30 35 31 36
REMARK SMILES IDX 81 37 32 38 86 39 80 40 82 41 33 42 85 43 79 44 78 45 34 47
REMARK SMILES IDX 66 48 46 49 65 50 47 51 50 52 64 53 83 54 48 55 49 56 63 58
REMARK SMILES IDX 84 59 51 60 35 61 36 62 44 63 37 64 38 65 42 66 45 67 39 68
REMARK SMILES IDX 40 69 43 70 41 71 67 72 68 73 76 74 69 75 70 76 74 77 77 78
REMARK SMILES IDX 71 79 72 80 75 81 73 82 52 83 53 84 61 85 54 86 55 87 59 88
REMARK SMILES IDX 62 89 56 90 57 91 60 92 58 93
REMARK H PARENT 16 6 7 12 23 27 82 46 50 57
REMARK Flexibility Score: inf
ROOT
ATOM      1  C   UNL A   1      39.613  22.298  26.503  1.00  0.00     0.021 C 
ENDROOT
BRANCH   1   2
ATOM      2  C   UNL A   1      38.541  21.527  25.742  1.00  0.00     0.116 C 
BRANCH   2   3
ATOM      3  N   UNL A   1      37.197  21.947  26.078  1.00  0.00    -0.356 N 
ATOM      4  O   UNL A   1      36.816  23.134  24.148  1.00  0.00    -0.275 OA
ATOM      5  C   UNL A   1      36.410  22.671  25.209  1.00  0.00     0.220 C 
ATOM      6  H   UNL A   1      36.831  21.706  26.960  1.00  0.00     0.163 HD
BRANCH   5   7
ATOM      7  C   UNL A   1      34.979  22.836  25.679  1.00  0.00     0.110 C 
BRANCH   7   8
ATOM      8  C   UNL A   1      34.171  21.542  25.665  1.00  0.00     0.110 C 
BRANCH   8   9
ATOM      9  C   UNL A   1      33.514  21.259  24.326  1.00  0.00     0.226 C 
ATOM     10  O   UNL A   1      33.180  22.201  23.599  1.00  0.00    -0.275 OA
ATOM     11  N   UNL A   1      33.210  20.002  23.904  1.00  0.00    -0.302 N 
ATOM     12  H   UNL A   1      32.976  19.895  22.954  1.00  0.00     0.172 HD
BRANCH  11  13
ATOM     13  C   UNL A   1      33.199  18.877  24.672  1.00  0.00     0.195 A 
ATOM     14  N   UNL A   1      32.253  18.431  25.454  1.00  0.00    -0.221 NA
ATOM     15  S   UNL A   1      34.541  17.844  24.441  1.00  0.00    -0.024 S 
ATOM     16  C   UNL A   1      32.493  17.102  25.751  1.00  0.00     0.212 A 
ATOM     17  C   UNL A   1      33.674  16.616  25.247  1.00  0.00     0.345 A 
BRANCH  17  18
ATOM     18  N   UNL A   1      34.144  15.270  25.295  1.00  0.00     0.076 N 
ATOM     19  O   UNL A   1      35.363  15.078  25.231  1.00  0.00    -0.257 OA
ATOM     20  O   UNL A   1      33.278  14.390  25.376  1.00  0.00    -0.257 OA
ENDBRANCH  17  18
ENDBRANCH  11  13
ENDBRANCH   8   9
ENDBRANCH   7   8
ENDBRANCH   5   7
ENDBRANCH   2   3
ENDBRANCH   1   2
BRANCH   1  21
ATOM     21  C   UNL A   1      41.057  21.881  26.204  1.00  0.00     0.002 C 
BRANCH  21  22
ATOM     22  C   UNL A   1      41.562  20.635  26.937  1.00  0.00     0.002 C 
BRANCH  22  23
ATOM     23  C   UNL A   1      41.782  19.394  26.069  1.00  0.00     0.021 C 
BRANCH  23  24
ATOM     24  C   UNL A   1      43.131  18.700  26.238  1.00  0.00     0.116 C 
BRANCH  24  25
ATOM     25  N   UNL A   1      43.891  18.610  25.003  1.00  0.00    -0.352 N 
ATOM     26  C   UNL A   1      44.536  19.592  24.295  1.00  0.00     0.251 C 
ATOM     27  H   UNL A   1      43.953  17.707  24.615  1.00  0.00     0.163 HD
ATOM     28  O   UNL A   1      45.050  19.324  23.210  1.00  0.00    -0.269 OA
BRANCH  26  29
ATOM     29  C   UNL A   1      44.587  20.980  24.803  1.00  0.00     0.039 A 
ATOM     30  C   UNL A   1      45.162  21.207  26.057  1.00  0.00     0.014 A 
ATOM     31  C   UNL A   1      44.069  22.053  24.071  1.00  0.00     0.014 A 
ATOM     32  C   UNL A   1      45.276  22.510  26.545  1.00  0.00     0.010 A 
ATOM     33  C   UNL A   1      44.250  23.359  24.525  1.00  0.00     0.010 A 
ATOM     34  C   UNL A   1      44.855  23.602  25.767  1.00  0.00    -0.014 A 
BRANCH  34  35
ATOM     35  C   UNL A   1      45.073  24.994  26.238  1.00  0.00     0.031 A 
ATOM     36  C   UNL A   1      46.426  25.639  26.136  1.00  0.00     0.074 A 
ATOM     37  C   UNL A   1      44.049  25.666  26.801  1.00  0.00     0.049 A 
ATOM     38  N   UNL A   1      46.793  26.850  26.476  1.00  0.00    -0.248 NA
ATOM     39  C   UNL A   1      47.519  24.810  25.607  1.00  0.00     0.031 C 
ATOM     40  C   UNL A   1      42.705  25.128  27.013  1.00  0.00     0.029 A 
ATOM     41  N   UNL A   1      43.978  26.945  27.291  1.00  0.00    -0.354 N 
ATOM     42  C   UNL A   1      48.155  26.923  26.213  1.00  0.00     0.074 A 
ATOM     43  C   UNL A   1      48.561  25.617  25.737  1.00  0.00     0.031 C 
ATOM     44  C   UNL A   1      41.930  26.084  27.550  1.00  0.00     0.029 A 
ATOM     45  C   UNL A   1      42.730  27.288  27.750  1.00  0.00     0.049 A 
ATOM     46  H   UNL A   1      44.747  27.558  27.313  1.00  0.00     0.167 HD
ATOM     47  C   UNL A   1      48.987  27.986  26.338  1.00  0.00     0.037 A 
ATOM     48  C   UNL A   1      42.278  28.447  28.265  1.00  0.00     0.037 A 
ATOM     49  C   UNL A   1      48.573  29.289  26.794  1.00  0.00     0.049 A 
ATOM     50  C   UNL A   1      43.221  29.612  28.390  1.00  0.00     0.074 A 
ATOM     51  C   UNL A   1      49.320  30.452  26.877  1.00  0.00     0.029 A 
ATOM     52  N   UNL A   1      47.303  29.599  27.257  1.00  0.00    -0.354 N 
ATOM     53  N   UNL A   1      44.483  29.697  28.047  1.00  0.00    -0.248 NA
ATOM     54  C   UNL A   1      42.669  30.846  28.965  1.00  0.00     0.031 C 
ATOM     55  C   UNL A   1      48.518  31.449  27.443  1.00  0.00     0.029 A 
ATOM     56  C   UNL A   1      47.253  30.926  27.658  1.00  0.00     0.049 A 
ATOM     57  H   UNL A   1      46.547  28.969  27.294  1.00  0.00     0.167 HD
ATOM     58  C   UNL A   1      44.870  30.998  28.341  1.00  0.00     0.074 A 
ATOM     59  C   UNL A   1      43.700  31.671  28.868  1.00  0.00     0.031 C 
ATOM     60  C   UNL A   1      46.086  31.582  28.190  1.00  0.00     0.037 A 
BRANCH  47  61
ATOM     61  C   UNL A   1      50.433  27.781  25.983  1.00  0.00     0.064 A 
ATOM     62  C   UNL A   1      51.405  27.515  26.960  1.00  0.00     0.173 A 
ATOM     63  C   UNL A   1      50.849  27.827  24.643  1.00  0.00     0.173 A 
ATOM     64  F   UNL A   1      51.064  27.470  28.257  1.00  0.00    -0.203 F 
ATOM     65  C   UNL A   1      52.743  27.342  26.614  1.00  0.00     0.198 A 
ATOM     66  C   UNL A   1      52.182  27.619  24.297  1.00  0.00     0.198 A 
ATOM     67  F   UNL A   1      49.962  28.069  23.667  1.00  0.00    -0.203 F 
ATOM     68  F   UNL A   1      53.661  27.148  27.571  1.00  0.00    -0.200 F 
ATOM     69  C   UNL A   1      53.130  27.388  25.283  1.00  0.00     0.200 A 
ATOM     70  F   UNL A   1      52.551  27.650  23.010  1.00  0.00    -0.200 F 
ATOM     71  F   UNL A   1      54.417  27.217  24.952  1.00  0.00    -0.200 F 
ENDBRANCH  47  61
BRANCH  48  72
ATOM     72  C   UNL A   1      40.850  28.578  28.658  1.00  0.00     0.064 A 
ATOM     73  C   UNL A   1      40.436  28.268  29.961  1.00  0.00     0.173 A 
ATOM     74  C   UNL A   1      39.876  29.015  27.749  1.00  0.00     0.173 A 
ATOM     75  F   UNL A   1      41.328  27.827  30.860  1.00  0.00    -0.203 F 
ATOM     76  C   UNL A   1      39.097  28.371  30.334  1.00  0.00     0.198 A 
ATOM     77  C   UNL A   1      38.543  29.145  28.132  1.00  0.00     0.198 A 
ATOM     78  F   UNL A   1      40.223  29.329  26.492  1.00  0.00    -0.203 F 
ATOM     79  F   UNL A   1      38.722  28.025  31.573  1.00  0.00    -0.200 F 
ATOM     80  C   UNL A   1      38.154  28.816  29.421  1.00  0.00     0.200 A 
ATOM     81  F   UNL A   1      37.635  29.589  27.252  1.00  0.00    -0.200 F 
ATOM     82  F   UNL A   1      36.867  28.920  29.782  1.00  0.00    -0.200 F 
ENDBRANCH  48  72
BRANCH  60  83
ATOM     83  C   UNL A   1      46.199  33.029  28.579  1.00  0.00     0.064 A 
ATOM     84  C   UNL A   1      46.628  33.417  29.858  1.00  0.00     0.173 A 
ATOM     85  C   UNL A   1      45.877  34.040  27.662  1.00  0.00     0.173 A 
ATOM     86  F   UNL A   1      46.934  32.490  30.779  1.00  0.00    -0.203 F 
ATOM     87  C   UNL A   1      46.689  34.762  30.216  1.00  0.00     0.198 A 
ATOM     88  C   UNL A   1      45.973  35.385  28.012  1.00  0.00     0.198 A 
ATOM     89  F   UNL A   1      45.468  33.726  26.424  1.00  0.00    -0.203 F 
ATOM     90  F   UNL A   1      47.036  35.106  31.464  1.00  0.00    -0.200 F 
ATOM     91  C   UNL A   1      46.366  35.744  29.292  1.00  0.00     0.200 A 
ATOM     92  F   UNL A   1      45.674  36.333  27.113  1.00  0.00    -0.200 F 
ATOM     93  F   UNL A   1      46.423  37.037  29.639  1.00  0.00    -0.200 F 
ENDBRANCH  60  83
ENDBRANCH  34  35
ENDBRANCH  26  29
ENDBRANCH  24  25
ENDBRANCH  23  24
ENDBRANCH  22  23
ENDBRANCH  21  22
ENDBRANCH   1  21
TORSDOF 17
ENDMDL
MODEL 3
REMARK VINA RESULT:     -10.4      0.444      2.035
REMARK SMILES O=C(CCC(=O)Nc1ncc([N+](=O)[O-])s1)NCCCCCCNC(=O)c1ccc(-c2c3nc(c(-c4c(F)c(F)c(F)c(F)c4F)c4ccc([nH]4)c(-c4c(F)c(F)c(F)c(F)c4F)c4nc(c(-c5c(F)c(F)c(F)c(F)c5F)c5ccc2[nH]5)C=C4)C=C3)cc1
REMARK SMILES IDX 18 1 17 2 16 3 1 4 2 5 3 7 4 8 5 9 6 10 7 11 8 13 9 14 15 15
REMARK SMILES IDX 10 16 11 17 12 18 13 19 14 20 19 21 20 22 21 23 22 24 23 25
REMARK SMILES IDX 24 26 25 28 26 29 27 30 88 31 28 32 87 33 29 34 30 35 31 36
REMARK SMILES IDX 81 37 32 38 86 39 80 40 82 41 33 42 85 43 79 44 78 45 34 47
REMARK SMILES IDX 66 48 46 49 65 50 47 51 50 52 64 53 83 54 48 55 49 56 63 58
REMARK SMILES IDX 84 59 51 60 35 61 36 62 44 63 37 64 38 65 42 66 45 67 39 68
REMARK SMILES IDX 40 69 43 70 41 71 67 72 68 73 76 74 69 75 70 76 74 77 77 78
REMARK SMILES IDX 71 79 72 80 75 81 73 82 52 83 53 84 61 85 54 86 55 87 59 88
REMARK SMILES IDX 62 89 56 90 57 91 60 92 58 93
REMARK H PARENT 16 6 7 12 23 27 82 46 50 57
REMARK Flexibility Score: inf
ROOT
ATOM      1  C   UNL A   1      38.423  33.687  28.949  1.00  0.00     0.021 C 
ENDROOT
BRANCH   1   2
ATOM      2  C   UNL A   1      38.993  34.607  30.023  1.00  0.00     0.116 C 
BRANCH   2   3
ATOM      3  N   UNL A   1      38.312  34.480  31.294  1.00  0.00    -0.356 N 
ATOM      4  O   UNL A   1      40.192  34.661  32.603  1.00  0.00    -0.275 OA
ATOM      5  C   UNL A   1      38.972  34.586  32.499  1.00  0.00     0.220 C 
ATOM      6  H   UNL A   1      37.342  34.312  31.298  1.00  0.00     0.163 HD
BRANCH   5   7
ATOM      7  C   UNL A   1      38.046  34.618  33.698  1.00  0.00     0.110 C 
BRANCH   7   8
ATOM      8  C   UNL A   1      36.573  34.426  33.347  1.00  0.00     0.110 C 
BRANCH   8   9
ATOM      9  C   UNL A   1      35.664  34.411  34.561  1.00  0.00     0.226 C 
ATOM     10  O   UNL A   1      35.861  33.588  35.462  1.00  0.00    -0.275 OA
ATOM     11  N   UNL A   1      34.583  35.229  34.686  1.00  0.00    -0.302 N 
ATOM     12  H   UNL A   1      34.174  35.295  35.578  1.00  0.00     0.172 HD
BRANCH  11  13
ATOM     13  C   UNL A   1      34.014  35.965  33.690  1.00  0.00     0.195 A 
ATOM     14  N   UNL A   1      34.015  37.261  33.530  1.00  0.00    -0.221 NA
ATOM     15  S   UNL A   1      33.362  35.043  32.406  1.00  0.00    -0.024 S 
ATOM     16  C   UNL A   1      33.656  37.562  32.229  1.00  0.00     0.212 A 
ATOM     17  C   UNL A   1      33.308  36.469  31.473  1.00  0.00     0.345 A 
BRANCH  17  18
ATOM     18  N   UNL A   1      32.998  36.448  30.081  1.00  0.00     0.076 N 
ATOM     19  O   UNL A   1      32.561  35.396  29.601  1.00  0.00    -0.257 OA
ATOM     20  O   UNL A   1      33.215  37.491  29.454  1.00  0.00    -0.257 OA
ENDBRANCH  17  18
ENDBRANCH  11  13
ENDBRANCH   8   9
ENDBRANCH   7   8
ENDBRANCH   5   7
ENDBRANCH   2   3
ENDBRANCH   1   2
BRANCH   1  21
ATOM     21  C   UNL A   1      36.893  33.673  28.843  1.00  0.00     0.002 C 
BRANCH  21  22
ATOM     22  C   UNL A   1      36.144  33.035  30.017  1.00  0.00     0.002 C 
BRANCH  22  23
ATOM     23  C   UNL A   1      34.726  32.547  29.716  1.00  0.00     0.021 C 
BRANCH  23  24
ATOM     24  C   UNL A   1      34.359  32.451  28.237  1.00  0.00     0.116 C 
BRANCH  24  25
ATOM     25  N   UNL A   1      33.802  31.162  27.864  1.00  0.00    -0.352 N 
ATOM     26  C   UNL A   1      34.406  29.933  27.786  1.00  0.00     0.251 C 
ATOM     27  H   UNL A   1      32.845  31.172  27.631  1.00  0.00     0.163 HD
ATOM     28  O   UNL A   1      33.775  28.970  27.353  1.00  0.00    -0.269 OA
BRANCH  26  29
ATOM     29  C   UNL A   1      35.822  29.761  28.180  1.00  0.00     0.039 A 
ATOM     30  C   UNL A   1      36.101  29.321  29.477  1.00  0.00     0.014 A 
ATOM     31  C   UNL A   1      36.871  30.037  27.298  1.00  0.00     0.014 A 
ATOM     32  C   UNL A   1      37.422  29.096  29.867  1.00  0.00     0.010 A 
ATOM     33  C   UNL A   1      38.184  29.742  27.663  1.00  0.00     0.010 A 
ATOM     34  C   UNL A   1      38.474  29.268  28.951  1.00  0.00    -0.014 A 
BRANCH  34  35
ATOM     35  C   UNL A   1      39.869  28.927  29.331  1.00  0.00     0.031 A 
ATOM     36  C   UNL A   1      40.658  29.818  30.248  1.00  0.00     0.074 A 
ATOM     37  C   UNL A   1      40.441  27.823  28.810  1.00  0.00     0.049 A 
ATOM     38  N   UNL A   1      41.877  29.665  30.703  1.00  0.00    -0.248 NA
ATOM     39  C   UNL A   1      40.004  31.057  30.695  1.00  0.00     0.031 C 
ATOM     40  C   UNL A   1      39.802  26.911  27.861  1.00  0.00     0.029 A 
ATOM     41  N   UNL A   1      41.685  27.279  29.008  1.00  0.00    -0.354 N 
ATOM     42  C   UNL A   1      42.138  30.788  31.476  1.00  0.00     0.074 A 
ATOM     43  C   UNL A   1      40.972  31.641  31.385  1.00  0.00     0.031 C 
ATOM     44  C   UNL A   1      40.641  25.898  27.593  1.00  0.00     0.029 A 
ATOM     45  C   UNL A   1      41.886  26.106  28.324  1.00  0.00     0.049 A 
ATOM     46  H   UNL A   1      42.369  27.691  29.584  1.00  0.00     0.167 HD
ATOM     47  C   UNL A   1      43.241  31.075  32.212  1.00  0.00     0.037 A 
ATOM     48  C   UNL A   1      42.953  25.284  28.296  1.00  0.00     0.037 A 
ATOM     49  C   UNL A   1      44.392  30.213  32.314  1.00  0.00     0.049 A 
ATOM     50  C   UNL A   1      44.162  25.624  29.124  1.00  0.00     0.074 A 
ATOM     51  C   UNL A   1      45.522  30.372  33.097  1.00  0.00     0.029 A 
ATOM     52  N   UNL A   1      44.564  29.034  31.603  1.00  0.00    -0.354 N 
ATOM     53  N   UNL A   1      44.359  26.640  29.927  1.00  0.00    -0.248 NA
ATOM     54  C   UNL A   1      45.294  24.690  29.045  1.00  0.00     0.031 C 
ATOM     55  C   UNL A   1      46.403  29.322  32.815  1.00  0.00     0.029 A 
ATOM     56  C   UNL A   1      45.797  28.474  31.902  1.00  0.00     0.049 A 
ATOM     57  H   UNL A   1      43.907  28.652  30.977  1.00  0.00     0.167 HD
ATOM     58  C   UNL A   1      45.625  26.457  30.469  1.00  0.00     0.074 A 
ATOM     59  C   UNL A   1      46.137  25.219  29.919  1.00  0.00     0.031 C 
ATOM     60  C   UNL A   1      46.301  27.246  31.341  1.00  0.00     0.037 A 
BRANCH  47  61
ATOM     61  C   UNL A   1      43.258  32.379  32.957  1.00  0.00     0.064 A 
ATOM     62  C   UNL A   1      42.702  32.507  34.240  1.00  0.00     0.173 A 
ATOM     63  C   UNL A   1      43.862  33.513  32.391  1.00  0.00     0.173 A 
ATOM     64  F   UNL A   1      42.103  31.458  34.824  1.00  0.00    -0.203 F 
ATOM     65  C   UNL A   1      42.714  33.728  34.910  1.00  0.00     0.198 A 
ATOM     66  C   UNL A   1      43.903  34.724  33.079  1.00  0.00     0.198 A 
ATOM     67  F   UNL A   1      44.416  33.447  31.172  1.00  0.00    -0.203 F 
ATOM     68  F   UNL A   1      42.125  33.838  36.108  1.00  0.00    -0.200 F 
ATOM     69  C   UNL A   1      43.320  34.833  34.332  1.00  0.00     0.200 A 
ATOM     70  F   UNL A   1      44.501  35.786  32.525  1.00  0.00    -0.200 F 
ATOM     71  F   UNL A   1      43.334  36.007  34.980  1.00  0.00    -0.200 F 
ENDBRANCH  47  61
BRANCH  48  72
ATOM     72  C   UNL A   1      42.906  24.035  27.493  1.00  0.00     0.064 A 
ATOM     73  C   UNL A   1      42.519  22.822  28.080  1.00  0.00     0.173 A 
ATOM     74  C   UNL A   1      43.244  24.024  26.132  1.00  0.00     0.173 A 
ATOM     75  F   UNL A   1      42.207  22.779  29.383  1.00  0.00    -0.203 F 
ATOM     76  C   UNL A   1      42.489  21.641  27.340  1.00  0.00     0.198 A 
ATOM     77  C   UNL A   1      43.185  22.848  25.387  1.00  0.00     0.198 A 
ATOM     78  F   UNL A   1      43.616  25.159  25.523  1.00  0.00    -0.203 F 
ATOM     79  F   UNL A   1      42.158  20.488  27.937  1.00  0.00    -0.200 F 
ATOM     80  C   UNL A   1      42.816  21.657  25.993  1.00  0.00     0.200 A 
ATOM     81  F   UNL A   1      43.488  22.869  24.081  1.00  0.00    -0.200 F 
ATOM     82  F   UNL A   1      42.782  20.522  25.280  1.00  0.00    -0.200 F 
ENDBRANCH  48  72
BRANCH  60  83
ATOM     83  C   UNL A   1      47.662  26.774  31.771  1.00  0.00     0.064 A 
ATOM     84  C   UNL A   1      47.828  25.886  32.846  1.00  0.00     0.173 A 
ATOM     85  C   UNL A   1      48.812  27.210  31.098  1.00  0.00     0.173 A 
ATOM     86  F   UNL A   1      46.762  25.450  33.533  1.00  0.00    -0.203 F 
ATOM     87  C   UNL A   1      49.098  25.489  33.256  1.00  0.00     0.198 A 
ATOM     88  C   UNL A   1      50.078  26.782  31.490  1.00  0.00     0.198 A 
ATOM     89  F   UNL A   1      48.711  28.053  30.060  1.00  0.00    -0.203 F 
ATOM     90  F   UNL A   1      49.236  24.695  34.328  1.00  0.00    -0.200 F 
ATOM     91  C   UNL A   1      50.221  25.933  32.576  1.00  0.00     0.200 A 
ATOM     92  F   UNL A   1      51.162  27.202  30.821  1.00  0.00    -0.200 F 
ATOM     93  F   UNL A   1      51.443  25.552  32.974  1.00  0.00    -0.200 F 
ENDBRANCH  60  83
ENDBRANCH  34  35
ENDBRANCH  26  29
ENDBRANCH  24  25
ENDBRANCH  23  24
ENDBRANCH  22  23
ENDBRANCH  21  22
ENDBRANCH   1  21
TORSDOF 17
ENDMDL
