MODEL 1
REMARK VINA RESULT:     -12.8      0.000      0.000
REMARK SMILES O=C(Cc1ccc(-c2ccn(C(F)F)c(=O)c2)cc1)NCCCCCCNC(=O)c1ccc(-c2c3nc(c(-c4c(F)c(F)c(F)c(F)c4F)c4ccc([nH]4)c(-c4c(F)c(F)c(F)c(F)c4F)c4nc(c(-c5c(F)c(F)c(F)c(F)c5F)c5ccc2[nH]5)C=C4)C=C3)cc1
REMARK SMILES IDX 23 1 22 2 21 3 20 4 1 5 2 6 3 8 4 9 5 10 19 11 6 12 18 13
REMARK SMILES IDX 7 14 8 15 9 16 17 17 10 18 15 19 11 20 16 21 12 22 13 23
REMARK SMILES IDX 14 24 24 25 25 26 26 27 27 28 28 29 29 31 30 32 31 33 92 34
REMARK SMILES IDX 32 35 91 36 33 37 34 38 35 39 85 40 36 41 90 42 84 43 86 44
REMARK SMILES IDX 37 45 89 46 83 47 82 48 38 50 70 51 50 52 69 53 51 54 54 55
REMARK SMILES IDX 68 56 87 57 52 58 53 59 67 61 88 62 55 63 39 64 40 65 48 66
REMARK SMILES IDX 41 67 42 68 46 69 49 70 43 71 44 72 47 73 45 74 71 75 72 76
REMARK SMILES IDX 80 77 73 78 74 79 78 80 81 81 75 82 76 83 79 84 77 85 56 86
REMARK SMILES IDX 57 87 65 88 58 89 59 90 63 91 66 92 60 93 61 94 64 95 62 96
REMARK H PARENT 20 7 27 30 86 49 54 60
REMARK Flexibility Score: inf
ROOT
ATOM      1  C   UNL A   1      37.305  22.557  25.335  1.00  0.00     0.002 C 
ENDROOT
BRANCH   1   2
ATOM      2  C   UNL A   1      36.073  23.364  25.779  1.00  0.00     0.021 C 
BRANCH   2   3
ATOM      3  C   UNL A   1      35.091  22.604  26.672  1.00  0.00     0.116 C 
BRANCH   3   4
ATOM      4  N   UNL A   1      33.766  22.606  26.092  1.00  0.00    -0.356 N 
ATOM      5  O   UNL A   1      32.558  22.569  28.044  1.00  0.00    -0.275 OA
ATOM      6  C   UNL A   1      32.596  22.575  26.818  1.00  0.00     0.224 C 
ATOM      7  H   UNL A   1      33.696  22.630  25.110  1.00  0.00     0.163 HD
BRANCH   6   8
ATOM      8  C   UNL A   1      31.342  22.478  25.955  1.00  0.00     0.135 C 
BRANCH   8   9
ATOM      9  C   UNL A   1      30.977  23.770  25.261  1.00  0.00    -0.039 A 
ATOM     10  C   UNL A   1      31.147  23.905  23.876  1.00  0.00     0.005 A 
ATOM     11  C   UNL A   1      30.441  24.848  25.978  1.00  0.00     0.005 A 
ATOM     12  C   UNL A   1      30.750  25.073  23.218  1.00  0.00     0.009 A 
ATOM     13  C   UNL A   1      30.015  26.000  25.319  1.00  0.00     0.009 A 
ATOM     14  C   UNL A   1      30.151  26.119  23.931  1.00  0.00    -0.018 A 
BRANCH  14  15
ATOM     15  C   UNL A   1      29.601  27.313  23.262  1.00  0.00    -0.011 A 
ATOM     16  C   UNL A   1      30.411  28.220  22.471  1.00  0.00     0.027 A 
ATOM     17  C   UNL A   1      28.317  27.629  23.504  1.00  0.00     0.080 A 
ATOM     18  C   UNL A   1      29.908  29.384  22.044  1.00  0.00     0.095 A 
ATOM     19  C   UNL A   1      27.734  28.905  23.010  1.00  0.00     0.255 A 
ATOM     20  N   UNL A   1      28.600  29.737  22.319  1.00  0.00    -0.258 N 
ATOM     21  O   UNL A   1      26.559  29.149  23.265  1.00  0.00    -0.269 OA
BRANCH  20  22
ATOM     22  C   UNL A   1      28.089  31.023  21.922  1.00  0.00     0.451 C 
ATOM     23  F   UNL A   1      28.952  32.019  22.238  1.00  0.00    -0.185 F 
ATOM     24  F   UNL A   1      27.875  31.061  20.583  1.00  0.00    -0.185 F 
ENDBRANCH  20  22
ENDBRANCH  14  15
ENDBRANCH   8   9
ENDBRANCH   6   8
ENDBRANCH   3   4
ENDBRANCH   2   3
ENDBRANCH   1   2
BRANCH   1  25
ATOM     25  C   UNL A   1      37.006  21.246  24.604  1.00  0.00     0.002 C 
BRANCH  25  26
ATOM     26  C   UNL A   1      37.861  20.054  25.035  1.00  0.00     0.021 C 
BRANCH  26  27
ATOM     27  C   UNL A   1      39.133  20.416  25.797  1.00  0.00     0.116 C 
BRANCH  27  28
ATOM     28  N   UNL A   1      40.073  19.307  25.878  1.00  0.00    -0.352 N 
ATOM     29  C   UNL A   1      41.433  19.328  26.078  1.00  0.00     0.251 C 
ATOM     30  H   UNL A   1      39.678  18.412  25.773  1.00  0.00     0.163 HD
ATOM     31  O   UNL A   1      42.091  18.298  25.958  1.00  0.00    -0.269 OA
BRANCH  29  32
ATOM     32  C   UNL A   1      42.112  20.600  26.405  1.00  0.00     0.039 A 
ATOM     33  C   UNL A   1      42.575  21.404  25.361  1.00  0.00     0.014 A 
ATOM     34  C   UNL A   1      42.278  21.007  27.732  1.00  0.00     0.014 A 
ATOM     35  C   UNL A   1      43.128  22.655  25.644  1.00  0.00     0.010 A 
ATOM     36  C   UNL A   1      42.760  22.283  28.009  1.00  0.00     0.010 A 
ATOM     37  C   UNL A   1      43.179  23.126  26.966  1.00  0.00    -0.014 A 
BRANCH  37  38
ATOM     38  C   UNL A   1      43.618  24.512  27.272  1.00  0.00     0.031 A 
ATOM     39  C   UNL A   1      42.638  25.534  27.771  1.00  0.00     0.074 A 
ATOM     40  C   UNL A   1      44.893  24.869  27.022  1.00  0.00     0.049 A 
ATOM     41  N   UNL A   1      42.824  26.806  28.021  1.00  0.00    -0.248 NA
ATOM     42  C   UNL A   1      41.262  25.072  27.994  1.00  0.00     0.031 C 
ATOM     43  C   UNL A   1      45.925  23.983  26.483  1.00  0.00     0.029 A 
ATOM     44  N   UNL A   1      45.533  26.074  27.169  1.00  0.00    -0.354 N 
ATOM     45  C   UNL A   1      41.590  27.296  28.427  1.00  0.00     0.074 A 
ATOM     46  C   UNL A   1      40.651  26.199  28.329  1.00  0.00     0.031 C 
ATOM     47  C   UNL A   1      47.071  24.669  26.355  1.00  0.00     0.029 A 
ATOM     48  C   UNL A   1      46.844  26.053  26.760  1.00  0.00     0.049 A 
ATOM     49  H   UNL A   1      45.094  26.877  27.532  1.00  0.00     0.167 HD
ATOM     50  C   UNL A   1      41.276  28.539  28.865  1.00  0.00     0.037 A 
ATOM     51  C   UNL A   1      47.757  27.041  26.698  1.00  0.00     0.037 A 
ATOM     52  C   UNL A   1      42.216  29.628  28.956  1.00  0.00     0.049 A 
ATOM     53  C   UNL A   1      47.380  28.421  27.159  1.00  0.00     0.074 A 
ATOM     54  C   UNL A   1      42.009  30.909  29.437  1.00  0.00     0.029 A 
ATOM     55  N   UNL A   1      43.539  29.567  28.541  1.00  0.00    -0.354 N 
ATOM     56  N   UNL A   1      46.230  28.854  27.618  1.00  0.00    -0.248 NA
ATOM     57  C   UNL A   1      48.428  29.450  27.098  1.00  0.00     0.031 C 
ATOM     58  C   UNL A   1      43.189  31.641  29.257  1.00  0.00     0.029 A 
ATOM     59  C   UNL A   1      44.150  30.799  28.721  1.00  0.00     0.049 A 
ATOM     60  H   UNL A   1      43.979  28.767  28.173  1.00  0.00     0.167 HD
ATOM     61  C   UNL A   1      46.418  30.197  27.914  1.00  0.00     0.074 A 
ATOM     62  C   UNL A   1      47.799  30.503  27.604  1.00  0.00     0.031 C 
ATOM     63  C   UNL A   1      45.523  31.096  28.395  1.00  0.00     0.037 A 
BRANCH  50  64
ATOM     64  C   UNL A   1      39.850  28.786  29.271  1.00  0.00     0.064 A 
ATOM     65  C   UNL A   1      39.410  28.570  30.587  1.00  0.00     0.173 A 
ATOM     66  C   UNL A   1      38.912  29.255  28.339  1.00  0.00     0.173 A 
ATOM     67  F   UNL A   1      40.262  28.115  31.519  1.00  0.00    -0.203 F 
ATOM     68  C   UNL A   1      38.078  28.770  30.942  1.00  0.00     0.198 A 
ATOM     69  C   UNL A   1      37.588  29.488  28.706  1.00  0.00     0.198 A 
ATOM     70  F   UNL A   1      39.277  29.487  27.069  1.00  0.00    -0.203 F 
ATOM     71  F   UNL A   1      37.669  28.493  32.188  1.00  0.00    -0.200 F 
ATOM     72  C   UNL A   1      37.170  29.234  30.003  1.00  0.00     0.200 A 
ATOM     73  F   UNL A   1      36.716  29.951  27.801  1.00  0.00    -0.200 F 
ATOM     74  F   UNL A   1      35.889  29.425  30.345  1.00  0.00    -0.200 F 
ENDBRANCH  50  64
BRANCH  51  75
ATOM     75  C   UNL A   1      49.119  26.746  26.178  1.00  0.00     0.064 A 
ATOM     76  C   UNL A   1      50.107  26.196  27.006  1.00  0.00     0.173 A 
ATOM     77  C   UNL A   1      49.449  26.984  24.836  1.00  0.00     0.173 A 
ATOM     78  F   UNL A   1      49.845  25.969  28.301  1.00  0.00    -0.203 F 
ATOM     79  C   UNL A   1      51.377  25.904  26.513  1.00  0.00     0.198 A 
ATOM     80  C   UNL A   1      50.710  26.663  24.337  1.00  0.00     0.198 A 
ATOM     81  F   UNL A   1      48.537  27.504  24.001  1.00  0.00    -0.203 F 
ATOM     82  F   UNL A   1      52.315  25.411  27.334  1.00  0.00    -0.200 F 
ATOM     83  C   UNL A   1      51.675  26.129  25.176  1.00  0.00     0.200 A 
ATOM     84  F   UNL A   1      50.987  26.866  23.042  1.00  0.00    -0.200 F 
ATOM     85  F   UNL A   1      52.892  25.834  24.700  1.00  0.00    -0.200 F 
ENDBRANCH  51  75
BRANCH  63  86
ATOM     86  C   UNL A   1      46.014  32.498  28.626  1.00  0.00     0.064 A 
ATOM     87  C   UNL A   1      46.586  32.884  29.847  1.00  0.00     0.173 A 
ATOM     88  C   UNL A   1      45.947  33.454  27.601  1.00  0.00     0.173 A 
ATOM     89  F   UNL A   1      46.659  32.014  30.865  1.00  0.00    -0.203 F 
ATOM     90  C   UNL A   1      47.052  34.182  30.040  1.00  0.00     0.198 A 
ATOM     91  C   UNL A   1      46.444  34.742  27.787  1.00  0.00     0.198 A 
ATOM     92  F   UNL A   1      45.413  33.135  26.412  1.00  0.00    -0.203 F 
ATOM     93  F   UNL A   1      47.551  34.543  31.230  1.00  0.00    -0.200 F 
ATOM     94  C   UNL A   1      46.989  35.107  29.007  1.00  0.00     0.200 A 
ATOM     95  F   UNL A   1      46.395  35.628  26.783  1.00  0.00    -0.200 F 
ATOM     96  F   UNL A   1      47.447  36.352  29.192  1.00  0.00    -0.200 F 
ENDBRANCH  63  86
ENDBRANCH  37  38
ENDBRANCH  29  32
ENDBRANCH  27  28
ENDBRANCH  26  27
ENDBRANCH  25  26
ENDBRANCH   1  25
TORSDOF 16
ENDMDL
MODEL 2
REMARK VINA RESULT:     -12.6      4.294      9.414
REMARK SMILES O=C(Cc1ccc(-c2ccn(C(F)F)c(=O)c2)cc1)NCCCCCCNC(=O)c1ccc(-c2c3nc(c(-c4c(F)c(F)c(F)c(F)c4F)c4ccc([nH]4)c(-c4c(F)c(F)c(F)c(F)c4F)c4nc(c(-c5c(F)c(F)c(F)c(F)c5F)c5ccc2[nH]5)C=C4)C=C3)cc1
REMARK SMILES IDX 23 1 22 2 21 3 20 4 1 5 2 6 3 8 4 9 5 10 19 11 6 12 18 13
REMARK SMILES IDX 7 14 8 15 9 16 17 17 10 18 15 19 11 20 16 21 12 22 13 23
REMARK SMILES IDX 14 24 24 25 25 26 26 27 27 28 28 29 29 31 30 32 31 33 92 34
REMARK SMILES IDX 32 35 91 36 33 37 34 38 35 39 85 40 36 41 90 42 84 43 86 44
REMARK SMILES IDX 37 45 89 46 83 47 82 48 38 50 70 51 50 52 69 53 51 54 54 55
REMARK SMILES IDX 68 56 87 57 52 58 53 59 67 61 88 62 55 63 39 64 40 65 48 66
REMARK SMILES IDX 41 67 42 68 46 69 49 70 43 71 44 72 47 73 45 74 71 75 72 76
REMARK SMILES IDX 80 77 73 78 74 79 78 80 81 81 75 82 76 83 79 84 77 85 56 86
REMARK SMILES IDX 57 87 65 88 58 89 59 90 63 91 66 92 60 93 61 94 64 95 62 96
REMARK H PARENT 20 7 27 30 86 49 54 60
REMARK Flexibility Score: inf
ROOT
ATOM      1  C   UNL A   1      33.711  25.345  25.771  1.00  0.00     0.002 C 
ENDROOT
BRANCH   1   2
ATOM      2  C   UNL A   1      34.066  26.797  26.131  1.00  0.00     0.021 C 
BRANCH   2   3
ATOM      3  C   UNL A   1      33.587  27.847  25.127  1.00  0.00     0.116 C 
BRANCH   3   4
ATOM      4  N   UNL A   1      33.137  27.216  23.905  1.00  0.00    -0.356 N 
ATOM      5  O   UNL A   1      31.091  28.247  23.745  1.00  0.00    -0.275 OA
ATOM      6  C   UNL A   1      31.918  27.452  23.309  1.00  0.00     0.224 C 
ATOM      7  H   UNL A   1      33.744  26.575  23.469  1.00  0.00     0.163 HD
BRANCH   6   8
ATOM      8  C   UNL A   1      31.654  26.577  22.088  1.00  0.00     0.135 C 
BRANCH   8   9
ATOM      9  C   UNL A   1      31.834  25.099  22.344  1.00  0.00    -0.039 A 
ATOM     10  C   UNL A   1      32.865  24.389  21.713  1.00  0.00     0.005 A 
ATOM     11  C   UNL A   1      30.993  24.412  23.230  1.00  0.00     0.005 A 
ATOM     12  C   UNL A   1      33.078  23.036  21.995  1.00  0.00     0.009 A 
ATOM     13  C   UNL A   1      31.225  23.072  23.537  1.00  0.00     0.009 A 
ATOM     14  C   UNL A   1      32.277  22.375  22.934  1.00  0.00    -0.018 A 
BRANCH  14  15
ATOM     15  C   UNL A   1      32.545  20.987  23.358  1.00  0.00    -0.011 A 
ATOM     16  C   UNL A   1      33.318  20.656  24.540  1.00  0.00     0.027 A 
ATOM     17  C   UNL A   1      32.153  19.997  22.538  1.00  0.00     0.080 A 
ATOM     18  C   UNL A   1      33.692  19.393  24.777  1.00  0.00     0.095 A 
ATOM     19  C   UNL A   1      32.534  18.584  22.804  1.00  0.00     0.255 A 
ATOM     20  N   UNL A   1      33.326  18.371  23.920  1.00  0.00    -0.258 N 
ATOM     21  O   UNL A   1      32.156  17.719  22.020  1.00  0.00    -0.269 OA
BRANCH  20  22
ATOM     22  C   UNL A   1      33.795  17.028  24.139  1.00  0.00     0.451 C 
ATOM     23  F   UNL A   1      32.777  16.193  24.458  1.00  0.00    -0.185 F 
ATOM     24  F   UNL A   1      34.403  16.545  23.027  1.00  0.00    -0.185 F 
ENDBRANCH  20  22
ENDBRANCH  14  15
ENDBRANCH   8   9
ENDBRANCH   6   8
ENDBRANCH   3   4
ENDBRANCH   2   3
ENDBRANCH   1   2
BRANCH   1  25
ATOM     25  C   UNL A   1      34.724  24.620  24.880  1.00  0.00     0.002 C 
BRANCH  25  26
ATOM     26  C   UNL A   1      35.823  23.867  25.630  1.00  0.00     0.021 C 
BRANCH  26  27
ATOM     27  C   UNL A   1      37.129  23.698  24.859  1.00  0.00     0.116 C 
BRANCH  27  28
ATOM     28  N   UNL A   1      38.021  22.723  25.472  1.00  0.00    -0.352 N 
ATOM     29  C   UNL A   1      39.075  22.923  26.330  1.00  0.00     0.251 C 
ATOM     30  H   UNL A   1      37.842  21.784  25.238  1.00  0.00     0.163 HD
ATOM     31  O   UNL A   1      39.818  21.990  26.623  1.00  0.00    -0.269 OA
BRANCH  29  32
ATOM     32  C   UNL A   1      39.338  24.271  26.877  1.00  0.00     0.039 A 
ATOM     33  C   UNL A   1      38.904  24.571  28.170  1.00  0.00     0.014 A 
ATOM     34  C   UNL A   1      40.024  25.231  26.126  1.00  0.00     0.014 A 
ATOM     35  C   UNL A   1      39.231  25.801  28.743  1.00  0.00     0.010 A 
ATOM     36  C   UNL A   1      40.413  26.427  26.723  1.00  0.00     0.010 A 
ATOM     37  C   UNL A   1      40.031  26.719  28.042  1.00  0.00    -0.014 A 
BRANCH  37  38
ATOM     38  C   UNL A   1      40.518  27.965  28.691  1.00  0.00     0.031 A 
ATOM     39  C   UNL A   1      41.940  28.078  29.161  1.00  0.00     0.074 A 
ATOM     40  C   UNL A   1      39.651  28.967  28.926  1.00  0.00     0.049 A 
ATOM     41  N   UNL A   1      42.522  29.056  29.810  1.00  0.00    -0.248 NA
ATOM     42  C   UNL A   1      42.816  26.930  28.889  1.00  0.00     0.031 C 
ATOM     43  C   UNL A   1      38.232  28.955  28.569  1.00  0.00     0.029 A 
ATOM     44  N   UNL A   1      39.828  30.183  29.538  1.00  0.00    -0.354 N 
ATOM     45  C   UNL A   1      43.829  28.641  30.025  1.00  0.00     0.074 A 
ATOM     46  C   UNL A   1      43.936  27.298  29.494  1.00  0.00     0.031 C 
ATOM     47  C   UNL A   1      37.670  30.110  28.957  1.00  0.00     0.029 A 
ATOM     48  C   UNL A   1      38.676  30.925  29.629  1.00  0.00     0.049 A 
ATOM     49  H   UNL A   1      40.698  30.492  29.881  1.00  0.00     0.167 HD
ATOM     50  C   UNL A   1      44.851  29.327  30.591  1.00  0.00     0.037 A 
ATOM     51  C   UNL A   1      38.449  32.121  30.206  1.00  0.00     0.037 A 
ATOM     52  C   UNL A   1      44.736  30.661  31.122  1.00  0.00     0.049 A 
ATOM     53  C   UNL A   1      39.590  32.852  30.858  1.00  0.00     0.074 A 
ATOM     54  C   UNL A   1      45.725  31.462  31.667  1.00  0.00     0.029 A 
ATOM     55  N   UNL A   1      43.555  31.387  31.189  1.00  0.00    -0.354 N 
ATOM     56  N   UNL A   1      40.842  32.484  30.985  1.00  0.00    -0.248 NA
ATOM     57  C   UNL A   1      39.288  34.166  31.442  1.00  0.00     0.031 C 
ATOM     58  C   UNL A   1      45.131  32.646  32.118  1.00  0.00     0.029 A 
ATOM     59  C   UNL A   1      43.783  32.611  31.800  1.00  0.00     0.049 A 
ATOM     60  H   UNL A   1      42.683  31.078  30.852  1.00  0.00     0.167 HD
ATOM     61  C   UNL A   1      41.480  33.523  31.648  1.00  0.00     0.074 A 
ATOM     62  C   UNL A   1      40.482  34.547  31.876  1.00  0.00     0.031 C 
ATOM     63  C   UNL A   1      42.777  33.617  32.035  1.00  0.00     0.037 A 
BRANCH  50  64
ATOM     64  C   UNL A   1      46.184  28.635  30.672  1.00  0.00     0.064 A 
ATOM     65  C   UNL A   1      46.547  27.861  31.786  1.00  0.00     0.173 A 
ATOM     66  C   UNL A   1      47.106  28.736  29.619  1.00  0.00     0.173 A 
ATOM     67  F   UNL A   1      45.706  27.736  32.824  1.00  0.00    -0.203 F 
ATOM     68  C   UNL A   1      47.797  27.253  31.863  1.00  0.00     0.198 A 
ATOM     69  C   UNL A   1      48.343  28.097  29.684  1.00  0.00     0.198 A 
ATOM     70  F   UNL A   1      46.811  29.454  28.526  1.00  0.00    -0.203 F 
ATOM     71  F   UNL A   1      48.145  26.576  32.966  1.00  0.00    -0.200 F 
ATOM     72  C   UNL A   1      48.692  27.367  30.810  1.00  0.00     0.200 A 
ATOM     73  F   UNL A   1      49.200  28.195  28.659  1.00  0.00    -0.200 F 
ATOM     74  F   UNL A   1      49.895  26.783  30.885  1.00  0.00    -0.200 F 
ENDBRANCH  50  64
BRANCH  51  75
ATOM     75  C   UNL A   1      37.077  32.694  30.186  1.00  0.00     0.064 A 
ATOM     76  C   UNL A   1      36.170  32.439  31.223  1.00  0.00     0.173 A 
ATOM     77  C   UNL A   1      36.657  33.530  29.140  1.00  0.00     0.173 A 
ATOM     78  F   UNL A   1      36.519  31.630  32.233  1.00  0.00    -0.203 F 
ATOM     79  C   UNL A   1      34.891  32.991  31.210  1.00  0.00     0.198 A 
ATOM     80  C   UNL A   1      35.388  34.106  29.145  1.00  0.00     0.198 A 
ATOM     81  F   UNL A   1      37.489  33.809  28.127  1.00  0.00    -0.203 F 
ATOM     82  F   UNL A   1      34.030  32.703  32.197  1.00  0.00    -0.200 F 
ATOM     83  C   UNL A   1      34.504  33.831  30.176  1.00  0.00     0.200 A 
ATOM     84  F   UNL A   1      35.026  34.930  28.153  1.00  0.00    -0.200 F 
ATOM     85  F   UNL A   1      33.278  34.374  30.173  1.00  0.00    -0.200 F 
ENDBRANCH  51  75
BRANCH  63  86
ATOM     86  C   UNL A   1      43.194  34.877  32.741  1.00  0.00     0.064 A 
ATOM     87  C   UNL A   1      43.563  36.030  32.031  1.00  0.00     0.173 A 
ATOM     88  C   UNL A   1      43.187  34.945  34.142  1.00  0.00     0.173 A 
ATOM     89  F   UNL A   1      43.603  36.014  30.690  1.00  0.00    -0.203 F 
ATOM     90  C   UNL A   1      43.930  37.195  32.699  1.00  0.00     0.198 A 
ATOM     91  C   UNL A   1      43.523  36.121  34.806  1.00  0.00     0.198 A 
ATOM     92  F   UNL A   1      42.838  33.872  34.870  1.00  0.00    -0.203 F 
ATOM     93  F   UNL A   1      44.325  38.269  32.001  1.00  0.00    -0.200 F 
ATOM     94  C   UNL A   1      43.901  37.242  34.085  1.00  0.00     0.200 A 
ATOM     95  F   UNL A   1      43.480  36.169  36.145  1.00  0.00    -0.200 F 
ATOM     96  F   UNL A   1      44.245  38.368  34.725  1.00  0.00    -0.200 F 
ENDBRANCH  63  86
ENDBRANCH  37  38
ENDBRANCH  29  32
ENDBRANCH  27  28
ENDBRANCH  26  27
ENDBRANCH  25  26
ENDBRANCH   1  25
TORSDOF 16
ENDMDL
MODEL 3
REMARK VINA RESULT:     -12.5      0.626      7.298
REMARK SMILES O=C(Cc1ccc(-c2ccn(C(F)F)c(=O)c2)cc1)NCCCCCCNC(=O)c1ccc(-c2c3nc(c(-c4c(F)c(F)c(F)c(F)c4F)c4ccc([nH]4)c(-c4c(F)c(F)c(F)c(F)c4F)c4nc(c(-c5c(F)c(F)c(F)c(F)c5F)c5ccc2[nH]5)C=C4)C=C3)cc1
REMARK SMILES IDX 23 1 22 2 21 3 20 4 1 5 2 6 3 8 4 9 5 10 19 11 6 12 18 13
REMARK SMILES IDX 7 14 8 15 9 16 17 17 10 18 15 19 11 20 16 21 12 22 13 23
REMARK SMILES IDX 14 24 24 25 25 26 26 27 27 28 28 29 29 31 30 32 31 33 92 34
REMARK SMILES IDX 32 35 91 36 33 37 34 38 35 39 85 40 36 41 90 42 84 43 86 44
REMARK SMILES IDX 37 45 89 46 83 47 82 48 38 50 70 51 50 52 69 53 51 54 54 55
REMARK SMILES IDX 68 56 87 57 52 58 53 59 67 61 88 62 55 63 39 64 40 65 48 66
REMARK SMILES IDX 41 67 42 68 46 69 49 70 43 71 44 72 47 73 45 74 71 75 72 76
REMARK SMILES IDX 80 77 73 78 74 79 78 80 81 81 75 82 76 83 79 84 77 85 56 86
REMARK SMILES IDX 57 87 65 88 58 89 59 90 63 91 66 92 60 93 61 94 64 95 62 96
REMARK H PARENT 20 7 27 30 86 49 54 60
REMARK Flexibility Score: inf
ROOT
ATOM      1  C   UNL A   1      37.111  22.453  25.113  1.00  0.00     0.002 C 
ENDROOT
BRANCH   1   2
ATOM      2  C   UNL A   1      36.138  23.264  25.983  1.00  0.00     0.021 C 
BRANCH   2   3
ATOM      3  C   UNL A   1      35.143  22.428  26.791  1.00  0.00     0.116 C 
BRANCH   3   4
ATOM      4  N   UNL A   1      33.840  22.436  26.162  1.00  0.00    -0.356 N 
ATOM      5  O   UNL A   1      32.564  22.602  28.064  1.00  0.00    -0.275 OA
ATOM      6  C   UNL A   1      32.646  22.510  26.843  1.00  0.00     0.224 C 
ATOM      7  H   UNL A   1      33.805  22.386  25.179  1.00  0.00     0.163 HD
BRANCH   6   8
ATOM      8  C   UNL A   1      31.419  22.395  25.944  1.00  0.00     0.135 C 
BRANCH   8   9
ATOM      9  C   UNL A   1      31.033  23.691  25.268  1.00  0.00    -0.039 A 
ATOM     10  C   UNL A   1      31.117  23.818  23.875  1.00  0.00     0.005 A 
ATOM     11  C   UNL A   1      30.563  24.781  26.014  1.00  0.00     0.005 A 
ATOM     12  C   UNL A   1      30.700  24.992  23.238  1.00  0.00     0.009 A 
ATOM     13  C   UNL A   1      30.116  25.938  25.378  1.00  0.00     0.009 A 
ATOM     14  C   UNL A   1      30.166  26.050  23.984  1.00  0.00    -0.018 A 
BRANCH  14  15
ATOM     15  C   UNL A   1      29.596  27.251  23.346  1.00  0.00    -0.011 A 
ATOM     16  C   UNL A   1      30.404  28.242  22.660  1.00  0.00     0.027 A 
ATOM     17  C   UNL A   1      28.284  27.489  23.520  1.00  0.00     0.080 A 
ATOM     18  C   UNL A   1      29.867  29.402  22.264  1.00  0.00     0.095 A 
ATOM     19  C   UNL A   1      27.666  28.760  23.059  1.00  0.00     0.255 A 
ATOM     20  N   UNL A   1      28.527  29.673  22.472  1.00  0.00    -0.258 N 
ATOM     21  O   UNL A   1      26.466  28.930  23.249  1.00  0.00    -0.269 OA
BRANCH  20  22
ATOM     22  C   UNL A   1      27.974  30.952  22.113  1.00  0.00     0.451 C 
ATOM     23  F   UNL A   1      27.749  31.720  23.206  1.00  0.00    -0.185 F 
ATOM     24  F   UNL A   1      28.819  31.626  21.292  1.00  0.00    -0.185 F 
ENDBRANCH  20  22
ENDBRANCH  14  15
ENDBRANCH   8   9
ENDBRANCH   6   8
ENDBRANCH   3   4
ENDBRANCH   2   3
ENDBRANCH   1   2
BRANCH   1  25
ATOM     25  C   UNL A   1      36.677  21.018  24.799  1.00  0.00     0.002 C 
BRANCH  25  26
ATOM     26  C   UNL A   1      37.774  19.964  24.942  1.00  0.00     0.021 C 
BRANCH  26  27
ATOM     27  C   UNL A   1      39.013  20.422  25.708  1.00  0.00     0.116 C 
BRANCH  27  28
ATOM     28  N   UNL A   1      40.000  19.363  25.863  1.00  0.00    -0.352 N 
ATOM     29  C   UNL A   1      41.350  19.456  26.104  1.00  0.00     0.251 C 
ATOM     30  H   UNL A   1      39.650  18.447  25.783  1.00  0.00     0.163 HD
ATOM     31  O   UNL A   1      42.058  18.455  26.047  1.00  0.00    -0.269 OA
BRANCH  29  32
ATOM     32  C   UNL A   1      41.958  20.770  26.400  1.00  0.00     0.039 A 
ATOM     33  C   UNL A   1      42.308  21.606  25.337  1.00  0.00     0.014 A 
ATOM     34  C   UNL A   1      42.169  21.186  27.718  1.00  0.00     0.014 A 
ATOM     35  C   UNL A   1      42.790  22.891  25.595  1.00  0.00     0.010 A 
ATOM     36  C   UNL A   1      42.579  22.492  27.974  1.00  0.00     0.010 A 
ATOM     37  C   UNL A   1      42.881  23.362  26.915  1.00  0.00    -0.014 A 
BRANCH  37  38
ATOM     38  C   UNL A   1      43.243  24.774  27.203  1.00  0.00     0.031 A 
ATOM     39  C   UNL A   1      44.650  25.260  27.012  1.00  0.00     0.074 A 
ATOM     40  C   UNL A   1      42.310  25.601  27.715  1.00  0.00     0.049 A 
ATOM     41  N   UNL A   1      45.165  26.434  27.279  1.00  0.00    -0.248 NA
ATOM     42  C   UNL A   1      45.614  24.289  26.474  1.00  0.00     0.031 C 
ATOM     43  C   UNL A   1      40.923  25.233  27.999  1.00  0.00     0.029 A 
ATOM     44  N   UNL A   1      42.392  26.915  28.104  1.00  0.00    -0.354 N 
ATOM     45  C   UNL A   1      46.509  26.343  26.945  1.00  0.00     0.074 A 
ATOM     46  C   UNL A   1      46.743  24.980  26.516  1.00  0.00     0.031 C 
ATOM     47  C   UNL A   1      40.281  26.296  28.507  1.00  0.00     0.029 A 
ATOM     48  C   UNL A   1      41.220  27.407  28.625  1.00  0.00     0.049 A 
ATOM     49  H   UNL A   1      43.212  27.452  28.020  1.00  0.00     0.167 HD
ATOM     50  C   UNL A   1      47.454  27.314  26.970  1.00  0.00     0.037 A 
ATOM     51  C   UNL A   1      40.936  28.611  29.157  1.00  0.00     0.037 A 
ATOM     52  C   UNL A   1      47.215  28.667  27.404  1.00  0.00     0.049 A 
ATOM     53  C   UNL A   1      42.009  29.664  29.206  1.00  0.00     0.074 A 
ATOM     54  C   UNL A   1      48.092  29.737  27.415  1.00  0.00     0.029 A 
ATOM     55  N   UNL A   1      46.012  29.132  27.916  1.00  0.00    -0.354 N 
ATOM     56  N   UNL A   1      43.257  29.591  28.812  1.00  0.00    -0.248 NA
ATOM     57  C   UNL A   1      41.631  30.969  29.768  1.00  0.00     0.031 C 
ATOM     58  C   UNL A   1      47.439  30.833  27.992  1.00  0.00     0.029 A 
ATOM     59  C   UNL A   1      46.135  30.465  28.283  1.00  0.00     0.049 A 
ATOM     60  H   UNL A   1      45.192  28.596  28.007  1.00  0.00     0.167 HD
ATOM     61  C   UNL A   1      43.810  30.840  29.063  1.00  0.00     0.074 A 
ATOM     62  C   UNL A   1      42.755  31.658  29.623  1.00  0.00     0.031 C 
ATOM     63  C   UNL A   1      45.081  31.266  28.852  1.00  0.00     0.037 A 
BRANCH  50  64
ATOM     64  C   UNL A   1      48.840  26.937  26.523  1.00  0.00     0.064 A 
ATOM     65  C   UNL A   1      49.244  27.069  25.185  1.00  0.00     0.173 A 
ATOM     66  C   UNL A   1      49.779  26.449  27.444  1.00  0.00     0.173 A 
ATOM     67  F   UNL A   1      48.384  27.524  24.261  1.00  0.00    -0.203 F 
ATOM     68  C   UNL A   1      50.519  26.685  24.778  1.00  0.00     0.198 A 
ATOM     69  C   UNL A   1      51.066  26.099  27.039  1.00  0.00     0.198 A 
ATOM     70  F   UNL A   1      49.453  26.309  28.737  1.00  0.00    -0.203 F 
ATOM     71  F   UNL A   1      50.858  26.758  23.484  1.00  0.00    -0.200 F 
ATOM     72  C   UNL A   1      51.431  26.205  25.705  1.00  0.00     0.200 A 
ATOM     73  F   UNL A   1      51.951  25.650  27.940  1.00  0.00    -0.200 F 
ATOM     74  F   UNL A   1      52.657  25.835  25.313  1.00  0.00    -0.200 F 
ENDBRANCH  50  64
BRANCH  51  75
ATOM     75  C   UNL A   1      39.571  28.875  29.684  1.00  0.00     0.064 A 
ATOM     76  C   UNL A   1      39.239  28.585  31.014  1.00  0.00     0.173 A 
ATOM     77  C   UNL A   1      38.580  29.448  28.872  1.00  0.00     0.173 A 
ATOM     78  F   UNL A   1      40.146  28.019  31.822  1.00  0.00    -0.203 F 
ATOM     79  C   UNL A   1      37.964  28.849  31.509  1.00  0.00     0.198 A 
ATOM     80  C   UNL A   1      37.315  29.740  29.378  1.00  0.00     0.198 A 
ATOM     81  F   UNL A   1      38.850  29.749  27.593  1.00  0.00    -0.203 F 
ATOM     82  F   UNL A   1      37.661  28.530  32.776  1.00  0.00    -0.200 F 
ATOM     83  C   UNL A   1      37.006  29.435  30.694  1.00  0.00     0.200 A 
ATOM     84  F   UNL A   1      36.400  30.321  28.592  1.00  0.00    -0.200 F 
ATOM     85  F   UNL A   1      35.785  29.702  31.177  1.00  0.00    -0.200 F 
ENDBRANCH  51  75
BRANCH  63  86
ATOM     86  C   UNL A   1      45.399  32.688  29.221  1.00  0.00     0.064 A 
ATOM     87  C   UNL A   1      45.193  33.744  28.321  1.00  0.00     0.173 A 
ATOM     88  C   UNL A   1      45.877  33.002  30.503  1.00  0.00     0.173 A 
ATOM     89  F   UNL A   1      44.754  33.497  27.078  1.00  0.00    -0.203 F 
ATOM     90  C   UNL A   1      45.476  35.059  28.683  1.00  0.00     0.198 A 
ATOM     91  C   UNL A   1      46.128  34.321  30.872  1.00  0.00     0.198 A 
ATOM     92  F   UNL A   1      46.087  32.030  31.403  1.00  0.00    -0.203 F 
ATOM     93  F   UNL A   1      45.318  36.046  27.792  1.00  0.00    -0.200 F 
ATOM     94  C   UNL A   1      45.934  35.346  29.961  1.00  0.00     0.200 A 
ATOM     95  F   UNL A   1      46.556  34.598  32.111  1.00  0.00    -0.200 F 
ATOM     96  F   UNL A   1      46.196  36.613  30.310  1.00  0.00    -0.200 F 
ENDBRANCH  63  86
ENDBRANCH  37  38
ENDBRANCH  29  32
ENDBRANCH  27  28
ENDBRANCH  26  27
ENDBRANCH  25  26
ENDBRANCH   1  25
TORSDOF 16
ENDMDL
