MODEL 1
REMARK VINA RESULT:     -12.2      0.000      0.000
REMARK SMILES CCc1nn(C)c(C[C@@H](C(=O)NCCCCCCNC(=O)c2ccc(-c3c4nc(c(-c5c(F)c(F)c(F)c(F)c5F)c5ccc([nH]5)c(-c5c(F)c(F)c(F)c(F)c5F)c5nc(c(-c6c(F)c(F)c(F)c(F)c6F)c6ccc3[nH]6)C=C5)C=C4)cc2)c2cccc(C)c2)c1Br
REMARK SMILES IDX 15 1 14 2 13 3 12 4 10 5 11 6 9 8 8 9 7 10 3 11 4 12 92 13
REMARK SMILES IDX 5 14 93 15 6 16 2 17 1 18 85 19 86 20 91 21 87 22 89 23
REMARK SMILES IDX 88 24 90 25 16 26 17 27 18 28 19 29 20 30 21 32 22 33 23 34
REMARK SMILES IDX 84 35 24 36 83 37 25 38 26 39 27 40 77 41 28 42 82 43 76 44
REMARK SMILES IDX 78 45 29 46 81 47 75 48 74 49 30 51 62 52 42 53 61 54 43 55
REMARK SMILES IDX 46 56 60 57 79 58 44 59 45 60 59 62 80 63 47 64 31 65 32 66
REMARK SMILES IDX 40 67 33 68 34 69 38 70 41 71 35 72 36 73 39 74 37 75 63 76
REMARK SMILES IDX 64 77 72 78 65 79 66 80 70 81 73 82 67 83 68 84 71 85 69 86
REMARK SMILES IDX 48 87 49 88 57 89 50 90 51 91 55 92 58 93 52 94 53 95 56 96
REMARK SMILES IDX 54 97
REMARK H PARENT 12 7 19 31 78 50 46 61
REMARK Flexibility Score: inf
ROOT
ATOM      1  C   UNL A   1      38.991  21.741  25.978  1.00  0.00     0.002 C 
ENDROOT
BRANCH   1   2
ATOM      2  C   UNL A   1      38.584  23.207  26.167  1.00  0.00     0.021 C 
BRANCH   2   3
ATOM      3  C   UNL A   1      37.085  23.550  26.119  1.00  0.00     0.116 C 
BRANCH   3   4
ATOM      4  N   UNL A   1      36.636  23.693  24.744  1.00  0.00    -0.356 N 
ATOM      5  C   UNL A   1      35.408  23.662  24.154  1.00  0.00     0.227 C 
ATOM      6  O   UNL A   1      35.445  23.263  22.985  1.00  0.00    -0.274 OA
ATOM      7  H   UNL A   1      37.372  23.842  24.107  1.00  0.00     0.163 HD
BRANCH   5   8
ATOM      8  C   UNL A   1      34.084  24.055  24.869  1.00  0.00     0.114 C 
BRANCH   8   9
ATOM      9  C   UNL A   1      32.876  23.356  24.189  1.00  0.00     0.075 C 
BRANCH   9  10
ATOM     10  C   UNL A   1      32.804  21.875  24.287  1.00  0.00     0.054 A 
ATOM     11  C   UNL A   1      32.828  19.711  24.823  1.00  0.00     0.077 A 
ATOM     12  N   UNL A   1      32.354  19.763  23.568  1.00  0.00    -0.177 NA
ATOM     13  C   UNL A   1      33.076  21.007  25.319  1.00  0.00     0.062 A 
ATOM     14  N   UNL A   1      32.317  21.083  23.277  1.00  0.00    -0.271 N 
ATOM     15  Br  UNL A   1      33.702  21.428  27.034  1.00  0.00    -0.047 Br
ATOM     16  C   UNL A   1      31.928  21.516  21.951  1.00  0.00     0.174 C 
BRANCH  11  17
ATOM     17  C   UNL A   1      33.051  18.392  25.487  1.00  0.00     0.056 C 
ATOM     18  C   UNL A   1      33.947  17.471  24.669  1.00  0.00     0.011 C 
ENDBRANCH  11  17
ENDBRANCH   9  10
ENDBRANCH   8   9
BRANCH   8  19
ATOM     19  C   UNL A   1      33.710  25.576  24.801  1.00  0.00    -0.035 A 
ATOM     20  C   UNL A   1      33.634  26.198  23.535  1.00  0.00     0.004 A 
ATOM     21  C   UNL A   1      33.669  26.422  25.922  1.00  0.00     0.008 A 
ATOM     22  C   UNL A   1      33.691  27.590  23.403  1.00  0.00     0.001 A 
ATOM     23  C   UNL A   1      33.718  27.823  25.802  1.00  0.00    -0.051 A 
ATOM     24  C   UNL A   1      33.765  28.399  24.532  1.00  0.00     0.003 A 
ATOM     25  C   UNL A   1      33.806  28.688  27.026  1.00  0.00     0.044 C 
ENDBRANCH   8  19
ENDBRANCH   5   8
ENDBRANCH   3   4
ENDBRANCH   2   3
ENDBRANCH   1   2
BRANCH   1  26
ATOM     26  C   UNL A   1      40.295  21.311  26.650  1.00  0.00     0.002 C 
BRANCH  26  27
ATOM     27  C   UNL A   1      40.914  19.998  26.153  1.00  0.00     0.021 C 
BRANCH  27  28
ATOM     28  C   UNL A   1      42.240  19.625  26.807  1.00  0.00     0.116 C 
BRANCH  28  29
ATOM     29  N   UNL A   1      43.322  19.474  25.844  1.00  0.00    -0.352 N 
ATOM     30  C   UNL A   1      43.947  20.472  25.133  1.00  0.00     0.251 C 
ATOM     31  H   UNL A   1      43.642  18.557  25.685  1.00  0.00     0.163 HD
ATOM     32  O   UNL A   1      44.560  20.219  24.096  1.00  0.00    -0.269 OA
BRANCH  30  33
ATOM     33  C   UNL A   1      43.880  21.858  25.626  1.00  0.00     0.039 A 
ATOM     34  C   UNL A   1      43.048  22.790  24.999  1.00  0.00     0.014 A 
ATOM     35  C   UNL A   1      44.678  22.231  26.711  1.00  0.00     0.014 A 
ATOM     36  C   UNL A   1      42.982  24.082  25.508  1.00  0.00     0.010 A 
ATOM     37  C   UNL A   1      44.544  23.484  27.272  1.00  0.00     0.010 A 
ATOM     38  C   UNL A   1      43.721  24.421  26.655  1.00  0.00    -0.014 A 
BRANCH  38  39
ATOM     39  C   UNL A   1      43.503  25.721  27.289  1.00  0.00     0.031 A 
ATOM     40  C   UNL A   1      44.494  26.751  26.880  1.00  0.00     0.074 A 
ATOM     41  C   UNL A   1      42.415  26.042  28.022  1.00  0.00     0.049 A 
ATOM     42  N   UNL A   1      45.412  27.287  27.613  1.00  0.00    -0.248 NA
ATOM     43  C   UNL A   1      44.567  27.135  25.461  1.00  0.00     0.031 C 
ATOM     44  C   UNL A   1      41.205  25.236  28.210  1.00  0.00     0.029 A 
ATOM     45  N   UNL A   1      42.108  27.204  28.678  1.00  0.00    -0.354 N 
ATOM     46  C   UNL A   1      46.022  28.250  26.811  1.00  0.00     0.074 A 
ATOM     47  C   UNL A   1      45.604  27.978  25.462  1.00  0.00     0.031 C 
ATOM     48  C   UNL A   1      40.219  26.007  28.717  1.00  0.00     0.029 A 
ATOM     49  C   UNL A   1      40.774  27.304  29.060  1.00  0.00     0.049 A 
ATOM     50  H   UNL A   1      42.774  27.906  28.864  1.00  0.00     0.167 HD
ATOM     51  C   UNL A   1      46.549  29.369  27.382  1.00  0.00     0.037 A 
ATOM     52  C   UNL A   1      40.156  28.370  29.621  1.00  0.00     0.037 A 
ATOM     53  C   UNL A   1      46.661  29.202  28.809  1.00  0.00     0.049 A 
ATOM     54  C   UNL A   1      41.188  29.223  30.247  1.00  0.00     0.074 A 
ATOM     55  C   UNL A   1      47.516  28.591  29.698  1.00  0.00     0.029 A 
ATOM     56  N   UNL A   1      45.494  29.453  29.473  1.00  0.00    -0.354 N 
ATOM     57  N   UNL A   1      41.878  28.863  31.291  1.00  0.00    -0.248 NA
ATOM     58  C   UNL A   1      41.704  30.377  29.518  1.00  0.00     0.031 C 
ATOM     59  C   UNL A   1      46.772  28.394  30.901  1.00  0.00     0.029 A 
ATOM     60  C   UNL A   1      45.496  28.920  30.731  1.00  0.00     0.049 A 
ATOM     61  H   UNL A   1      44.740  29.957  29.091  1.00  0.00     0.167 HD
ATOM     62  C   UNL A   1      43.112  29.443  31.090  1.00  0.00     0.074 A 
ATOM     63  C   UNL A   1      42.894  30.501  30.112  1.00  0.00     0.031 C 
ATOM     64  C   UNL A   1      44.252  28.790  31.450  1.00  0.00     0.037 A 
BRANCH  51  65
ATOM     65  C   UNL A   1      46.459  30.768  26.802  1.00  0.00     0.064 A 
ATOM     66  C   UNL A   1      47.604  31.596  26.852  1.00  0.00     0.173 A 
ATOM     67  C   UNL A   1      45.246  31.437  26.531  1.00  0.00     0.173 A 
ATOM     68  F   UNL A   1      48.812  31.074  27.115  1.00  0.00    -0.203 F 
ATOM     69  C   UNL A   1      47.523  32.986  26.727  1.00  0.00     0.198 A 
ATOM     70  C   UNL A   1      45.177  32.820  26.358  1.00  0.00     0.198 A 
ATOM     71  F   UNL A   1      44.066  30.808  26.538  1.00  0.00    -0.203 F 
ATOM     72  F   UNL A   1      48.617  33.738  26.907  1.00  0.00    -0.200 F 
ATOM     73  C   UNL A   1      46.306  33.597  26.488  1.00  0.00     0.200 A 
ATOM     74  F   UNL A   1      43.984  33.396  26.150  1.00  0.00    -0.200 F 
ATOM     75  F   UNL A   1      46.213  34.932  26.430  1.00  0.00    -0.200 F 
ENDBRANCH  51  65
BRANCH  52  76
ATOM     76  C   UNL A   1      38.745  28.802  29.519  1.00  0.00     0.064 A 
ATOM     77  C   UNL A   1      37.959  29.014  30.663  1.00  0.00     0.173 A 
ATOM     78  C   UNL A   1      38.237  29.297  28.305  1.00  0.00     0.173 A 
ATOM     79  F   UNL A   1      38.390  28.602  31.864  1.00  0.00    -0.203 F 
ATOM     80  C   UNL A   1      36.751  29.714  30.601  1.00  0.00     0.198 A 
ATOM     81  C   UNL A   1      37.030  29.996  28.243  1.00  0.00     0.198 A 
ATOM     82  F   UNL A   1      38.952  29.197  27.174  1.00  0.00    -0.203 F 
ATOM     83  F   UNL A   1      36.060  29.955  31.724  1.00  0.00    -0.200 F 
ATOM     84  C   UNL A   1      36.295  30.219  29.394  1.00  0.00     0.200 A 
ATOM     85  F   UNL A   1      36.617  30.511  27.076  1.00  0.00    -0.200 F 
ATOM     86  F   UNL A   1      35.174  30.952  29.346  1.00  0.00    -0.200 F 
ENDBRANCH  52  76
BRANCH  64  87
ATOM     87  C   UNL A   1      44.151  27.778  32.542  1.00  0.00     0.064 A 
ATOM     88  C   UNL A   1      44.026  28.083  33.907  1.00  0.00     0.173 A 
ATOM     89  C   UNL A   1      44.132  26.427  32.173  1.00  0.00     0.173 A 
ATOM     90  F   UNL A   1      43.966  29.354  34.327  1.00  0.00    -0.203 F 
ATOM     91  C   UNL A   1      43.923  27.070  34.860  1.00  0.00     0.198 A 
ATOM     92  C   UNL A   1      43.996  25.421  33.121  1.00  0.00     0.198 A 
ATOM     93  F   UNL A   1      44.217  26.084  30.877  1.00  0.00    -0.203 F 
ATOM     94  F   UNL A   1      43.828  27.380  36.162  1.00  0.00    -0.200 F 
ATOM     95  C   UNL A   1      43.903  25.742  34.465  1.00  0.00     0.200 A 
ATOM     96  F   UNL A   1      43.939  24.140  32.729  1.00  0.00    -0.200 F 
ATOM     97  F   UNL A   1      43.777  24.769  35.379  1.00  0.00    -0.200 F 
ENDBRANCH  64  87
ENDBRANCH  38  39
ENDBRANCH  30  33
ENDBRANCH  28  29
ENDBRANCH  27  28
ENDBRANCH  26  27
ENDBRANCH   1  26
TORSDOF 17
ENDMDL
MODEL 2
REMARK VINA RESULT:     -12.1      1.321      3.471
REMARK SMILES CCc1nn(C)c(C[C@@H](C(=O)NCCCCCCNC(=O)c2ccc(-c3c4nc(c(-c5c(F)c(F)c(F)c(F)c5F)c5ccc([nH]5)c(-c5c(F)c(F)c(F)c(F)c5F)c5nc(c(-c6c(F)c(F)c(F)c(F)c6F)c6ccc3[nH]6)C=C5)C=C4)cc2)c2cccc(C)c2)c1Br
REMARK SMILES IDX 15 1 14 2 13 3 12 4 10 5 11 6 9 8 8 9 7 10 3 11 4 12 92 13
REMARK SMILES IDX 5 14 93 15 6 16 2 17 1 18 85 19 86 20 91 21 87 22 89 23
REMARK SMILES IDX 88 24 90 25 16 26 17 27 18 28 19 29 20 30 21 32 22 33 23 34
REMARK SMILES IDX 84 35 24 36 83 37 25 38 26 39 27 40 77 41 28 42 82 43 76 44
REMARK SMILES IDX 78 45 29 46 81 47 75 48 74 49 30 51 62 52 42 53 61 54 43 55
REMARK SMILES IDX 46 56 60 57 79 58 44 59 45 60 59 62 80 63 47 64 31 65 32 66
REMARK SMILES IDX 40 67 33 68 34 69 38 70 41 71 35 72 36 73 39 74 37 75 63 76
REMARK SMILES IDX 64 77 72 78 65 79 66 80 70 81 73 82 67 83 68 84 71 85 69 86
REMARK SMILES IDX 48 87 49 88 57 89 50 90 51 91 55 92 58 93 52 94 53 95 56 96
REMARK SMILES IDX 54 97
REMARK H PARENT 12 7 19 31 78 50 46 61
REMARK Flexibility Score: inf
ROOT
ATOM      1  C   UNL A   1      39.158  22.375  25.874  1.00  0.00     0.002 C 
ENDROOT
BRANCH   1   2
ATOM      2  C   UNL A   1      38.051  23.236  26.493  1.00  0.00     0.021 C 
BRANCH   2   3
ATOM      3  C   UNL A   1      36.655  23.188  25.848  1.00  0.00     0.116 C 
BRANCH   3   4
ATOM      4  N   UNL A   1      35.816  22.206  26.514  1.00  0.00    -0.356 N 
ATOM      5  C   UNL A   1      34.574  21.708  26.254  1.00  0.00     0.227 C 
ATOM      6  O   UNL A   1      33.977  21.349  27.275  1.00  0.00    -0.274 OA
ATOM      7  H   UNL A   1      36.230  21.822  27.321  1.00  0.00     0.163 HD
BRANCH   5   8
ATOM      8  C   UNL A   1      33.947  21.619  24.834  1.00  0.00     0.114 C 
BRANCH   8   9
ATOM      9  C   UNL A   1      32.503  22.189  24.846  1.00  0.00     0.075 C 
BRANCH   9  10
ATOM     10  C   UNL A   1      32.305  23.525  25.467  1.00  0.00     0.054 A 
ATOM     11  C   UNL A   1      32.297  25.653  26.129  1.00  0.00     0.077 A 
ATOM     12  N   UNL A   1      31.346  25.049  26.859  1.00  0.00    -0.177 NA
ATOM     13  C   UNL A   1      32.883  24.748  25.221  1.00  0.00     0.062 A 
ATOM     14  N   UNL A   1      31.345  23.771  26.417  1.00  0.00    -0.271 N 
ATOM     15  Br  UNL A   1      34.222  25.152  23.975  1.00  0.00    -0.047 Br
ATOM     16  C   UNL A   1      30.485  22.792  27.050  1.00  0.00     0.174 C 
BRANCH  11  17
ATOM     17  C   UNL A   1      32.622  27.092  26.364  1.00  0.00     0.056 C 
ATOM     18  C   UNL A   1      31.517  27.825  27.114  1.00  0.00     0.011 C 
ENDBRANCH  11  17
ENDBRANCH   9  10
ENDBRANCH   8   9
BRANCH   8  19
ATOM     19  C   UNL A   1      33.761  20.167  24.272  1.00  0.00    -0.035 A 
ATOM     20  C   UNL A   1      32.580  19.865  23.558  1.00  0.00     0.004 A 
ATOM     21  C   UNL A   1      34.581  19.082  24.623  1.00  0.00     0.008 A 
ATOM     22  C   UNL A   1      32.165  18.542  23.365  1.00  0.00     0.001 A 
ATOM     23  C   UNL A   1      34.178  17.748  24.428  1.00  0.00    -0.051 A 
ATOM     24  C   UNL A   1      32.946  17.488  23.827  1.00  0.00     0.003 A 
ATOM     25  C   UNL A   1      35.023  16.616  24.937  1.00  0.00     0.044 C 
ENDBRANCH   8  19
ENDBRANCH   5   8
ENDBRANCH   3   4
ENDBRANCH   2   3
ENDBRANCH   1   2
BRANCH   1  26
ATOM     26  C   UNL A   1      40.047  21.612  26.856  1.00  0.00     0.002 C 
BRANCH  26  27
ATOM     27  C   UNL A   1      40.629  20.284  26.354  1.00  0.00     0.021 C 
BRANCH  27  28
ATOM     28  C   UNL A   1      41.898  19.829  27.065  1.00  0.00     0.116 C 
BRANCH  28  29
ATOM     29  N   UNL A   1      43.014  19.623  26.152  1.00  0.00    -0.352 N 
ATOM     30  C   UNL A   1      43.702  20.585  25.450  1.00  0.00     0.251 C 
ATOM     31  H   UNL A   1      43.309  18.693  26.022  1.00  0.00     0.163 HD
ATOM     32  O   UNL A   1      44.350  20.292  24.445  1.00  0.00    -0.269 OA
BRANCH  30  33
ATOM     33  C   UNL A   1      43.664  21.983  25.916  1.00  0.00     0.039 A 
ATOM     34  C   UNL A   1      42.968  22.949  25.184  1.00  0.00     0.014 A 
ATOM     35  C   UNL A   1      44.350  22.329  27.082  1.00  0.00     0.014 A 
ATOM     36  C   UNL A   1      42.921  24.253  25.666  1.00  0.00     0.010 A 
ATOM     37  C   UNL A   1      44.228  23.598  27.607  1.00  0.00     0.010 A 
ATOM     38  C   UNL A   1      43.541  24.570  26.887  1.00  0.00    -0.014 A 
BRANCH  38  39
ATOM     39  C   UNL A   1      43.331  25.891  27.475  1.00  0.00     0.031 A 
ATOM     40  C   UNL A   1      44.323  26.903  27.026  1.00  0.00     0.074 A 
ATOM     41  C   UNL A   1      42.247  26.242  28.201  1.00  0.00     0.049 A 
ATOM     42  N   UNL A   1      45.245  27.461  27.735  1.00  0.00    -0.248 NA
ATOM     43  C   UNL A   1      44.391  27.236  25.594  1.00  0.00     0.031 C 
ATOM     44  C   UNL A   1      41.034  25.447  28.423  1.00  0.00     0.029 A 
ATOM     45  N   UNL A   1      41.946  27.428  28.817  1.00  0.00    -0.354 N 
ATOM     46  C   UNL A   1      45.855  28.394  26.897  1.00  0.00     0.074 A 
ATOM     47  C   UNL A   1      45.431  28.075  25.561  1.00  0.00     0.031 C 
ATOM     48  C   UNL A   1      40.053  26.240  28.906  1.00  0.00     0.029 A 
ATOM     49  C   UNL A   1      40.614  27.546  29.200  1.00  0.00     0.049 A 
ATOM     50  H   UNL A   1      42.615  28.133  28.974  1.00  0.00     0.167 HD
ATOM     51  C   UNL A   1      46.388  29.530  27.426  1.00  0.00     0.037 A 
ATOM     52  C   UNL A   1      40.002  28.633  29.726  1.00  0.00     0.037 A 
ATOM     53  C   UNL A   1      46.507  29.414  28.858  1.00  0.00     0.049 A 
ATOM     54  C   UNL A   1      41.039  29.504  30.316  1.00  0.00     0.074 A 
ATOM     55  C   UNL A   1      47.363  28.832  29.764  1.00  0.00     0.029 A 
ATOM     56  N   UNL A   1      45.343  29.692  29.518  1.00  0.00    -0.354 N 
ATOM     57  N   UNL A   1      41.733  29.180  31.370  1.00  0.00    -0.248 NA
ATOM     58  C   UNL A   1      41.556  30.630  29.545  1.00  0.00     0.031 C 
ATOM     59  C   UNL A   1      46.624  28.680  30.977  1.00  0.00     0.029 A 
ATOM     60  C   UNL A   1      45.348  29.204  30.794  1.00  0.00     0.049 A 
ATOM     61  H   UNL A   1      44.589  30.185  29.121  1.00  0.00     0.167 HD
ATOM     62  C   UNL A   1      42.968  29.748  31.143  1.00  0.00     0.074 A 
ATOM     63  C   UNL A   1      42.749  30.771  30.130  1.00  0.00     0.031 C 
ATOM     64  C   UNL A   1      44.107  29.104  31.522  1.00  0.00     0.037 A 
BRANCH  51  65
ATOM     65  C   UNL A   1      46.301  30.908  26.797  1.00  0.00     0.064 A 
ATOM     66  C   UNL A   1      47.465  31.708  26.756  1.00  0.00     0.173 A 
ATOM     67  C   UNL A   1      45.091  31.596  26.562  1.00  0.00     0.173 A 
ATOM     68  F   UNL A   1      48.674  31.167  26.977  1.00  0.00    -0.203 F 
ATOM     69  C   UNL A   1      47.410  33.094  26.581  1.00  0.00     0.198 A 
ATOM     70  C   UNL A   1      45.045  32.973  26.339  1.00  0.00     0.198 A 
ATOM     71  F   UNL A   1      43.899  30.998  26.654  1.00  0.00    -0.203 F 
ATOM     72  F   UNL A   1      48.529  33.826  26.676  1.00  0.00    -0.200 F 
ATOM     73  C   UNL A   1      46.197  33.727  26.381  1.00  0.00     0.200 A 
ATOM     74  F   UNL A   1      43.856  33.571  26.171  1.00  0.00    -0.200 F 
ATOM     75  F   UNL A   1      46.132  35.060  26.276  1.00  0.00    -0.200 F 
ENDBRANCH  51  65
BRANCH  52  76
ATOM     76  C   UNL A   1      38.591  29.067  29.614  1.00  0.00     0.064 A 
ATOM     77  C   UNL A   1      37.804  29.297  30.753  1.00  0.00     0.173 A 
ATOM     78  C   UNL A   1      38.087  29.543  28.391  1.00  0.00     0.173 A 
ATOM     79  F   UNL A   1      38.232  28.904  31.961  1.00  0.00    -0.203 F 
ATOM     80  C   UNL A   1      36.597  29.999  30.678  1.00  0.00     0.198 A 
ATOM     81  C   UNL A   1      36.881  30.243  28.316  1.00  0.00     0.198 A 
ATOM     82  F   UNL A   1      38.804  29.424  27.264  1.00  0.00    -0.203 F 
ATOM     83  F   UNL A   1      35.904  30.259  31.796  1.00  0.00    -0.200 F 
ATOM     84  C   UNL A   1      36.145  30.485  29.462  1.00  0.00     0.200 A 
ATOM     85  F   UNL A   1      36.472  30.741  27.141  1.00  0.00    -0.200 F 
ATOM     86  F   UNL A   1      35.026  31.220  29.400  1.00  0.00    -0.200 F 
ENDBRANCH  52  76
BRANCH  64  87
ATOM     87  C   UNL A   1      44.007  28.131  32.650  1.00  0.00     0.064 A 
ATOM     88  C   UNL A   1      43.918  26.738  32.499  1.00  0.00     0.173 A 
ATOM     89  C   UNL A   1      44.055  28.644  33.952  1.00  0.00     0.173 A 
ATOM     90  F   UNL A   1      43.937  26.173  31.285  1.00  0.00    -0.203 F 
ATOM     91  C   UNL A   1      43.842  25.902  33.612  1.00  0.00     0.198 A 
ATOM     92  C   UNL A   1      44.014  27.806  35.060  1.00  0.00     0.198 A 
ATOM     93  F   UNL A   1      44.173  29.967  34.149  1.00  0.00    -0.203 F 
ATOM     94  F   UNL A   1      43.734  24.575  33.449  1.00  0.00    -0.200 F 
ATOM     95  C   UNL A   1      43.896  26.437  34.890  1.00  0.00     0.200 A 
ATOM     96  F   UNL A   1      44.105  28.327  36.291  1.00  0.00    -0.200 F 
ATOM     97  F   UNL A   1      43.851  25.631  35.960  1.00  0.00    -0.200 F 
ENDBRANCH  64  87
ENDBRANCH  38  39
ENDBRANCH  30  33
ENDBRANCH  28  29
ENDBRANCH  27  28
ENDBRANCH  26  27
ENDBRANCH   1  26
TORSDOF 17
ENDMDL
MODEL 3
REMARK VINA RESULT:     -11.8      4.072      9.525
REMARK SMILES CCc1nn(C)c(C[C@@H](C(=O)NCCCCCCNC(=O)c2ccc(-c3c4nc(c(-c5c(F)c(F)c(F)c(F)c5F)c5ccc([nH]5)c(-c5c(F)c(F)c(F)c(F)c5F)c5nc(c(-c6c(F)c(F)c(F)c(F)c6F)c6ccc3[nH]6)C=C5)C=C4)cc2)c2cccc(C)c2)c1Br
REMARK SMILES IDX 15 1 14 2 13 3 12 4 10 5 11 6 9 8 8 9 7 10 3 11 4 12 92 13
REMARK SMILES IDX 5 14 93 15 6 16 2 17 1 18 85 19 86 20 91 21 87 22 89 23
REMARK SMILES IDX 88 24 90 25 16 26 17 27 18 28 19 29 20 30 21 32 22 33 23 34
REMARK SMILES IDX 84 35 24 36 83 37 25 38 26 39 27 40 77 41 28 42 82 43 76 44
REMARK SMILES IDX 78 45 29 46 81 47 75 48 74 49 30 51 62 52 42 53 61 54 43 55
REMARK SMILES IDX 46 56 60 57 79 58 44 59 45 60 59 62 80 63 47 64 31 65 32 66
REMARK SMILES IDX 40 67 33 68 34 69 38 70 41 71 35 72 36 73 39 74 37 75 63 76
REMARK SMILES IDX 64 77 72 78 65 79 66 80 70 81 73 82 67 83 68 84 71 85 69 86
REMARK SMILES IDX 48 87 49 88 57 89 50 90 51 91 55 92 58 93 52 94 53 95 56 96
REMARK SMILES IDX 54 97
REMARK H PARENT 12 7 19 31 78 50 46 61
REMARK Flexibility Score: inf
ROOT
ATOM      1  C   UNL A   1      34.521  31.556  28.210  1.00  0.00     0.002 C 
ENDROOT
BRANCH   1   2
ATOM      2  C   UNL A   1      33.588  30.800  27.259  1.00  0.00     0.021 C 
BRANCH   2   3
ATOM      3  C   UNL A   1      33.944  29.345  26.906  1.00  0.00     0.116 C 
BRANCH   3   4
ATOM      4  N   UNL A   1      32.973  28.426  27.477  1.00  0.00    -0.356 N 
ATOM      5  C   UNL A   1      32.130  27.502  26.936  1.00  0.00     0.227 C 
ATOM      6  O   UNL A   1      31.108  27.331  27.610  1.00  0.00    -0.274 OA
ATOM      7  H   UNL A   1      32.913  28.484  28.458  1.00  0.00     0.163 HD
BRANCH   5   8
ATOM      8  C   UNL A   1      32.395  26.754  25.598  1.00  0.00     0.114 C 
BRANCH   8   9
ATOM      9  C   UNL A   1      31.052  26.370  24.921  1.00  0.00     0.075 C 
BRANCH   9  10
ATOM     10  C   UNL A   1      30.457  27.358  23.983  1.00  0.00     0.054 A 
ATOM     11  C   UNL A   1      29.952  28.982  22.542  1.00  0.00     0.077 A 
ATOM     12  N   UNL A   1      28.802  28.323  22.754  1.00  0.00    -0.177 NA
ATOM     13  C   UNL A   1      31.012  28.383  23.253  1.00  0.00     0.062 A 
ATOM     14  N   UNL A   1      29.138  27.325  23.602  1.00  0.00    -0.271 N 
ATOM     15  Br  UNL A   1      32.802  28.932  23.229  1.00  0.00    -0.047 Br
ATOM     16  C   UNL A   1      28.111  26.447  24.123  1.00  0.00     0.174 C 
BRANCH  11  17
ATOM     17  C   UNL A   1      29.972  30.195  21.671  1.00  0.00     0.056 C 
ATOM     18  C   UNL A   1      28.575  30.720  21.370  1.00  0.00     0.011 C 
ENDBRANCH  11  17
ENDBRANCH   9  10
ENDBRANCH   8   9
BRANCH   8  19
ATOM     19  C   UNL A   1      33.140  25.381  25.734  1.00  0.00    -0.035 A 
ATOM     20  C   UNL A   1      32.502  24.331  26.432  1.00  0.00     0.004 A 
ATOM     21  C   UNL A   1      34.493  25.191  25.407  1.00  0.00     0.008 A 
ATOM     22  C   UNL A   1      33.226  23.239  26.923  1.00  0.00     0.001 A 
ATOM     23  C   UNL A   1      35.230  24.094  25.889  1.00  0.00    -0.051 A 
ATOM     24  C   UNL A   1      34.592  23.136  26.679  1.00  0.00     0.003 A 
ATOM     25  C   UNL A   1      36.705  23.994  25.628  1.00  0.00     0.044 C 
ENDBRANCH   8  19
ENDBRANCH   5   8
ENDBRANCH   3   4
ENDBRANCH   2   3
ENDBRANCH   1   2
BRANCH   1  26
ATOM     26  C   UNL A   1      34.611  33.069  28.005  1.00  0.00     0.002 C 
BRANCH  26  27
ATOM     27  C   UNL A   1      33.438  33.898  28.545  1.00  0.00     0.021 C 
BRANCH  27  28
ATOM     28  C   UNL A   1      33.818  35.272  29.085  1.00  0.00     0.116 C 
BRANCH  28  29
ATOM     29  N   UNL A   1      33.268  35.530  30.409  1.00  0.00    -0.352 N 
ATOM     30  C   UNL A   1      33.520  34.829  31.565  1.00  0.00     0.251 C 
ATOM     31  H   UNL A   1      32.648  36.291  30.486  1.00  0.00     0.163 HD
ATOM     32  O   UNL A   1      32.740  34.878  32.516  1.00  0.00    -0.269 OA
BRANCH  30  33
ATOM     33  C   UNL A   1      34.743  34.013  31.661  1.00  0.00     0.039 A 
ATOM     34  C   UNL A   1      34.658  32.618  31.688  1.00  0.00     0.014 A 
ATOM     35  C   UNL A   1      35.981  34.654  31.749  1.00  0.00     0.014 A 
ATOM     36  C   UNL A   1      35.832  31.874  31.745  1.00  0.00     0.010 A 
ATOM     37  C   UNL A   1      37.146  33.918  31.713  1.00  0.00     0.010 A 
ATOM     38  C   UNL A   1      37.076  32.529  31.743  1.00  0.00    -0.014 A 
BRANCH  38  39
ATOM     39  C   UNL A   1      38.300  31.740  31.616  1.00  0.00     0.031 A 
ATOM     40  C   UNL A   1      38.962  31.464  32.918  1.00  0.00     0.074 A 
ATOM     41  C   UNL A   1      38.711  31.143  30.477  1.00  0.00     0.049 A 
ATOM     42  N   UNL A   1      40.091  31.930  33.335  1.00  0.00    -0.248 NA
ATOM     43  C   UNL A   1      38.228  30.690  33.932  1.00  0.00     0.031 C 
ATOM     44  C   UNL A   1      37.974  31.044  29.212  1.00  0.00     0.029 A 
ATOM     45  N   UNL A   1      39.836  30.404  30.227  1.00  0.00    -0.354 N 
ATOM     46  C   UNL A   1      40.322  31.318  34.566  1.00  0.00     0.074 A 
ATOM     47  C   UNL A   1      39.073  30.731  34.967  1.00  0.00     0.031 C 
ATOM     48  C   UNL A   1      38.545  30.108  28.424  1.00  0.00     0.029 A 
ATOM     49  C   UNL A   1      39.785  29.676  29.043  1.00  0.00     0.049 A 
ATOM     50  H   UNL A   1      40.613  30.390  30.832  1.00  0.00     0.167 HD
ATOM     51  C   UNL A   1      41.601  31.080  34.972  1.00  0.00     0.037 A 
ATOM     52  C   UNL A   1      40.692  28.778  28.588  1.00  0.00     0.037 A 
ATOM     53  C   UNL A   1      42.535  31.818  34.159  1.00  0.00     0.049 A 
ATOM     54  C   UNL A   1      41.983  29.052  29.253  1.00  0.00     0.074 A 
ATOM     55  C   UNL A   1      43.015  33.105  34.075  1.00  0.00     0.029 A 
ATOM     56  N   UNL A   1      42.829  31.196  32.979  1.00  0.00    -0.354 N 
ATOM     57  N   UNL A   1      42.688  30.125  29.034  1.00  0.00    -0.248 NA
ATOM     58  C   UNL A   1      42.362  28.278  30.431  1.00  0.00     0.031 C 
ATOM     59  C   UNL A   1      43.523  33.260  32.749  1.00  0.00     0.029 A 
ATOM     60  C   UNL A   1      43.374  32.056  32.068  1.00  0.00     0.049 A 
ATOM     61  H   UNL A   1      42.666  30.241  32.805  1.00  0.00     0.167 HD
ATOM     62  C   UNL A   1      43.277  30.390  30.252  1.00  0.00     0.074 A 
ATOM     63  C   UNL A   1      43.206  29.142  31.001  1.00  0.00     0.031 C 
ATOM     64  C   UNL A   1      43.439  31.673  30.679  1.00  0.00     0.037 A 
BRANCH  51  65
ATOM     65  C   UNL A   1      42.068  29.828  35.690  1.00  0.00     0.064 A 
ATOM     66  C   UNL A   1      43.051  29.953  36.698  1.00  0.00     0.173 A 
ATOM     67  C   UNL A   1      41.865  28.516  35.208  1.00  0.00     0.173 A 
ATOM     68  F   UNL A   1      43.341  31.153  37.223  1.00  0.00    -0.203 F 
ATOM     69  C   UNL A   1      43.824  28.867  37.122  1.00  0.00     0.198 A 
ATOM     70  C   UNL A   1      42.605  27.427  35.670  1.00  0.00     0.198 A 
ATOM     71  F   UNL A   1      41.034  28.248  34.196  1.00  0.00    -0.203 F 
ATOM     72  F   UNL A   1      44.829  29.060  37.987  1.00  0.00    -0.200 F 
ATOM     73  C   UNL A   1      43.605  27.606  36.600  1.00  0.00     0.200 A 
ATOM     74  F   UNL A   1      42.394  26.216  35.134  1.00  0.00    -0.200 F 
ATOM     75  F   UNL A   1      44.383  26.576  36.956  1.00  0.00    -0.200 F 
ENDBRANCH  51  65
BRANCH  52  76
ATOM     76  C   UNL A   1      40.491  27.584  27.738  1.00  0.00     0.064 A 
ATOM     77  C   UNL A   1      41.288  27.350  26.605  1.00  0.00     0.173 A 
ATOM     78  C   UNL A   1      39.709  26.508  28.192  1.00  0.00     0.173 A 
ATOM     79  F   UNL A   1      42.088  28.315  26.130  1.00  0.00    -0.203 F 
ATOM     80  C   UNL A   1      41.327  26.097  25.986  1.00  0.00     0.198 A 
ATOM     81  C   UNL A   1      39.748  25.258  27.573  1.00  0.00     0.198 A 
ATOM     82  F   UNL A   1      38.969  26.625  29.305  1.00  0.00    -0.203 F 
ATOM     83  F   UNL A   1      42.150  25.891  24.948  1.00  0.00    -0.200 F 
ATOM     84  C   UNL A   1      40.570  25.048  26.480  1.00  0.00     0.200 A 
ATOM     85  F   UNL A   1      39.039  24.240  28.082  1.00  0.00    -0.200 F 
ATOM     86  F   UNL A   1      40.663  23.828  25.932  1.00  0.00    -0.200 F 
ENDBRANCH  52  76
BRANCH  64  87
ATOM     87  C   UNL A   1      43.528  32.740  29.639  1.00  0.00     0.064 A 
ATOM     88  C   UNL A   1      42.500  33.644  29.331  1.00  0.00     0.173 A 
ATOM     89  C   UNL A   1      44.743  32.878  28.957  1.00  0.00     0.173 A 
ATOM     90  F   UNL A   1      41.335  33.616  29.992  1.00  0.00    -0.203 F 
ATOM     91  C   UNL A   1      42.676  34.621  28.351  1.00  0.00     0.198 A 
ATOM     92  C   UNL A   1      44.928  33.873  28.005  1.00  0.00     0.198 A 
ATOM     93  F   UNL A   1      45.769  32.058  29.238  1.00  0.00    -0.203 F 
ATOM     94  F   UNL A   1      41.674  35.462  28.053  1.00  0.00    -0.200 F 
ATOM     95  C   UNL A   1      43.891  34.737  27.694  1.00  0.00     0.200 A 
ATOM     96  F   UNL A   1      46.117  34.005  27.401  1.00  0.00    -0.200 F 
ATOM     97  F   UNL A   1      44.069  35.693  26.771  1.00  0.00    -0.200 F 
ENDBRANCH  64  87
ENDBRANCH  38  39
ENDBRANCH  30  33
ENDBRANCH  28  29
ENDBRANCH  27  28
ENDBRANCH  26  27
ENDBRANCH   1  26
TORSDOF 17
ENDMDL
