MODEL 1
REMARK VINA RESULT:     -12.2      0.000      0.000
REMARK SMILES O=C(NCCCCCCNC(=O)[C@@H]1CCCC[N@H+]1Cc1cc(F)cc(Br)c1)c1ccc(-c2c3nc(c(-c4c(F)c(F)c(F)c(F)c4F)c4ccc([nH]4)c(-c4c(F)c(F)c(F)c(F)c4F)c4nc(c(-c5c(F)c(F)c(F)c(F)c5F)c5ccc2[nH]5)C=C4)C=C3)cc1
REMARK SMILES IDX 6 1 5 2 4 3 3 4 1 5 2 6 28 8 29 9 90 10 30 11 89 12 31 13
REMARK SMILES IDX 32 14 33 15 83 16 34 17 88 18 82 19 84 20 35 21 87 22 81 23
REMARK SMILES IDX 80 24 36 26 68 27 48 28 67 29 49 30 52 31 66 32 85 33 50 34
REMARK SMILES IDX 51 35 65 37 86 38 53 39 37 40 38 41 46 42 39 43 40 44 44 45
REMARK SMILES IDX 47 46 41 47 42 48 45 49 43 50 69 51 70 52 78 53 71 54 72 55
REMARK SMILES IDX 76 56 79 57 73 58 74 59 77 60 75 61 54 62 55 63 63 64 56 65
REMARK SMILES IDX 57 66 61 67 64 68 58 69 59 70 62 71 60 72 7 73 8 74 9 75
REMARK SMILES IDX 10 76 11 77 12 79 13 80 14 81 18 82 15 83 17 84 16 86 19 87
REMARK SMILES IDX 20 88 21 89 27 90 22 91 25 92 23 93 24 94 26 95
REMARK H PARENT 3 7 84 25 52 36 10 78 18 85
REMARK Flexibility Score: inf
ROOT
ATOM      1  C   UNL A   1      31.604  30.716  25.940  1.00  0.00     0.002 C 
ENDROOT
BRANCH   1   2
ATOM      2  C   UNL A   1      31.359  32.097  26.546  1.00  0.00     0.021 C 
BRANCH   2   3
ATOM      3  C   UNL A   1      32.579  32.723  27.207  1.00  0.00     0.116 C 
BRANCH   3   4
ATOM      4  N   UNL A   1      32.358  34.113  27.577  1.00  0.00    -0.352 N 
ATOM      5  O   UNL A   1      32.556  35.965  28.859  1.00  0.00    -0.269 OA
ATOM      6  C   UNL A   1      32.979  34.856  28.551  1.00  0.00     0.251 C 
ATOM      7  H   UNL A   1      31.666  34.585  27.059  1.00  0.00     0.163 HD
BRANCH   6   8
ATOM      8  C   UNL A   1      34.155  34.294  29.249  1.00  0.00     0.039 A 
ATOM      9  C   UNL A   1      35.445  34.566  28.788  1.00  0.00     0.014 A 
ATOM     10  C   UNL A   1      33.964  33.474  30.364  1.00  0.00     0.014 A 
ATOM     11  C   UNL A   1      36.529  33.897  29.342  1.00  0.00     0.010 A 
ATOM     12  C   UNL A   1      35.066  32.874  30.978  1.00  0.00     0.010 A 
ATOM     13  C   UNL A   1      36.354  33.050  30.449  1.00  0.00    -0.014 A 
BRANCH  13  14
ATOM     14  C   UNL A   1      37.543  32.400  31.056  1.00  0.00     0.031 A 
ATOM     15  C   UNL A   1      37.996  32.742  32.448  1.00  0.00     0.074 A 
ATOM     16  C   UNL A   1      38.191  31.454  30.348  1.00  0.00     0.049 A 
ATOM     17  N   UNL A   1      38.982  32.232  33.144  1.00  0.00    -0.248 NA
ATOM     18  C   UNL A   1      37.256  33.803  33.149  1.00  0.00     0.031 C 
ATOM     19  C   UNL A   1      37.851  31.049  28.983  1.00  0.00     0.029 A 
ATOM     20  N   UNL A   1      39.248  30.648  30.681  1.00  0.00    -0.354 N 
ATOM     21  C   UNL A   1      38.998  32.923  34.348  1.00  0.00     0.074 A 
ATOM     22  C   UNL A   1      37.936  33.905  34.283  1.00  0.00     0.031 C 
ATOM     23  C   UNL A   1      38.642  30.030  28.617  1.00  0.00     0.029 A 
ATOM     24  C   UNL A   1      39.584  29.752  29.696  1.00  0.00     0.049 A 
ATOM     25  H   UNL A   1      39.722  30.706  31.543  1.00  0.00     0.167 HD
ATOM     26  C   UNL A   1      39.819  32.747  35.412  1.00  0.00     0.037 A 
ATOM     27  C   UNL A   1      40.547  28.814  29.661  1.00  0.00     0.037 A 
ATOM     28  C   UNL A   1      40.856  31.748  35.481  1.00  0.00     0.049 A 
ATOM     29  C   UNL A   1      41.443  28.645  30.853  1.00  0.00     0.074 A 
ATOM     30  C   UNL A   1      41.707  31.457  36.534  1.00  0.00     0.029 A 
ATOM     31  N   UNL A   1      41.188  30.879  34.450  1.00  0.00    -0.354 N 
ATOM     32  N   UNL A   1      41.418  29.274  32.002  1.00  0.00    -0.248 NA
ATOM     33  C   UNL A   1      42.504  27.636  30.741  1.00  0.00     0.031 C 
ATOM     34  C   UNL A   1      42.582  30.445  36.124  1.00  0.00     0.029 A 
ATOM     35  C   UNL A   1      42.245  30.069  34.835  1.00  0.00     0.049 A 
ATOM     36  H   UNL A   1      40.737  30.843  33.576  1.00  0.00     0.167 HD
ATOM     37  C   UNL A   1      42.444  28.726  32.758  1.00  0.00     0.074 A 
ATOM     38  C   UNL A   1      43.059  27.698  31.942  1.00  0.00     0.031 C 
ATOM     39  C   UNL A   1      42.843  29.048  34.013  1.00  0.00     0.037 A 
BRANCH  26  40
ATOM     40  C   UNL A   1      39.649  33.668  36.586  1.00  0.00     0.064 A 
ATOM     41  C   UNL A   1      40.261  34.930  36.633  1.00  0.00     0.173 A 
ATOM     42  C   UNL A   1      38.824  33.301  37.660  1.00  0.00     0.173 A 
ATOM     43  F   UNL A   1      41.067  35.327  35.636  1.00  0.00    -0.203 F 
ATOM     44  C   UNL A   1      40.074  35.779  37.722  1.00  0.00     0.198 A 
ATOM     45  C   UNL A   1      38.617  34.163  38.735  1.00  0.00     0.198 A 
ATOM     46  F   UNL A   1      38.209  32.109  37.665  1.00  0.00    -0.203 F 
ATOM     47  F   UNL A   1      40.702  36.961  37.764  1.00  0.00    -0.200 F 
ATOM     48  C   UNL A   1      39.247  35.397  38.769  1.00  0.00     0.200 A 
ATOM     49  F   UNL A   1      37.809  33.797  39.740  1.00  0.00    -0.200 F 
ATOM     50  F   UNL A   1      39.062  36.217  39.812  1.00  0.00    -0.200 F 
ENDBRANCH  26  40
BRANCH  27  51
ATOM     51  C   UNL A   1      40.695  27.954  28.460  1.00  0.00     0.064 A 
ATOM     52  C   UNL A   1      40.058  26.708  28.385  1.00  0.00     0.173 A 
ATOM     53  C   UNL A   1      41.461  28.365  27.359  1.00  0.00     0.173 A 
ATOM     54  F   UNL A   1      39.330  26.264  29.420  1.00  0.00    -0.203 F 
ATOM     55  C   UNL A   1      40.193  25.898  27.259  1.00  0.00     0.198 A 
ATOM     56  C   UNL A   1      41.569  27.569  26.222  1.00  0.00     0.198 A 
ATOM     57  F   UNL A   1      42.084  29.552  27.379  1.00  0.00    -0.203 F 
ATOM     58  F   UNL A   1      39.606  24.694  27.227  1.00  0.00    -0.200 F 
ATOM     59  C   UNL A   1      40.942  26.333  26.175  1.00  0.00     0.200 A 
ATOM     60  F   UNL A   1      42.280  28.000  25.170  1.00  0.00    -0.200 F 
ATOM     61  F   UNL A   1      41.064  25.558  25.089  1.00  0.00    -0.200 F 
ENDBRANCH  27  51
BRANCH  39  62
ATOM     62  C   UNL A   1      43.976  28.251  34.590  1.00  0.00     0.064 A 
ATOM     63  C   UNL A   1      45.308  28.672  34.470  1.00  0.00     0.173 A 
ATOM     64  C   UNL A   1      43.722  27.058  35.283  1.00  0.00     0.173 A 
ATOM     65  F   UNL A   1      45.603  29.797  33.801  1.00  0.00    -0.203 F 
ATOM     66  C   UNL A   1      46.348  27.911  34.996  1.00  0.00     0.198 A 
ATOM     67  C   UNL A   1      44.763  26.315  35.834  1.00  0.00     0.198 A 
ATOM     68  F   UNL A   1      42.464  26.615  35.430  1.00  0.00    -0.203 F 
ATOM     69  F   UNL A   1      47.618  28.303  34.821  1.00  0.00    -0.200 F 
ATOM     70  C   UNL A   1      46.075  26.737  35.682  1.00  0.00     0.200 A 
ATOM     71  F   UNL A   1      44.496  25.186  36.505  1.00  0.00    -0.200 F 
ATOM     72  F   UNL A   1      47.078  26.005  36.187  1.00  0.00    -0.200 F 
ENDBRANCH  39  62
ENDBRANCH  13  14
ENDBRANCH   6   8
ENDBRANCH   3   4
ENDBRANCH   2   3
ENDBRANCH   1   2
BRANCH   1  73
ATOM     73  C   UNL A   1      32.975  30.107  26.251  1.00  0.00     0.002 C 
BRANCH  73  74
ATOM     74  C   UNL A   1      32.947  28.870  27.156  1.00  0.00     0.021 C 
BRANCH  74  75
ATOM     75  C   UNL A   1      31.549  28.458  27.621  1.00  0.00     0.116 C 
BRANCH  75  76
ATOM     76  N   UNL A   1      31.317  27.043  27.404  1.00  0.00    -0.351 N 
ATOM     77  C   UNL A   1      31.179  26.340  26.243  1.00  0.00     0.278 C 
ATOM     78  H   UNL A   1      31.247  26.504  28.225  1.00  0.00     0.163 HD
ATOM     79  O   UNL A   1      30.855  25.151  26.333  1.00  0.00    -0.268 OA
BRANCH  77  80
ATOM     80  C   UNL A   1      31.473  26.965  24.862  1.00  0.00     0.274 C 
ATOM     81  C   UNL A   1      30.133  27.117  24.122  1.00  0.00     0.076 C 
ATOM     82  N   UNL A   1      32.481  26.205  24.085  1.00  0.00    -0.321 N 
ATOM     83  C   UNL A   1      30.331  27.679  22.722  1.00  0.00     0.012 C 
ATOM     84  C   UNL A   1      32.661  26.731  22.727  1.00  0.00     0.263 C 
ATOM     85  H   UNL A   1      32.079  25.272  23.990  1.00  0.00     0.349 HD
ATOM     86  C   UNL A   1      31.338  26.825  21.964  1.00  0.00     0.062 C 
BRANCH  82  87
ATOM     87  C   UNL A   1      33.759  25.983  24.784  1.00  0.00     0.299 C 
BRANCH  87  88
ATOM     88  C   UNL A   1      34.278  24.567  24.883  1.00  0.00     0.010 A 
ATOM     89  C   UNL A   1      35.537  24.291  25.431  1.00  0.00     0.048 A 
ATOM     90  C   UNL A   1      33.471  23.491  24.476  1.00  0.00     0.025 A 
ATOM     91  C   UNL A   1      35.979  22.976  25.540  1.00  0.00     0.124 A 
ATOM     92  C   UNL A   1      33.924  22.177  24.611  1.00  0.00     0.021 A 
ATOM     93  F   UNL A   1      37.191  22.732  26.055  1.00  0.00    -0.207 F 
ATOM     94  C   UNL A   1      35.184  21.913  25.136  1.00  0.00     0.055 A 
ATOM     95  Br  UNL A   1      32.805  20.745  24.089  1.00  0.00    -0.051 Br
ENDBRANCH  87  88
ENDBRANCH  82  87
ENDBRANCH  77  80
ENDBRANCH  75  76
ENDBRANCH  74  75
ENDBRANCH  73  74
ENDBRANCH   1  73
TORSDOF 15
ENDMDL
MODEL 2
REMARK VINA RESULT:     -12.1      2.253      3.461
REMARK SMILES O=C(NCCCCCCNC(=O)[C@@H]1CCCC[N@H+]1Cc1cc(F)cc(Br)c1)c1ccc(-c2c3nc(c(-c4c(F)c(F)c(F)c(F)c4F)c4ccc([nH]4)c(-c4c(F)c(F)c(F)c(F)c4F)c4nc(c(-c5c(F)c(F)c(F)c(F)c5F)c5ccc2[nH]5)C=C4)C=C3)cc1
REMARK SMILES IDX 6 1 5 2 4 3 3 4 1 5 2 6 28 8 29 9 90 10 30 11 89 12 31 13
REMARK SMILES IDX 32 14 33 15 83 16 34 17 88 18 82 19 84 20 35 21 87 22 81 23
REMARK SMILES IDX 80 24 36 26 68 27 48 28 67 29 49 30 52 31 66 32 85 33 50 34
REMARK SMILES IDX 51 35 65 37 86 38 53 39 37 40 38 41 46 42 39 43 40 44 44 45
REMARK SMILES IDX 47 46 41 47 42 48 45 49 43 50 69 51 70 52 78 53 71 54 72 55
REMARK SMILES IDX 76 56 79 57 73 58 74 59 77 60 75 61 54 62 55 63 63 64 56 65
REMARK SMILES IDX 57 66 61 67 64 68 58 69 59 70 62 71 60 72 7 73 8 74 9 75
REMARK SMILES IDX 10 76 11 77 12 79 13 80 14 81 18 82 15 83 17 84 16 86 19 87
REMARK SMILES IDX 20 88 21 89 27 90 22 91 25 92 23 93 24 94 26 95
REMARK H PARENT 3 7 84 25 52 36 10 78 18 85
REMARK Flexibility Score: inf
ROOT
ATOM      1  C   UNL A   1      31.161  28.005  24.476  1.00  0.00     0.002 C 
ENDROOT
BRANCH   1   2
ATOM      2  C   UNL A   1      31.813  28.288  25.829  1.00  0.00     0.021 C 
BRANCH   2   3
ATOM      3  C   UNL A   1      32.978  29.269  25.777  1.00  0.00     0.116 C 
BRANCH   3   4
ATOM      4  N   UNL A   1      32.579  30.622  26.134  1.00  0.00    -0.352 N 
ATOM      5  O   UNL A   1      32.583  32.518  27.365  1.00  0.00    -0.269 OA
ATOM      6  C   UNL A   1      33.144  31.473  27.051  1.00  0.00     0.251 C 
ATOM      7  H   UNL A   1      31.797  30.975  25.652  1.00  0.00     0.163 HD
BRANCH   6   8
ATOM      8  C   UNL A   1      34.429  31.106  27.684  1.00  0.00     0.039 A 
ATOM      9  C   UNL A   1      34.640  29.806  28.147  1.00  0.00     0.014 A 
ATOM     10  C   UNL A   1      35.423  32.077  27.830  1.00  0.00     0.014 A 
ATOM     11  C   UNL A   1      35.777  29.518  28.891  1.00  0.00     0.010 A 
ATOM     12  C   UNL A   1      36.607  31.759  28.500  1.00  0.00     0.010 A 
ATOM     13  C   UNL A   1      36.778  30.488  29.069  1.00  0.00    -0.014 A 
BRANCH  13  14
ATOM     14  C   UNL A   1      38.009  30.126  29.817  1.00  0.00     0.031 A 
ATOM     15  C   UNL A   1      38.228  30.586  31.232  1.00  0.00     0.074 A 
ATOM     16  C   UNL A   1      38.918  29.333  29.216  1.00  0.00     0.049 A 
ATOM     17  N   UNL A   1      39.221  30.317  32.043  1.00  0.00    -0.248 NA
ATOM     18  C   UNL A   1      37.206  31.470  31.812  1.00  0.00     0.031 C 
ATOM     19  C   UNL A   1      38.820  28.837  27.842  1.00  0.00     0.029 A 
ATOM     20  N   UNL A   1      40.083  28.785  29.686  1.00  0.00    -0.354 N 
ATOM     21  C   UNL A   1      38.960  31.017  33.213  1.00  0.00     0.074 A 
ATOM     22  C   UNL A   1      37.724  31.740  33.003  1.00  0.00     0.031 C 
ATOM     23  C   UNL A   1      39.847  28.011  27.599  1.00  0.00     0.029 A 
ATOM     24  C   UNL A   1      40.707  27.966  28.776  1.00  0.00     0.049 A 
ATOM     25  H   UNL A   1      40.439  28.962  30.587  1.00  0.00     0.167 HD
ATOM     26  C   UNL A   1      39.682  31.046  34.359  1.00  0.00     0.037 A 
ATOM     27  C   UNL A   1      41.849  27.262  28.876  1.00  0.00     0.037 A 
ATOM     28  C   UNL A   1      40.898  30.301  34.572  1.00  0.00     0.049 A 
ATOM     29  C   UNL A   1      42.629  27.317  30.157  1.00  0.00     0.074 A 
ATOM     30  C   UNL A   1      41.676  30.224  35.715  1.00  0.00     0.029 A 
ATOM     31  N   UNL A   1      41.517  29.507  33.616  1.00  0.00    -0.354 N 
ATOM     32  N   UNL A   1      42.347  27.947  31.271  1.00  0.00    -0.248 NA
ATOM     33  C   UNL A   1      43.890  26.564  30.192  1.00  0.00     0.031 C 
ATOM     34  C   UNL A   1      42.788  29.421  35.436  1.00  0.00     0.029 A 
ATOM     35  C   UNL A   1      42.678  28.956  34.137  1.00  0.00     0.049 A 
ATOM     36  H   UNL A   1      41.180  29.357  32.703  1.00  0.00     0.167 HD
ATOM     37  C   UNL A   1      43.382  27.651  32.146  1.00  0.00     0.074 A 
ATOM     38  C   UNL A   1      44.288  26.769  31.439  1.00  0.00     0.031 C 
ATOM     39  C   UNL A   1      43.566  28.076  33.421  1.00  0.00     0.037 A 
BRANCH  26  40
ATOM     40  C   UNL A   1      39.194  31.929  35.472  1.00  0.00     0.064 A 
ATOM     41  C   UNL A   1      38.395  31.436  36.514  1.00  0.00     0.173 A 
ATOM     42  C   UNL A   1      39.571  33.280  35.520  1.00  0.00     0.173 A 
ATOM     43  F   UNL A   1      37.999  30.153  36.511  1.00  0.00    -0.203 F 
ATOM     44  C   UNL A   1      37.969  32.267  37.548  1.00  0.00     0.198 A 
ATOM     45  C   UNL A   1      39.166  34.102  36.570  1.00  0.00     0.198 A 
ATOM     46  F   UNL A   1      40.340  33.803  34.554  1.00  0.00    -0.203 F 
ATOM     47  F   UNL A   1      37.171  31.783  38.509  1.00  0.00    -0.200 F 
ATOM     48  C   UNL A   1      38.361  33.598  37.578  1.00  0.00     0.200 A 
ATOM     49  F   UNL A   1      39.556  35.385  36.603  1.00  0.00    -0.200 F 
ATOM     50  F   UNL A   1      37.957  34.393  38.577  1.00  0.00    -0.200 F 
ENDBRANCH  26  40
BRANCH  27  51
ATOM     51  C   UNL A   1      42.306  26.434  27.732  1.00  0.00     0.064 A 
ATOM     52  C   UNL A   1      41.792  25.146  27.526  1.00  0.00     0.173 A 
ATOM     53  C   UNL A   1      43.250  26.916  26.814  1.00  0.00     0.173 A 
ATOM     54  F   UNL A   1      40.901  24.635  28.388  1.00  0.00    -0.203 F 
ATOM     55  C   UNL A   1      42.217  24.366  26.453  1.00  0.00     0.198 A 
ATOM     56  C   UNL A   1      43.651  26.147  25.724  1.00  0.00     0.198 A 
ATOM     57  F   UNL A   1      43.767  28.145  26.963  1.00  0.00    -0.203 F 
ATOM     58  F   UNL A   1      41.740  23.123  26.300  1.00  0.00    -0.200 F 
ATOM     59  C   UNL A   1      43.140  24.870  25.549  1.00  0.00     0.200 A 
ATOM     60  F   UNL A   1      44.530  26.645  24.844  1.00  0.00    -0.200 F 
ATOM     61  F   UNL A   1      43.541  24.123  24.511  1.00  0.00    -0.200 F 
ENDBRANCH  27  51
BRANCH  39  62
ATOM     62  C   UNL A   1      44.778  27.559  34.140  1.00  0.00     0.064 A 
ATOM     63  C   UNL A   1      45.995  28.254  34.125  1.00  0.00     0.173 A 
ATOM     64  C   UNL A   1      44.713  26.358  34.863  1.00  0.00     0.173 A 
ATOM     65  F   UNL A   1      46.112  29.397  33.432  1.00  0.00    -0.203 F 
ATOM     66  C   UNL A   1      47.114  27.750  34.782  1.00  0.00     0.198 A 
ATOM     67  C   UNL A   1      45.826  25.873  35.545  1.00  0.00     0.198 A 
ATOM     68  F   UNL A   1      43.570  25.659  34.912  1.00  0.00    -0.203 F 
ATOM     69  F   UNL A   1      48.283  28.402  34.708  1.00  0.00    -0.200 F 
ATOM     70  C   UNL A   1      47.028  26.564  35.495  1.00  0.00     0.200 A 
ATOM     71  F   UNL A   1      45.737  24.732  36.242  1.00  0.00    -0.200 F 
ATOM     72  F   UNL A   1      48.106  26.080  36.128  1.00  0.00    -0.200 F 
ENDBRANCH  39  62
ENDBRANCH  13  14
ENDBRANCH   6   8
ENDBRANCH   3   4
ENDBRANCH   2   3
ENDBRANCH   1   2
BRANCH   1  73
ATOM     73  C   UNL A   1      30.307  26.735  24.423  1.00  0.00     0.002 C 
BRANCH  73  74
ATOM     74  C   UNL A   1      30.694  25.737  23.324  1.00  0.00     0.021 C 
BRANCH  74  75
ATOM     75  C   UNL A   1      30.666  24.272  23.763  1.00  0.00     0.116 C 
BRANCH  75  76
ATOM     76  N   UNL A   1      30.420  24.153  25.187  1.00  0.00    -0.351 N 
ATOM     77  C   UNL A   1      31.228  23.692  26.186  1.00  0.00     0.278 C 
ATOM     78  H   UNL A   1      29.528  24.450  25.480  1.00  0.00     0.163 HD
ATOM     79  O   UNL A   1      30.729  23.571  27.310  1.00  0.00    -0.268 OA
BRANCH  77  80
ATOM     80  C   UNL A   1      32.725  23.389  25.961  1.00  0.00     0.274 C 
ATOM     81  C   UNL A   1      33.398  24.685  25.477  1.00  0.00     0.076 C 
ATOM     82  N   UNL A   1      32.953  22.243  25.050  1.00  0.00    -0.321 N 
ATOM     83  C   UNL A   1      34.873  24.468  25.177  1.00  0.00     0.012 C 
ATOM     84  C   UNL A   1      34.373  22.041  24.741  1.00  0.00     0.263 C 
ATOM     85  H   UNL A   1      32.497  22.515  24.179  1.00  0.00     0.349 HD
ATOM     86  C   UNL A   1      35.032  23.311  24.200  1.00  0.00     0.062 C 
BRANCH  82  87
ATOM     87  C   UNL A   1      32.273  20.996  25.444  1.00  0.00     0.299 C 
BRANCH  87  88
ATOM     88  C   UNL A   1      32.504  19.763  24.602  1.00  0.00     0.010 A 
ATOM     89  C   UNL A   1      32.285  19.778  23.218  1.00  0.00     0.048 A 
ATOM     90  C   UNL A   1      33.006  18.591  25.191  1.00  0.00     0.025 A 
ATOM     91  C   UNL A   1      32.535  18.639  22.459  1.00  0.00     0.124 A 
ATOM     92  C   UNL A   1      33.269  17.464  24.410  1.00  0.00     0.021 A 
ATOM     93  F   UNL A   1      32.308  18.666  21.140  1.00  0.00    -0.207 F 
ATOM     94  C   UNL A   1      33.028  17.479  23.041  1.00  0.00     0.055 A 
ATOM     95  Br  UNL A   1      33.976  15.909  25.221  1.00  0.00    -0.051 Br
ENDBRANCH  87  88
ENDBRANCH  82  87
ENDBRANCH  77  80
ENDBRANCH  75  76
ENDBRANCH  74  75
ENDBRANCH  73  74
ENDBRANCH   1  73
TORSDOF 15
ENDMDL
MODEL 3
REMARK VINA RESULT:     -12.1      2.222      3.297
REMARK SMILES O=C(NCCCCCCNC(=O)[C@@H]1CCCC[N@H+]1Cc1cc(F)cc(Br)c1)c1ccc(-c2c3nc(c(-c4c(F)c(F)c(F)c(F)c4F)c4ccc([nH]4)c(-c4c(F)c(F)c(F)c(F)c4F)c4nc(c(-c5c(F)c(F)c(F)c(F)c5F)c5ccc2[nH]5)C=C4)C=C3)cc1
REMARK SMILES IDX 6 1 5 2 4 3 3 4 1 5 2 6 28 8 29 9 90 10 30 11 89 12 31 13
REMARK SMILES IDX 32 14 33 15 83 16 34 17 88 18 82 19 84 20 35 21 87 22 81 23
REMARK SMILES IDX 80 24 36 26 68 27 48 28 67 29 49 30 52 31 66 32 85 33 50 34
REMARK SMILES IDX 51 35 65 37 86 38 53 39 37 40 38 41 46 42 39 43 40 44 44 45
REMARK SMILES IDX 47 46 41 47 42 48 45 49 43 50 69 51 70 52 78 53 71 54 72 55
REMARK SMILES IDX 76 56 79 57 73 58 74 59 77 60 75 61 54 62 55 63 63 64 56 65
REMARK SMILES IDX 57 66 61 67 64 68 58 69 59 70 62 71 60 72 7 73 8 74 9 75
REMARK SMILES IDX 10 76 11 77 12 79 13 80 14 81 18 82 15 83 17 84 16 86 19 87
REMARK SMILES IDX 20 88 21 89 27 90 22 91 25 92 23 93 24 94 26 95
REMARK H PARENT 3 7 84 25 52 36 10 78 18 85
REMARK Flexibility Score: inf
ROOT
ATOM      1  C   UNL A   1      31.536  30.792  26.553  1.00  0.00     0.002 C 
ENDROOT
BRANCH   1   2
ATOM      2  C   UNL A   1      31.462  32.317  26.619  1.00  0.00     0.021 C 
BRANCH   2   3
ATOM      3  C   UNL A   1      32.693  32.985  27.218  1.00  0.00     0.116 C 
BRANCH   3   4
ATOM      4  N   UNL A   1      32.422  34.339  27.675  1.00  0.00    -0.352 N 
ATOM      5  O   UNL A   1      32.539  36.106  29.081  1.00  0.00    -0.269 OA
ATOM      6  C   UNL A   1      33.002  35.033  28.708  1.00  0.00     0.251 C 
ATOM      7  H   UNL A   1      31.727  34.825  27.174  1.00  0.00     0.163 HD
BRANCH   6   8
ATOM      8  C   UNL A   1      34.181  34.460  29.393  1.00  0.00     0.039 A 
ATOM      9  C   UNL A   1      35.460  34.650  28.868  1.00  0.00     0.014 A 
ATOM     10  C   UNL A   1      34.000  33.711  30.559  1.00  0.00     0.014 A 
ATOM     11  C   UNL A   1      36.537  33.966  29.419  1.00  0.00     0.010 A 
ATOM     12  C   UNL A   1      35.100  33.099  31.164  1.00  0.00     0.010 A 
ATOM     13  C   UNL A   1      36.372  33.189  30.578  1.00  0.00    -0.014 A 
BRANCH  13  14
ATOM     14  C   UNL A   1      37.557  32.522  31.176  1.00  0.00     0.031 A 
ATOM     15  C   UNL A   1      38.028  32.862  32.562  1.00  0.00     0.074 A 
ATOM     16  C   UNL A   1      38.183  31.565  30.464  1.00  0.00     0.049 A 
ATOM     17  N   UNL A   1      39.012  32.338  33.251  1.00  0.00    -0.248 NA
ATOM     18  C   UNL A   1      37.312  33.936  33.267  1.00  0.00     0.031 C 
ATOM     19  C   UNL A   1      37.824  31.161  29.104  1.00  0.00     0.029 A 
ATOM     20  N   UNL A   1      39.231  30.743  30.790  1.00  0.00    -0.354 N 
ATOM     21  C   UNL A   1      39.051  33.033  34.452  1.00  0.00     0.074 A 
ATOM     22  C   UNL A   1      38.004  34.031  34.394  1.00  0.00     0.031 C 
ATOM     23  C   UNL A   1      38.596  30.129  28.734  1.00  0.00     0.029 A 
ATOM     24  C   UNL A   1      39.543  29.839  29.804  1.00  0.00     0.049 A 
ATOM     25  H   UNL A   1      39.713  30.796  31.647  1.00  0.00     0.167 HD
ATOM     26  C   UNL A   1      39.879  32.847  35.509  1.00  0.00     0.037 A 
ATOM     27  C   UNL A   1      40.491  28.886  29.763  1.00  0.00     0.037 A 
ATOM     28  C   UNL A   1      40.901  31.833  35.571  1.00  0.00     0.049 A 
ATOM     29  C   UNL A   1      41.396  28.707  30.948  1.00  0.00     0.074 A 
ATOM     30  C   UNL A   1      41.758  31.532  36.617  1.00  0.00     0.029 A 
ATOM     31  N   UNL A   1      41.210  30.955  34.540  1.00  0.00    -0.354 N 
ATOM     32  N   UNL A   1      41.392  29.340  32.095  1.00  0.00    -0.248 NA
ATOM     33  C   UNL A   1      42.440  27.681  30.828  1.00  0.00     0.031 C 
ATOM     34  C   UNL A   1      42.613  30.505  36.202  1.00  0.00     0.029 A 
ATOM     35  C   UNL A   1      42.257  30.130  34.918  1.00  0.00     0.049 A 
ATOM     36  H   UNL A   1      40.750  30.924  33.670  1.00  0.00     0.167 HD
ATOM     37  C   UNL A   1      42.416  28.777  32.842  1.00  0.00     0.074 A 
ATOM     38  C   UNL A   1      43.007  27.738  32.024  1.00  0.00     0.031 C 
ATOM     39  C   UNL A   1      42.832  29.097  34.093  1.00  0.00     0.037 A 
BRANCH  26  40
ATOM     40  C   UNL A   1      39.735  33.774  36.682  1.00  0.00     0.064 A 
ATOM     41  C   UNL A   1      40.382  35.018  36.727  1.00  0.00     0.173 A 
ATOM     42  C   UNL A   1      38.899  33.432  37.756  1.00  0.00     0.173 A 
ATOM     43  F   UNL A   1      41.200  35.390  35.731  1.00  0.00    -0.203 F 
ATOM     44  C   UNL A   1      40.219  35.873  37.815  1.00  0.00     0.198 A 
ATOM     45  C   UNL A   1      38.716  34.301  38.829  1.00  0.00     0.198 A 
ATOM     46  F   UNL A   1      38.250  32.258  37.761  1.00  0.00    -0.203 F 
ATOM     47  F   UNL A   1      40.880  37.037  37.856  1.00  0.00    -0.200 F 
ATOM     48  C   UNL A   1      39.381  35.516  38.862  1.00  0.00     0.200 A 
ATOM     49  F   UNL A   1      37.896  33.960  39.834  1.00  0.00    -0.200 F 
ATOM     50  F   UNL A   1      39.218  36.343  39.904  1.00  0.00    -0.200 F 
ENDBRANCH  26  40
BRANCH  27  51
ATOM     51  C   UNL A   1      40.615  28.020  28.564  1.00  0.00     0.064 A 
ATOM     52  C   UNL A   1      39.956  26.784  28.498  1.00  0.00     0.173 A 
ATOM     53  C   UNL A   1      41.377  28.416  27.455  1.00  0.00     0.173 A 
ATOM     54  F   UNL A   1      39.231  26.356  29.541  1.00  0.00    -0.203 F 
ATOM     55  C   UNL A   1      40.068  25.970  27.373  1.00  0.00     0.198 A 
ATOM     56  C   UNL A   1      41.462  27.614  26.319  1.00  0.00     0.198 A 
ATOM     57  F   UNL A   1      42.020  29.593  27.466  1.00  0.00    -0.203 F 
ATOM     58  F   UNL A   1      39.461  24.775  27.351  1.00  0.00    -0.200 F 
ATOM     59  C   UNL A   1      40.815  26.389  26.282  1.00  0.00     0.200 A 
ATOM     60  F   UNL A   1      42.170  28.031  25.260  1.00  0.00    -0.200 F 
ATOM     61  F   UNL A   1      40.913  25.609  25.197  1.00  0.00    -0.200 F 
ENDBRANCH  27  51
BRANCH  39  62
ATOM     62  C   UNL A   1      43.957  28.284  34.662  1.00  0.00     0.064 A 
ATOM     63  C   UNL A   1      45.295  28.685  34.528  1.00  0.00     0.173 A 
ATOM     64  C   UNL A   1      43.692  27.098  35.361  1.00  0.00     0.173 A 
ATOM     65  F   UNL A   1      45.601  29.802  33.852  1.00  0.00    -0.203 F 
ATOM     66  C   UNL A   1      46.328  27.909  35.046  1.00  0.00     0.198 A 
ATOM     67  C   UNL A   1      44.726  26.340  35.904  1.00  0.00     0.198 A 
ATOM     68  F   UNL A   1      42.429  26.675  35.521  1.00  0.00    -0.203 F 
ATOM     69  F   UNL A   1      47.602  28.280  34.857  1.00  0.00    -0.200 F 
ATOM     70  C   UNL A   1      46.043  26.741  35.738  1.00  0.00     0.200 A 
ATOM     71  F   UNL A   1      44.448  25.218  36.582  1.00  0.00    -0.200 F 
ATOM     72  F   UNL A   1      47.039  25.995  36.236  1.00  0.00    -0.200 F 
ENDBRANCH  39  62
ENDBRANCH  13  14
ENDBRANCH   6   8
ENDBRANCH   3   4
ENDBRANCH   2   3
ENDBRANCH   1   2
BRANCH   1  73
ATOM     73  C   UNL A   1      32.721  30.169  27.298  1.00  0.00     0.002 C 
BRANCH  73  74
ATOM     74  C   UNL A   1      32.838  28.645  27.172  1.00  0.00     0.021 C 
BRANCH  74  75
ATOM     75  C   UNL A   1      34.032  28.169  26.342  1.00  0.00     0.116 C 
BRANCH  75  76
ATOM     76  N   UNL A   1      34.074  28.831  25.052  1.00  0.00    -0.351 N 
ATOM     77  C   UNL A   1      33.771  28.357  23.809  1.00  0.00     0.278 C 
ATOM     78  H   UNL A   1      34.369  29.770  25.078  1.00  0.00     0.163 HD
ATOM     79  O   UNL A   1      34.017  29.092  22.846  1.00  0.00    -0.268 OA
BRANCH  77  80
ATOM     80  C   UNL A   1      33.088  26.991  23.591  1.00  0.00     0.274 C 
ATOM     81  C   UNL A   1      33.886  26.233  22.517  1.00  0.00     0.076 C 
ATOM     82  N   UNL A   1      31.647  27.108  23.266  1.00  0.00    -0.321 N 
ATOM     83  C   UNL A   1      33.252  24.888  22.196  1.00  0.00     0.012 C 
ATOM     84  C   UNL A   1      31.034  25.816  22.938  1.00  0.00     0.263 C 
ATOM     85  H   UNL A   1      31.622  27.672  22.417  1.00  0.00     0.349 HD
ATOM     86  C   UNL A   1      31.789  25.087  21.824  1.00  0.00     0.062 C 
BRANCH  82  87
ATOM     87  C   UNL A   1      30.856  27.881  24.241  1.00  0.00     0.299 C 
BRANCH  87  88
ATOM     88  C   UNL A   1      29.668  28.663  23.730  1.00  0.00     0.010 A 
ATOM     89  C   UNL A   1      28.402  28.073  23.622  1.00  0.00     0.048 A 
ATOM     90  C   UNL A   1      29.805  30.024  23.409  1.00  0.00     0.025 A 
ATOM     91  C   UNL A   1      27.316  28.823  23.179  1.00  0.00     0.124 A 
ATOM     92  C   UNL A   1      28.700  30.765  22.984  1.00  0.00     0.021 A 
ATOM     93  F   UNL A   1      26.116  28.239  23.070  1.00  0.00    -0.207 F 
ATOM     94  C   UNL A   1      27.452  30.167  22.859  1.00  0.00     0.055 A 
ATOM     95  Br  UNL A   1      28.904  32.604  22.592  1.00  0.00    -0.051 Br
ENDBRANCH  87  88
ENDBRANCH  82  87
ENDBRANCH  77  80
ENDBRANCH  75  76
ENDBRANCH  74  75
ENDBRANCH  73  74
ENDBRANCH   1  73
TORSDOF 15
ENDMDL
