MODEL 1
REMARK VINA RESULT:     -12.9      0.000      0.000
REMARK SMILES Cc1coc2c(C)c3oc(=O)c(CC(=O)NCC(=O)N[C@H](C(=O)NCCCCCCNC(=O)c4ccc(-c5c6nc(c(-c7c(F)c(F)c(F)c(F)c7F)c7ccc([nH]7)c(-c7c(F)c(F)c(F)c(F)c7F)c7nc(c(-c8c(F)c(F)c(F)c(F)c8F)c8ccc5[nH]8)C=C7)C=C6)cc4)C(C)C)c(C)c3cc12
REMARK SMILES IDX 26 1 25 2 24 3 22 4 23 5 21 7 20 8 18 9 19 10 17 12 16 13
REMARK SMILES IDX 14 14 15 15 13 17 12 18 1 19 2 20 3 21 104 22 4 23 5 24
REMARK SMILES IDX 103 25 6 26 102 27 7 28 8 29 100 30 9 31 101 32 10 33 11 34
REMARK SMILES IDX 97 35 98 36 99 37 27 38 28 39 29 40 30 41 31 42 32 43 33 45
REMARK SMILES IDX 34 46 35 47 96 48 36 49 95 50 37 51 38 52 39 53 89 54 40 55
REMARK SMILES IDX 94 56 88 57 90 58 41 59 93 60 87 61 86 62 42 64 74 65 54 66
REMARK SMILES IDX 73 67 55 68 58 69 72 70 91 71 56 72 57 73 71 75 92 76 59 77
REMARK SMILES IDX 43 78 44 79 52 80 45 81 46 82 50 83 53 84 47 85 48 86 51 87
REMARK SMILES IDX 49 88 75 89 76 90 84 91 77 92 78 93 82 94 85 95 79 96 80 97
REMARK SMILES IDX 83 98 81 99 60 100 61 101 69 102 62 103 63 104 67 105 70 106
REMARK SMILES IDX 64 107 65 108 68 109 66 110
REMARK H PARENT 24 6 20 11 16 16 31 44 90 63 58 74
REMARK Flexibility Score: inf
ROOT
ATOM      1  C   UNL A   1      38.417  23.002  26.246  1.00  0.00     0.021 C 
ENDROOT
BRANCH   1   2
ATOM      2  C   UNL A   1      37.049  23.512  25.701  1.00  0.00     0.116 C 
BRANCH   2   3
ATOM      3  N   UNL A   1      36.407  23.173  24.454  1.00  0.00    -0.354 N 
ATOM      4  C   UNL A   1      35.199  22.455  24.430  1.00  0.00     0.242 C 
ATOM      5  O   UNL A   1      34.406  22.649  23.505  1.00  0.00    -0.273 OA
ATOM      6  H   UNL A   1      36.822  23.448  23.605  1.00  0.00     0.163 HD
BRANCH   4   7
ATOM      7  C   UNL A   1      34.928  21.330  25.525  1.00  0.00     0.173 C 
BRANCH   7   8
ATOM      8  N   UNL A   1      34.028  21.852  26.624  1.00  0.00    -0.343 N 
ATOM      9  C   UNL A   1      33.163  22.868  26.915  1.00  0.00     0.240 C 
ATOM     10  O   UNL A   1      32.486  22.646  27.938  1.00  0.00    -0.273 OA
ATOM     11  H   UNL A   1      34.086  21.250  27.401  1.00  0.00     0.164 HD
BRANCH   9  12
ATOM     12  C   UNL A   1      32.769  24.173  26.113  1.00  0.00     0.216 C 
BRANCH  12  13
ATOM     13  N   UNL A   1      31.989  24.219  24.875  1.00  0.00    -0.347 N 
ATOM     14  C   UNL A   1      31.872  25.088  23.834  1.00  0.00     0.225 C 
ATOM     15  O   UNL A   1      31.005  24.799  22.995  1.00  0.00    -0.275 OA
ATOM     16  H   UNL A   1      31.410  23.429  24.769  1.00  0.00     0.164 HD
BRANCH  14  17
ATOM     17  C   UNL A   1      32.697  26.370  23.605  1.00  0.00     0.143 C 
BRANCH  17  18
ATOM     18  C   UNL A   1      32.459  27.618  24.443  1.00  0.00     0.051 A 
ATOM     19  C   UNL A   1      35.433  33.414  27.998  1.00  0.00     0.048 C 
ATOM     20  C   UNL A   1      34.066  32.806  27.830  1.00  0.00    -0.005 A 
ATOM     21  C   UNL A   1      33.021  33.691  28.005  1.00  0.00     0.199 A 
ATOM     22  C   UNL A   1      33.435  31.547  27.339  1.00  0.00     0.024 A 
ATOM     23  O   UNL A   1      31.919  33.240  27.403  1.00  0.00    -0.464 OA
ATOM     24  C   UNL A   1      32.206  32.017  26.903  1.00  0.00     0.140 A 
ATOM     25  C   UNL A   1      33.656  30.137  27.038  1.00  0.00     0.024 A 
ATOM     26  C   UNL A   1      31.379  31.377  25.993  1.00  0.00     0.036 A 
ATOM     27  C   UNL A   1      32.824  29.385  26.142  1.00  0.00     0.022 A 
ATOM     28  C   UNL A   1      30.285  32.159  25.355  1.00  0.00     0.052 C 
ATOM     29  C   UNL A   1      31.740  30.075  25.619  1.00  0.00     0.145 A 
ATOM     30  C   UNL A   1      33.067  27.992  25.604  1.00  0.00    -0.029 A 
ATOM     31  O   UNL A   1      30.924  29.504  24.630  1.00  0.00    -0.422 OA
ATOM     32  C   UNL A   1      33.961  27.021  26.340  1.00  0.00     0.046 C 
ATOM     33  C   UNL A   1      31.290  28.382  23.934  1.00  0.00     0.340 A 
ATOM     34  O   UNL A   1      30.653  28.024  22.951  1.00  0.00    -0.246 OA
ENDBRANCH  17  18
ENDBRANCH  14  17
ENDBRANCH  12  13
ENDBRANCH   9  12
ENDBRANCH   7   8
BRANCH   7  35
ATOM     35  C   UNL A   1      34.324  20.136  24.733  1.00  0.00     0.015 C 
ATOM     36  C   UNL A   1      35.167  18.862  24.626  1.00  0.00     0.010 C 
ATOM     37  C   UNL A   1      33.053  19.711  25.387  1.00  0.00     0.010 C 
ENDBRANCH   7  35
ENDBRANCH   4   7
ENDBRANCH   2   3
ENDBRANCH   1   2
BRANCH   1  38
ATOM     38  C   UNL A   1      39.233  21.700  26.019  1.00  0.00     0.002 C 
BRANCH  38  39
ATOM     39  C   UNL A   1      40.662  21.326  26.515  1.00  0.00     0.002 C 
BRANCH  39  40
ATOM     40  C   UNL A   1      41.333  19.981  26.162  1.00  0.00     0.021 C 
BRANCH  40  41
ATOM     41  C   UNL A   1      42.690  19.686  26.797  1.00  0.00     0.116 C 
BRANCH  41  42
ATOM     42  N   UNL A   1      43.729  19.314  25.835  1.00  0.00    -0.352 N 
ATOM     43  C   UNL A   1      44.445  20.119  24.960  1.00  0.00     0.251 C 
ATOM     44  H   UNL A   1      43.952  18.355  25.805  1.00  0.00     0.163 HD
ATOM     45  O   UNL A   1      45.040  19.656  24.012  1.00  0.00    -0.269 OA
BRANCH  43  46
ATOM     46  C   UNL A   1      44.448  21.574  25.211  1.00  0.00     0.039 A 
ATOM     47  C   UNL A   1      43.567  22.419  24.541  1.00  0.00     0.014 A 
ATOM     48  C   UNL A   1      45.278  22.052  26.221  1.00  0.00     0.014 A 
ATOM     49  C   UNL A   1      43.447  23.727  24.992  1.00  0.00     0.010 A 
ATOM     50  C   UNL A   1      45.000  23.263  26.799  1.00  0.00     0.010 A 
ATOM     51  C   UNL A   1      44.121  24.124  26.166  1.00  0.00    -0.014 A 
BRANCH  51  52
ATOM     52  C   UNL A   1      43.778  25.384  26.815  1.00  0.00     0.031 A 
ATOM     53  C   UNL A   1      44.719  26.474  26.459  1.00  0.00     0.074 A 
ATOM     54  C   UNL A   1      42.683  25.593  27.579  1.00  0.00     0.049 A 
ATOM     55  N   UNL A   1      45.723  26.854  27.174  1.00  0.00    -0.248 NA
ATOM     56  C   UNL A   1      44.709  27.043  25.101  1.00  0.00     0.031 C 
ATOM     57  C   UNL A   1      41.527  24.712  27.782  1.00  0.00     0.029 A 
ATOM     58  N   UNL A   1      42.349  26.690  28.322  1.00  0.00    -0.354 N 
ATOM     59  C   UNL A   1      46.314  27.894  26.474  1.00  0.00     0.074 A 
ATOM     60  C   UNL A   1      45.797  27.823  25.133  1.00  0.00     0.031 C 
ATOM     61  C   UNL A   1      40.532  25.389  28.399  1.00  0.00     0.029 A 
ATOM     62  C   UNL A   1      41.045  26.680  28.811  1.00  0.00     0.049 A 
ATOM     63  H   UNL A   1      42.978  27.427  28.496  1.00  0.00     0.167 HD
ATOM     64  C   UNL A   1      46.897  28.906  27.172  1.00  0.00     0.037 A 
ATOM     65  C   UNL A   1      40.445  27.655  29.539  1.00  0.00     0.037 A 
ATOM     66  C   UNL A   1      47.074  28.523  28.552  1.00  0.00     0.049 A 
ATOM     67  C   UNL A   1      41.529  28.411  30.203  1.00  0.00     0.074 A 
ATOM     68  C   UNL A   1      47.871  27.639  29.246  1.00  0.00     0.029 A 
ATOM     69  N   UNL A   1      45.968  28.767  29.322  1.00  0.00    -0.354 N 
ATOM     70  N   UNL A   1      42.287  27.906  31.136  1.00  0.00    -0.248 NA
ATOM     71  C   UNL A   1      42.031  29.624  29.571  1.00  0.00     0.031 C 
ATOM     72  C   UNL A   1      47.108  27.226  30.382  1.00  0.00     0.029 A 
ATOM     73  C   UNL A   1      45.900  27.921  30.393  1.00  0.00     0.049 A 
ATOM     74  H   UNL A   1      45.303  29.468  29.129  1.00  0.00     0.167 HD
ATOM     75  C   UNL A   1      43.528  28.462  30.899  1.00  0.00     0.074 A 
ATOM     76  C   UNL A   1      43.273  29.628  30.060  1.00  0.00     0.031 C 
ATOM     77  C   UNL A   1      44.662  27.740  31.122  1.00  0.00     0.037 A 
BRANCH  64  78
ATOM     78  C   UNL A   1      46.777  30.364  26.788  1.00  0.00     0.064 A 
ATOM     79  C   UNL A   1      47.912  31.194  26.876  1.00  0.00     0.173 A 
ATOM     80  C   UNL A   1      45.542  31.036  26.655  1.00  0.00     0.173 A 
ATOM     81  F   UNL A   1      49.129  30.664  27.074  1.00  0.00    -0.203 F 
ATOM     82  C   UNL A   1      47.809  32.589  26.857  1.00  0.00     0.198 A 
ATOM     83  C   UNL A   1      45.449  32.424  26.581  1.00  0.00     0.198 A 
ATOM     84  F   UNL A   1      44.371  30.395  26.723  1.00  0.00    -0.203 F 
ATOM     85  F   UNL A   1      48.901  33.341  27.055  1.00  0.00    -0.200 F 
ATOM     86  C   UNL A   1      46.579  33.202  26.702  1.00  0.00     0.200 A 
ATOM     87  F   UNL A   1      44.241  32.996  26.478  1.00  0.00    -0.200 F 
ATOM     88  F   UNL A   1      46.472  34.537  26.727  1.00  0.00    -0.200 F 
ENDBRANCH  64  78
BRANCH  65  89
ATOM     89  C   UNL A   1      39.052  28.163  29.484  1.00  0.00     0.064 A 
ATOM     90  C   UNL A   1      38.295  28.308  30.663  1.00  0.00     0.173 A 
ATOM     91  C   UNL A   1      38.561  28.825  28.343  1.00  0.00     0.173 A 
ATOM     92  F   UNL A   1      38.702  27.728  31.801  1.00  0.00    -0.203 F 
ATOM     93  C   UNL A   1      37.164  29.127  30.715  1.00  0.00     0.198 A 
ATOM     94  C   UNL A   1      37.427  29.641  28.398  1.00  0.00     0.198 A 
ATOM     95  F   UNL A   1      39.231  28.782  27.183  1.00  0.00    -0.203 F 
ATOM     96  F   UNL A   1      36.525  29.312  31.880  1.00  0.00    -0.200 F 
ATOM     97  C   UNL A   1      36.743  29.810  29.588  1.00  0.00     0.200 A 
ATOM     98  F   UNL A   1      37.049  30.322  27.307  1.00  0.00    -0.200 F 
ATOM     99  F   UNL A   1      35.712  30.663  29.657  1.00  0.00    -0.200 F 
ENDBRANCH  65  89
BRANCH  77 100
ATOM    100  C   UNL A   1      44.588  26.599  32.089  1.00  0.00     0.064 A 
ATOM    101  C   UNL A   1      44.492  25.243  31.734  1.00  0.00     0.173 A 
ATOM    102  C   UNL A   1      44.731  26.906  33.449  1.00  0.00     0.173 A 
ATOM    103  F   UNL A   1      44.414  24.867  30.452  1.00  0.00    -0.203 F 
ATOM    104  C   UNL A   1      44.526  24.244  32.708  1.00  0.00     0.198 A 
ATOM    105  C   UNL A   1      44.803  25.908  34.413  1.00  0.00     0.198 A 
ATOM    106  F   UNL A   1      44.854  28.185  33.838  1.00  0.00    -0.203 F 
ATOM    107  F   UNL A   1      44.428  22.955  32.354  1.00  0.00    -0.200 F 
ATOM    108  C   UNL A   1      44.694  24.578  34.044  1.00  0.00     0.200 A 
ATOM    109  F   UNL A   1      45.005  26.237  35.697  1.00  0.00    -0.200 F 
ATOM    110  F   UNL A   1      44.774  23.616  34.974  1.00  0.00    -0.200 F 
ENDBRANCH  77 100
ENDBRANCH  51  52
ENDBRANCH  43  46
ENDBRANCH  41  42
ENDBRANCH  40  41
ENDBRANCH  39  40
ENDBRANCH  38  39
ENDBRANCH   1  38
TORSDOF 19
ENDMDL
MODEL 2
REMARK VINA RESULT:     -12.2      2.584      3.733
REMARK SMILES Cc1coc2c(C)c3oc(=O)c(CC(=O)NCC(=O)N[C@H](C(=O)NCCCCCCNC(=O)c4ccc(-c5c6nc(c(-c7c(F)c(F)c(F)c(F)c7F)c7ccc([nH]7)c(-c7c(F)c(F)c(F)c(F)c7F)c7nc(c(-c8c(F)c(F)c(F)c(F)c8F)c8ccc5[nH]8)C=C7)C=C6)cc4)C(C)C)c(C)c3cc12
REMARK SMILES IDX 26 1 25 2 24 3 22 4 23 5 21 7 20 8 18 9 19 10 17 12 16 13
REMARK SMILES IDX 14 14 15 15 13 17 12 18 1 19 2 20 3 21 104 22 4 23 5 24
REMARK SMILES IDX 103 25 6 26 102 27 7 28 8 29 100 30 9 31 101 32 10 33 11 34
REMARK SMILES IDX 97 35 98 36 99 37 27 38 28 39 29 40 30 41 31 42 32 43 33 45
REMARK SMILES IDX 34 46 35 47 96 48 36 49 95 50 37 51 38 52 39 53 89 54 40 55
REMARK SMILES IDX 94 56 88 57 90 58 41 59 93 60 87 61 86 62 42 64 74 65 54 66
REMARK SMILES IDX 73 67 55 68 58 69 72 70 91 71 56 72 57 73 71 75 92 76 59 77
REMARK SMILES IDX 43 78 44 79 52 80 45 81 46 82 50 83 53 84 47 85 48 86 51 87
REMARK SMILES IDX 49 88 75 89 76 90 84 91 77 92 78 93 82 94 85 95 79 96 80 97
REMARK SMILES IDX 83 98 81 99 60 100 61 101 69 102 62 103 63 104 67 105 70 106
REMARK SMILES IDX 64 107 65 108 68 109 66 110
REMARK H PARENT 24 6 20 11 16 16 31 44 90 63 58 74
REMARK Flexibility Score: inf
ROOT
ATOM      1  C   UNL A   1      36.542  22.227  24.133  1.00  0.00     0.021 C 
ENDROOT
BRANCH   1   2
ATOM      2  C   UNL A   1      35.068  22.453  24.587  1.00  0.00     0.116 C 
BRANCH   2   3
ATOM      3  N   UNL A   1      34.537  22.427  25.928  1.00  0.00    -0.354 N 
ATOM      4  C   UNL A   1      33.652  21.418  26.340  1.00  0.00     0.242 C 
ATOM      5  O   UNL A   1      33.650  21.069  27.524  1.00  0.00    -0.273 OA
ATOM      6  H   UNL A   1      34.799  23.130  26.566  1.00  0.00     0.163 HD
BRANCH   4   7
ATOM      7  C   UNL A   1      32.593  20.826  25.307  1.00  0.00     0.173 C 
BRANCH   7   8
ATOM      8  N   UNL A   1      31.767  21.932  24.686  1.00  0.00    -0.343 N 
ATOM      9  C   UNL A   1      31.640  22.666  23.542  1.00  0.00     0.240 C 
ATOM     10  O   UNL A   1      30.570  23.306  23.499  1.00  0.00    -0.273 OA
ATOM     11  H   UNL A   1      31.084  22.224  25.332  1.00  0.00     0.164 HD
BRANCH   9  12
ATOM     12  C   UNL A   1      32.516  22.724  22.228  1.00  0.00     0.216 C 
BRANCH  12  13
ATOM     13  N   UNL A   1      33.015  23.939  21.580  1.00  0.00    -0.347 N 
ATOM     14  C   UNL A   1      32.610  25.236  21.509  1.00  0.00     0.225 C 
ATOM     15  O   UNL A   1      33.278  25.962  20.756  1.00  0.00    -0.275 OA
ATOM     16  H   UNL A   1      33.843  23.778  21.072  1.00  0.00     0.164 HD
BRANCH  14  17
ATOM     17  C   UNL A   1      31.424  25.875  22.260  1.00  0.00     0.143 C 
BRANCH  17  18
ATOM     18  C   UNL A   1      31.652  26.864  23.393  1.00  0.00     0.051 A 
ATOM     19  C   UNL A   1      36.553  30.485  27.630  1.00  0.00     0.048 C 
ATOM     20  C   UNL A   1      35.057  30.324  27.565  1.00  0.00    -0.005 A 
ATOM     21  C   UNL A   1      34.345  31.369  28.119  1.00  0.00     0.199 A 
ATOM     22  C   UNL A   1      34.036  29.458  26.911  1.00  0.00     0.024 A 
ATOM     23  O   UNL A   1      33.105  31.403  27.630  1.00  0.00    -0.464 OA
ATOM     24  C   UNL A   1      32.965  30.332  26.816  1.00  0.00     0.140 A 
ATOM     25  C   UNL A   1      33.797  28.176  26.255  1.00  0.00     0.024 A 
ATOM     26  C   UNL A   1      31.898  30.203  25.941  1.00  0.00     0.036 A 
ATOM     27  C   UNL A   1      32.693  27.941  25.368  1.00  0.00     0.022 A 
ATOM     28  C   UNL A   1      31.028  31.387  25.702  1.00  0.00     0.052 C 
ATOM     29  C   UNL A   1      31.817  29.006  25.216  1.00  0.00     0.145 A 
ATOM     30  C   UNL A   1      32.457  26.735  24.486  1.00  0.00    -0.029 A 
ATOM     31  O   UNL A   1      30.774  28.960  24.279  1.00  0.00    -0.422 OA
ATOM     32  C   UNL A   1      33.091  25.402  24.809  1.00  0.00     0.046 C 
ATOM     33  C   UNL A   1      30.719  28.016  23.287  1.00  0.00     0.340 A 
ATOM     34  O   UNL A   1      29.909  28.118  22.373  1.00  0.00    -0.246 OA
ENDBRANCH  17  18
ENDBRANCH  14  17
ENDBRANCH  12  13
ENDBRANCH   9  12
ENDBRANCH   7   8
BRANCH   7  35
ATOM     35  C   UNL A   1      33.441  20.022  24.281  1.00  0.00     0.015 C 
ATOM     36  C   UNL A   1      34.457  19.021  24.836  1.00  0.00     0.010 C 
ATOM     37  C   UNL A   1      32.527  19.217  23.420  1.00  0.00     0.010 C 
ENDBRANCH   7  35
ENDBRANCH   4   7
ENDBRANCH   2   3
ENDBRANCH   1   2
BRANCH   1  38
ATOM     38  C   UNL A   1      37.753  21.502  24.779  1.00  0.00     0.002 C 
BRANCH  38  39
ATOM     39  C   UNL A   1      38.710  21.984  25.911  1.00  0.00     0.002 C 
BRANCH  39  40
ATOM     40  C   UNL A   1      39.827  21.087  26.485  1.00  0.00     0.021 C 
BRANCH  40  41
ATOM     41  C   UNL A   1      40.978  21.779  27.212  1.00  0.00     0.116 C 
BRANCH  41  42
ATOM     42  N   UNL A   1      42.035  22.269  26.325  1.00  0.00    -0.352 N 
ATOM     43  C   UNL A   1      42.390  23.576  26.021  1.00  0.00     0.251 C 
ATOM     44  H   UNL A   1      42.570  21.572  25.880  1.00  0.00     0.163 HD
ATOM     45  O   UNL A   1      43.060  23.843  25.048  1.00  0.00    -0.269 OA
BRANCH  43  46
ATOM     46  C   UNL A   1      41.909  24.646  26.917  1.00  0.00     0.039 A 
ATOM     47  C   UNL A   1      42.558  24.922  28.118  1.00  0.00     0.014 A 
ATOM     48  C   UNL A   1      40.859  25.441  26.466  1.00  0.00     0.014 A 
ATOM     49  C   UNL A   1      42.214  26.085  28.793  1.00  0.00     0.010 A 
ATOM     50  C   UNL A   1      40.681  26.686  27.010  1.00  0.00     0.010 A 
ATOM     51  C   UNL A   1      41.318  26.998  28.198  1.00  0.00    -0.014 A 
BRANCH  51  52
ATOM     52  C   UNL A   1      41.177  28.344  28.742  1.00  0.00     0.031 A 
ATOM     53  C   UNL A   1      42.255  29.252  28.279  1.00  0.00     0.074 A 
ATOM     54  C   UNL A   1      40.145  28.773  29.502  1.00  0.00     0.049 A 
ATOM     55  N   UNL A   1      43.323  29.539  28.943  1.00  0.00    -0.248 NA
ATOM     56  C   UNL A   1      42.290  29.702  26.877  1.00  0.00     0.031 C 
ATOM     57  C   UNL A   1      38.881  28.090  29.797  1.00  0.00     0.029 A 
ATOM     58  N   UNL A   1      39.993  29.965  30.152  1.00  0.00    -0.354 N 
ATOM     59  C   UNL A   1      44.038  30.420  28.147  1.00  0.00     0.074 A 
ATOM     60  C   UNL A   1      43.480  30.315  26.826  1.00  0.00     0.031 C 
ATOM     61  C   UNL A   1      38.011  28.953  30.368  1.00  0.00     0.029 A 
ATOM     62  C   UNL A   1      38.716  30.186  30.660  1.00  0.00     0.049 A 
ATOM     63  H   UNL A   1      40.727  30.614  30.252  1.00  0.00     0.167 HD
ATOM     64  C   UNL A   1      44.779  31.391  28.746  1.00  0.00     0.037 A 
ATOM     65  C   UNL A   1      38.282  31.294  31.310  1.00  0.00     0.037 A 
ATOM     66  C   UNL A   1      44.938  31.102  30.152  1.00  0.00     0.049 A 
ATOM     67  C   UNL A   1      39.481  31.937  31.890  1.00  0.00     0.074 A 
ATOM     68  C   UNL A   1      45.618  30.172  30.907  1.00  0.00     0.029 A 
ATOM     69  N   UNL A   1      43.900  31.568  30.915  1.00  0.00    -0.354 N 
ATOM     70  N   UNL A   1      40.184  31.406  32.852  1.00  0.00    -0.248 NA
ATOM     71  C   UNL A   1      40.136  33.007  31.149  1.00  0.00     0.031 C 
ATOM     72  C   UNL A   1      44.835  29.970  32.086  1.00  0.00     0.029 A 
ATOM     73  C   UNL A   1      43.740  30.832  32.055  1.00  0.00     0.049 A 
ATOM     74  H   UNL A   1      43.338  32.339  30.672  1.00  0.00     0.167 HD
ATOM     75  C   UNL A   1      41.485  31.754  32.549  1.00  0.00     0.074 A 
ATOM     76  C   UNL A   1      41.378  32.871  31.617  1.00  0.00     0.031 C 
ATOM     77  C   UNL A   1      42.510  30.894  32.816  1.00  0.00     0.037 A 
BRANCH  64  78
ATOM     78  C   UNL A   1      44.860  32.814  28.241  1.00  0.00     0.064 A 
ATOM     79  C   UNL A   1      46.124  33.391  28.008  1.00  0.00     0.173 A 
ATOM     80  C   UNL A   1      43.779  33.721  28.289  1.00  0.00     0.173 A 
ATOM     81  F   UNL A   1      47.230  32.630  28.010  1.00  0.00    -0.203 F 
ATOM     82  C   UNL A   1      46.289  34.772  27.860  1.00  0.00     0.198 A 
ATOM     83  C   UNL A   1      43.940  35.090  28.087  1.00  0.00     0.198 A 
ATOM     84  F   UNL A   1      42.551  33.347  28.662  1.00  0.00    -0.203 F 
ATOM     85  F   UNL A   1      47.521  35.289  27.751  1.00  0.00    -0.200 F 
ATOM     86  C   UNL A   1      45.197  35.619  27.892  1.00  0.00     0.200 A 
ATOM     87  F   UNL A   1      42.872  35.896  28.170  1.00  0.00    -0.200 F 
ATOM     88  F   UNL A   1      45.356  36.945  27.796  1.00  0.00    -0.200 F 
ENDBRANCH  64  78
BRANCH  65  89
ATOM     89  C   UNL A   1      36.976  31.994  31.233  1.00  0.00     0.064 A 
ATOM     90  C   UNL A   1      36.118  32.034  32.349  1.00  0.00     0.173 A 
ATOM     91  C   UNL A   1      36.698  32.908  30.200  1.00  0.00     0.173 A 
ATOM     92  F   UNL A   1      36.324  31.212  33.388  1.00  0.00    -0.203 F 
ATOM     93  C   UNL A   1      35.095  32.981  32.458  1.00  0.00     0.198 A 
ATOM     94  C   UNL A   1      35.672  33.852  30.310  1.00  0.00     0.198 A 
ATOM     95  F   UNL A   1      37.480  32.975  29.113  1.00  0.00    -0.203 F 
ATOM     96  F   UNL A   1      34.360  33.046  33.578  1.00  0.00    -0.200 F 
ATOM     97  C   UNL A   1      34.887  33.903  31.448  1.00  0.00     0.200 A 
ATOM     98  F   UNL A   1      35.501  34.759  29.339  1.00  0.00    -0.200 F 
ATOM     99  F   UNL A   1      33.966  34.866  31.588  1.00  0.00    -0.200 F 
ENDBRANCH  65  89
BRANCH  77 100
ATOM    100  C   UNL A   1      42.298  29.861  33.878  1.00  0.00     0.064 A 
ATOM    101  C   UNL A   1      41.753  28.584  33.667  1.00  0.00     0.173 A 
ATOM    102  C   UNL A   1      42.781  30.157  35.161  1.00  0.00     0.173 A 
ATOM    103  F   UNL A   1      41.327  28.205  32.456  1.00  0.00    -0.203 F 
ATOM    104  C   UNL A   1      41.686  27.653  34.705  1.00  0.00     0.198 A 
ATOM    105  C   UNL A   1      42.748  29.216  36.182  1.00  0.00     0.198 A 
ATOM    106  F   UNL A   1      43.337  31.353  35.408  1.00  0.00    -0.203 F 
ATOM    107  F   UNL A   1      41.156  26.440  34.488  1.00  0.00    -0.200 F 
ATOM    108  C   UNL A   1      42.194  27.967  35.957  1.00  0.00     0.200 A 
ATOM    109  F   UNL A   1      43.277  29.513  37.377  1.00  0.00    -0.200 F 
ATOM    110  F   UNL A   1      42.172  27.057  36.941  1.00  0.00    -0.200 F 
ENDBRANCH  77 100
ENDBRANCH  51  52
ENDBRANCH  43  46
ENDBRANCH  41  42
ENDBRANCH  40  41
ENDBRANCH  39  40
ENDBRANCH  38  39
ENDBRANCH   1  38
TORSDOF 19
ENDMDL
MODEL 3
REMARK VINA RESULT:     -12.0      3.583     10.222
REMARK SMILES Cc1coc2c(C)c3oc(=O)c(CC(=O)NCC(=O)N[C@H](C(=O)NCCCCCCNC(=O)c4ccc(-c5c6nc(c(-c7c(F)c(F)c(F)c(F)c7F)c7ccc([nH]7)c(-c7c(F)c(F)c(F)c(F)c7F)c7nc(c(-c8c(F)c(F)c(F)c(F)c8F)c8ccc5[nH]8)C=C7)C=C6)cc4)C(C)C)c(C)c3cc12
REMARK SMILES IDX 26 1 25 2 24 3 22 4 23 5 21 7 20 8 18 9 19 10 17 12 16 13
REMARK SMILES IDX 14 14 15 15 13 17 12 18 1 19 2 20 3 21 104 22 4 23 5 24
REMARK SMILES IDX 103 25 6 26 102 27 7 28 8 29 100 30 9 31 101 32 10 33 11 34
REMARK SMILES IDX 97 35 98 36 99 37 27 38 28 39 29 40 30 41 31 42 32 43 33 45
REMARK SMILES IDX 34 46 35 47 96 48 36 49 95 50 37 51 38 52 39 53 89 54 40 55
REMARK SMILES IDX 94 56 88 57 90 58 41 59 93 60 87 61 86 62 42 64 74 65 54 66
REMARK SMILES IDX 73 67 55 68 58 69 72 70 91 71 56 72 57 73 71 75 92 76 59 77
REMARK SMILES IDX 43 78 44 79 52 80 45 81 46 82 50 83 53 84 47 85 48 86 51 87
REMARK SMILES IDX 49 88 75 89 76 90 84 91 77 92 78 93 82 94 85 95 79 96 80 97
REMARK SMILES IDX 83 98 81 99 60 100 61 101 69 102 62 103 63 104 67 105 70 106
REMARK SMILES IDX 64 107 65 108 68 109 66 110
REMARK H PARENT 24 6 20 11 16 16 31 44 90 63 58 74
REMARK Flexibility Score: inf
ROOT
ATOM      1  C   UNL A   1      33.460  34.356  28.381  1.00  0.00     0.021 C 
ENDROOT
BRANCH   1   2
ATOM      2  C   UNL A   1      32.379  33.304  27.988  1.00  0.00     0.116 C 
BRANCH   2   3
ATOM      3  N   UNL A   1      32.104  32.756  26.682  1.00  0.00    -0.354 N 
ATOM      4  C   UNL A   1      31.847  31.386  26.508  1.00  0.00     0.242 C 
ATOM      5  O   UNL A   1      31.102  31.029  25.592  1.00  0.00    -0.273 OA
ATOM      6  H   UNL A   1      32.097  33.353  25.899  1.00  0.00     0.163 HD
BRANCH   4   7
ATOM      7  C   UNL A   1      32.606  30.319  27.416  1.00  0.00     0.173 C 
BRANCH   7   8
ATOM      8  N   UNL A   1      31.945  28.961  27.321  1.00  0.00    -0.343 N 
ATOM      9  C   UNL A   1      31.661  27.962  26.434  1.00  0.00     0.240 C 
ATOM     10  O   UNL A   1      31.292  26.912  26.995  1.00  0.00    -0.273 OA
ATOM     11  H   UNL A   1      31.597  28.710  28.207  1.00  0.00     0.164 HD
BRANCH   9  12
ATOM     12  C   UNL A   1      31.865  27.858  24.869  1.00  0.00     0.216 C 
BRANCH  12  13
ATOM     13  N   UNL A   1      30.932  28.336  23.848  1.00  0.00    -0.347 N 
ATOM     14  C   UNL A   1      30.648  28.000  22.560  1.00  0.00     0.225 C 
ATOM     15  O   UNL A   1      29.826  28.733  21.988  1.00  0.00    -0.275 OA
ATOM     16  H   UNL A   1      30.374  29.081  24.170  1.00  0.00     0.164 HD
BRANCH  14  17
ATOM     17  C   UNL A   1      31.239  26.821  21.762  1.00  0.00     0.143 C 
BRANCH  17  18
ATOM     18  C   UNL A   1      32.003  25.705  22.458  1.00  0.00     0.051 A 
ATOM     19  C   UNL A   1      32.426  18.464  24.033  1.00  0.00     0.048 C 
ATOM     20  C   UNL A   1      33.167  19.720  24.408  1.00  0.00    -0.005 A 
ATOM     21  C   UNL A   1      34.475  19.517  24.799  1.00  0.00     0.199 A 
ATOM     22  C   UNL A   1      33.010  21.200  24.323  1.00  0.00     0.024 A 
ATOM     23  O   UNL A   1      35.186  20.637  24.660  1.00  0.00    -0.464 OA
ATOM     24  C   UNL A   1      34.333  21.607  24.260  1.00  0.00     0.140 A 
ATOM     25  C   UNL A   1      32.059  22.294  24.155  1.00  0.00     0.024 A 
ATOM     26  C   UNL A   1      34.776  22.825  23.768  1.00  0.00     0.036 A 
ATOM     27  C   UNL A   1      32.437  23.600  23.692  1.00  0.00     0.022 A 
ATOM     28  C   UNL A   1      36.218  22.972  23.430  1.00  0.00     0.052 C 
ATOM     29  C   UNL A   1      33.794  23.780  23.471  1.00  0.00     0.145 A 
ATOM     30  C   UNL A   1      31.525  24.738  23.293  1.00  0.00    -0.029 A 
ATOM     31  O   UNL A   1      34.285  24.960  22.892  1.00  0.00    -0.422 OA
ATOM     32  C   UNL A   1      30.109  24.818  23.814  1.00  0.00     0.046 C 
ATOM     33  C   UNL A   1      33.468  25.867  22.268  1.00  0.00     0.340 A 
ATOM     34  O   UNL A   1      33.943  26.783  21.607  1.00  0.00    -0.246 OA
ENDBRANCH  17  18
ENDBRANCH  14  17
ENDBRANCH  12  13
ENDBRANCH   9  12
ENDBRANCH   7   8
BRANCH   7  35
ATOM     35  C   UNL A   1      34.077  30.339  26.912  1.00  0.00     0.015 C 
ATOM     36  C   UNL A   1      35.054  31.279  27.624  1.00  0.00     0.010 C 
ATOM     37  C   UNL A   1      34.662  28.975  27.067  1.00  0.00     0.010 C 
ENDBRANCH   7  35
ENDBRANCH   4   7
ENDBRANCH   2   3
ENDBRANCH   1   2
BRANCH   1  38
ATOM     38  C   UNL A   1      33.390  35.744  29.073  1.00  0.00     0.002 C 
BRANCH  38  39
ATOM     39  C   UNL A   1      32.687  36.156  30.400  1.00  0.00     0.002 C 
BRANCH  39  40
ATOM     40  C   UNL A   1      33.355  37.085  31.436  1.00  0.00     0.021 C 
BRANCH  40  41
ATOM     41  C   UNL A   1      34.159  36.426  32.554  1.00  0.00     0.116 C 
BRANCH  41  42
ATOM     42  N   UNL A   1      33.469  35.312  33.208  1.00  0.00    -0.352 N 
ATOM     43  C   UNL A   1      33.680  33.947  33.072  1.00  0.00     0.251 C 
ATOM     44  H   UNL A   1      32.752  35.569  33.833  1.00  0.00     0.163 HD
ATOM     45  O   UNL A   1      32.849  33.137  33.419  1.00  0.00    -0.269 OA
BRANCH  43  46
ATOM     46  C   UNL A   1      34.953  33.505  32.470  1.00  0.00     0.039 A 
ATOM     47  C   UNL A   1      36.169  34.040  32.891  1.00  0.00     0.014 A 
ATOM     48  C   UNL A   1      34.904  32.456  31.557  1.00  0.00     0.014 A 
ATOM     49  C   UNL A   1      37.336  33.416  32.469  1.00  0.00     0.010 A 
ATOM     50  C   UNL A   1      36.035  31.716  31.326  1.00  0.00     0.010 A 
ATOM     51  C   UNL A   1      37.260  32.212  31.738  1.00  0.00    -0.014 A 
BRANCH  51  52
ATOM     52  C   UNL A   1      38.452  31.395  31.548  1.00  0.00     0.031 A 
ATOM     53  C   UNL A   1      39.129  31.083  32.830  1.00  0.00     0.074 A 
ATOM     54  C   UNL A   1      38.866  30.883  30.368  1.00  0.00     0.049 A 
ATOM     55  N   UNL A   1      40.142  31.719  33.312  1.00  0.00    -0.248 NA
ATOM     56  C   UNL A   1      38.506  30.151  33.786  1.00  0.00     0.031 C 
ATOM     57  C   UNL A   1      38.158  30.860  29.082  1.00  0.00     0.029 A 
ATOM     58  N   UNL A   1      40.024  30.220  30.077  1.00  0.00    -0.354 N 
ATOM     59  C   UNL A   1      40.449  31.091  34.509  1.00  0.00     0.074 A 
ATOM     60  C   UNL A   1      39.303  30.294  34.853  1.00  0.00     0.031 C 
ATOM     61  C   UNL A   1      38.790  30.031  28.221  1.00  0.00     0.029 A 
ATOM     62  C   UNL A   1      40.046  29.623  28.819  1.00  0.00     0.049 A 
ATOM     63  H   UNL A   1      40.780  30.168  30.705  1.00  0.00     0.167 HD
ATOM     64  C   UNL A   1      41.751  31.029  34.901  1.00  0.00     0.037 A 
ATOM     65  C   UNL A   1      41.048  28.874  28.294  1.00  0.00     0.037 A 
ATOM     66  C   UNL A   1      42.551  31.945  34.124  1.00  0.00     0.049 A 
ATOM     67  C   UNL A   1      42.286  29.281  28.993  1.00  0.00     0.074 A 
ATOM     68  C   UNL A   1      42.687  33.313  34.025  1.00  0.00     0.029 A 
ATOM     69  N   UNL A   1      42.988  31.405  32.943  1.00  0.00    -0.354 N 
ATOM     70  N   UNL A   1      42.829  30.459  28.861  1.00  0.00    -0.248 NA
ATOM     71  C   UNL A   1      42.732  28.507  30.145  1.00  0.00     0.031 C 
ATOM     72  C   UNL A   1      43.055  33.578  32.670  1.00  0.00     0.029 A 
ATOM     73  C   UNL A   1      43.205  32.367  31.997  1.00  0.00     0.049 A 
ATOM     74  H   UNL A   1      43.131  30.442  32.795  1.00  0.00     0.167 HD
ATOM     75  C   UNL A   1      43.325  30.744  30.118  1.00  0.00     0.074 A 
ATOM     76  C   UNL A   1      43.400  29.457  30.802  1.00  0.00     0.031 C 
ATOM     77  C   UNL A   1      43.307  32.021  30.595  1.00  0.00     0.037 A 
BRANCH  64  78
ATOM     78  C   UNL A   1      42.377  29.806  35.530  1.00  0.00     0.064 A 
ATOM     79  C   UNL A   1      43.265  29.966  36.612  1.00  0.00     0.173 A 
ATOM     80  C   UNL A   1      42.394  28.534  34.915  1.00  0.00     0.173 A 
ATOM     81  F   UNL A   1      43.381  31.153  37.227  1.00  0.00    -0.203 F 
ATOM     82  C   UNL A   1      44.119  28.938  37.025  1.00  0.00     0.198 A 
ATOM     83  C   UNL A   1      43.207  27.496  35.363  1.00  0.00     0.198 A 
ATOM     84  F   UNL A   1      41.732  28.283  33.781  1.00  0.00    -0.203 F 
ATOM     85  F   UNL A   1      45.026  29.168  37.985  1.00  0.00    -0.200 F 
ATOM     86  C   UNL A   1      44.084  27.702  36.405  1.00  0.00     0.200 A 
ATOM     87  F   UNL A   1      43.189  26.322  34.716  1.00  0.00    -0.200 F 
ATOM     88  F   UNL A   1      44.931  26.730  36.768  1.00  0.00    -0.200 F 
ENDBRANCH  64  78
BRANCH  65  89
ATOM     89  C   UNL A   1      40.985  27.652  27.455  1.00  0.00     0.064 A 
ATOM     90  C   UNL A   1      41.796  27.526  26.311  1.00  0.00     0.173 A 
ATOM     91  C   UNL A   1      40.396  26.468  27.935  1.00  0.00     0.173 A 
ATOM     92  F   UNL A   1      42.413  28.602  25.800  1.00  0.00    -0.203 F 
ATOM     93  C   UNL A   1      42.063  26.283  25.731  1.00  0.00     0.198 A 
ATOM     94  C   UNL A   1      40.662  25.225  27.351  1.00  0.00     0.198 A 
ATOM     95  F   UNL A   1      39.639  26.476  29.041  1.00  0.00    -0.203 F 
ATOM     96  F   UNL A   1      42.915  26.195  24.698  1.00  0.00    -0.200 F 
ATOM     97  C   UNL A   1      41.513  25.130  26.264  1.00  0.00     0.200 A 
ATOM     98  F   UNL A   1      40.148  24.114  27.896  1.00  0.00    -0.200 F 
ATOM     99  F   UNL A   1      41.836  23.930  25.765  1.00  0.00    -0.200 F 
ENDBRANCH  65  89
BRANCH  77 100
ATOM    100  C   UNL A   1      43.258  33.139  29.600  1.00  0.00     0.064 A 
ATOM    101  C   UNL A   1      42.123  33.912  29.306  1.00  0.00     0.173 A 
ATOM    102  C   UNL A   1      44.468  33.508  28.994  1.00  0.00     0.173 A 
ATOM    103  F   UNL A   1      40.945  33.660  29.892  1.00  0.00    -0.203 F 
ATOM    104  C   UNL A   1      42.201  34.998  28.433  1.00  0.00     0.198 A 
ATOM    105  C   UNL A   1      44.552  34.612  28.155  1.00  0.00     0.198 A 
ATOM    106  F   UNL A   1      45.588  32.819  29.263  1.00  0.00    -0.203 F 
ATOM    107  F   UNL A   1      41.106  35.722  28.160  1.00  0.00    -0.200 F 
ATOM    108  C   UNL A   1      43.417  35.353  27.869  1.00  0.00     0.200 A 
ATOM    109  F   UNL A   1      45.738  34.972  27.646  1.00  0.00    -0.200 F 
ATOM    110  F   UNL A   1      43.502  36.424  27.068  1.00  0.00    -0.200 F 
ENDBRANCH  77 100
ENDBRANCH  51  52
ENDBRANCH  43  46
ENDBRANCH  41  42
ENDBRANCH  40  41
ENDBRANCH  39  40
ENDBRANCH  38  39
ENDBRANCH   1  38
TORSDOF 19
ENDMDL
