MODEL 1
REMARK VINA RESULT:     -13.2      0.000      0.000
REMARK SMILES O=C(NCCCCCCNC(=O)[C@H]1Cc2[nH]cnc2CN1C(=O)C[C@]12C[C@H]3C[C@H](C[C@H](C3)C1)C2)c1ccc(-c2c3nc(c(-c4c(F)c(F)c(F)c(F)c4F)c4ccc([nH]4)c(-c4c(F)c(F)c(F)c(F)c4F)c4nc(c(-c5c(F)c(F)c(F)c(F)c5F)c5ccc2[nH]5)C=C4)C=C3)cc1
REMARK SMILES IDX 7 1 6 2 5 3 4 4 3 5 1 6 2 7 35 9 36 10 97 11 37 12 96 13
REMARK SMILES IDX 38 14 39 15 40 16 90 17 41 18 95 19 89 20 91 21 42 22 94 23
REMARK SMILES IDX 88 24 87 25 43 27 75 28 55 29 74 30 56 31 59 32 73 33 92 34
REMARK SMILES IDX 57 35 58 36 72 38 93 39 60 40 44 41 45 42 53 43 46 44 47 45
REMARK SMILES IDX 51 46 54 47 48 48 49 49 52 50 50 51 76 52 77 53 85 54 78 55
REMARK SMILES IDX 79 56 83 57 86 58 80 59 81 60 84 61 82 62 61 63 62 64 70 65
REMARK SMILES IDX 63 66 64 67 68 68 71 69 65 70 66 71 69 72 67 73 8 74 9 75
REMARK SMILES IDX 10 76 11 77 12 79 13 80 14 81 21 82 15 83 20 84 16 85 19 86
REMARK SMILES IDX 17 87 18 89 22 90 23 91 24 92 25 93 26 94 33 95 34 96 27 97
REMARK SMILES IDX 31 98 29 99 28 100 32 101 30 102
REMARK H PARENT 3 8 91 26 59 37 10 78 16 88
REMARK Flexibility Score: inf
ROOT
ATOM      1  C   UNL A   1      40.562  21.930  26.957  1.00  0.00     0.002 C 
ENDROOT
BRANCH   1   2
ATOM      2  C   UNL A   1      41.395  20.692  27.296  1.00  0.00     0.002 C 
BRANCH   2   3
ATOM      3  C   UNL A   1      41.564  19.697  26.144  1.00  0.00     0.021 C 
BRANCH   3   4
ATOM      4  C   UNL A   1      42.978  19.127  26.008  1.00  0.00     0.116 C 
BRANCH   4   5
ATOM      5  N   UNL A   1      43.675  19.600  24.833  1.00  0.00    -0.352 N 
ATOM      6  O   UNL A   1      44.895  20.782  23.424  1.00  0.00    -0.269 OA
ATOM      7  C   UNL A   1      44.267  20.777  24.491  1.00  0.00     0.251 C 
ATOM      8  H   UNL A   1      43.737  18.919  24.124  1.00  0.00     0.163 HD
BRANCH   7   9
ATOM      9  C   UNL A   1      44.158  22.044  25.261  1.00  0.00     0.039 A 
ATOM     10  C   UNL A   1      44.772  22.315  26.485  1.00  0.00     0.014 A 
ATOM     11  C   UNL A   1      43.316  23.023  24.702  1.00  0.00     0.014 A 
ATOM     12  C   UNL A   1      44.491  23.490  27.172  1.00  0.00     0.010 A 
ATOM     13  C   UNL A   1      43.039  24.203  25.375  1.00  0.00     0.010 A 
ATOM     14  C   UNL A   1      43.602  24.417  26.628  1.00  0.00    -0.014 A 
BRANCH  14  15
ATOM     15  C   UNL A   1      43.418  25.678  27.334  1.00  0.00     0.031 A 
ATOM     16  C   UNL A   1      44.431  26.722  26.995  1.00  0.00     0.074 A 
ATOM     17  C   UNL A   1      42.346  25.932  28.112  1.00  0.00     0.049 A 
ATOM     18  N   UNL A   1      45.218  27.369  27.792  1.00  0.00    -0.248 NA
ATOM     19  C   UNL A   1      44.668  27.003  25.569  1.00  0.00     0.031 C 
ATOM     20  C   UNL A   1      41.154  25.102  28.295  1.00  0.00     0.029 A 
ATOM     21  N   UNL A   1      42.052  27.053  28.830  1.00  0.00    -0.354 N 
ATOM     22  C   UNL A   1      45.935  28.259  26.990  1.00  0.00     0.074 A 
ATOM     23  C   UNL A   1      45.657  27.893  25.628  1.00  0.00     0.031 C 
ATOM     24  C   UNL A   1      40.181  25.842  28.875  1.00  0.00     0.029 A 
ATOM     25  C   UNL A   1      40.722  27.147  29.219  1.00  0.00     0.049 A 
ATOM     26  H   UNL A   1      42.724  27.735  29.054  1.00  0.00     0.167 HD
ATOM     27  C   UNL A   1      46.522  29.369  27.517  1.00  0.00     0.037 A 
ATOM     28  C   UNL A   1      40.097  28.244  29.716  1.00  0.00     0.037 A 
ATOM     29  C   UNL A   1      46.754  29.208  28.929  1.00  0.00     0.049 A 
ATOM     30  C   UNL A   1      41.143  29.174  30.207  1.00  0.00     0.074 A 
ATOM     31  C   UNL A   1      47.500  28.340  29.702  1.00  0.00     0.029 A 
ATOM     32  N   UNL A   1      45.901  29.833  29.802  1.00  0.00    -0.354 N 
ATOM     33  N   UNL A   1      41.897  28.943  31.244  1.00  0.00    -0.248 NA
ATOM     34  C   UNL A   1      41.650  30.168  29.273  1.00  0.00     0.031 C 
ATOM     35  C   UNL A   1      46.721  28.131  30.879  1.00  0.00     0.029 A 
ATOM     36  C   UNL A   1      45.579  28.926  30.776  1.00  0.00     0.049 A 
ATOM     37  H   UNL A   1      45.578  30.760  29.741  1.00  0.00     0.167 HD
ATOM     38  C   UNL A   1      43.148  29.414  30.878  1.00  0.00     0.074 A 
ATOM     39  C   UNL A   1      42.915  30.237  29.694  1.00  0.00     0.031 C 
ATOM     40  C   UNL A   1      44.282  28.864  31.400  1.00  0.00     0.037 A 
BRANCH  27  41
ATOM     41  C   UNL A   1      46.496  30.736  26.858  1.00  0.00     0.064 A 
ATOM     42  C   UNL A   1      47.686  31.497  26.836  1.00  0.00     0.173 A 
ATOM     43  C   UNL A   1      45.317  31.458  26.568  1.00  0.00     0.173 A 
ATOM     44  F   UNL A   1      48.872  30.920  27.074  1.00  0.00    -0.203 F 
ATOM     45  C   UNL A   1      47.673  32.887  26.686  1.00  0.00     0.198 A 
ATOM     46  C   UNL A   1      45.316  32.838  26.371  1.00  0.00     0.198 A 
ATOM     47  F   UNL A   1      44.107  30.890  26.565  1.00  0.00    -0.203 F 
ATOM     48  F   UNL A   1      48.810  33.580  26.834  1.00  0.00    -0.200 F 
ATOM     49  C   UNL A   1      46.485  33.558  26.474  1.00  0.00     0.200 A 
ATOM     50  F   UNL A   1      44.151  33.471  26.170  1.00  0.00    -0.200 F 
ATOM     51  F   UNL A   1      46.459  34.896  26.416  1.00  0.00    -0.200 F 
ENDBRANCH  27  41
BRANCH  28  52
ATOM     52  C   UNL A   1      38.697  28.684  29.499  1.00  0.00     0.064 A 
ATOM     53  C   UNL A   1      37.851  28.984  30.581  1.00  0.00     0.173 A 
ATOM     54  C   UNL A   1      38.251  29.092  28.226  1.00  0.00     0.173 A 
ATOM     55  F   UNL A   1      38.224  28.680  31.832  1.00  0.00    -0.203 F 
ATOM     56  C   UNL A   1      36.644  29.670  30.401  1.00  0.00     0.198 A 
ATOM     57  C   UNL A   1      37.044  29.767  28.047  1.00  0.00     0.198 A 
ATOM     58  F   UNL A   1      39.025  28.931  27.144  1.00  0.00    -0.203 F 
ATOM     59  F   UNL A   1      35.894  29.995  31.463  1.00  0.00    -0.200 F 
ATOM     60  C   UNL A   1      36.247  30.069  29.135  1.00  0.00     0.200 A 
ATOM     61  F   UNL A   1      36.692  30.182  26.822  1.00  0.00    -0.200 F 
ATOM     62  F   UNL A   1      35.122  30.778  28.968  1.00  0.00    -0.200 F 
ENDBRANCH  28  52
BRANCH  40  63
ATOM     63  C   UNL A   1      44.135  27.935  32.570  1.00  0.00     0.064 A 
ATOM     64  C   UNL A   1      43.974  26.543  32.453  1.00  0.00     0.173 A 
ATOM     65  C   UNL A   1      44.307  28.460  33.857  1.00  0.00     0.173 A 
ATOM     66  F   UNL A   1      43.909  25.953  31.254  1.00  0.00    -0.203 F 
ATOM     67  C   UNL A   1      43.942  25.725  33.581  1.00  0.00     0.198 A 
ATOM     68  C   UNL A   1      44.312  27.636  34.978  1.00  0.00     0.198 A 
ATOM     69  F   UNL A   1      44.523  29.774  34.022  1.00  0.00    -0.203 F 
ATOM     70  F   UNL A   1      43.779  24.400  33.445  1.00  0.00    -0.200 F 
ATOM     71  C   UNL A   1      44.118  26.272  34.841  1.00  0.00     0.200 A 
ATOM     72  F   UNL A   1      44.537  28.163  36.189  1.00  0.00    -0.200 F 
ATOM     73  F   UNL A   1      44.134  25.479  35.923  1.00  0.00    -0.200 F 
ENDBRANCH  40  63
ENDBRANCH  14  15
ENDBRANCH   7   9
ENDBRANCH   4   5
ENDBRANCH   3   4
ENDBRANCH   2   3
ENDBRANCH   1   2
BRANCH   1  74
ATOM     74  C   UNL A   1      39.630  21.768  25.747  1.00  0.00     0.021 C 
BRANCH  74  75
ATOM     75  C   UNL A   1      38.182  22.157  26.019  1.00  0.00     0.116 C 
BRANCH  75  76
ATOM     76  N   UNL A   1      37.700  22.979  24.936  1.00  0.00    -0.354 N 
ATOM     77  C   UNL A   1      36.786  22.662  23.985  1.00  0.00     0.243 C 
ATOM     78  H   UNL A   1      38.083  23.885  24.879  1.00  0.00     0.163 HD
ATOM     79  O   UNL A   1      37.046  23.043  22.840  1.00  0.00    -0.273 OA
BRANCH  77  80
ATOM     80  C   UNL A   1      35.532  21.827  24.302  1.00  0.00     0.180 C 
ATOM     81  C   UNL A   1      35.597  20.433  25.001  1.00  0.00     0.091 C 
ATOM     82  N   UNL A   1      34.430  22.631  24.935  1.00  0.00    -0.324 N 
ATOM     83  C   UNL A   1      34.220  19.877  25.010  1.00  0.00     0.042 A 
ATOM     84  C   UNL A   1      33.074  22.111  24.585  1.00  0.00     0.178 C 
ATOM     85  N   UNL A   1      33.814  18.607  25.287  1.00  0.00    -0.348 N 
ATOM     86  C   UNL A   1      33.074  20.623  24.839  1.00  0.00     0.081 A 
ATOM     87  C   UNL A   1      32.446  18.617  25.215  1.00  0.00     0.197 A 
ATOM     88  H   UNL A   1      34.390  17.836  25.497  1.00  0.00     0.167 HD
ATOM     89  N   UNL A   1      31.973  19.814  24.930  1.00  0.00    -0.240 NA
BRANCH  82  90
ATOM     90  C   UNL A   1      34.505  23.514  26.007  1.00  0.00     0.224 C 
ATOM     91  O   UNL A   1      34.373  23.083  27.163  1.00  0.00    -0.275 OA
BRANCH  90  92
ATOM     92  C   UNL A   1      34.717  25.045  25.876  1.00  0.00     0.107 C 
BRANCH  92  93
ATOM     93  C   UNL A   1      33.485  25.960  25.643  1.00  0.00    -0.020 C 
ATOM     94  C   UNL A   1      33.037  25.942  24.166  1.00  0.00     0.011 C 
ATOM     95  C   UNL A   1      33.769  27.394  26.147  1.00  0.00     0.011 C 
ATOM     96  C   UNL A   1      32.225  25.445  26.410  1.00  0.00     0.011 C 
ATOM     97  C   UNL A   1      31.911  26.934  23.884  1.00  0.00    -0.010 C 
ATOM     98  C   UNL A   1      32.578  28.319  25.881  1.00  0.00    -0.010 C 
ATOM     99  C   UNL A   1      31.006  26.371  26.148  1.00  0.00    -0.010 C 
ATOM    100  C   UNL A   1      30.680  26.439  24.644  1.00  0.00     0.007 C 
ATOM    101  C   UNL A   1      32.301  28.340  24.371  1.00  0.00     0.007 C 
ATOM    102  C   UNL A   1      31.343  27.792  26.628  1.00  0.00     0.007 C 
ENDBRANCH  92  93
ENDBRANCH  90  92
ENDBRANCH  82  90
ENDBRANCH  77  80
ENDBRANCH  75  76
ENDBRANCH  74  75
ENDBRANCH   1  74
TORSDOF 16
ENDMDL
MODEL 2
REMARK VINA RESULT:     -12.9      3.223      8.934
REMARK SMILES O=C(NCCCCCCNC(=O)[C@H]1Cc2[nH]cnc2CN1C(=O)C[C@]12C[C@H]3C[C@H](C[C@H](C3)C1)C2)c1ccc(-c2c3nc(c(-c4c(F)c(F)c(F)c(F)c4F)c4ccc([nH]4)c(-c4c(F)c(F)c(F)c(F)c4F)c4nc(c(-c5c(F)c(F)c(F)c(F)c5F)c5ccc2[nH]5)C=C4)C=C3)cc1
REMARK SMILES IDX 7 1 6 2 5 3 4 4 3 5 1 6 2 7 35 9 36 10 97 11 37 12 96 13
REMARK SMILES IDX 38 14 39 15 40 16 90 17 41 18 95 19 89 20 91 21 42 22 94 23
REMARK SMILES IDX 88 24 87 25 43 27 75 28 55 29 74 30 56 31 59 32 73 33 92 34
REMARK SMILES IDX 57 35 58 36 72 38 93 39 60 40 44 41 45 42 53 43 46 44 47 45
REMARK SMILES IDX 51 46 54 47 48 48 49 49 52 50 50 51 76 52 77 53 85 54 78 55
REMARK SMILES IDX 79 56 83 57 86 58 80 59 81 60 84 61 82 62 61 63 62 64 70 65
REMARK SMILES IDX 63 66 64 67 68 68 71 69 65 70 66 71 69 72 67 73 8 74 9 75
REMARK SMILES IDX 10 76 11 77 12 79 13 80 14 81 21 82 15 83 20 84 16 85 19 86
REMARK SMILES IDX 17 87 18 89 22 90 23 91 24 92 25 93 26 94 33 95 34 96 27 97
REMARK SMILES IDX 31 98 29 99 28 100 32 101 30 102
REMARK H PARENT 3 8 91 26 59 37 10 78 16 88
REMARK Flexibility Score: inf
ROOT
ATOM      1  C   UNL A   1      35.511  29.802  27.966  1.00  0.00     0.002 C 
ENDROOT
BRANCH   1   2
ATOM      2  C   UNL A   1      35.573  31.297  27.647  1.00  0.00     0.002 C 
BRANCH   2   3
ATOM      3  C   UNL A   1      34.291  32.074  27.962  1.00  0.00     0.021 C 
BRANCH   3   4
ATOM      4  C   UNL A   1      34.502  33.301  28.852  1.00  0.00     0.116 C 
BRANCH   4   5
ATOM      5  N   UNL A   1      34.225  33.050  30.248  1.00  0.00    -0.352 N 
ATOM      6  O   UNL A   1      34.416  32.593  32.399  1.00  0.00    -0.269 OA
ATOM      7  C   UNL A   1      34.948  32.539  31.282  1.00  0.00     0.251 C 
ATOM      8  H   UNL A   1      33.311  33.307  30.510  1.00  0.00     0.163 HD
BRANCH   7   9
ATOM      9  C   UNL A   1      36.274  31.881  31.154  1.00  0.00     0.039 A 
ATOM     10  C   UNL A   1      37.473  32.509  30.811  1.00  0.00     0.014 A 
ATOM     11  C   UNL A   1      36.281  30.488  31.357  1.00  0.00     0.014 A 
ATOM     12  C   UNL A   1      38.625  31.763  30.596  1.00  0.00     0.010 A 
ATOM     13  C   UNL A   1      37.431  29.738  31.156  1.00  0.00     0.010 A 
ATOM     14  C   UNL A   1      38.593  30.376  30.740  1.00  0.00    -0.014 A 
BRANCH  14  15
ATOM     15  C   UNL A   1      39.848  29.648  30.606  1.00  0.00     0.031 A 
ATOM     16  C   UNL A   1      40.595  29.475  31.888  1.00  0.00     0.074 A 
ATOM     17  C   UNL A   1      40.232  29.056  29.457  1.00  0.00     0.049 A 
ATOM     18  N   UNL A   1      41.810  29.823  32.165  1.00  0.00    -0.248 NA
ATOM     19  C   UNL A   1      39.853  28.939  33.041  1.00  0.00     0.031 C 
ATOM     20  C   UNL A   1      39.460  28.915  28.220  1.00  0.00     0.029 A 
ATOM     21  N   UNL A   1      41.370  28.357  29.189  1.00  0.00    -0.354 N 
ATOM     22  C   UNL A   1      42.044  29.401  33.476  1.00  0.00     0.074 A 
ATOM     23  C   UNL A   1      40.771  28.993  34.005  1.00  0.00     0.031 C 
ATOM     24  C   UNL A   1      40.051  27.987  27.431  1.00  0.00     0.029 A 
ATOM     25  C   UNL A   1      41.300  27.571  28.046  1.00  0.00     0.049 A 
ATOM     26  H   UNL A   1      42.173  28.406  29.756  1.00  0.00     0.167 HD
ATOM     27  C   UNL A   1      43.309  29.211  33.941  1.00  0.00     0.037 A 
ATOM     28  C   UNL A   1      42.170  26.597  27.676  1.00  0.00     0.037 A 
ATOM     29  C   UNL A   1      44.261  29.965  33.167  1.00  0.00     0.049 A 
ATOM     30  C   UNL A   1      43.432  26.812  28.424  1.00  0.00     0.074 A 
ATOM     31  C   UNL A   1      44.465  31.306  32.908  1.00  0.00     0.029 A 
ATOM     32  N   UNL A   1      45.017  29.295  32.239  1.00  0.00    -0.354 N 
ATOM     33  N   UNL A   1      44.235  27.819  28.225  1.00  0.00    -0.248 NA
ATOM     34  C   UNL A   1      43.578  26.139  29.705  1.00  0.00     0.031 C 
ATOM     35  C   UNL A   1      44.915  31.357  31.555  1.00  0.00     0.029 A 
ATOM     36  C   UNL A   1      45.012  30.044  31.094  1.00  0.00     0.049 A 
ATOM     37  H   UNL A   1      45.479  28.436  32.371  1.00  0.00     0.167 HD
ATOM     38  C   UNL A   1      44.664  28.179  29.493  1.00  0.00     0.074 A 
ATOM     39  C   UNL A   1      44.300  27.056  30.353  1.00  0.00     0.031 C 
ATOM     40  C   UNL A   1      45.015  29.467  29.773  1.00  0.00     0.037 A 
BRANCH  27  41
ATOM     41  C   UNL A   1      43.727  28.036  34.806  1.00  0.00     0.064 A 
ATOM     42  C   UNL A   1      43.392  26.732  34.381  1.00  0.00     0.173 A 
ATOM     43  C   UNL A   1      44.117  28.144  36.160  1.00  0.00     0.173 A 
ATOM     44  F   UNL A   1      43.027  26.497  33.112  1.00  0.00    -0.203 F 
ATOM     45  C   UNL A   1      43.311  25.660  35.274  1.00  0.00     0.198 A 
ATOM     46  C   UNL A   1      44.080  27.060  37.036  1.00  0.00     0.198 A 
ATOM     47  F   UNL A   1      44.447  29.310  36.724  1.00  0.00    -0.203 F 
ATOM     48  F   UNL A   1      42.833  24.481  34.853  1.00  0.00    -0.200 F 
ATOM     49  C   UNL A   1      43.635  25.830  36.605  1.00  0.00     0.200 A 
ATOM     50  F   UNL A   1      44.396  27.248  38.326  1.00  0.00    -0.200 F 
ATOM     51  F   UNL A   1      43.476  24.828  37.480  1.00  0.00    -0.200 F 
ENDBRANCH  27  41
BRANCH  28  52
ATOM     52  C   UNL A   1      41.880  25.319  26.982  1.00  0.00     0.064 A 
ATOM     53  C   UNL A   1      42.697  24.854  25.937  1.00  0.00     0.173 A 
ATOM     54  C   UNL A   1      40.964  24.391  27.517  1.00  0.00     0.173 A 
ATOM     55  F   UNL A   1      43.633  25.655  25.407  1.00  0.00    -0.203 F 
ATOM     56  C   UNL A   1      42.618  23.536  25.473  1.00  0.00     0.198 A 
ATOM     57  C   UNL A   1      40.880  23.080  27.048  1.00  0.00     0.198 A 
ATOM     58  F   UNL A   1      40.202  24.710  28.573  1.00  0.00    -0.203 F 
ATOM     59  F   UNL A   1      43.457  23.111  24.518  1.00  0.00    -0.200 F 
ATOM     60  C   UNL A   1      41.715  22.648  26.035  1.00  0.00     0.200 A 
ATOM     61  F   UNL A   1      40.030  22.221  27.628  1.00  0.00    -0.200 F 
ATOM     62  F   UNL A   1      41.680  21.370  25.633  1.00  0.00    -0.200 F 
ENDBRANCH  28  52
BRANCH  40  63
ATOM     63  C   UNL A   1      45.185  30.412  28.619  1.00  0.00     0.064 A 
ATOM     64  C   UNL A   1      44.156  31.220  28.106  1.00  0.00     0.173 A 
ATOM     65  C   UNL A   1      46.476  30.609  28.111  1.00  0.00     0.173 A 
ATOM     66  F   UNL A   1      42.918  31.167  28.613  1.00  0.00    -0.203 F 
ATOM     67  C   UNL A   1      44.404  32.149  27.097  1.00  0.00     0.198 A 
ATOM     68  C   UNL A   1      46.727  31.564  27.130  1.00  0.00     0.198 A 
ATOM     69  F   UNL A   1      47.507  29.907  28.606  1.00  0.00    -0.203 F 
ATOM     70  F   UNL A   1      43.403  32.903  26.617  1.00  0.00    -0.200 F 
ATOM     71  C   UNL A   1      45.691  32.324  26.616  1.00  0.00     0.200 A 
ATOM     72  F   UNL A   1      47.982  31.767  26.707  1.00  0.00    -0.200 F 
ATOM     73  F   UNL A   1      45.938  33.250  25.678  1.00  0.00    -0.200 F 
ENDBRANCH  40  63
ENDBRANCH  14  15
ENDBRANCH   7   9
ENDBRANCH   4   5
ENDBRANCH   3   4
ENDBRANCH   2   3
ENDBRANCH   1   2
BRANCH   1  74
ATOM     74  C   UNL A   1      34.771  28.950  26.924  1.00  0.00     0.021 C 
BRANCH  74  75
ATOM     75  C   UNL A   1      33.276  28.809  27.184  1.00  0.00     0.116 C 
BRANCH  75  76
ATOM     76  N   UNL A   1      32.875  27.448  26.923  1.00  0.00    -0.354 N 
ATOM     77  C   UNL A   1      31.760  27.009  26.289  1.00  0.00     0.243 C 
ATOM     78  H   UNL A   1      33.491  26.749  27.245  1.00  0.00     0.163 HD
ATOM     79  O   UNL A   1      31.208  26.026  26.791  1.00  0.00    -0.273 OA
BRANCH  77  80
ATOM     80  C   UNL A   1      31.183  27.728  25.056  1.00  0.00     0.180 C 
ATOM     81  C   UNL A   1      31.043  29.280  24.969  1.00  0.00     0.091 C 
ATOM     82  N   UNL A   1      31.748  27.223  23.757  1.00  0.00    -0.324 N 
ATOM     83  C   UNL A   1      30.324  29.591  23.707  1.00  0.00     0.042 A 
ATOM     84  C   UNL A   1      30.769  27.325  22.633  1.00  0.00     0.178 C 
ATOM     85  N   UNL A   1      29.763  30.766  23.311  1.00  0.00    -0.348 N 
ATOM     86  C   UNL A   1      30.207  28.726  22.641  1.00  0.00     0.081 A 
ATOM     87  C   UNL A   1      29.274  30.553  22.050  1.00  0.00     0.197 A 
ATOM     88  H   UNL A   1      29.717  31.602  23.830  1.00  0.00     0.167 HD
ATOM     89  N   UNL A   1      29.512  29.328  21.626  1.00  0.00    -0.240 NA
BRANCH  82  90
ATOM     90  C   UNL A   1      33.079  27.016  23.412  1.00  0.00     0.224 C 
ATOM     91  O   UNL A   1      33.888  27.952  23.510  1.00  0.00    -0.275 OA
BRANCH  90  92
ATOM     92  C   UNL A   1      33.653  25.681  22.871  1.00  0.00     0.107 C 
BRANCH  92  93
ATOM     93  C   UNL A   1      33.851  24.492  23.851  1.00  0.00    -0.020 C 
ATOM     94  C   UNL A   1      34.824  23.442  23.277  1.00  0.00     0.011 C 
ATOM     95  C   UNL A   1      32.488  23.874  24.238  1.00  0.00     0.011 C 
ATOM     96  C   UNL A   1      34.543  24.942  25.177  1.00  0.00     0.011 C 
ATOM     97  C   UNL A   1      34.934  22.201  24.162  1.00  0.00    -0.010 C 
ATOM     98  C   UNL A   1      32.671  22.671  25.168  1.00  0.00    -0.010 C 
ATOM     99  C   UNL A   1      34.741  23.733  26.131  1.00  0.00    -0.010 C 
ATOM    100  C   UNL A   1      35.600  22.641  25.466  1.00  0.00     0.007 C 
ATOM    101  C   UNL A   1      33.538  21.625  24.452  1.00  0.00     0.007 C 
ATOM    102  C   UNL A   1      33.368  23.124  26.460  1.00  0.00     0.007 C 
ENDBRANCH  92  93
ENDBRANCH  90  92
ENDBRANCH  82  90
ENDBRANCH  77  80
ENDBRANCH  75  76
ENDBRANCH  74  75
ENDBRANCH   1  74
TORSDOF 16
ENDMDL
MODEL 3
REMARK VINA RESULT:     -12.7      3.640      9.400
REMARK SMILES O=C(NCCCCCCNC(=O)[C@H]1Cc2[nH]cnc2CN1C(=O)C[C@]12C[C@H]3C[C@H](C[C@H](C3)C1)C2)c1ccc(-c2c3nc(c(-c4c(F)c(F)c(F)c(F)c4F)c4ccc([nH]4)c(-c4c(F)c(F)c(F)c(F)c4F)c4nc(c(-c5c(F)c(F)c(F)c(F)c5F)c5ccc2[nH]5)C=C4)C=C3)cc1
REMARK SMILES IDX 7 1 6 2 5 3 4 4 3 5 1 6 2 7 35 9 36 10 97 11 37 12 96 13
REMARK SMILES IDX 38 14 39 15 40 16 90 17 41 18 95 19 89 20 91 21 42 22 94 23
REMARK SMILES IDX 88 24 87 25 43 27 75 28 55 29 74 30 56 31 59 32 73 33 92 34
REMARK SMILES IDX 57 35 58 36 72 38 93 39 60 40 44 41 45 42 53 43 46 44 47 45
REMARK SMILES IDX 51 46 54 47 48 48 49 49 52 50 50 51 76 52 77 53 85 54 78 55
REMARK SMILES IDX 79 56 83 57 86 58 80 59 81 60 84 61 82 62 61 63 62 64 70 65
REMARK SMILES IDX 63 66 64 67 68 68 71 69 65 70 66 71 69 72 67 73 8 74 9 75
REMARK SMILES IDX 10 76 11 77 12 79 13 80 14 81 21 82 15 83 20 84 16 85 19 86
REMARK SMILES IDX 17 87 18 89 22 90 23 91 24 92 25 93 26 94 33 95 34 96 27 97
REMARK SMILES IDX 31 98 29 99 28 100 32 101 30 102
REMARK H PARENT 3 8 91 26 59 37 10 78 16 88
REMARK Flexibility Score: inf
ROOT
ATOM      1  C   UNL A   1      35.396  32.261  27.962  1.00  0.00     0.002 C 
ENDROOT
BRANCH   1   2
ATOM      2  C   UNL A   1      35.110  33.758  28.101  1.00  0.00     0.002 C 
BRANCH   2   3
ATOM      3  C   UNL A   1      33.672  34.102  28.502  1.00  0.00     0.021 C 
BRANCH   3   4
ATOM      4  C   UNL A   1      33.551  35.312  29.431  1.00  0.00     0.116 C 
BRANCH   4   5
ATOM      5  N   UNL A   1      33.157  34.964  30.777  1.00  0.00    -0.352 N 
ATOM      6  O   UNL A   1      33.163  34.333  32.892  1.00  0.00    -0.269 OA
ATOM      7  C   UNL A   1      33.780  34.346  31.818  1.00  0.00     0.251 C 
ATOM      8  H   UNL A   1      32.234  35.235  30.988  1.00  0.00     0.163 HD
BRANCH   7   9
ATOM      9  C   UNL A   1      35.089  33.649  31.738  1.00  0.00     0.039 A 
ATOM     10  C   UNL A   1      36.338  34.260  31.612  1.00  0.00     0.014 A 
ATOM     11  C   UNL A   1      35.028  32.243  31.745  1.00  0.00     0.014 A 
ATOM     12  C   UNL A   1      37.482  33.496  31.416  1.00  0.00     0.010 A 
ATOM     13  C   UNL A   1      36.168  31.472  31.562  1.00  0.00     0.010 A 
ATOM     14  C   UNL A   1      37.389  32.105  31.362  1.00  0.00    -0.014 A 
BRANCH  14  15
ATOM     15  C   UNL A   1      38.627  31.344  31.259  1.00  0.00     0.031 A 
ATOM     16  C   UNL A   1      39.304  31.096  32.567  1.00  0.00     0.074 A 
ATOM     17  C   UNL A   1      39.048  30.785  30.106  1.00  0.00     0.049 A 
ATOM     18  N   UNL A   1      40.513  31.395  32.917  1.00  0.00    -0.248 NA
ATOM     19  C   UNL A   1      38.490  30.540  33.661  1.00  0.00     0.031 C 
ATOM     20  C   UNL A   1      38.335  30.716  28.830  1.00  0.00     0.029 A 
ATOM     21  N   UNL A   1      40.177  30.060  29.865  1.00  0.00    -0.354 N 
ATOM     22  C   UNL A   1      40.670  30.915  34.218  1.00  0.00     0.074 A 
ATOM     23  C   UNL A   1      39.360  30.528  34.669  1.00  0.00     0.031 C 
ATOM     24  C   UNL A   1      38.935  29.801  28.033  1.00  0.00     0.029 A 
ATOM     25  C   UNL A   1      40.140  29.322  28.690  1.00  0.00     0.049 A 
ATOM     26  H   UNL A   1      40.952  30.061  30.472  1.00  0.00     0.167 HD
ATOM     27  C   UNL A   1      41.904  30.666  34.736  1.00  0.00     0.037 A 
ATOM     28  C   UNL A   1      40.997  28.336  28.323  1.00  0.00     0.037 A 
ATOM     29  C   UNL A   1      42.916  31.419  34.040  1.00  0.00     0.049 A 
ATOM     30  C   UNL A   1      42.227  28.481  29.139  1.00  0.00     0.074 A 
ATOM     31  C   UNL A   1      43.172  32.762  33.845  1.00  0.00     0.029 A 
ATOM     32  N   UNL A   1      43.696  30.762  33.123  1.00  0.00    -0.354 N 
ATOM     33  N   UNL A   1      43.068  29.469  29.020  1.00  0.00    -0.248 NA
ATOM     34  C   UNL A   1      42.289  27.754  30.397  1.00  0.00     0.031 C 
ATOM     35  C   UNL A   1      43.689  32.851  32.518  1.00  0.00     0.029 A 
ATOM     36  C   UNL A   1      43.770  31.554  32.010  1.00  0.00     0.049 A 
ATOM     37  H   UNL A   1      44.124  29.884  33.242  1.00  0.00     0.167 HD
ATOM     38  C   UNL A   1      43.445  29.765  30.320  1.00  0.00     0.074 A 
ATOM     39  C   UNL A   1      43.005  28.622  31.116  1.00  0.00     0.031 C 
ATOM     40  C   UNL A   1      43.821  31.030  30.669  1.00  0.00     0.037 A 
BRANCH  27  41
ATOM     41  C   UNL A   1      42.243  29.446  35.572  1.00  0.00     0.064 A 
ATOM     42  C   UNL A   1      43.171  29.587  36.627  1.00  0.00     0.173 A 
ATOM     43  C   UNL A   1      41.978  28.115  35.181  1.00  0.00     0.173 A 
ATOM     44  F   UNL A   1      43.489  30.800  37.102  1.00  0.00    -0.203 F 
ATOM     45  C   UNL A   1      43.882  28.498  37.139  1.00  0.00     0.198 A 
ATOM     46  C   UNL A   1      42.655  27.026  35.729  1.00  0.00     0.198 A 
ATOM     47  F   UNL A   1      41.138  27.809  34.186  1.00  0.00    -0.203 F 
ATOM     48  F   UNL A   1      44.866  28.705  38.024  1.00  0.00    -0.200 F 
ATOM     49  C   UNL A   1      43.638  27.221  36.674  1.00  0.00     0.200 A 
ATOM     50  F   UNL A   1      42.405  25.795  35.261  1.00  0.00    -0.200 F 
ATOM     51  F   UNL A   1      44.375  26.187  37.100  1.00  0.00    -0.200 F 
ENDBRANCH  27  41
BRANCH  28  52
ATOM     52  C   UNL A   1      40.703  27.095  27.565  1.00  0.00     0.064 A 
ATOM     53  C   UNL A   1      41.555  26.647  26.542  1.00  0.00     0.173 A 
ATOM     54  C   UNL A   1      39.736  26.176  28.019  1.00  0.00     0.173 A 
ATOM     55  F   UNL A   1      42.538  27.438  26.088  1.00  0.00    -0.203 F 
ATOM     56  C   UNL A   1      41.460  25.351  26.021  1.00  0.00     0.198 A 
ATOM     57  C   UNL A   1      39.636  24.888  27.493  1.00  0.00     0.198 A 
ATOM     58  F   UNL A   1      38.934  26.476  29.050  1.00  0.00    -0.203 F 
ATOM     59  F   UNL A   1      42.331  24.937  25.090  1.00  0.00    -0.200 F 
ATOM     60  C   UNL A   1      40.506  24.470  26.504  1.00  0.00     0.200 A 
ATOM     61  F   UNL A   1      38.735  24.034  27.998  1.00  0.00    -0.200 F 
ATOM     62  F   UNL A   1      40.453  23.211  26.049  1.00  0.00    -0.200 F 
ENDBRANCH  28  52
BRANCH  40  63
ATOM     63  C   UNL A   1      44.076  32.013  29.563  1.00  0.00     0.064 A 
ATOM     64  C   UNL A   1      43.140  32.967  29.128  1.00  0.00     0.173 A 
ATOM     65  C   UNL A   1      45.367  32.082  29.026  1.00  0.00     0.173 A 
ATOM     66  F   UNL A   1      41.917  33.033  29.670  1.00  0.00    -0.203 F 
ATOM     67  C   UNL A   1      43.474  33.916  28.163  1.00  0.00     0.198 A 
ATOM     68  C   UNL A   1      45.708  33.055  28.091  1.00  0.00     0.198 A 
ATOM     69  F   UNL A   1      46.317  31.234  29.449  1.00  0.00    -0.203 F 
ATOM     70  F   UNL A   1      42.561  34.811  27.757  1.00  0.00    -0.200 F 
ATOM     71  C   UNL A   1      44.760  33.963  27.653  1.00  0.00     0.200 A 
ATOM     72  F   UNL A   1      46.968  33.131  27.640  1.00  0.00    -0.200 F 
ATOM     73  F   UNL A   1      45.094  34.906  26.759  1.00  0.00    -0.200 F 
ENDBRANCH  40  63
ENDBRANCH  14  15
ENDBRANCH   7   9
ENDBRANCH   4   5
ENDBRANCH   3   4
ENDBRANCH   2   3
ENDBRANCH   1   2
BRANCH   1  74
ATOM     74  C   UNL A   1      34.230  31.343  28.352  1.00  0.00     0.021 C 
BRANCH  74  75
ATOM     75  C   UNL A   1      33.642  30.554  27.188  1.00  0.00     0.116 C 
BRANCH  75  76
ATOM     76  N   UNL A   1      33.270  29.238  27.648  1.00  0.00    -0.354 N 
ATOM     77  C   UNL A   1      32.154  28.528  27.345  1.00  0.00     0.243 C 
ATOM     78  H   UNL A   1      33.906  28.799  28.258  1.00  0.00     0.163 HD
ATOM     79  O   UNL A   1      31.634  27.917  28.282  1.00  0.00    -0.273 OA
BRANCH  77  80
ATOM     80  C   UNL A   1      31.541  28.532  25.933  1.00  0.00     0.180 C 
ATOM     81  C   UNL A   1      31.404  29.827  25.072  1.00  0.00     0.091 C 
ATOM     82  N   UNL A   1      32.061  27.426  25.057  1.00  0.00    -0.324 N 
ATOM     83  C   UNL A   1      30.647  29.468  23.846  1.00  0.00     0.042 A 
ATOM     84  C   UNL A   1      31.046  26.962  24.063  1.00  0.00     0.178 C 
ATOM     85  N   UNL A   1      30.077  30.290  22.923  1.00  0.00    -0.348 N 
ATOM     86  C   UNL A   1      30.490  28.183  23.372  1.00  0.00     0.081 A 
ATOM     87  C   UNL A   1      29.547  29.475  21.958  1.00  0.00     0.197 A 
ATOM     88  H   UNL A   1      30.052  31.274  22.945  1.00  0.00     0.167 HD
ATOM     89  N   UNL A   1      29.766  28.200  22.210  1.00  0.00    -0.240 NA
BRANCH  82  90
ATOM     90  C   UNL A   1      33.380  27.045  24.831  1.00  0.00     0.224 C 
ATOM     91  O   UNL A   1      33.991  27.512  23.857  1.00  0.00    -0.275 OA
BRANCH  90  92
ATOM     92  C   UNL A   1      34.168  26.034  25.703  1.00  0.00     0.107 C 
BRANCH  92  93
ATOM     93  C   UNL A   1      34.428  24.605  25.152  1.00  0.00    -0.020 C 
ATOM     94  C   UNL A   1      35.889  24.168  25.382  1.00  0.00     0.011 C 
ATOM     95  C   UNL A   1      34.020  24.513  23.664  1.00  0.00     0.011 C 
ATOM     96  C   UNL A   1      33.602  23.526  25.923  1.00  0.00     0.011 C 
ATOM     97  C   UNL A   1      36.206  22.821  24.733  1.00  0.00    -0.010 C 
ATOM     98  C   UNL A   1      34.315  23.122  23.096  1.00  0.00    -0.010 C 
ATOM     99  C   UNL A   1      33.892  22.108  25.361  1.00  0.00    -0.010 C 
ATOM    100  C   UNL A   1      35.388  21.765  25.477  1.00  0.00     0.007 C 
ATOM    101  C   UNL A   1      35.816  22.838  23.246  1.00  0.00     0.007 C 
ATOM    102  C   UNL A   1      33.508  22.070  23.872  1.00  0.00     0.007 C 
ENDBRANCH  92  93
ENDBRANCH  90  92
ENDBRANCH  82  90
ENDBRANCH  77  80
ENDBRANCH  75  76
ENDBRANCH  74  75
ENDBRANCH   1  74
TORSDOF 16
ENDMDL
