MODEL 1
REMARK VINA RESULT:     -11.8      0.000      0.000
REMARK SMILES CC[C@@H]1CCC[C@@](C[C@@H]2CSc3ccccc32)(C(=O)NCCCCCCNC(=O)c2ccc(-c3c4nc(c(-c5c(F)c(F)c(F)c(F)c5F)c5ccc([nH]5)c(-c5c(F)c(F)c(F)c(F)c5F)c5nc(c(-c6c(F)c(F)c(F)c(F)c6F)c6ccc3[nH]6)C=C5)C=C4)cc2)C1
REMARK SMILES IDX 23 1 22 2 21 3 20 4 18 5 19 6 7 8 3 9 4 10 93 11 5 12 6 13
REMARK SMILES IDX 2 14 1 15 8 16 9 17 10 18 17 19 11 20 12 21 16 22 13 23
REMARK SMILES IDX 15 24 14 25 24 26 25 27 26 28 27 29 28 30 29 32 30 33 31 34
REMARK SMILES IDX 92 35 32 36 91 37 33 38 34 39 35 40 85 41 36 42 90 43 84 44
REMARK SMILES IDX 86 45 37 46 89 47 83 48 82 49 38 51 70 52 50 53 69 54 51 55
REMARK SMILES IDX 54 56 68 57 87 58 52 59 53 60 67 62 88 63 55 64 39 65 40 66
REMARK SMILES IDX 48 67 41 68 42 69 46 70 49 71 43 72 44 73 47 74 45 75 71 76
REMARK SMILES IDX 72 77 80 78 73 79 74 80 78 81 81 82 75 83 76 84 79 85 77 86
REMARK SMILES IDX 56 87 57 88 65 89 58 90 59 91 63 92 66 93 60 94 61 95 64 96
REMARK SMILES IDX 62 97
REMARK H PARENT 20 7 27 31 86 50 54 61
REMARK Flexibility Score: inf
ROOT
ATOM      1  C   UNL A   1      39.545  21.942  26.550  1.00  0.00     0.002 C 
ENDROOT
BRANCH   1   2
ATOM      2  C   UNL A   1      39.401  23.469  26.606  1.00  0.00     0.021 C 
BRANCH   2   3
ATOM      3  C   UNL A   1      38.056  24.008  26.137  1.00  0.00     0.116 C 
BRANCH   3   4
ATOM      4  N   UNL A   1      37.512  23.393  24.949  1.00  0.00    -0.356 N 
ATOM      5  C   UNL A   1      36.271  23.468  24.393  1.00  0.00     0.226 C 
ATOM      6  O   UNL A   1      36.241  23.267  23.172  1.00  0.00    -0.274 OA
ATOM      7  H   UNL A   1      38.146  22.822  24.458  1.00  0.00     0.163 HD
BRANCH   5   8
ATOM      8  C   UNL A   1      34.955  23.784  25.171  1.00  0.00     0.050 C 
ATOM      9  C   UNL A   1      33.764  21.582  24.299  1.00  0.00    -0.010 C 
ATOM     10  C   UNL A   1      33.865  20.970  25.700  1.00  0.00     0.003 C 
ATOM     11  C   UNL A   1      33.777  23.126  24.329  1.00  0.00     0.020 C 
ATOM     12  C   UNL A   1      34.982  21.594  26.515  1.00  0.00     0.001 C 
ATOM     13  C   UNL A   1      34.825  23.113  26.553  1.00  0.00     0.017 C 
BRANCH   9  14
ATOM     14  C   UNL A   1      32.539  21.039  23.528  1.00  0.00     0.000 C 
ATOM     15  C   UNL A   1      32.406  19.520  23.472  1.00  0.00     0.004 C 
ENDBRANCH   9  14
BRANCH   8  16
ATOM     16  C   UNL A   1      34.607  25.332  25.123  1.00  0.00     0.026 C 
BRANCH  16  17
ATOM     17  C   UNL A   1      33.347  25.974  24.484  1.00  0.00     0.032 C 
ATOM     18  C   UNL A   1      33.590  26.543  23.074  1.00  0.00     0.083 C 
ATOM     19  C   UNL A   1      32.646  27.009  25.317  1.00  0.00    -0.030 A 
ATOM     20  S   UNL A   1      32.619  28.075  22.915  1.00  0.00    -0.125 SA
ATOM     21  C   UNL A   1      32.375  28.205  24.657  1.00  0.00     0.011 A 
ATOM     22  C   UNL A   1      32.283  26.859  26.653  1.00  0.00     0.005 A 
ATOM     23  C   UNL A   1      31.972  29.331  25.361  1.00  0.00     0.015 A 
ATOM     24  C   UNL A   1      31.851  27.977  27.368  1.00  0.00     0.000 A 
ATOM     25  C   UNL A   1      31.747  29.220  26.735  1.00  0.00     0.001 A 
ENDBRANCH  16  17
ENDBRANCH   8  16
ENDBRANCH   5   8
ENDBRANCH   3   4
ENDBRANCH   2   3
ENDBRANCH   1   2
BRANCH   1  26
ATOM     26  C   UNL A   1      40.974  21.378  26.567  1.00  0.00     0.002 C 
BRANCH  26  27
ATOM     27  C   UNL A   1      41.145  19.943  26.072  1.00  0.00     0.021 C 
BRANCH  27  28
ATOM     28  C   UNL A   1      42.452  19.258  26.435  1.00  0.00     0.116 C 
BRANCH  28  29
ATOM     29  N   UNL A   1      43.248  18.884  25.278  1.00  0.00    -0.352 N 
ATOM     30  C   UNL A   1      44.145  19.618  24.538  1.00  0.00     0.251 C 
ATOM     31  H   UNL A   1      43.127  17.956  24.976  1.00  0.00     0.163 HD
ATOM     32  O   UNL A   1      44.628  19.139  23.515  1.00  0.00    -0.269 OA
BRANCH  30  33
ATOM     33  C   UNL A   1      44.507  20.998  24.938  1.00  0.00     0.039 A 
ATOM     34  C   UNL A   1      45.332  21.246  26.034  1.00  0.00     0.014 A 
ATOM     35  C   UNL A   1      44.007  22.074  24.194  1.00  0.00     0.014 A 
ATOM     36  C   UNL A   1      45.497  22.546  26.499  1.00  0.00     0.010 A 
ATOM     37  C   UNL A   1      44.266  23.387  24.599  1.00  0.00     0.010 A 
ATOM     38  C   UNL A   1      44.972  23.635  25.786  1.00  0.00    -0.014 A 
BRANCH  38  39
ATOM     39  C   UNL A   1      45.186  25.018  26.296  1.00  0.00     0.031 A 
ATOM     40  C   UNL A   1      46.526  25.692  26.172  1.00  0.00     0.074 A 
ATOM     41  C   UNL A   1      44.145  25.689  26.828  1.00  0.00     0.049 A 
ATOM     42  N   UNL A   1      46.883  26.896  26.548  1.00  0.00    -0.248 NA
ATOM     43  C   UNL A   1      47.612  24.917  25.549  1.00  0.00     0.031 C 
ATOM     44  C   UNL A   1      42.795  25.150  26.996  1.00  0.00     0.029 A 
ATOM     45  N   UNL A   1      44.047  26.976  27.299  1.00  0.00    -0.354 N 
ATOM     46  C   UNL A   1      48.229  27.016  26.221  1.00  0.00     0.074 A 
ATOM     47  C   UNL A   1      48.638  25.752  25.652  1.00  0.00     0.031 C 
ATOM     48  C   UNL A   1      41.992  26.112  27.470  1.00  0.00     0.029 A 
ATOM     49  C   UNL A   1      42.782  27.313  27.714  1.00  0.00     0.049 A 
ATOM     50  H   UNL A   1      44.811  27.596  27.336  1.00  0.00     0.167 HD
ATOM     51  C   UNL A   1      49.041  28.090  26.369  1.00  0.00     0.037 A 
ATOM     52  C   UNL A   1      42.308  28.457  28.246  1.00  0.00     0.037 A 
ATOM     53  C   UNL A   1      48.623  29.356  26.916  1.00  0.00     0.049 A 
ATOM     54  C   UNL A   1      43.245  29.612  28.449  1.00  0.00     0.074 A 
ATOM     55  C   UNL A   1      49.372  30.508  27.087  1.00  0.00     0.029 A 
ATOM     56  N   UNL A   1      47.346  29.637  27.379  1.00  0.00    -0.354 N 
ATOM     57  N   UNL A   1      44.512  29.714  28.125  1.00  0.00    -0.248 NA
ATOM     58  C   UNL A   1      42.693  30.809  29.100  1.00  0.00     0.031 C 
ATOM     59  C   UNL A   1      48.563  31.468  27.701  1.00  0.00     0.029 A 
ATOM     60  C   UNL A   1      47.293  30.936  27.857  1.00  0.00     0.049 A 
ATOM     61  H   UNL A   1      46.590  29.007  27.368  1.00  0.00     0.167 HD
ATOM     62  C   UNL A   1      44.902  30.988  28.512  1.00  0.00     0.074 A 
ATOM     63  C   UNL A   1      43.734  31.630  29.080  1.00  0.00     0.031 C 
ATOM     64  C   UNL A   1      46.122  31.569  28.409  1.00  0.00     0.037 A 
BRANCH  51  65
ATOM     65  C   UNL A   1      50.474  27.958  25.933  1.00  0.00     0.064 A 
ATOM     66  C   UNL A   1      51.501  27.707  26.853  1.00  0.00     0.173 A 
ATOM     67  C   UNL A   1      50.810  27.995  24.571  1.00  0.00     0.173 A 
ATOM     68  F   UNL A   1      51.236  27.667  28.168  1.00  0.00    -0.203 F 
ATOM     69  C   UNL A   1      52.813  27.512  26.428  1.00  0.00     0.198 A 
ATOM     70  C   UNL A   1      52.117  27.771  24.147  1.00  0.00     0.198 A 
ATOM     71  F   UNL A   1      49.864  28.220  23.646  1.00  0.00    -0.203 F 
ATOM     72  F   UNL A   1      53.784  27.305  27.330  1.00  0.00    -0.200 F 
ATOM     73  C   UNL A   1      53.119  27.533  25.076  1.00  0.00     0.200 A 
ATOM     74  F   UNL A   1      52.407  27.772  22.838  1.00  0.00    -0.200 F 
ATOM     75  F   UNL A   1      54.378  27.325  24.668  1.00  0.00    -0.200 F 
ENDBRANCH  51  65
BRANCH  52  76
ATOM     76  C   UNL A   1      40.871  28.554  28.611  1.00  0.00     0.064 A 
ATOM     77  C   UNL A   1      40.429  28.200  29.893  1.00  0.00     0.173 A 
ATOM     78  C   UNL A   1      39.915  29.034  27.701  1.00  0.00     0.173 A 
ATOM     79  F   UNL A   1      41.299  27.718  30.792  1.00  0.00    -0.203 F 
ATOM     80  C   UNL A   1      39.087  28.320  30.250  1.00  0.00     0.198 A 
ATOM     81  C   UNL A   1      38.581  29.183  28.070  1.00  0.00     0.198 A 
ATOM     82  F   UNL A   1      40.287  29.389  26.463  1.00  0.00    -0.203 F 
ATOM     83  F   UNL A   1      38.686  27.947  31.473  1.00  0.00    -0.200 F 
ATOM     84  C   UNL A   1      38.167  28.822  29.342  1.00  0.00     0.200 A 
ATOM     85  F   UNL A   1      37.700  29.688  27.195  1.00  0.00    -0.200 F 
ATOM     86  F   UNL A   1      36.881  28.955  29.693  1.00  0.00    -0.200 F 
ENDBRANCH  52  76
BRANCH  64  87
ATOM     87  C   UNL A   1      46.265  32.983  28.894  1.00  0.00     0.064 A 
ATOM     88  C   UNL A   1      46.017  34.076  28.053  1.00  0.00     0.173 A 
ATOM     89  C   UNL A   1      46.568  33.244  30.240  1.00  0.00     0.173 A 
ATOM     90  F   UNL A   1      45.737  33.879  26.755  1.00  0.00    -0.203 F 
ATOM     91  C   UNL A   1      46.076  35.380  28.538  1.00  0.00     0.198 A 
ATOM     92  C   UNL A   1      46.596  34.546  30.728  1.00  0.00     0.198 A 
ATOM     93  F   UNL A   1      46.807  32.231  31.088  1.00  0.00    -0.203 F 
ATOM     94  F   UNL A   1      45.866  36.411  27.709  1.00  0.00    -0.200 F 
ATOM     95  C   UNL A   1      46.353  35.612  29.877  1.00  0.00     0.200 A 
ATOM     96  F   UNL A   1      46.847  34.768  32.027  1.00  0.00    -0.200 F 
ATOM     97  F   UNL A   1      46.387  36.868  30.347  1.00  0.00    -0.200 F 
ENDBRANCH  64  87
ENDBRANCH  38  39
ENDBRANCH  30  33
ENDBRANCH  28  29
ENDBRANCH  27  28
ENDBRANCH  26  27
ENDBRANCH   1  26
TORSDOF 16
ENDMDL
MODEL 2
REMARK VINA RESULT:     -11.8      6.614     11.536
REMARK SMILES CC[C@@H]1CCC[C@@](C[C@@H]2CSc3ccccc32)(C(=O)NCCCCCCNC(=O)c2ccc(-c3c4nc(c(-c5c(F)c(F)c(F)c(F)c5F)c5ccc([nH]5)c(-c5c(F)c(F)c(F)c(F)c5F)c5nc(c(-c6c(F)c(F)c(F)c(F)c6F)c6ccc3[nH]6)C=C5)C=C4)cc2)C1
REMARK SMILES IDX 23 1 22 2 21 3 20 4 18 5 19 6 7 8 3 9 4 10 93 11 5 12 6 13
REMARK SMILES IDX 2 14 1 15 8 16 9 17 10 18 17 19 11 20 12 21 16 22 13 23
REMARK SMILES IDX 15 24 14 25 24 26 25 27 26 28 27 29 28 30 29 32 30 33 31 34
REMARK SMILES IDX 92 35 32 36 91 37 33 38 34 39 35 40 85 41 36 42 90 43 84 44
REMARK SMILES IDX 86 45 37 46 89 47 83 48 82 49 38 51 70 52 50 53 69 54 51 55
REMARK SMILES IDX 54 56 68 57 87 58 52 59 53 60 67 62 88 63 55 64 39 65 40 66
REMARK SMILES IDX 48 67 41 68 42 69 46 70 49 71 43 72 44 73 47 74 45 75 71 76
REMARK SMILES IDX 72 77 80 78 73 79 74 80 78 81 81 82 75 83 76 84 79 85 77 86
REMARK SMILES IDX 56 87 57 88 65 89 58 90 59 91 63 92 66 93 60 94 61 95 64 96
REMARK SMILES IDX 62 97
REMARK H PARENT 20 7 27 31 86 50 54 61
REMARK Flexibility Score: inf
ROOT
ATOM      1  C   UNL A   1      34.653  31.766  28.750  1.00  0.00     0.002 C 
ENDROOT
BRANCH   1   2
ATOM      2  C   UNL A   1      34.602  30.958  27.447  1.00  0.00     0.021 C 
BRANCH   2   3
ATOM      3  C   UNL A   1      34.437  29.455  27.624  1.00  0.00     0.116 C 
BRANCH   3   4
ATOM      4  N   UNL A   1      33.076  28.969  27.631  1.00  0.00    -0.356 N 
ATOM      5  C   UNL A   1      32.506  27.904  27.003  1.00  0.00     0.226 C 
ATOM      6  O   UNL A   1      31.501  27.452  27.567  1.00  0.00    -0.274 OA
ATOM      7  H   UNL A   1      32.457  29.498  28.184  1.00  0.00     0.163 HD
BRANCH   5   8
ATOM      8  C   UNL A   1      33.027  27.253  25.683  1.00  0.00     0.050 C 
ATOM      9  C   UNL A   1      30.830  27.902  24.348  1.00  0.00    -0.010 C 
ATOM     10  C   UNL A   1      31.618  28.955  23.561  1.00  0.00     0.003 C 
ATOM     11  C   UNL A   1      31.735  26.773  24.889  1.00  0.00     0.020 C 
ATOM     12  C   UNL A   1      32.857  29.416  24.308  1.00  0.00     0.001 C 
ATOM     13  C   UNL A   1      33.717  28.216  24.697  1.00  0.00     0.017 C 
BRANCH   9  14
ATOM     14  C   UNL A   1      29.651  27.339  23.523  1.00  0.00     0.000 C 
ATOM     15  C   UNL A   1      29.176  25.940  23.906  1.00  0.00     0.004 C 
ENDBRANCH   9  14
BRANCH   8  16
ATOM     16  C   UNL A   1      33.796  25.894  25.969  1.00  0.00     0.026 C 
BRANCH  16  17
ATOM     17  C   UNL A   1      33.319  24.467  25.586  1.00  0.00     0.032 C 
ATOM     18  C   UNL A   1      32.665  23.700  26.750  1.00  0.00     0.083 C 
ATOM     19  C   UNL A   1      34.347  23.586  24.934  1.00  0.00    -0.030 A 
ATOM     20  S   UNL A   1      33.159  21.953  26.615  1.00  0.00    -0.125 SA
ATOM     21  C   UNL A   1      34.474  22.320  25.498  1.00  0.00     0.011 A 
ATOM     22  C   UNL A   1      35.157  23.950  23.860  1.00  0.00     0.005 A 
ATOM     23  C   UNL A   1      35.546  21.501  25.175  1.00  0.00     0.015 A 
ATOM     24  C   UNL A   1      36.224  23.124  23.506  1.00  0.00     0.000 A 
ATOM     25  C   UNL A   1      36.448  21.928  24.197  1.00  0.00     0.001 A 
ENDBRANCH  16  17
ENDBRANCH   8  16
ENDBRANCH   5   8
ENDBRANCH   3   4
ENDBRANCH   2   3
ENDBRANCH   1   2
BRANCH   1  26
ATOM     26  C   UNL A   1      34.745  33.294  28.618  1.00  0.00     0.002 C 
BRANCH  26  27
ATOM     27  C   UNL A   1      33.431  34.066  28.720  1.00  0.00     0.021 C 
BRANCH  27  28
ATOM     28  C   UNL A   1      33.546  35.547  29.039  1.00  0.00     0.116 C 
BRANCH  28  29
ATOM     29  N   UNL A   1      32.665  35.976  30.112  1.00  0.00    -0.352 N 
ATOM     30  C   UNL A   1      32.737  35.757  31.467  1.00  0.00     0.251 C 
ATOM     31  H   UNL A   1      31.891  36.511  29.822  1.00  0.00     0.163 HD
ATOM     32  O   UNL A   1      31.813  36.115  32.193  1.00  0.00    -0.269 OA
BRANCH  30  33
ATOM     33  C   UNL A   1      33.901  35.058  32.060  1.00  0.00     0.039 A 
ATOM     34  C   UNL A   1      35.129  35.698  32.223  1.00  0.00     0.014 A 
ATOM     35  C   UNL A   1      33.758  33.726  32.466  1.00  0.00     0.014 A 
ATOM     36  C   UNL A   1      36.249  34.964  32.600  1.00  0.00     0.010 A 
ATOM     37  C   UNL A   1      34.863  33.018  32.951  1.00  0.00     0.010 A 
ATOM     38  C   UNL A   1      36.132  33.616  32.975  1.00  0.00    -0.014 A 
BRANCH  38  39
ATOM     39  C   UNL A   1      37.346  32.864  33.398  1.00  0.00     0.031 A 
ATOM     40  C   UNL A   1      37.968  31.829  32.501  1.00  0.00     0.074 A 
ATOM     41  C   UNL A   1      37.920  33.159  34.581  1.00  0.00     0.049 A 
ATOM     42  N   UNL A   1      39.034  31.092  32.705  1.00  0.00    -0.248 NA
ATOM     43  C   UNL A   1      37.314  31.580  31.207  1.00  0.00     0.031 C 
ATOM     44  C   UNL A   1      37.417  34.148  35.536  1.00  0.00     0.029 A 
ATOM     45  N   UNL A   1      39.063  32.680  35.173  1.00  0.00    -0.354 N 
ATOM     46  C   UNL A   1      39.166  30.290  31.579  1.00  0.00     0.074 A 
ATOM     47  C   UNL A   1      38.054  30.598  30.709  1.00  0.00     0.031 C 
ATOM     48  C   UNL A   1      38.276  34.249  36.560  1.00  0.00     0.029 A 
ATOM     49  C   UNL A   1      39.351  33.280  36.376  1.00  0.00     0.049 A 
ATOM     50  H   UNL A   1      39.622  31.975  34.774  1.00  0.00     0.167 HD
ATOM     51  C   UNL A   1      40.139  29.391  31.292  1.00  0.00     0.037 A 
ATOM     52  C   UNL A   1      40.358  33.066  37.244  1.00  0.00     0.037 A 
ATOM     53  C   UNL A   1      41.259  29.103  32.152  1.00  0.00     0.049 A 
ATOM     54  C   UNL A   1      41.390  32.024  36.925  1.00  0.00     0.074 A 
ATOM     55  C   UNL A   1      42.303  28.221  31.936  1.00  0.00     0.029 A 
ATOM     56  N   UNL A   1      41.481  29.691  33.388  1.00  0.00    -0.354 N 
ATOM     57  N   UNL A   1      41.508  31.281  35.851  1.00  0.00    -0.248 NA
ATOM     58  C   UNL A   1      42.425  31.781  37.941  1.00  0.00     0.031 C 
ATOM     59  C   UNL A   1      43.129  28.236  33.064  1.00  0.00     0.029 A 
ATOM     60  C   UNL A   1      42.633  29.172  33.957  1.00  0.00     0.049 A 
ATOM     61  H   UNL A   1      40.905  30.375  33.800  1.00  0.00     0.167 HD
ATOM     62  C   UNL A   1      42.637  30.500  36.051  1.00  0.00     0.074 A 
ATOM     63  C   UNL A   1      43.180  30.870  37.342  1.00  0.00     0.031 C 
ATOM     64  C   UNL A   1      43.171  29.557  35.238  1.00  0.00     0.037 A 
BRANCH  51  65
ATOM     65  C   UNL A   1      40.048  28.643  29.991  1.00  0.00     0.064 A 
ATOM     66  C   UNL A   1      40.632  29.137  28.816  1.00  0.00     0.173 A 
ATOM     67  C   UNL A   1      39.445  27.376  29.939  1.00  0.00     0.173 A 
ATOM     68  F   UNL A   1      41.215  30.345  28.808  1.00  0.00    -0.203 F 
ATOM     69  C   UNL A   1      40.604  28.399  27.635  1.00  0.00     0.198 A 
ATOM     70  C   UNL A   1      39.446  26.628  28.765  1.00  0.00     0.198 A 
ATOM     71  F   UNL A   1      38.881  26.849  31.037  1.00  0.00    -0.203 F 
ATOM     72  F   UNL A   1      41.142  28.906  26.517  1.00  0.00    -0.200 F 
ATOM     73  C   UNL A   1      40.021  27.141  27.613  1.00  0.00     0.200 A 
ATOM     74  F   UNL A   1      38.899  25.403  28.751  1.00  0.00    -0.200 F 
ATOM     75  F   UNL A   1      40.015  26.423  26.482  1.00  0.00    -0.200 F 
ENDBRANCH  51  65
BRANCH  52  76
ATOM     76  C   UNL A   1      40.431  33.870  38.492  1.00  0.00     0.064 A 
ATOM     77  C   UNL A   1      39.741  33.474  39.645  1.00  0.00     0.173 A 
ATOM     78  C   UNL A   1      41.218  35.030  38.570  1.00  0.00     0.173 A 
ATOM     79  F   UNL A   1      38.961  32.383  39.617  1.00  0.00    -0.203 F 
ATOM     80  C   UNL A   1      39.833  34.206  40.827  1.00  0.00     0.198 A 
ATOM     81  C   UNL A   1      41.333  35.744  39.760  1.00  0.00     0.198 A 
ATOM     82  F   UNL A   1      41.900  35.451  37.495  1.00  0.00    -0.203 F 
ATOM     83  F   UNL A   1      39.139  33.821  41.906  1.00  0.00    -0.200 F 
ATOM     84  C   UNL A   1      40.638  35.334  40.886  1.00  0.00     0.200 A 
ATOM     85  F   UNL A   1      42.129  36.821  39.818  1.00  0.00    -0.200 F 
ATOM     86  F   UNL A   1      40.740  36.027  42.028  1.00  0.00    -0.200 F 
ENDBRANCH  52  76
BRANCH  64  87
ATOM     87  C   UNL A   1      44.424  28.868  35.695  1.00  0.00     0.064 A 
ATOM     88  C   UNL A   1      45.694  29.385  35.404  1.00  0.00     0.173 A 
ATOM     89  C   UNL A   1      44.348  27.726  36.508  1.00  0.00     0.173 A 
ATOM     90  F   UNL A   1      45.819  30.467  34.620  1.00  0.00    -0.203 F 
ATOM     91  C   UNL A   1      46.844  28.779  35.903  1.00  0.00     0.198 A 
ATOM     92  C   UNL A   1      45.498  27.141  37.029  1.00  0.00     0.198 A 
ATOM     93  F   UNL A   1      43.156  27.195  36.821  1.00  0.00    -0.203 F 
ATOM     94  F   UNL A   1      48.049  29.271  35.587  1.00  0.00    -0.200 F 
ATOM     95  C   UNL A   1      46.744  27.665  36.724  1.00  0.00     0.200 A 
ATOM     96  F   UNL A   1      45.398  26.075  37.837  1.00  0.00    -0.200 F 
ATOM     97  F   UNL A   1      47.852  27.097  37.221  1.00  0.00    -0.200 F 
ENDBRANCH  64  87
ENDBRANCH  38  39
ENDBRANCH  30  33
ENDBRANCH  28  29
ENDBRANCH  27  28
ENDBRANCH  26  27
ENDBRANCH   1  26
TORSDOF 16
ENDMDL
MODEL 3
REMARK VINA RESULT:     -11.7      6.524     12.065
REMARK SMILES CC[C@@H]1CCC[C@@](C[C@@H]2CSc3ccccc32)(C(=O)NCCCCCCNC(=O)c2ccc(-c3c4nc(c(-c5c(F)c(F)c(F)c(F)c5F)c5ccc([nH]5)c(-c5c(F)c(F)c(F)c(F)c5F)c5nc(c(-c6c(F)c(F)c(F)c(F)c6F)c6ccc3[nH]6)C=C5)C=C4)cc2)C1
REMARK SMILES IDX 23 1 22 2 21 3 20 4 18 5 19 6 7 8 3 9 4 10 93 11 5 12 6 13
REMARK SMILES IDX 2 14 1 15 8 16 9 17 10 18 17 19 11 20 12 21 16 22 13 23
REMARK SMILES IDX 15 24 14 25 24 26 25 27 26 28 27 29 28 30 29 32 30 33 31 34
REMARK SMILES IDX 92 35 32 36 91 37 33 38 34 39 35 40 85 41 36 42 90 43 84 44
REMARK SMILES IDX 86 45 37 46 89 47 83 48 82 49 38 51 70 52 50 53 69 54 51 55
REMARK SMILES IDX 54 56 68 57 87 58 52 59 53 60 67 62 88 63 55 64 39 65 40 66
REMARK SMILES IDX 48 67 41 68 42 69 46 70 49 71 43 72 44 73 47 74 45 75 71 76
REMARK SMILES IDX 72 77 80 78 73 79 74 80 78 81 81 82 75 83 76 84 79 85 77 86
REMARK SMILES IDX 56 87 57 88 65 89 58 90 59 91 63 92 66 93 60 94 61 95 64 96
REMARK SMILES IDX 62 97
REMARK H PARENT 20 7 27 31 86 50 54 61
REMARK Flexibility Score: inf
ROOT
ATOM      1  C   UNL A   1      34.674  31.760  28.860  1.00  0.00     0.002 C 
ENDROOT
BRANCH   1   2
ATOM      2  C   UNL A   1      34.530  31.040  27.512  1.00  0.00     0.021 C 
BRANCH   2   3
ATOM      3  C   UNL A   1      34.354  29.530  27.601  1.00  0.00     0.116 C 
BRANCH   3   4
ATOM      4  N   UNL A   1      32.990  29.057  27.615  1.00  0.00    -0.356 N 
ATOM      5  C   UNL A   1      32.418  27.965  27.035  1.00  0.00     0.226 C 
ATOM      6  O   UNL A   1      31.402  27.551  27.608  1.00  0.00    -0.274 OA
ATOM      7  H   UNL A   1      32.368  29.619  28.130  1.00  0.00     0.163 HD
BRANCH   5   8
ATOM      8  C   UNL A   1      32.951  27.241  25.759  1.00  0.00     0.050 C 
ATOM      9  C   UNL A   1      30.770  27.820  24.368  1.00  0.00    -0.010 C 
ATOM     10  C   UNL A   1      31.567  28.827  23.532  1.00  0.00     0.003 C 
ATOM     11  C   UNL A   1      31.667  26.721  24.978  1.00  0.00     0.020 C 
ATOM     12  C   UNL A   1      32.800  29.326  24.265  1.00  0.00     0.001 C 
ATOM     13  C   UNL A   1      33.654  28.148  24.728  1.00  0.00     0.017 C 
BRANCH   9  14
ATOM     14  C   UNL A   1      29.598  27.215  23.562  1.00  0.00     0.000 C 
ATOM     15  C   UNL A   1      28.511  28.194  23.126  1.00  0.00     0.004 C 
ENDBRANCH   9  14
BRANCH   8  16
ATOM     16  C   UNL A   1      33.714  25.899  26.126  1.00  0.00     0.026 C 
BRANCH  16  17
ATOM     17  C   UNL A   1      33.295  24.460  25.721  1.00  0.00     0.032 C 
ATOM     18  C   UNL A   1      32.691  23.643  26.879  1.00  0.00     0.083 C 
ATOM     19  C   UNL A   1      34.351  23.638  25.039  1.00  0.00    -0.030 A 
ATOM     20  S   UNL A   1      33.259  21.922  26.703  1.00  0.00    -0.125 SA
ATOM     21  C   UNL A   1      34.541  22.368  25.576  1.00  0.00     0.011 A 
ATOM     22  C   UNL A   1      35.129  24.057  23.962  1.00  0.00     0.005 A 
ATOM     23  C   UNL A   1      35.643  21.603  25.222  1.00  0.00     0.015 A 
ATOM     24  C   UNL A   1      36.226  23.286  23.578  1.00  0.00     0.000 A 
ATOM     25  C   UNL A   1      36.512  22.088  24.241  1.00  0.00     0.001 A 
ENDBRANCH  16  17
ENDBRANCH   8  16
ENDBRANCH   5   8
ENDBRANCH   3   4
ENDBRANCH   2   3
ENDBRANCH   1   2
BRANCH   1  26
ATOM     26  C   UNL A   1      34.736  33.294  28.824  1.00  0.00     0.002 C 
BRANCH  26  27
ATOM     27  C   UNL A   1      33.397  34.028  28.789  1.00  0.00     0.021 C 
BRANCH  27  28
ATOM     28  C   UNL A   1      33.433  35.508  29.130  1.00  0.00     0.116 C 
BRANCH  28  29
ATOM     29  N   UNL A   1      32.575  35.865  30.247  1.00  0.00    -0.352 N 
ATOM     30  C   UNL A   1      32.714  35.618  31.593  1.00  0.00     0.251 C 
ATOM     31  H   UNL A   1      31.763  36.364  30.002  1.00  0.00     0.163 HD
ATOM     32  O   UNL A   1      31.803  35.909  32.364  1.00  0.00    -0.269 OA
BRANCH  30  33
ATOM     33  C   UNL A   1      33.936  34.967  32.121  1.00  0.00     0.039 A 
ATOM     34  C   UNL A   1      35.152  35.646  32.186  1.00  0.00     0.014 A 
ATOM     35  C   UNL A   1      33.862  33.642  32.565  1.00  0.00     0.014 A 
ATOM     36  C   UNL A   1      36.317  34.955  32.502  1.00  0.00     0.010 A 
ATOM     37  C   UNL A   1      35.017  32.979  32.990  1.00  0.00     0.010 A 
ATOM     38  C   UNL A   1      36.266  33.614  32.915  1.00  0.00    -0.014 A 
BRANCH  38  39
ATOM     39  C   UNL A   1      37.528  32.908  33.272  1.00  0.00     0.031 A 
ATOM     40  C   UNL A   1      38.213  33.163  34.588  1.00  0.00     0.074 A 
ATOM     41  C   UNL A   1      38.028  31.989  32.422  1.00  0.00     0.049 A 
ATOM     42  N   UNL A   1      39.310  32.625  35.065  1.00  0.00    -0.248 NA
ATOM     43  C   UNL A   1      37.596  34.151  35.487  1.00  0.00     0.031 C 
ATOM     44  C   UNL A   1      37.451  31.646  31.121  1.00  0.00     0.029 A 
ATOM     45  N   UNL A   1      39.115  31.156  32.532  1.00  0.00    -0.354 N 
ATOM     46  C   UNL A   1      39.517  33.216  36.305  1.00  0.00     0.074 A 
ATOM     47  C   UNL A   1      38.459  34.182  36.494  1.00  0.00     0.031 C 
ATOM     48  C   UNL A   1      38.148  30.636  30.583  1.00  0.00     0.029 A 
ATOM     49  C   UNL A   1      39.265  30.308  31.461  1.00  0.00     0.049 A 
ATOM     50  H   UNL A   1      39.727  31.167  33.303  1.00  0.00     0.167 HD
ATOM     51  C   UNL A   1      40.494  32.962  37.209  1.00  0.00     0.037 A 
ATOM     52  C   UNL A   1      40.206  29.380  31.203  1.00  0.00     0.037 A 
ATOM     53  C   UNL A   1      41.535  31.982  37.027  1.00  0.00     0.049 A 
ATOM     54  C   UNL A   1      41.309  29.159  32.198  1.00  0.00     0.074 A 
ATOM     55  C   UNL A   1      42.557  31.642  37.897  1.00  0.00     0.029 A 
ATOM     56  N   UNL A   1      41.685  31.185  35.902  1.00  0.00    -0.354 N 
ATOM     57  N   UNL A   1      41.486  29.718  33.371  1.00  0.00    -0.248 NA
ATOM     58  C   UNL A   1      42.349  28.186  31.833  1.00  0.00     0.031 C 
ATOM     59  C   UNL A   1      43.356  30.677  37.276  1.00  0.00     0.029 A 
ATOM     60  C   UNL A   1      42.798  30.372  36.046  1.00  0.00     0.049 A 
ATOM     61  H   UNL A   1      41.090  31.195  35.118  1.00  0.00     0.167 HD
ATOM     62  C   UNL A   1      42.641  29.153  33.892  1.00  0.00     0.074 A 
ATOM     63  C   UNL A   1      43.115  28.193  32.916  1.00  0.00     0.031 C 
ATOM     64  C   UNL A   1      43.254  29.411  35.072  1.00  0.00     0.037 A 
BRANCH  51  65
ATOM     65  C   UNL A   1      40.496  33.751  38.489  1.00  0.00     0.064 A 
ATOM     66  C   UNL A   1      41.297  34.891  38.648  1.00  0.00     0.173 A 
ATOM     67  C   UNL A   1      39.622  33.414  39.534  1.00  0.00     0.173 A 
ATOM     68  F   UNL A   1      42.154  35.254  37.682  1.00  0.00    -0.203 F 
ATOM     69  C   UNL A   1      41.234  35.656  39.810  1.00  0.00     0.198 A 
ATOM     70  C   UNL A   1      39.540  34.198  40.683  1.00  0.00     0.198 A 
ATOM     71  F   UNL A   1      38.824  32.340  39.431  1.00  0.00    -0.203 F 
ATOM     72  F   UNL A   1      42.032  36.724  39.952  1.00  0.00    -0.200 F 
ATOM     73  C   UNL A   1      40.348  35.316  40.821  1.00  0.00     0.200 A 
ATOM     74  F   UNL A   1      38.669  33.879  41.650  1.00  0.00    -0.200 F 
ATOM     75  F   UNL A   1      40.274  36.065  41.930  1.00  0.00    -0.200 F 
ENDBRANCH  51  65
BRANCH  52  76
ATOM     76  C   UNL A   1      40.130  28.589  29.947  1.00  0.00     0.064 A 
ATOM     77  C   UNL A   1      40.730  29.050  28.768  1.00  0.00     0.173 A 
ATOM     78  C   UNL A   1      39.486  27.342  29.906  1.00  0.00     0.173 A 
ATOM     79  F   UNL A   1      41.341  30.244  28.751  1.00  0.00    -0.203 F 
ATOM     80  C   UNL A   1      40.689  28.298  27.596  1.00  0.00     0.198 A 
ATOM     81  C   UNL A   1      39.472  26.576  28.742  1.00  0.00     0.198 A 
ATOM     82  F   UNL A   1      38.897  26.854  31.007  1.00  0.00    -0.203 F 
ATOM     83  F   UNL A   1      41.246  28.776  26.476  1.00  0.00    -0.200 F 
ATOM     84  C   UNL A   1      40.070  27.056  27.588  1.00  0.00     0.200 A 
ATOM     85  F   UNL A   1      38.891  25.369  28.745  1.00  0.00    -0.200 F 
ATOM     86  F   UNL A   1      40.046  26.325  26.466  1.00  0.00    -0.200 F 
ENDBRANCH  52  76
BRANCH  64  87
ATOM     87  C   UNL A   1      44.494  28.632  35.400  1.00  0.00     0.064 A 
ATOM     88  C   UNL A   1      44.431  27.387  36.042  1.00  0.00     0.173 A 
ATOM     89  C   UNL A   1      45.753  29.097  34.988  1.00  0.00     0.173 A 
ATOM     90  F   UNL A   1      43.253  26.906  36.468  1.00  0.00    -0.203 F 
ATOM     91  C   UNL A   1      45.584  26.640  36.268  1.00  0.00     0.198 A 
ATOM     92  C   UNL A   1      46.899  28.333  35.188  1.00  0.00     0.198 A 
ATOM     93  F   UNL A   1      45.867  30.279  34.364  1.00  0.00    -0.203 F 
ATOM     94  F   UNL A   1      45.505  25.467  36.911  1.00  0.00    -0.200 F 
ATOM     95  C   UNL A   1      46.814  27.108  35.830  1.00  0.00     0.200 A 
ATOM     96  F   UNL A   1      48.085  28.780  34.749  1.00  0.00    -0.200 F 
ATOM     97  F   UNL A   1      47.920  26.376  36.029  1.00  0.00    -0.200 F 
ENDBRANCH  64  87
ENDBRANCH  38  39
ENDBRANCH  30  33
ENDBRANCH  28  29
ENDBRANCH  27  28
ENDBRANCH  26  27
ENDBRANCH   1  26
TORSDOF 16
ENDMDL
