MODEL 1
REMARK VINA RESULT:      -8.6      0.000      0.000
REMARK SMILES CC[NH2+][C@H](CC[N@@H+](C)C1CCC(C)(C)CC1)C(=O)NCCCCCCNC(=O)c1ccc(-c2c3nc(c(-c4c(F)c(F)c(F)c(F)c4F)c4ccc([nH]4)c(-c4c(F)c(F)c(F)c(F)c4F)c4nc(c(-c5c(F)c(F)c(F)c(F)c5F)c5ccc2[nH]5)C=C4)C=C3)cc1
REMARK SMILES IDX 21 1 20 2 19 3 17 4 18 5 4 7 3 8 2 11 1 12 5 13 6 14 7 15
REMARK SMILES IDX 8 16 9 18 10 19 16 20 11 21 15 22 12 23 13 24 14 25 22 26
REMARK SMILES IDX 23 27 24 28 25 29 26 30 27 31 28 33 29 34 30 35 91 36 31 37
REMARK SMILES IDX 90 38 32 39 33 40 34 41 84 42 35 43 89 44 83 45 85 46 36 47
REMARK SMILES IDX 88 48 82 49 81 50 37 52 69 53 49 54 68 55 50 56 53 57 67 58
REMARK SMILES IDX 86 59 51 60 52 61 66 63 87 64 54 65 38 66 39 67 47 68 40 69
REMARK SMILES IDX 41 70 45 71 48 72 42 73 43 74 46 75 44 76 70 77 71 78 79 79
REMARK SMILES IDX 72 80 73 81 77 82 80 83 74 84 75 85 78 86 76 87 55 88 56 89
REMARK SMILES IDX 64 90 57 91 58 92 62 93 65 94 59 95 60 96 63 97 61 98
REMARK H PARENT 19 6 3 9 3 10 7 17 26 32 85 51 53 62
REMARK Flexibility Score: inf
ROOT
ATOM      1  C   UNL A   1      36.228  33.238  34.349  1.00  0.00     0.021 C 
ENDROOT
BRANCH   1   2
ATOM      2  C   UNL A   1      37.475  33.406  35.195  1.00  0.00     0.116 C 
BRANCH   2   3
ATOM      3  N   UNL A   1      37.596  32.341  36.156  1.00  0.00    -0.351 N 
ATOM      4  C   UNL A   1      38.045  31.078  35.922  1.00  0.00     0.278 C 
ATOM      5  O   UNL A   1      38.081  30.293  36.870  1.00  0.00    -0.268 OA
ATOM      6  H   UNL A   1      37.328  32.549  37.080  1.00  0.00     0.163 HD
BRANCH   4   7
ATOM      7  C   UNL A   1      38.471  30.673  34.481  1.00  0.00     0.278 C 
BRANCH   7   8
ATOM      8  N   UNL A   1      37.691  29.465  34.076  1.00  0.00    -0.336 N 
ATOM      9  H   UNL A   1      38.077  28.656  34.564  1.00  0.00     0.346 HD
ATOM     10  H   UNL A   1      36.719  29.648  34.322  1.00  0.00     0.346 HD
BRANCH   8  11
ATOM     11  C   UNL A   1      37.716  29.190  32.645  1.00  0.00     0.257 C 
ATOM     12  C   UNL A   1      38.489  27.931  32.284  1.00  0.00     0.071 C 
ENDBRANCH   8  11
ENDBRANCH   7   8
BRANCH   7  13
ATOM     13  C   UNL A   1      40.013  30.718  34.400  1.00  0.00     0.137 C 
BRANCH  13  14
ATOM     14  C   UNL A   1      40.791  30.041  35.535  1.00  0.00     0.269 C 
BRANCH  14  15
ATOM     15  N   UNL A   1      42.251  29.854  35.519  1.00  0.00    -0.335 N 
ATOM     16  C   UNL A   1      42.760  30.461  36.773  1.00  0.00     0.332 C 
ATOM     17  H   UNL A   1      42.483  30.283  34.624  1.00  0.00     0.348 HD
BRANCH  15  18
ATOM     18  C   UNL A   1      42.949  28.564  35.273  1.00  0.00     0.183 C 
ATOM     19  C   UNL A   1      43.605  27.793  36.433  1.00  0.00     0.065 C 
ATOM     20  C   UNL A   1      42.314  27.561  34.298  1.00  0.00     0.065 C 
ATOM     21  C   UNL A   1      42.698  26.797  37.134  1.00  0.00     0.012 C 
ATOM     22  C   UNL A   1      41.434  26.473  34.905  1.00  0.00     0.012 C 
ATOM     23  C   UNL A   1      41.944  25.811  36.214  1.00  0.00    -0.035 C 
ATOM     24  C   UNL A   1      40.778  25.179  37.024  1.00  0.00     0.011 C 
ATOM     25  C   UNL A   1      42.864  24.640  35.821  1.00  0.00     0.011 C 
ENDBRANCH  15  18
ENDBRANCH  14  15
ENDBRANCH  13  14
ENDBRANCH   7  13
ENDBRANCH   4   7
ENDBRANCH   2   3
ENDBRANCH   1   2
BRANCH   1  26
ATOM     26  C   UNL A   1      35.236  34.392  34.468  1.00  0.00     0.002 C 
BRANCH  26  27
ATOM     27  C   UNL A   1      35.096  35.269  33.218  1.00  0.00     0.002 C 
BRANCH  27  28
ATOM     28  C   UNL A   1      33.748  35.180  32.499  1.00  0.00     0.021 C 
BRANCH  28  29
ATOM     29  C   UNL A   1      33.719  35.873  31.152  1.00  0.00     0.116 C 
BRANCH  29  30
ATOM     30  N   UNL A   1      32.938  35.122  30.187  1.00  0.00    -0.352 N 
ATOM     31  C   UNL A   1      33.394  34.179  29.307  1.00  0.00     0.251 C 
ATOM     32  H   UNL A   1      31.972  35.313  30.163  1.00  0.00     0.163 HD
ATOM     33  O   UNL A   1      32.702  33.783  28.375  1.00  0.00    -0.269 OA
BRANCH  31  34
ATOM     34  C   UNL A   1      34.759  33.663  29.506  1.00  0.00     0.039 A 
ATOM     35  C   UNL A   1      35.819  34.243  28.811  1.00  0.00     0.014 A 
ATOM     36  C   UNL A   1      34.980  32.655  30.450  1.00  0.00     0.014 A 
ATOM     37  C   UNL A   1      37.120  33.829  29.087  1.00  0.00     0.010 A 
ATOM     38  C   UNL A   1      36.279  32.312  30.789  1.00  0.00     0.010 A 
ATOM     39  C   UNL A   1      37.358  32.878  30.092  1.00  0.00    -0.014 A 
BRANCH  39  40
ATOM     40  C   UNL A   1      38.723  32.398  30.404  1.00  0.00     0.031 A 
ATOM     41  C   UNL A   1      39.200  31.114  29.790  1.00  0.00     0.074 A 
ATOM     42  C   UNL A   1      39.481  33.050  31.304  1.00  0.00     0.049 A 
ATOM     43  N   UNL A   1      40.283  30.425  30.039  1.00  0.00    -0.248 NA
ATOM     44  C   UNL A   1      38.312  30.498  28.790  1.00  0.00     0.031 C 
ATOM     45  C   UNL A   1      39.102  34.282  31.993  1.00  0.00     0.029 A 
ATOM     46  N   UNL A   1      40.718  32.747  31.813  1.00  0.00    -0.354 N 
ATOM     47  C   UNL A   1      40.189  29.285  29.252  1.00  0.00     0.074 A 
ATOM     48  C   UNL A   1      38.917  29.343  28.567  1.00  0.00     0.031 C 
ATOM     49  C   UNL A   1      40.086  34.632  32.837  1.00  0.00     0.029 A 
ATOM     50  C   UNL A   1      41.142  33.624  32.781  1.00  0.00     0.049 A 
ATOM     51  H   UNL A   1      41.250  31.975  31.514  1.00  0.00     0.167 HD
ATOM     52  C   UNL A   1      41.093  28.288  29.101  1.00  0.00     0.037 A 
ATOM     53  C   UNL A   1      42.244  33.601  33.553  1.00  0.00     0.037 A 
ATOM     54  C   UNL A   1      42.363  28.258  29.772  1.00  0.00     0.049 A 
ATOM     55  C   UNL A   1      43.239  32.485  33.375  1.00  0.00     0.074 A 
ATOM     56  C   UNL A   1      43.387  27.339  29.638  1.00  0.00     0.029 A 
ATOM     57  N   UNL A   1      42.779  29.189  30.715  1.00  0.00    -0.354 N 
ATOM     58  N   UNL A   1      43.178  31.445  32.578  1.00  0.00    -0.248 NA
ATOM     59  C   UNL A   1      44.456  32.539  34.197  1.00  0.00     0.031 C 
ATOM     60  C   UNL A   1      44.395  27.676  30.548  1.00  0.00     0.029 A 
ATOM     61  C   UNL A   1      44.031  28.848  31.197  1.00  0.00     0.049 A 
ATOM     62  H   UNL A   1      42.259  29.976  30.999  1.00  0.00     0.167 HD
ATOM     63  C   UNL A   1      44.357  30.740  32.776  1.00  0.00     0.074 A 
ATOM     64  C   UNL A   1      45.115  31.469  33.771  1.00  0.00     0.031 C 
ATOM     65  C   UNL A   1      44.775  29.596  32.180  1.00  0.00     0.037 A 
BRANCH  52  66
ATOM     66  C   UNL A   1      40.720  27.150  28.194  1.00  0.00     0.064 A 
ATOM     67  C   UNL A   1      41.286  26.999  26.917  1.00  0.00     0.173 A 
ATOM     68  C   UNL A   1      39.770  26.203  28.602  1.00  0.00     0.173 A 
ATOM     69  F   UNL A   1      42.193  27.881  26.470  1.00  0.00    -0.203 F 
ATOM     70  C   UNL A   1      40.873  25.977  26.066  1.00  0.00     0.198 A 
ATOM     71  C   UNL A   1      39.390  25.158  27.764  1.00  0.00     0.198 A 
ATOM     72  F   UNL A   1      39.201  26.292  29.814  1.00  0.00    -0.203 F 
ATOM     73  F   UNL A   1      41.368  25.903  24.823  1.00  0.00    -0.200 F 
ATOM     74  C   UNL A   1      39.929  25.055  26.491  1.00  0.00     0.200 A 
ATOM     75  F   UNL A   1      38.489  24.258  28.183  1.00  0.00    -0.200 F 
ATOM     76  F   UNL A   1      39.530  24.076  25.670  1.00  0.00    -0.200 F 
ENDBRANCH  52  66
BRANCH  53  77
ATOM     77  C   UNL A   1      42.456  34.679  34.551  1.00  0.00     0.064 A 
ATOM     78  C   UNL A   1      41.993  34.548  35.868  1.00  0.00     0.173 A 
ATOM     79  C   UNL A   1      43.173  35.841  34.224  1.00  0.00     0.173 A 
ATOM     80  F   UNL A   1      41.290  33.463  36.224  1.00  0.00    -0.203 F 
ATOM     81  C   UNL A   1      42.234  35.539  36.817  1.00  0.00     0.198 A 
ATOM     82  C   UNL A   1      43.436  36.818  35.181  1.00  0.00     0.198 A 
ATOM     83  F   UNL A   1      43.646  36.010  32.981  1.00  0.00    -0.203 F 
ATOM     84  F   UNL A   1      41.757  35.399  38.062  1.00  0.00    -0.200 F 
ATOM     85  C   UNL A   1      42.963  36.668  36.476  1.00  0.00     0.200 A 
ATOM     86  F   UNL A   1      44.159  37.897  34.852  1.00  0.00    -0.200 F 
ATOM     87  F   UNL A   1      43.211  37.611  37.395  1.00  0.00    -0.200 F 
ENDBRANCH  53  77
BRANCH  65  88
ATOM     88  C   UNL A   1      46.135  29.075  32.543  1.00  0.00     0.064 A 
ATOM     89  C   UNL A   1      46.303  27.920  33.320  1.00  0.00     0.173 A 
ATOM     90  C   UNL A   1      47.284  29.686  32.016  1.00  0.00     0.173 A 
ATOM     91  F   UNL A   1      45.237  27.307  33.857  1.00  0.00    -0.203 F 
ATOM     92  C   UNL A   1      47.572  27.399  33.560  1.00  0.00     0.198 A 
ATOM     93  C   UNL A   1      48.547  29.146  32.233  1.00  0.00     0.198 A 
ATOM     94  F   UNL A   1      47.176  30.789  31.261  1.00  0.00    -0.203 F 
ATOM     95  F   UNL A   1      47.713  26.310  34.327  1.00  0.00    -0.200 F 
ATOM     96  C   UNL A   1      48.691  28.004  33.006  1.00  0.00     0.200 A 
ATOM     97  F   UNL A   1      49.624  29.721  31.681  1.00  0.00    -0.200 F 
ATOM     98  F   UNL A   1      49.908  27.485  33.217  1.00  0.00    -0.200 F 
ENDBRANCH  65  88
ENDBRANCH  39  40
ENDBRANCH  31  34
ENDBRANCH  29  30
ENDBRANCH  28  29
ENDBRANCH  27  28
ENDBRANCH  26  27
ENDBRANCH   1  26
TORSDOF 19
ENDMDL
MODEL 2
REMARK VINA RESULT:      -8.5      6.340     12.136
REMARK SMILES CC[NH2+][C@H](CC[N@@H+](C)C1CCC(C)(C)CC1)C(=O)NCCCCCCNC(=O)c1ccc(-c2c3nc(c(-c4c(F)c(F)c(F)c(F)c4F)c4ccc([nH]4)c(-c4c(F)c(F)c(F)c(F)c4F)c4nc(c(-c5c(F)c(F)c(F)c(F)c5F)c5ccc2[nH]5)C=C4)C=C3)cc1
REMARK SMILES IDX 21 1 20 2 19 3 17 4 18 5 4 7 3 8 2 11 1 12 5 13 6 14 7 15
REMARK SMILES IDX 8 16 9 18 10 19 16 20 11 21 15 22 12 23 13 24 14 25 22 26
REMARK SMILES IDX 23 27 24 28 25 29 26 30 27 31 28 33 29 34 30 35 91 36 31 37
REMARK SMILES IDX 90 38 32 39 33 40 34 41 84 42 35 43 89 44 83 45 85 46 36 47
REMARK SMILES IDX 88 48 82 49 81 50 37 52 69 53 49 54 68 55 50 56 53 57 67 58
REMARK SMILES IDX 86 59 51 60 52 61 66 63 87 64 54 65 38 66 39 67 47 68 40 69
REMARK SMILES IDX 41 70 45 71 48 72 42 73 43 74 46 75 44 76 70 77 71 78 79 79
REMARK SMILES IDX 72 80 73 81 77 82 80 83 74 84 75 85 78 86 76 87 55 88 56 89
REMARK SMILES IDX 64 90 57 91 58 92 62 93 65 94 59 95 60 96 63 97 61 98
REMARK H PARENT 19 6 3 9 3 10 7 17 26 32 85 51 53 62
REMARK Flexibility Score: inf
ROOT
ATOM      1  C   UNL A   1      39.075  21.423  25.782  1.00  0.00     0.021 C 
ENDROOT
BRANCH   1   2
ATOM      2  C   UNL A   1      37.774  22.199  25.760  1.00  0.00     0.116 C 
BRANCH   2   3
ATOM      3  N   UNL A   1      37.434  22.604  24.422  1.00  0.00    -0.351 N 
ATOM      4  C   UNL A   1      36.183  22.791  23.918  1.00  0.00     0.278 C 
ATOM      5  O   UNL A   1      36.081  23.140  22.741  1.00  0.00    -0.268 OA
ATOM      6  H   UNL A   1      38.185  22.764  23.806  1.00  0.00     0.163 HD
BRANCH   4   7
ATOM      7  C   UNL A   1      34.948  22.539  24.829  1.00  0.00     0.278 C 
BRANCH   7   8
ATOM      8  N   UNL A   1      34.111  21.466  24.212  1.00  0.00    -0.336 N 
ATOM      9  H   UNL A   1      33.250  21.890  23.867  1.00  0.00     0.346 HD
ATOM     10  H   UNL A   1      34.672  21.049  23.470  1.00  0.00     0.346 HD
BRANCH   8  11
ATOM     11  C   UNL A   1      33.756  20.387  25.125  1.00  0.00     0.257 C 
ATOM     12  C   UNL A   1      34.020  19.002  24.556  1.00  0.00     0.071 C 
ENDBRANCH   8  11
ENDBRANCH   7   8
BRANCH   7  13
ATOM     13  C   UNL A   1      34.356  23.908  25.234  1.00  0.00     0.137 C 
BRANCH  13  14
ATOM     14  C   UNL A   1      32.970  24.260  24.679  1.00  0.00     0.269 C 
BRANCH  14  15
ATOM     15  N   UNL A   1      31.793  24.499  25.529  1.00  0.00    -0.335 N 
ATOM     16  C   UNL A   1      32.051  23.787  26.804  1.00  0.00     0.332 C 
ATOM     17  H   UNL A   1      31.050  24.172  24.913  1.00  0.00     0.348 HD
BRANCH  15  18
ATOM     18  C   UNL A   1      31.198  25.831  25.817  1.00  0.00     0.183 C 
ATOM     19  C   UNL A   1      31.962  26.865  26.664  1.00  0.00     0.065 C 
ATOM     20  C   UNL A   1      30.449  26.559  24.690  1.00  0.00     0.065 C 
ATOM     21  C   UNL A   1      32.864  27.799  25.875  1.00  0.00     0.012 C 
ATOM     22  C   UNL A   1      31.246  27.572  23.875  1.00  0.00     0.012 C 
ATOM     23  C   UNL A   1      32.211  28.499  24.663  1.00  0.00    -0.035 C 
ATOM     24  C   UNL A   1      33.341  29.052  23.750  1.00  0.00     0.011 C 
ATOM     25  C   UNL A   1      31.407  29.728  25.127  1.00  0.00     0.011 C 
ENDBRANCH  15  18
ENDBRANCH  14  15
ENDBRANCH  13  14
ENDBRANCH   7  13
ENDBRANCH   4   7
ENDBRANCH   2   3
ENDBRANCH   1   2
BRANCH   1  26
ATOM     26  C   UNL A   1      40.283  22.247  26.221  1.00  0.00     0.002 C 
BRANCH  26  27
ATOM     27  C   UNL A   1      41.507  21.435  26.660  1.00  0.00     0.002 C 
BRANCH  27  28
ATOM     28  C   UNL A   1      41.708  20.102  25.936  1.00  0.00     0.021 C 
BRANCH  28  29
ATOM     29  C   UNL A   1      42.874  19.285  26.455  1.00  0.00     0.116 C 
BRANCH  29  30
ATOM     30  N   UNL A   1      43.691  18.779  25.369  1.00  0.00    -0.352 N 
ATOM     31  C   UNL A   1      44.440  19.509  24.486  1.00  0.00     0.251 C 
ATOM     32  H   UNL A   1      43.708  17.801  25.253  1.00  0.00     0.163 HD
ATOM     33  O   UNL A   1      44.896  19.009  23.463  1.00  0.00    -0.269 OA
BRANCH  31  34
ATOM     34  C   UNL A   1      44.670  20.930  24.798  1.00  0.00     0.039 A 
ATOM     35  C   UNL A   1      44.214  21.907  23.915  1.00  0.00     0.014 A 
ATOM     36  C   UNL A   1      45.268  21.277  26.015  1.00  0.00     0.014 A 
ATOM     37  C   UNL A   1      44.332  23.250  24.269  1.00  0.00     0.010 A 
ATOM     38  C   UNL A   1      45.299  22.606  26.403  1.00  0.00     0.010 A 
ATOM     39  C   UNL A   1      44.855  23.605  25.522  1.00  0.00    -0.014 A 
BRANCH  39  40
ATOM     40  C   UNL A   1      45.013  25.019  25.930  1.00  0.00     0.031 A 
ATOM     41  C   UNL A   1      46.379  25.640  25.882  1.00  0.00     0.074 A 
ATOM     42  C   UNL A   1      43.968  25.702  26.430  1.00  0.00     0.049 A 
ATOM     43  N   UNL A   1      46.782  26.799  26.335  1.00  0.00    -0.248 NA
ATOM     44  C   UNL A   1      47.448  24.824  25.283  1.00  0.00     0.031 C 
ATOM     45  C   UNL A   1      42.606  25.185  26.561  1.00  0.00     0.029 A 
ATOM     46  N   UNL A   1      43.897  26.970  26.948  1.00  0.00    -0.354 N 
ATOM     47  C   UNL A   1      48.151  26.834  26.103  1.00  0.00     0.074 A 
ATOM     48  C   UNL A   1      48.519  25.559  25.530  1.00  0.00     0.031 C 
ATOM     49  C   UNL A   1      41.833  26.127  27.124  1.00  0.00     0.029 A 
ATOM     50  C   UNL A   1      42.655  27.294  27.435  1.00  0.00     0.049 A 
ATOM     51  H   UNL A   1      44.663  27.587  26.970  1.00  0.00     0.167 HD
ATOM     52  C   UNL A   1      49.018  27.849  26.332  1.00  0.00     0.037 A 
ATOM     53  C   UNL A   1      42.236  28.397  28.082  1.00  0.00     0.037 A 
ATOM     54  C   UNL A   1      48.630  29.118  26.881  1.00  0.00     0.049 A 
ATOM     55  C   UNL A   1      43.212  29.515  28.331  1.00  0.00     0.074 A 
ATOM     56  C   UNL A   1      49.408  30.243  27.086  1.00  0.00     0.029 A 
ATOM     57  N   UNL A   1      47.350  29.428  27.324  1.00  0.00    -0.354 N 
ATOM     58  N   UNL A   1      44.491  29.572  28.047  1.00  0.00    -0.248 NA
ATOM     59  C   UNL A   1      42.691  30.723  28.985  1.00  0.00     0.031 C 
ATOM     60  C   UNL A   1      48.616  31.210  27.713  1.00  0.00     0.029 A 
ATOM     61  C   UNL A   1      47.324  30.715  27.832  1.00  0.00     0.049 A 
ATOM     62  H   UNL A   1      46.576  28.821  27.281  1.00  0.00     0.167 HD
ATOM     63  C   UNL A   1      44.920  30.827  28.455  1.00  0.00     0.074 A 
ATOM     64  C   UNL A   1      43.765  31.501  29.009  1.00  0.00     0.031 C 
ATOM     65  C   UNL A   1      46.159  31.373  28.369  1.00  0.00     0.037 A 
BRANCH  52  66
ATOM     66  C   UNL A   1      50.465  27.606  26.007  1.00  0.00     0.064 A 
ATOM     67  C   UNL A   1      50.977  27.784  24.711  1.00  0.00     0.173 A 
ATOM     68  C   UNL A   1      51.351  27.173  27.004  1.00  0.00     0.173 A 
ATOM     69  F   UNL A   1      50.172  28.188  23.715  1.00  0.00    -0.203 F 
ATOM     70  C   UNL A   1      52.305  27.485  24.417  1.00  0.00     0.198 A 
ATOM     71  C   UNL A   1      52.688  26.914  26.715  1.00  0.00     0.198 A 
ATOM     72  F   UNL A   1      50.920  26.992  28.261  1.00  0.00    -0.203 F 
ATOM     73  F   UNL A   1      52.748  27.586  23.156  1.00  0.00    -0.200 F 
ATOM     74  C   UNL A   1      53.161  27.055  25.419  1.00  0.00     0.200 A 
ATOM     75  F   UNL A   1      53.517  26.514  27.689  1.00  0.00    -0.200 F 
ATOM     76  F   UNL A   1      54.436  26.764  25.133  1.00  0.00    -0.200 F 
ENDBRANCH  52  66
BRANCH  53  77
ATOM     77  C   UNL A   1      40.821  28.487  28.524  1.00  0.00     0.064 A 
ATOM     78  C   UNL A   1      40.443  28.114  29.821  1.00  0.00     0.173 A 
ATOM     79  C   UNL A   1      39.827  29.000  27.677  1.00  0.00     0.173 A 
ATOM     80  F   UNL A   1      41.354  27.604  30.663  1.00  0.00    -0.203 F 
ATOM     81  C   UNL A   1      39.124  28.243  30.252  1.00  0.00     0.198 A 
ATOM     82  C   UNL A   1      38.515  29.155  28.118  1.00  0.00     0.198 A 
ATOM     83  F   UNL A   1      40.139  29.382  26.430  1.00  0.00    -0.203 F 
ATOM     84  F   UNL A   1      38.785  27.854  31.488  1.00  0.00    -0.200 F 
ATOM     85  C   UNL A   1      38.164  28.773  29.404  1.00  0.00     0.200 A 
ATOM     86  F   UNL A   1      37.594  29.686  27.302  1.00  0.00    -0.200 F 
ATOM     87  F   UNL A   1      36.900  28.916  29.825  1.00  0.00    -0.200 F 
ENDBRANCH  53  77
BRANCH  65  88
ATOM     88  C   UNL A   1      46.334  32.788  28.839  1.00  0.00     0.064 A 
ATOM     89  C   UNL A   1      46.124  33.882  27.988  1.00  0.00     0.173 A 
ATOM     90  C   UNL A   1      46.617  33.048  30.189  1.00  0.00     0.173 A 
ATOM     91  F   UNL A   1      45.865  33.685  26.687  1.00  0.00    -0.203 F 
ATOM     92  C   UNL A   1      46.195  35.186  28.472  1.00  0.00     0.198 A 
ATOM     93  C   UNL A   1      46.656  34.351  30.675  1.00  0.00     0.198 A 
ATOM     94  F   UNL A   1      46.819  32.035  31.045  1.00  0.00    -0.203 F 
ATOM     95  F   UNL A   1      46.016  36.219  27.637  1.00  0.00    -0.200 F 
ATOM     96  C   UNL A   1      46.447  35.419  29.816  1.00  0.00     0.200 A 
ATOM     97  F   UNL A   1      46.882  34.572  31.977  1.00  0.00    -0.200 F 
ATOM     98  F   UNL A   1      46.489  36.674  30.283  1.00  0.00    -0.200 F 
ENDBRANCH  65  88
ENDBRANCH  39  40
ENDBRANCH  31  34
ENDBRANCH  29  30
ENDBRANCH  28  29
ENDBRANCH  27  28
ENDBRANCH  26  27
ENDBRANCH   1  26
TORSDOF 19
ENDMDL
MODEL 3
REMARK VINA RESULT:      -8.4      3.768      9.964
REMARK SMILES CC[NH2+][C@H](CC[N@@H+](C)C1CCC(C)(C)CC1)C(=O)NCCCCCCNC(=O)c1ccc(-c2c3nc(c(-c4c(F)c(F)c(F)c(F)c4F)c4ccc([nH]4)c(-c4c(F)c(F)c(F)c(F)c4F)c4nc(c(-c5c(F)c(F)c(F)c(F)c5F)c5ccc2[nH]5)C=C4)C=C3)cc1
REMARK SMILES IDX 21 1 20 2 19 3 17 4 18 5 4 7 3 8 2 11 1 12 5 13 6 14 7 15
REMARK SMILES IDX 8 16 9 18 10 19 16 20 11 21 15 22 12 23 13 24 14 25 22 26
REMARK SMILES IDX 23 27 24 28 25 29 26 30 27 31 28 33 29 34 30 35 91 36 31 37
REMARK SMILES IDX 90 38 32 39 33 40 34 41 84 42 35 43 89 44 83 45 85 46 36 47
REMARK SMILES IDX 88 48 82 49 81 50 37 52 69 53 49 54 68 55 50 56 53 57 67 58
REMARK SMILES IDX 86 59 51 60 52 61 66 63 87 64 54 65 38 66 39 67 47 68 40 69
REMARK SMILES IDX 41 70 45 71 48 72 42 73 43 74 46 75 44 76 70 77 71 78 79 79
REMARK SMILES IDX 72 80 73 81 77 82 80 83 74 84 75 85 78 86 76 87 55 88 56 89
REMARK SMILES IDX 64 90 57 91 58 92 62 93 65 94 59 95 60 96 63 97 61 98
REMARK H PARENT 19 6 3 9 3 10 7 17 26 32 85 51 53 62
REMARK Flexibility Score: inf
ROOT
ATOM      1  C   UNL A   1      33.405  31.760  27.366  1.00  0.00     0.021 C 
ENDROOT
BRANCH   1   2
ATOM      2  C   UNL A   1      33.490  30.303  26.957  1.00  0.00     0.116 C 
BRANCH   2   3
ATOM      3  N   UNL A   1      32.570  29.497  27.714  1.00  0.00    -0.351 N 
ATOM      4  C   UNL A   1      31.851  28.433  27.261  1.00  0.00     0.278 C 
ATOM      5  O   UNL A   1      31.107  27.858  28.056  1.00  0.00    -0.268 OA
ATOM      6  H   UNL A   1      32.447  29.740  28.661  1.00  0.00     0.163 HD
BRANCH   4   7
ATOM      7  C   UNL A   1      31.981  28.004  25.771  1.00  0.00     0.278 C 
BRANCH   7   8
ATOM      8  N   UNL A   1      31.297  29.024  24.920  1.00  0.00    -0.336 N 
ATOM      9  H   UNL A   1      30.294  28.963  25.092  1.00  0.00     0.346 HD
ATOM     10  H   UNL A   1      31.689  29.930  25.178  1.00  0.00     0.346 HD
BRANCH   8  11
ATOM     11  C   UNL A   1      31.527  28.861  23.490  1.00  0.00     0.257 C 
ATOM     12  C   UNL A   1      30.292  29.125  22.645  1.00  0.00     0.071 C 
ENDBRANCH   8  11
ENDBRANCH   7   8
BRANCH   7  13
ATOM     13  C   UNL A   1      31.651  26.498  25.670  1.00  0.00     0.137 C 
BRANCH  13  14
ATOM     14  C   UNL A   1      32.816  25.550  25.359  1.00  0.00     0.269 C 
BRANCH  14  15
ATOM     15  N   UNL A   1      32.756  24.502  24.326  1.00  0.00    -0.335 N 
ATOM     16  C   UNL A   1      32.954  25.191  23.027  1.00  0.00     0.332 C 
ATOM     17  H   UNL A   1      31.851  24.084  24.539  1.00  0.00     0.348 HD
BRANCH  15  18
ATOM     18  C   UNL A   1      33.534  23.236  24.341  1.00  0.00     0.183 C 
ATOM     19  C   UNL A   1      34.720  23.033  23.380  1.00  0.00     0.065 C 
ATOM     20  C   UNL A   1      33.871  22.597  25.697  1.00  0.00     0.065 C 
ATOM     21  C   UNL A   1      36.066  23.487  23.918  1.00  0.00     0.012 C 
ATOM     22  C   UNL A   1      35.231  22.935  26.299  1.00  0.00     0.012 C 
ATOM     23  C   UNL A   1      36.439  22.966  25.323  1.00  0.00    -0.035 C 
ATOM     24  C   UNL A   1      37.597  23.841  25.879  1.00  0.00     0.011 C 
ATOM     25  C   UNL A   1      37.002  21.536  25.228  1.00  0.00     0.011 C 
ENDBRANCH  15  18
ENDBRANCH  14  15
ENDBRANCH  13  14
ENDBRANCH   7  13
ENDBRANCH   4   7
ENDBRANCH   2   3
ENDBRANCH   1   2
BRANCH   1  26
ATOM     26  C   UNL A   1      34.424  32.169  28.427  1.00  0.00     0.002 C 
BRANCH  26  27
ATOM     27  C   UNL A   1      34.545  33.677  28.674  1.00  0.00     0.002 C 
BRANCH  27  28
ATOM     28  C   UNL A   1      33.223  34.418  28.888  1.00  0.00     0.021 C 
BRANCH  28  29
ATOM     29  C   UNL A   1      33.386  35.873  29.280  1.00  0.00     0.116 C 
BRANCH  29  30
ATOM     30  N   UNL A   1      32.597  36.196  30.453  1.00  0.00    -0.352 N 
ATOM     31  C   UNL A   1      32.719  35.660  31.706  1.00  0.00     0.251 C 
ATOM     32  H   UNL A   1      31.895  36.877  30.334  1.00  0.00     0.163 HD
ATOM     33  O   UNL A   1      31.853  35.820  32.560  1.00  0.00    -0.269 OA
BRANCH  31  34
ATOM     34  C   UNL A   1      33.925  34.864  31.994  1.00  0.00     0.039 A 
ATOM     35  C   UNL A   1      35.174  35.481  31.966  1.00  0.00     0.014 A 
ATOM     36  C   UNL A   1      33.788  33.524  32.372  1.00  0.00     0.014 A 
ATOM     37  C   UNL A   1      36.299  34.754  32.349  1.00  0.00     0.010 A 
ATOM     38  C   UNL A   1      34.893  32.834  32.842  1.00  0.00     0.010 A 
ATOM     39  C   UNL A   1      36.162  33.434  32.810  1.00  0.00    -0.014 A 
BRANCH  39  40
ATOM     40  C   UNL A   1      37.332  32.621  33.210  1.00  0.00     0.031 A 
ATOM     41  C   UNL A   1      38.034  32.943  34.497  1.00  0.00     0.074 A 
ATOM     42  C   UNL A   1      37.817  31.678  32.383  1.00  0.00     0.049 A 
ATOM     43  N   UNL A   1      39.161  32.477  34.969  1.00  0.00    -0.248 NA
ATOM     44  C   UNL A   1      37.402  33.965  35.349  1.00  0.00     0.031 C 
ATOM     45  C   UNL A   1      37.241  31.311  31.090  1.00  0.00     0.029 A 
ATOM     46  N   UNL A   1      38.925  30.878  32.497  1.00  0.00    -0.354 N 
ATOM     47  C   UNL A   1      39.384  33.170  36.152  1.00  0.00     0.074 A 
ATOM     48  C   UNL A   1      38.314  34.130  36.293  1.00  0.00     0.031 C 
ATOM     49  C   UNL A   1      38.000  30.356  30.529  1.00  0.00     0.029 A 
ATOM     50  C   UNL A   1      39.139  30.079  31.400  1.00  0.00     0.049 A 
ATOM     51  H   UNL A   1      39.511  30.876  33.288  1.00  0.00     0.167 HD
ATOM     52  C   UNL A   1      40.386  33.004  37.048  1.00  0.00     0.037 A 
ATOM     53  C   UNL A   1      40.154  29.241  31.119  1.00  0.00     0.037 A 
ATOM     54  C   UNL A   1      41.430  32.027  36.904  1.00  0.00     0.049 A 
ATOM     55  C   UNL A   1      41.261  29.069  32.125  1.00  0.00     0.074 A 
ATOM     56  C   UNL A   1      42.451  31.721  37.784  1.00  0.00     0.029 A 
ATOM     57  N   UNL A   1      41.591  31.203  35.797  1.00  0.00    -0.354 N 
ATOM     58  N   UNL A   1      41.432  29.677  33.275  1.00  0.00    -0.248 NA
ATOM     59  C   UNL A   1      42.312  28.096  31.800  1.00  0.00     0.031 C 
ATOM     60  C   UNL A   1      43.268  30.758  37.182  1.00  0.00     0.029 A 
ATOM     61  C   UNL A   1      42.714  30.411  35.957  1.00  0.00     0.049 A 
ATOM     62  H   UNL A   1      40.993  31.186  35.015  1.00  0.00     0.167 HD
ATOM     63  C   UNL A   1      42.587  29.139  33.825  1.00  0.00     0.074 A 
ATOM     64  C   UNL A   1      43.078  28.156  32.882  1.00  0.00     0.031 C 
ATOM     65  C   UNL A   1      43.180  29.429  35.010  1.00  0.00     0.037 A 
BRANCH  52  66
ATOM     66  C   UNL A   1      40.400  33.916  38.242  1.00  0.00     0.064 A 
ATOM     67  C   UNL A   1      39.661  33.634  39.403  1.00  0.00     0.173 A 
ATOM     68  C   UNL A   1      41.153  35.099  38.220  1.00  0.00     0.173 A 
ATOM     69  F   UNL A   1      38.915  32.521  39.477  1.00  0.00    -0.203 F 
ATOM     70  C   UNL A   1      39.633  34.528  40.471  1.00  0.00     0.198 A 
ATOM     71  C   UNL A   1      41.155  35.971  39.306  1.00  0.00     0.198 A 
ATOM     72  F   UNL A   1      41.884  35.417  37.141  1.00  0.00    -0.203 F 
ATOM     73  F   UNL A   1      38.856  34.275  41.533  1.00  0.00    -0.200 F 
ATOM     74  C   UNL A   1      40.383  35.693  40.424  1.00  0.00     0.200 A 
ATOM     75  F   UNL A   1      41.893  37.089  39.264  1.00  0.00    -0.200 F 
ATOM     76  F   UNL A   1      40.351  36.554  41.448  1.00  0.00    -0.200 F 
ENDBRANCH  52  66
BRANCH  53  77
ATOM     77  C   UNL A   1      40.151  28.500  29.832  1.00  0.00     0.064 A 
ATOM     78  C   UNL A   1      40.864  28.975  28.723  1.00  0.00     0.173 A 
ATOM     79  C   UNL A   1      39.480  27.274  29.702  1.00  0.00     0.173 A 
ATOM     80  F   UNL A   1      41.508  30.149  28.794  1.00  0.00    -0.203 F 
ATOM     81  C   UNL A   1      40.900  28.256  27.530  1.00  0.00     0.198 A 
ATOM     82  C   UNL A   1      39.540  26.543  28.518  1.00  0.00     0.198 A 
ATOM     83  F   UNL A   1      38.792  26.772  30.738  1.00  0.00    -0.203 F 
ATOM     84  F   UNL A   1      41.567  28.745  26.476  1.00  0.00    -0.200 F 
ATOM     85  C   UNL A   1      40.247  27.037  27.431  1.00  0.00     0.200 A 
ATOM     86  F   UNL A   1      38.925  25.356  28.434  1.00  0.00    -0.200 F 
ATOM     87  F   UNL A   1      40.299  26.336  26.291  1.00  0.00    -0.200 F 
ENDBRANCH  53  77
BRANCH  65  88
ATOM     88  C   UNL A   1      44.403  28.646  35.389  1.00  0.00     0.064 A 
ATOM     89  C   UNL A   1      45.696  29.105  35.098  1.00  0.00     0.173 A 
ATOM     90  C   UNL A   1      44.277  27.470  36.145  1.00  0.00     0.173 A 
ATOM     91  F   UNL A   1      45.869  30.216  34.366  1.00  0.00    -0.203 F 
ATOM     92  C   UNL A   1      46.817  28.412  35.547  1.00  0.00     0.198 A 
ATOM     93  C   UNL A   1      45.399  26.798  36.618  1.00  0.00     0.198 A 
ATOM     94  F   UNL A   1      43.062  26.994  36.456  1.00  0.00    -0.203 F 
ATOM     95  F   UNL A   1      48.044  28.853  35.236  1.00  0.00    -0.200 F 
ATOM     96  C   UNL A   1      46.669  27.268  36.317  1.00  0.00     0.200 A 
ATOM     97  F   UNL A   1      45.253  25.704  37.377  1.00  0.00    -0.200 F 
ATOM     98  F   UNL A   1      47.749  26.618  36.770  1.00  0.00    -0.200 F 
ENDBRANCH  65  88
ENDBRANCH  39  40
ENDBRANCH  31  34
ENDBRANCH  29  30
ENDBRANCH  28  29
ENDBRANCH  27  28
ENDBRANCH  26  27
ENDBRANCH   1  26
TORSDOF 19
ENDMDL
