MODEL 1
REMARK VINA RESULT:     -11.8      0.000      0.000
REMARK SMILES CN(C(=O)N[C@@H]1C=C[C@@H](C(=O)NCCCCCCNC(=O)c2ccc(-c3c4nc(c(-c5c(F)c(F)c(F)c(F)c5F)c5ccc([nH]5)c(-c5c(F)c(F)c(F)c(F)c5F)c5nc(c(-c6c(F)c(F)c(F)c(F)c6F)c6ccc3[nH]6)C=C5)C=C4)cc2)C1)[C@H]1CCS(=O)(=O)C1
REMARK SMILES IDX 15 1 14 2 13 3 12 4 10 5 11 6 9 8 6 9 7 10 85 11 8 12 5 13
REMARK SMILES IDX 3 14 4 15 2 17 1 18 86 19 87 20 92 21 88 22 89 23 90 24
REMARK SMILES IDX 91 25 16 26 17 27 18 28 19 29 20 30 21 32 22 33 23 34 84 35
REMARK SMILES IDX 24 36 83 37 25 38 26 39 27 40 77 41 28 42 82 43 76 44 78 45
REMARK SMILES IDX 29 46 81 47 75 48 74 49 30 51 62 52 42 53 61 54 43 55 46 56
REMARK SMILES IDX 60 57 79 58 44 59 45 60 59 62 80 63 47 64 31 65 32 66 40 67
REMARK SMILES IDX 33 68 34 69 38 70 41 71 35 72 36 73 39 74 37 75 63 76 64 77
REMARK SMILES IDX 72 78 65 79 66 80 70 81 73 82 67 83 68 84 71 85 69 86 48 87
REMARK SMILES IDX 49 88 57 89 50 90 51 91 55 92 58 93 52 94 53 95 56 96 54 97
REMARK H PARENT 12 7 5 16 19 31 78 50 46 61
REMARK Flexibility Score: inf
ROOT
ATOM      1  C   UNL A   1      35.026  33.054  29.091  1.00  0.00     0.002 C 
ENDROOT
BRANCH   1   2
ATOM      2  C   UNL A   1      35.732  32.087  28.135  1.00  0.00     0.021 C 
BRANCH   2   3
ATOM      3  C   UNL A   1      35.010  30.757  27.932  1.00  0.00     0.116 C 
BRANCH   3   4
ATOM      4  N   UNL A   1      33.781  30.915  27.182  1.00  0.00    -0.356 N 
ATOM      5  C   UNL A   1      32.767  30.049  26.921  1.00  0.00     0.227 C 
ATOM      6  O   UNL A   1      31.801  30.494  26.294  1.00  0.00    -0.274 OA
ATOM      7  H   UNL A   1      33.660  31.809  26.788  1.00  0.00     0.163 HD
BRANCH   5   8
ATOM      8  C   UNL A   1      32.806  28.569  27.320  1.00  0.00     0.103 C 
ATOM      9  C   UNL A   1      31.589  26.679  26.284  1.00  0.00     0.107 C 
ATOM     10  C   UNL A   1      33.063  26.635  26.011  1.00  0.00    -0.006 C 
ATOM     11  C   UNL A   1      31.441  27.888  27.221  1.00  0.00     0.047 C 
ATOM     12  C   UNL A   1      33.714  27.683  26.532  1.00  0.00    -0.016 C 
BRANCH   9  13
ATOM     13  N   UNL A   1      31.170  25.436  26.885  1.00  0.00    -0.332 N 
ATOM     14  C   UNL A   1      31.225  24.131  26.555  1.00  0.00     0.317 C 
ATOM     15  O   UNL A   1      30.785  23.370  27.420  1.00  0.00    -0.249 OA
ATOM     16  H   UNL A   1      30.733  25.578  27.755  1.00  0.00     0.165 HD
BRANCH  14  17
ATOM     17  N   UNL A   1      31.721  23.658  25.355  1.00  0.00    -0.324 N 
ATOM     18  C   UNL A   1      30.980  23.717  24.103  1.00  0.00     0.149 C 
BRANCH  17  19
ATOM     19  C   UNL A   1      32.850  22.675  25.427  1.00  0.00     0.102 C 
ATOM     20  C   UNL A   1      32.777  21.548  24.371  1.00  0.00     0.042 C 
ATOM     21  C   UNL A   1      34.245  23.291  25.222  1.00  0.00     0.162 C 
ATOM     22  C   UNL A   1      34.072  20.761  24.410  1.00  0.00     0.139 C 
ATOM     23  S   UNL A   1      35.329  21.924  24.868  1.00  0.00     0.152 S 
ATOM     24  O   UNL A   1      35.931  21.462  26.098  1.00  0.00    -0.229 OA
ATOM     25  O   UNL A   1      36.113  22.241  23.691  1.00  0.00    -0.229 OA
ENDBRANCH  17  19
ENDBRANCH  14  17
ENDBRANCH   9  13
ENDBRANCH   5   8
ENDBRANCH   3   4
ENDBRANCH   2   3
ENDBRANCH   1   2
BRANCH   1  26
ATOM     26  C   UNL A   1      35.356  34.536  28.879  1.00  0.00     0.002 C 
BRANCH  26  27
ATOM     27  C   UNL A   1      34.148  35.473  28.877  1.00  0.00     0.021 C 
BRANCH  27  28
ATOM     28  C   UNL A   1      32.952  34.957  29.667  1.00  0.00     0.116 C 
BRANCH  28  29
ATOM     29  N   UNL A   1      32.469  35.934  30.630  1.00  0.00    -0.352 N 
ATOM     30  C   UNL A   1      32.783  36.057  31.962  1.00  0.00     0.251 C 
ATOM     31  H   UNL A   1      31.830  36.598  30.281  1.00  0.00     0.163 HD
ATOM     32  O   UNL A   1      32.151  36.812  32.691  1.00  0.00    -0.269 OA
BRANCH  30  33
ATOM     33  C   UNL A   1      33.888  35.247  32.513  1.00  0.00     0.039 A 
ATOM     34  C   UNL A   1      33.625  33.959  32.985  1.00  0.00     0.014 A 
ATOM     35  C   UNL A   1      35.189  35.755  32.522  1.00  0.00     0.014 A 
ATOM     36  C   UNL A   1      34.684  33.150  33.405  1.00  0.00     0.010 A 
ATOM     37  C   UNL A   1      36.247  34.925  32.868  1.00  0.00     0.010 A 
ATOM     38  C   UNL A   1      36.006  33.614  33.313  1.00  0.00    -0.014 A 
BRANCH  38  39
ATOM     39  C   UNL A   1      37.168  32.771  33.691  1.00  0.00     0.031 A 
ATOM     40  C   UNL A   1      37.908  33.069  34.965  1.00  0.00     0.074 A 
ATOM     41  C   UNL A   1      37.619  31.820  32.850  1.00  0.00     0.049 A 
ATOM     42  N   UNL A   1      39.055  32.604  35.389  1.00  0.00    -0.248 NA
ATOM     43  C   UNL A   1      37.285  34.052  35.869  1.00  0.00     0.031 C 
ATOM     44  C   UNL A   1      37.001  31.452  31.576  1.00  0.00     0.029 A 
ATOM     45  N   UNL A   1      38.727  31.012  32.927  1.00  0.00    -0.354 N 
ATOM     46  C   UNL A   1      39.297  33.247  36.595  1.00  0.00     0.074 A 
ATOM     47  C   UNL A   1      38.210  34.177  36.808  1.00  0.00     0.031 C 
ATOM     48  C   UNL A   1      37.738  30.495  30.990  1.00  0.00     0.029 A 
ATOM     49  C   UNL A   1      38.909  30.220  31.818  1.00  0.00     0.049 A 
ATOM     50  H   UNL A   1      39.333  31.000  33.703  1.00  0.00     0.167 HD
ATOM     51  C   UNL A   1      40.324  33.061  37.457  1.00  0.00     0.037 A 
ATOM     52  C   UNL A   1      39.923  29.394  31.492  1.00  0.00     0.037 A 
ATOM     53  C   UNL A   1      41.394  32.123  37.244  1.00  0.00     0.049 A 
ATOM     54  C   UNL A   1      41.076  29.235  32.449  1.00  0.00     0.074 A 
ATOM     55  C   UNL A   1      42.469  31.842  38.068  1.00  0.00     0.029 A 
ATOM     56  N   UNL A   1      41.521  31.314  36.125  1.00  0.00    -0.354 N 
ATOM     57  N   UNL A   1      41.280  29.821  33.604  1.00  0.00    -0.248 NA
ATOM     58  C   UNL A   1      42.141  28.296  32.062  1.00  0.00     0.031 C 
ATOM     59  C   UNL A   1      43.274  30.898  37.425  1.00  0.00     0.029 A 
ATOM     60  C   UNL A   1      42.665  30.541  36.232  1.00  0.00     0.049 A 
ATOM     61  H   UNL A   1      40.891  31.291  35.368  1.00  0.00     0.167 HD
ATOM     62  C   UNL A   1      42.465  29.291  34.099  1.00  0.00     0.074 A 
ATOM     63  C   UNL A   1      42.938  28.338  33.119  1.00  0.00     0.031 C 
ATOM     64  C   UNL A   1      43.100  29.568  35.263  1.00  0.00     0.037 A 
BRANCH  51  65
ATOM     65  C   UNL A   1      40.337  33.884  38.713  1.00  0.00     0.064 A 
ATOM     66  C   UNL A   1      41.030  35.102  38.785  1.00  0.00     0.173 A 
ATOM     67  C   UNL A   1      39.613  33.475  39.842  1.00  0.00     0.173 A 
ATOM     68  F   UNL A   1      41.748  35.534  37.738  1.00  0.00    -0.203 F 
ATOM     69  C   UNL A   1      41.023  35.863  39.951  1.00  0.00     0.198 A 
ATOM     70  C   UNL A   1      39.578  34.256  40.994  1.00  0.00     0.198 A 
ATOM     71  F   UNL A   1      38.927  32.322  39.825  1.00  0.00    -0.203 F 
ATOM     72  F   UNL A   1      41.735  36.996  40.012  1.00  0.00    -0.200 F 
ATOM     73  C   UNL A   1      40.289  35.445  41.051  1.00  0.00     0.200 A 
ATOM     74  F   UNL A   1      38.856  33.858  42.050  1.00  0.00    -0.200 F 
ATOM     75  F   UNL A   1      40.273  36.185  42.167  1.00  0.00    -0.200 F 
ENDBRANCH  51  65
BRANCH  52  76
ATOM     76  C   UNL A   1      39.902  28.660  30.198  1.00  0.00     0.064 A 
ATOM     77  C   UNL A   1      39.335  27.382  30.099  1.00  0.00     0.173 A 
ATOM     78  C   UNL A   1      40.470  29.210  29.038  1.00  0.00     0.173 A 
ATOM     79  F   UNL A   1      38.795  26.804  31.182  1.00  0.00    -0.203 F 
ATOM     80  C   UNL A   1      39.366  26.669  28.901  1.00  0.00     0.198 A 
ATOM     81  C   UNL A   1      40.469  28.511  27.833  1.00  0.00     0.198 A 
ATOM     82  F   UNL A   1      41.020  30.434  29.072  1.00  0.00    -0.203 F 
ATOM     83  F   UNL A   1      38.869  25.425  28.852  1.00  0.00    -0.200 F 
ATOM     84  C   UNL A   1      39.928  27.237  27.768  1.00  0.00     0.200 A 
ATOM     85  F   UNL A   1      40.998  29.071  26.736  1.00  0.00    -0.200 F 
ATOM     86  F   UNL A   1      39.957  26.551  26.617  1.00  0.00    -0.200 F 
ENDBRANCH  52  76
BRANCH  64  87
ATOM     87  C   UNL A   1      44.334  28.781  35.595  1.00  0.00     0.064 A 
ATOM     88  C   UNL A   1      45.615  29.223  35.237  1.00  0.00     0.173 A 
ATOM     89  C   UNL A   1      44.232  27.614  36.369  1.00  0.00     0.173 A 
ATOM     90  F   UNL A   1      45.766  30.324  34.486  1.00  0.00    -0.203 F 
ATOM     91  C   UNL A   1      46.750  28.519  35.636  1.00  0.00     0.198 A 
ATOM     92  C   UNL A   1      45.368  26.932  36.792  1.00  0.00     0.198 A 
ATOM     93  F   UNL A   1      43.029  27.155  36.743  1.00  0.00    -0.203 F 
ATOM     94  F   UNL A   1      47.965  28.942  35.259  1.00  0.00    -0.200 F 
ATOM     95  C   UNL A   1      46.626  27.384  36.423  1.00  0.00     0.200 A 
ATOM     96  F   UNL A   1      45.247  25.846  37.568  1.00  0.00    -0.200 F 
ATOM     97  F   UNL A   1      47.720  26.723  36.827  1.00  0.00    -0.200 F 
ENDBRANCH  64  87
ENDBRANCH  38  39
ENDBRANCH  30  33
ENDBRANCH  28  29
ENDBRANCH  27  28
ENDBRANCH  26  27
ENDBRANCH   1  26
TORSDOF 16
ENDMDL
MODEL 2
REMARK VINA RESULT:     -11.7      1.241      2.275
REMARK SMILES CN(C(=O)N[C@@H]1C=C[C@@H](C(=O)NCCCCCCNC(=O)c2ccc(-c3c4nc(c(-c5c(F)c(F)c(F)c(F)c5F)c5ccc([nH]5)c(-c5c(F)c(F)c(F)c(F)c5F)c5nc(c(-c6c(F)c(F)c(F)c(F)c6F)c6ccc3[nH]6)C=C5)C=C4)cc2)C1)[C@H]1CCS(=O)(=O)C1
REMARK SMILES IDX 15 1 14 2 13 3 12 4 10 5 11 6 9 8 6 9 7 10 85 11 8 12 5 13
REMARK SMILES IDX 3 14 4 15 2 17 1 18 86 19 87 20 92 21 88 22 89 23 90 24
REMARK SMILES IDX 91 25 16 26 17 27 18 28 19 29 20 30 21 32 22 33 23 34 84 35
REMARK SMILES IDX 24 36 83 37 25 38 26 39 27 40 77 41 28 42 82 43 76 44 78 45
REMARK SMILES IDX 29 46 81 47 75 48 74 49 30 51 62 52 42 53 61 54 43 55 46 56
REMARK SMILES IDX 60 57 79 58 44 59 45 60 59 62 80 63 47 64 31 65 32 66 40 67
REMARK SMILES IDX 33 68 34 69 38 70 41 71 35 72 36 73 39 74 37 75 63 76 64 77
REMARK SMILES IDX 72 78 65 79 66 80 70 81 73 82 67 83 68 84 71 85 69 86 48 87
REMARK SMILES IDX 49 88 57 89 50 90 51 91 55 92 58 93 52 94 53 95 56 96 54 97
REMARK H PARENT 12 7 5 16 19 31 78 50 46 61
REMARK Flexibility Score: inf
ROOT
ATOM      1  C   UNL A   1      34.119  32.249  28.362  1.00  0.00     0.002 C 
ENDROOT
BRANCH   1   2
ATOM      2  C   UNL A   1      35.318  31.427  27.879  1.00  0.00     0.021 C 
BRANCH   2   3
ATOM      3  C   UNL A   1      35.090  29.917  27.877  1.00  0.00     0.116 C 
BRANCH   3   4
ATOM      4  N   UNL A   1      33.686  29.580  27.763  1.00  0.00    -0.356 N 
ATOM      5  C   UNL A   1      33.016  28.798  26.875  1.00  0.00     0.227 C 
ATOM      6  O   UNL A   1      31.806  28.644  27.069  1.00  0.00    -0.274 OA
ATOM      7  H   UNL A   1      33.113  29.993  28.449  1.00  0.00     0.163 HD
BRANCH   5   8
ATOM      8  C   UNL A   1      33.682  28.166  25.647  1.00  0.00     0.103 C 
ATOM      9  C   UNL A   1      33.280  25.923  24.682  1.00  0.00     0.107 C 
ATOM     10  C   UNL A   1      32.752  27.027  23.816  1.00  0.00    -0.006 C 
ATOM     11  C   UNL A   1      33.974  26.676  25.828  1.00  0.00     0.047 C 
ATOM     12  C   UNL A   1      32.927  28.236  24.361  1.00  0.00    -0.016 C 
BRANCH   9  13
ATOM     13  N   UNL A   1      34.179  25.093  23.917  1.00  0.00    -0.332 N 
ATOM     14  C   UNL A   1      34.551  23.799  23.926  1.00  0.00     0.317 C 
ATOM     15  O   UNL A   1      35.331  23.488  23.021  1.00  0.00    -0.249 OA
ATOM     16  H   UNL A   1      34.636  25.603  23.209  1.00  0.00     0.165 HD
BRANCH  14  17
ATOM     17  N   UNL A   1      34.119  22.878  24.861  1.00  0.00    -0.324 N 
ATOM     18  C   UNL A   1      34.264  23.066  26.298  1.00  0.00     0.149 C 
BRANCH  17  19
ATOM     19  C   UNL A   1      33.901  21.475  24.381  1.00  0.00     0.102 C 
ATOM     20  C   UNL A   1      34.907  20.448  24.951  1.00  0.00     0.042 C 
ATOM     21  C   UNL A   1      32.524  20.887  24.735  1.00  0.00     0.162 C 
ATOM     22  C   UNL A   1      34.449  19.054  24.566  1.00  0.00     0.139 C 
ATOM     23  S   UNL A   1      32.679  19.128  24.511  1.00  0.00     0.152 S 
ATOM     24  O   UNL A   1      32.264  18.779  23.171  1.00  0.00    -0.229 OA
ATOM     25  O   UNL A   1      32.154  18.459  25.685  1.00  0.00    -0.229 OA
ENDBRANCH  17  19
ENDBRANCH  14  17
ENDBRANCH   9  13
ENDBRANCH   5   8
ENDBRANCH   3   4
ENDBRANCH   2   3
ENDBRANCH   1   2
BRANCH   1  26
ATOM     26  C   UNL A   1      34.447  33.681  28.801  1.00  0.00     0.002 C 
BRANCH  26  27
ATOM     27  C   UNL A   1      33.246  34.626  28.870  1.00  0.00     0.021 C 
BRANCH  27  28
ATOM     28  C   UNL A   1      33.557  35.992  29.468  1.00  0.00     0.116 C 
BRANCH  28  29
ATOM     29  N   UNL A   1      32.593  36.375  30.488  1.00  0.00    -0.352 N 
ATOM     30  C   UNL A   1      32.518  35.964  31.798  1.00  0.00     0.251 C 
ATOM     31  H   UNL A   1      31.902  37.016  30.203  1.00  0.00     0.163 HD
ATOM     32  O   UNL A   1      31.537  36.227  32.484  1.00  0.00    -0.269 OA
BRANCH  30  33
ATOM     33  C   UNL A   1      33.632  35.180  32.365  1.00  0.00     0.039 A 
ATOM     34  C   UNL A   1      33.386  33.896  32.859  1.00  0.00     0.014 A 
ATOM     35  C   UNL A   1      34.925  35.707  32.370  1.00  0.00     0.014 A 
ATOM     36  C   UNL A   1      34.454  33.110  33.296  1.00  0.00     0.010 A 
ATOM     37  C   UNL A   1      35.994  34.897  32.734  1.00  0.00     0.010 A 
ATOM     38  C   UNL A   1      35.770  33.591  33.200  1.00  0.00    -0.014 A 
BRANCH  38  39
ATOM     39  C   UNL A   1      36.942  32.771  33.596  1.00  0.00     0.031 A 
ATOM     40  C   UNL A   1      37.648  33.075  34.888  1.00  0.00     0.074 A 
ATOM     41  C   UNL A   1      37.433  31.837  32.757  1.00  0.00     0.049 A 
ATOM     42  N   UNL A   1      38.796  32.632  35.332  1.00  0.00    -0.248 NA
ATOM     43  C   UNL A   1      36.984  34.035  35.786  1.00  0.00     0.031 C 
ATOM     44  C   UNL A   1      36.850  31.466  31.468  1.00  0.00     0.029 A 
ATOM     45  N   UNL A   1      38.557  31.053  32.852  1.00  0.00    -0.354 N 
ATOM     46  C   UNL A   1      38.998  33.270  36.548  1.00  0.00     0.074 A 
ATOM     47  C   UNL A   1      37.886  34.174  36.746  1.00  0.00     0.031 C 
ATOM     48  C   UNL A   1      37.620  30.531  30.890  1.00  0.00     0.029 A 
ATOM     49  C   UNL A   1      38.780  30.276  31.740  1.00  0.00     0.049 A 
ATOM     50  H   UNL A   1      39.146  31.049  33.640  1.00  0.00     0.167 HD
ATOM     51  C   UNL A   1      40.010  33.100  37.430  1.00  0.00     0.037 A 
ATOM     52  C   UNL A   1      39.819  29.475  31.430  1.00  0.00     0.037 A 
ATOM     53  C   UNL A   1      41.106  32.188  37.233  1.00  0.00     0.049 A 
ATOM     54  C   UNL A   1      40.955  29.333  32.410  1.00  0.00     0.074 A 
ATOM     55  C   UNL A   1      42.169  31.924  38.077  1.00  0.00     0.029 A 
ATOM     56  N   UNL A   1      41.275  31.391  36.111  1.00  0.00    -0.354 N 
ATOM     57  N   UNL A   1      41.121  29.915  33.573  1.00  0.00    -0.248 NA
ATOM     58  C   UNL A   1      42.048  28.422  32.038  1.00  0.00     0.031 C 
ATOM     59  C   UNL A   1      43.009  31.004  37.444  1.00  0.00     0.029 A 
ATOM     60  C   UNL A   1      42.433  30.644  36.236  1.00  0.00     0.049 A 
ATOM     61  H   UNL A   1      40.662  31.361  35.340  1.00  0.00     0.167 HD
ATOM     62  C   UNL A   1      42.307  29.407  34.089  1.00  0.00     0.074 A 
ATOM     63  C   UNL A   1      42.822  28.473  33.113  1.00  0.00     0.031 C 
ATOM     64  C   UNL A   1      42.911  29.688  35.269  1.00  0.00     0.037 A 
BRANCH  51  65
ATOM     65  C   UNL A   1      39.979  33.913  38.693  1.00  0.00     0.064 A 
ATOM     66  C   UNL A   1      39.296  33.468  39.836  1.00  0.00     0.173 A 
ATOM     67  C   UNL A   1      40.676  35.128  38.777  1.00  0.00     0.173 A 
ATOM     68  F   UNL A   1      38.605  32.320  39.805  1.00  0.00    -0.203 F 
ATOM     69  C   UNL A   1      39.287  34.224  41.005  1.00  0.00     0.198 A 
ATOM     70  C   UNL A   1      40.694  35.864  39.959  1.00  0.00     0.198 A 
ATOM     71  F   UNL A   1      41.350  35.596  37.716  1.00  0.00    -0.203 F 
ATOM     72  F   UNL A   1      38.584  33.804  42.065  1.00  0.00    -0.200 F 
ATOM     73  C   UNL A   1      39.994  35.416  41.069  1.00  0.00     0.200 A 
ATOM     74  F   UNL A   1      41.390  37.007  40.023  1.00  0.00    -0.200 F 
ATOM     75  F   UNL A   1      39.993  36.136  42.198  1.00  0.00    -0.200 F 
ENDBRANCH  51  65
BRANCH  52  76
ATOM     76  C   UNL A   1      39.842  28.751  30.129  1.00  0.00     0.064 A 
ATOM     77  C   UNL A   1      39.281  27.473  30.002  1.00  0.00     0.173 A 
ATOM     78  C   UNL A   1      40.446  29.313  28.994  1.00  0.00     0.173 A 
ATOM     79  F   UNL A   1      38.708  26.885  31.062  1.00  0.00    -0.203 F 
ATOM     80  C   UNL A   1      39.353  26.770  28.800  1.00  0.00     0.198 A 
ATOM     81  C   UNL A   1      40.486  28.623  27.783  1.00  0.00     0.198 A 
ATOM     82  F   UNL A   1      40.991  30.537  29.056  1.00  0.00    -0.203 F 
ATOM     83  F   UNL A   1      38.861  25.526  28.725  1.00  0.00    -0.200 F 
ATOM     84  C   UNL A   1      39.951  27.348  27.691  1.00  0.00     0.200 A 
ATOM     85  F   UNL A   1      41.048  29.193  26.709  1.00  0.00    -0.200 F 
ATOM     86  F   UNL A   1      40.019  26.672  26.536  1.00  0.00    -0.200 F 
ENDBRANCH  52  76
BRANCH  64  87
ATOM     87  C   UNL A   1      44.155  28.927  35.621  1.00  0.00     0.064 A 
ATOM     88  C   UNL A   1      44.109  27.701  36.300  1.00  0.00     0.173 A 
ATOM     89  C   UNL A   1      45.406  29.391  35.185  1.00  0.00     0.173 A 
ATOM     90  F   UNL A   1      42.940  27.221  36.750  1.00  0.00    -0.203 F 
ATOM     91  C   UNL A   1      45.272  26.971  36.535  1.00  0.00     0.198 A 
ATOM     92  C   UNL A   1      46.562  28.645  35.393  1.00  0.00     0.198 A 
ATOM     93  F   UNL A   1      45.502  30.556  34.526  1.00  0.00    -0.203 F 
ATOM     94  F   UNL A   1      45.211  25.815  37.210  1.00  0.00    -0.200 F 
ATOM     95  C   UNL A   1      46.493  27.437  36.070  1.00  0.00     0.200 A 
ATOM     96  F   UNL A   1      47.738  29.088  34.928  1.00  0.00    -0.200 F 
ATOM     97  F   UNL A   1      47.608  26.720  36.275  1.00  0.00    -0.200 F 
ENDBRANCH  64  87
ENDBRANCH  38  39
ENDBRANCH  30  33
ENDBRANCH  28  29
ENDBRANCH  27  28
ENDBRANCH  26  27
ENDBRANCH   1  26
TORSDOF 16
ENDMDL
MODEL 3
REMARK VINA RESULT:     -11.6      0.590      2.098
REMARK SMILES CN(C(=O)N[C@@H]1C=C[C@@H](C(=O)NCCCCCCNC(=O)c2ccc(-c3c4nc(c(-c5c(F)c(F)c(F)c(F)c5F)c5ccc([nH]5)c(-c5c(F)c(F)c(F)c(F)c5F)c5nc(c(-c6c(F)c(F)c(F)c(F)c6F)c6ccc3[nH]6)C=C5)C=C4)cc2)C1)[C@H]1CCS(=O)(=O)C1
REMARK SMILES IDX 15 1 14 2 13 3 12 4 10 5 11 6 9 8 6 9 7 10 85 11 8 12 5 13
REMARK SMILES IDX 3 14 4 15 2 17 1 18 86 19 87 20 92 21 88 22 89 23 90 24
REMARK SMILES IDX 91 25 16 26 17 27 18 28 19 29 20 30 21 32 22 33 23 34 84 35
REMARK SMILES IDX 24 36 83 37 25 38 26 39 27 40 77 41 28 42 82 43 76 44 78 45
REMARK SMILES IDX 29 46 81 47 75 48 74 49 30 51 62 52 42 53 61 54 43 55 46 56
REMARK SMILES IDX 60 57 79 58 44 59 45 60 59 62 80 63 47 64 31 65 32 66 40 67
REMARK SMILES IDX 33 68 34 69 38 70 41 71 35 72 36 73 39 74 37 75 63 76 64 77
REMARK SMILES IDX 72 78 65 79 66 80 70 81 73 82 67 83 68 84 71 85 69 86 48 87
REMARK SMILES IDX 49 88 57 89 50 90 51 91 55 92 58 93 52 94 53 95 56 96 54 97
REMARK H PARENT 12 7 5 16 19 31 78 50 46 61
REMARK Flexibility Score: inf
ROOT
ATOM      1  C   UNL A   1      35.184  33.807  28.796  1.00  0.00     0.002 C 
ENDROOT
BRANCH   1   2
ATOM      2  C   UNL A   1      34.566  32.481  29.250  1.00  0.00     0.021 C 
BRANCH   2   3
ATOM      3  C   UNL A   1      34.663  31.354  28.224  1.00  0.00     0.116 C 
BRANCH   3   4
ATOM      4  N   UNL A   1      33.547  31.363  27.300  1.00  0.00    -0.356 N 
ATOM      5  C   UNL A   1      32.705  30.376  26.895  1.00  0.00     0.227 C 
ATOM      6  O   UNL A   1      31.791  30.702  26.131  1.00  0.00    -0.274 OA
ATOM      7  H   UNL A   1      33.368  32.241  26.891  1.00  0.00     0.163 HD
BRANCH   5   8
ATOM      8  C   UNL A   1      32.881  28.907  27.297  1.00  0.00     0.103 C 
ATOM      9  C   UNL A   1      31.833  26.912  26.274  1.00  0.00     0.107 C 
ATOM     10  C   UNL A   1      33.303  27.001  25.991  1.00  0.00    -0.006 C 
ATOM     11  C   UNL A   1      31.582  28.106  27.209  1.00  0.00     0.047 C 
ATOM     12  C   UNL A   1      33.860  28.105  26.504  1.00  0.00    -0.016 C 
BRANCH   9  13
ATOM     13  N   UNL A   1      31.532  25.638  26.881  1.00  0.00    -0.332 N 
ATOM     14  C   UNL A   1      31.590  24.346  26.505  1.00  0.00     0.317 C 
ATOM     15  O   UNL A   1      31.284  23.545  27.392  1.00  0.00    -0.249 OA
ATOM     16  H   UNL A   1      31.199  25.740  27.802  1.00  0.00     0.165 HD
BRANCH  14  17
ATOM     17  N   UNL A   1      31.952  23.925  25.240  1.00  0.00    -0.324 N 
ATOM     18  C   UNL A   1      31.001  23.752  24.151  1.00  0.00     0.149 C 
BRANCH  17  19
ATOM     19  C   UNL A   1      33.265  23.215  25.110  1.00  0.00     0.102 C 
ATOM     20  C   UNL A   1      34.117  23.675  23.903  1.00  0.00     0.042 C 
ATOM     21  C   UNL A   1      34.204  23.385  26.317  1.00  0.00     0.162 C 
ATOM     22  C   UNL A   1      35.492  23.046  24.011  1.00  0.00     0.139 C 
ATOM     23  S   UNL A   1      35.817  22.895  25.747  1.00  0.00     0.152 S 
ATOM     24  O   UNL A   1      36.020  21.493  26.038  1.00  0.00    -0.229 OA
ATOM     25  O   UNL A   1      36.777  23.913  26.126  1.00  0.00    -0.229 OA
ENDBRANCH  17  19
ENDBRANCH  14  17
ENDBRANCH   9  13
ENDBRANCH   5   8
ENDBRANCH   3   4
ENDBRANCH   2   3
ENDBRANCH   1   2
BRANCH   1  26
ATOM     26  C   UNL A   1      34.228  34.749  28.055  1.00  0.00     0.002 C 
BRANCH  26  27
ATOM     27  C   UNL A   1      33.045  35.252  28.884  1.00  0.00     0.021 C 
BRANCH  27  28
ATOM     28  C   UNL A   1      33.330  36.520  29.679  1.00  0.00     0.116 C 
BRANCH  28  29
ATOM     29  N   UNL A   1      32.485  36.628  30.858  1.00  0.00    -0.352 N 
ATOM     30  C   UNL A   1      32.569  35.936  32.043  1.00  0.00     0.251 C 
ATOM     31  H   UNL A   1      31.755  37.287  30.802  1.00  0.00     0.163 HD
ATOM     32  O   UNL A   1      31.670  36.000  32.873  1.00  0.00    -0.269 OA
BRANCH  30  33
ATOM     33  C   UNL A   1      33.754  35.092  32.294  1.00  0.00     0.039 A 
ATOM     34  C   UNL A   1      35.030  35.645  32.162  1.00  0.00     0.014 A 
ATOM     35  C   UNL A   1      33.593  33.766  32.698  1.00  0.00     0.014 A 
ATOM     36  C   UNL A   1      36.149  34.883  32.505  1.00  0.00     0.010 A 
ATOM     37  C   UNL A   1      34.700  33.035  33.110  1.00  0.00     0.010 A 
ATOM     38  C   UNL A   1      35.989  33.586  33.018  1.00  0.00    -0.014 A 
BRANCH  38  39
ATOM     39  C   UNL A   1      37.144  32.759  33.451  1.00  0.00     0.031 A 
ATOM     40  C   UNL A   1      37.834  33.081  34.746  1.00  0.00     0.074 A 
ATOM     41  C   UNL A   1      37.634  31.800  32.640  1.00  0.00     0.049 A 
ATOM     42  N   UNL A   1      38.968  32.632  35.218  1.00  0.00    -0.248 NA
ATOM     43  C   UNL A   1      37.170  34.070  35.612  1.00  0.00     0.031 C 
ATOM     44  C   UNL A   1      37.066  31.409  31.350  1.00  0.00     0.029 A 
ATOM     45  N   UNL A   1      38.744  31.002  32.769  1.00  0.00    -0.354 N 
ATOM     46  C   UNL A   1      39.160  33.293  36.423  1.00  0.00     0.074 A 
ATOM     47  C   UNL A   1      38.058  34.217  36.583  1.00  0.00     0.031 C 
ATOM     48  C   UNL A   1      37.832  30.450  30.804  1.00  0.00     0.029 A 
ATOM     49  C   UNL A   1      38.974  30.198  31.679  1.00  0.00     0.049 A 
ATOM     50  H   UNL A   1      39.321  31.007  33.567  1.00  0.00     0.167 HD
ATOM     51  C   UNL A   1      40.156  33.129  37.325  1.00  0.00     0.037 A 
ATOM     52  C   UNL A   1      40.006  29.376  31.402  1.00  0.00     0.037 A 
ATOM     53  C   UNL A   1      41.241  32.198  37.165  1.00  0.00     0.049 A 
ATOM     54  C   UNL A   1      41.124  29.240  32.403  1.00  0.00     0.074 A 
ATOM     55  C   UNL A   1      42.287  31.937  38.031  1.00  0.00     0.029 A 
ATOM     56  N   UNL A   1      41.416  31.374  36.063  1.00  0.00    -0.354 N 
ATOM     57  N   UNL A   1      41.280  29.844  33.556  1.00  0.00    -0.248 NA
ATOM     58  C   UNL A   1      42.210  28.305  32.069  1.00  0.00     0.031 C 
ATOM     59  C   UNL A   1      43.124  30.991  37.432  1.00  0.00     0.029 A 
ATOM     60  C   UNL A   1      42.562  30.613  36.223  1.00  0.00     0.049 A 
ATOM     61  H   UNL A   1      40.815  31.335  35.283  1.00  0.00     0.167 HD
ATOM     62  C   UNL A   1      42.451  29.331  34.102  1.00  0.00     0.074 A 
ATOM     63  C   UNL A   1      42.967  28.369  33.154  1.00  0.00     0.031 C 
ATOM     64  C   UNL A   1      43.041  29.630  35.285  1.00  0.00     0.037 A 
BRANCH  51  65
ATOM     65  C   UNL A   1      40.117  33.970  38.569  1.00  0.00     0.064 A 
ATOM     66  C   UNL A   1      39.387  33.573  39.700  1.00  0.00     0.173 A 
ATOM     67  C   UNL A   1      40.852  35.162  38.647  1.00  0.00     0.173 A 
ATOM     68  F   UNL A   1      38.658  32.448  39.674  1.00  0.00    -0.203 F 
ATOM     69  C   UNL A   1      39.371  34.354  40.852  1.00  0.00     0.198 A 
ATOM     70  C   UNL A   1      40.862  35.923  39.813  1.00  0.00     0.198 A 
ATOM     71  F   UNL A   1      41.571  35.585  37.597  1.00  0.00    -0.203 F 
ATOM     72  F   UNL A   1      38.625  33.981  41.901  1.00  0.00    -0.200 F 
ATOM     73  C   UNL A   1      40.116  35.523  40.912  1.00  0.00     0.200 A 
ATOM     74  F   UNL A   1      41.594  37.043  39.874  1.00  0.00    -0.200 F 
ATOM     75  F   UNL A   1      40.108  36.267  42.025  1.00  0.00    -0.200 F 
ENDBRANCH  51  65
BRANCH  52  76
ATOM     76  C   UNL A   1      40.039  28.623  30.118  1.00  0.00     0.064 A 
ATOM     77  C   UNL A   1      40.646  29.166  28.977  1.00  0.00     0.173 A 
ATOM     78  C   UNL A   1      39.444  27.358  29.999  1.00  0.00     0.173 A 
ATOM     79  F   UNL A   1      41.212  30.380  29.034  1.00  0.00    -0.203 F 
ATOM     80  C   UNL A   1      40.628  28.488  27.759  1.00  0.00     0.198 A 
ATOM     81  C   UNL A   1      39.457  26.666  28.790  1.00  0.00     0.198 A 
ATOM     82  F   UNL A   1      38.856  26.787  31.062  1.00  0.00    -0.203 F 
ATOM     83  F   UNL A   1      41.163  29.057  26.670  1.00  0.00    -0.200 F 
ATOM     84  C   UNL A   1      40.038  27.236  27.668  1.00  0.00     0.200 A 
ATOM     85  F   UNL A   1      38.903  25.449  28.712  1.00  0.00    -0.200 F 
ATOM     86  F   UNL A   1      40.022  26.585  26.497  1.00  0.00    -0.200 F 
ENDBRANCH  52  76
BRANCH  64  87
ATOM     87  C   UNL A   1      44.268  28.859  35.673  1.00  0.00     0.064 A 
ATOM     88  C   UNL A   1      44.193  27.647  36.373  1.00  0.00     0.173 A 
ATOM     89  C   UNL A   1      45.532  29.298  35.250  1.00  0.00     0.173 A 
ATOM     90  F   UNL A   1      43.010  27.190  36.811  1.00  0.00    -0.203 F 
ATOM     91  C   UNL A   1      45.342  26.906  36.642  1.00  0.00     0.198 A 
ATOM     92  C   UNL A   1      46.674  28.541  35.493  1.00  0.00     0.198 A 
ATOM     93  F   UNL A   1      45.655  30.449  34.572  1.00  0.00    -0.203 F 
ATOM     94  F   UNL A   1      45.253  25.764  37.338  1.00  0.00    -0.200 F 
ATOM     95  C   UNL A   1      46.578  27.347  36.191  1.00  0.00     0.200 A 
ATOM     96  F   UNL A   1      47.864  28.960  35.041  1.00  0.00    -0.200 F 
ATOM     97  F   UNL A   1      47.678  26.620  36.429  1.00  0.00    -0.200 F 
ENDBRANCH  64  87
ENDBRANCH  38  39
ENDBRANCH  30  33
ENDBRANCH  28  29
ENDBRANCH  27  28
ENDBRANCH  26  27
ENDBRANCH   1  26
TORSDOF 16
ENDMDL
