MODEL 1
REMARK VINA RESULT:     -12.2      0.000      0.000
REMARK SMILES C[C@H]([C@@H]1CCCO1)n1c(SCC(=O)NCCCCCCNC(=O)c2ccc(-c3c4nc(c(-c5c(F)c(F)c(F)c(F)c5F)c5ccc([nH]5)c(-c5c(F)c(F)c(F)c(F)c5F)c5nc(c(-c6c(F)c(F)c(F)c(F)c6F)c6ccc3[nH]6)C=C5)C=C4)cc2)nc2cnccc21
REMARK SMILES IDX 16 1 15 2 14 3 12 4 13 5 11 7 10 8 9 9 8 10 93 11 87 12
REMARK SMILES IDX 88 13 92 14 89 15 91 16 90 17 2 18 1 19 3 20 4 21 7 22 5 23
REMARK SMILES IDX 6 24 17 25 18 26 19 27 20 28 21 29 22 30 23 32 24 33 25 34
REMARK SMILES IDX 86 35 26 36 85 37 27 38 28 39 29 40 79 41 30 42 84 43 78 44
REMARK SMILES IDX 80 45 31 46 83 47 77 48 76 49 32 51 64 52 44 53 63 54 45 55
REMARK SMILES IDX 48 56 62 57 81 58 46 59 47 60 61 62 82 63 49 64 33 65 34 66
REMARK SMILES IDX 42 67 35 68 36 69 40 70 43 71 37 72 38 73 41 74 39 75 65 76
REMARK SMILES IDX 66 77 74 78 67 79 68 80 72 81 75 82 69 83 70 84 73 85 71 86
REMARK SMILES IDX 50 87 51 88 59 89 52 90 53 91 57 92 60 93 54 94 55 95 58 96
REMARK SMILES IDX 56 97
REMARK H PARENT 14 6 21 31 80 50 48 61
REMARK Flexibility Score: inf
ROOT
ATOM      1  C   UNL A   1      32.066  27.129  26.106  1.00  0.00     0.021 C 
ENDROOT
BRANCH   1   2
ATOM      2  C   UNL A   1      32.452  25.704  25.763  1.00  0.00     0.116 C 
BRANCH   2   3
ATOM      3  N   UNL A   1      31.954  24.775  26.738  1.00  0.00    -0.355 N 
ATOM      4  C   UNL A   1      31.368  23.579  26.487  1.00  0.00     0.230 C 
ATOM      5  O   UNL A   1      31.269  22.785  27.426  1.00  0.00    -0.274 OA
ATOM      6  H   UNL A   1      32.046  25.032  27.684  1.00  0.00     0.163 HD
BRANCH   4   7
ATOM      7  C   UNL A   1      30.984  23.207  25.082  1.00  0.00     0.178 C 
BRANCH   7   8
ATOM      8  S   UNL A   1      32.117  22.381  23.985  1.00  0.00    -0.078 SA
BRANCH   8   9
ATOM      9  C   UNL A   1      32.779  20.807  24.264  1.00  0.00     0.169 A 
ATOM     10  N   UNL A   1      34.001  20.343  24.735  1.00  0.00    -0.313 N 
ATOM     11  C   UNL A   1      34.080  18.981  24.393  1.00  0.00     0.072 A 
ATOM     12  N   UNL A   1      32.157  19.843  23.601  1.00  0.00    -0.221 NA
ATOM     13  C   UNL A   1      32.953  18.734  23.628  1.00  0.00     0.108 A 
ATOM     14  C   UNL A   1      35.015  17.965  24.651  1.00  0.00     0.049 A 
ATOM     15  C   UNL A   1      32.791  17.475  23.035  1.00  0.00     0.141 A 
ATOM     16  C   UNL A   1      34.756  16.741  24.051  1.00  0.00     0.113 A 
ATOM     17  N   UNL A   1      33.698  16.484  23.253  1.00  0.00    -0.262 NA
BRANCH  10  18
ATOM     18  C   UNL A   1      35.069  20.927  25.546  1.00  0.00     0.116 C 
ATOM     19  C   UNL A   1      34.515  21.497  26.848  1.00  0.00     0.034 C 
BRANCH  18  20
ATOM     20  C   UNL A   1      36.234  21.681  24.862  1.00  0.00     0.141 C 
ATOM     21  C   UNL A   1      37.640  21.322  25.242  1.00  0.00     0.036 C 
ATOM     22  O   UNL A   1      36.082  23.098  25.011  1.00  0.00    -0.376 OA
ATOM     23  C   UNL A   1      38.273  22.577  25.783  1.00  0.00     0.031 C 
ATOM     24  C   UNL A   1      37.186  23.622  25.749  1.00  0.00     0.160 C 
ENDBRANCH  18  20
ENDBRANCH  10  18
ENDBRANCH   8   9
ENDBRANCH   7   8
ENDBRANCH   4   7
ENDBRANCH   2   3
ENDBRANCH   1   2
BRANCH   1  25
ATOM     25  C   UNL A   1      33.206  28.140  25.971  1.00  0.00     0.002 C 
BRANCH  25  26
ATOM     26  C   UNL A   1      33.626  28.842  27.266  1.00  0.00     0.002 C 
BRANCH  26  27
ATOM     27  C   UNL A   1      33.261  30.328  27.371  1.00  0.00     0.021 C 
BRANCH  27  28
ATOM     28  C   UNL A   1      34.450  31.261  27.594  1.00  0.00     0.116 C 
BRANCH  28  29
ATOM     29  N   UNL A   1      34.402  31.919  28.876  1.00  0.00    -0.352 N 
ATOM     30  C   UNL A   1      35.247  31.976  29.939  1.00  0.00     0.251 C 
ATOM     31  H   UNL A   1      33.578  32.442  29.010  1.00  0.00     0.163 HD
ATOM     32  O   UNL A   1      34.875  32.680  30.891  1.00  0.00    -0.269 OA
BRANCH  30  33
ATOM     33  C   UNL A   1      36.531  31.235  30.060  1.00  0.00     0.039 A 
ATOM     34  C   UNL A   1      37.811  31.787  29.981  1.00  0.00     0.014 A 
ATOM     35  C   UNL A   1      36.417  29.841  30.225  1.00  0.00     0.014 A 
ATOM     36  C   UNL A   1      38.933  30.968  29.965  1.00  0.00     0.010 A 
ATOM     37  C   UNL A   1      37.537  29.020  30.242  1.00  0.00     0.010 A 
ATOM     38  C   UNL A   1      38.795  29.581  30.064  1.00  0.00    -0.014 A 
BRANCH  38  39
ATOM     39  C   UNL A   1      40.015  28.782  30.043  1.00  0.00     0.031 A 
ATOM     40  C   UNL A   1      40.699  28.625  31.358  1.00  0.00     0.074 A 
ATOM     41  C   UNL A   1      40.497  28.172  28.943  1.00  0.00     0.049 A 
ATOM     42  N   UNL A   1      41.882  29.033  31.691  1.00  0.00    -0.248 NA
ATOM     43  C   UNL A   1      39.939  28.025  32.463  1.00  0.00     0.031 C 
ATOM     44  C   UNL A   1      39.861  27.995  27.637  1.00  0.00     0.029 A 
ATOM     45  N   UNL A   1      41.674  27.499  28.806  1.00  0.00    -0.354 N 
ATOM     46  C   UNL A   1      42.081  28.623  33.009  1.00  0.00     0.074 A 
ATOM     47  C   UNL A   1      40.819  28.098  33.464  1.00  0.00     0.031 C 
ATOM     48  C   UNL A   1      40.560  27.086  26.920  1.00  0.00     0.029 A 
ATOM     49  C   UNL A   1      41.763  26.733  27.654  1.00  0.00     0.049 A 
ATOM     50  H   UNL A   1      42.400  27.553  29.468  1.00  0.00     0.167 HD
ATOM     51  C   UNL A   1      43.322  28.600  33.569  1.00  0.00     0.037 A 
ATOM     52  C   UNL A   1      42.732  25.832  27.359  1.00  0.00     0.037 A 
ATOM     53  C   UNL A   1      44.240  29.442  32.850  1.00  0.00     0.049 A 
ATOM     54  C   UNL A   1      43.928  26.182  28.165  1.00  0.00     0.074 A 
ATOM     55  C   UNL A   1      44.301  30.796  32.578  1.00  0.00     0.029 A 
ATOM     56  N   UNL A   1      45.139  28.857  31.994  1.00  0.00    -0.354 N 
ATOM     57  N   UNL A   1      44.645  27.254  27.975  1.00  0.00    -0.248 NA
ATOM     58  C   UNL A   1      44.076  25.553  29.469  1.00  0.00     0.031 C 
ATOM     59  C   UNL A   1      44.831  30.881  31.257  1.00  0.00     0.029 A 
ATOM     60  C   UNL A   1      45.103  29.581  30.832  1.00  0.00     0.049 A 
ATOM     61  H   UNL A   1      45.701  28.071  32.180  1.00  0.00     0.167 HD
ATOM     62  C   UNL A   1      44.991  27.675  29.249  1.00  0.00     0.074 A 
ATOM     63  C   UNL A   1      44.692  26.542  30.120  1.00  0.00     0.031 C 
ATOM     64  C   UNL A   1      45.223  28.992  29.521  1.00  0.00     0.037 A 
BRANCH  51  65
ATOM     65  C   UNL A   1      43.797  27.575  34.571  1.00  0.00     0.064 A 
ATOM     66  C   UNL A   1      43.740  26.205  34.235  1.00  0.00     0.173 A 
ATOM     67  C   UNL A   1      44.001  27.857  35.937  1.00  0.00     0.173 A 
ATOM     68  F   UNL A   1      43.544  25.817  32.966  1.00  0.00    -0.203 F 
ATOM     69  C   UNL A   1      43.782  25.202  35.208  1.00  0.00     0.198 A 
ATOM     70  C   UNL A   1      44.094  26.852  36.899  1.00  0.00     0.198 A 
ATOM     71  F   UNL A   1      44.007  29.107  36.412  1.00  0.00    -0.203 F 
ATOM     72  F   UNL A   1      43.588  23.925  34.856  1.00  0.00    -0.200 F 
ATOM     73  C   UNL A   1      43.947  25.528  36.542  1.00  0.00     0.200 A 
ATOM     74  F   UNL A   1      44.241  27.187  38.188  1.00  0.00    -0.200 F 
ATOM     75  F   UNL A   1      43.917  24.576  37.484  1.00  0.00    -0.200 F 
ENDBRANCH  51  65
BRANCH  52  76
ATOM     76  C   UNL A   1      42.577  24.522  26.685  1.00  0.00     0.064 A 
ATOM     77  C   UNL A   1      43.298  24.216  25.519  1.00  0.00     0.173 A 
ATOM     78  C   UNL A   1      41.937  23.442  27.325  1.00  0.00     0.173 A 
ATOM     79  F   UNL A   1      43.976  25.176  24.873  1.00  0.00    -0.203 F 
ATOM     80  C   UNL A   1      43.396  22.904  25.040  1.00  0.00     0.198 A 
ATOM     81  C   UNL A   1      42.028  22.137  26.842  1.00  0.00     0.198 A 
ATOM     82  F   UNL A   1      41.292  23.615  28.488  1.00  0.00    -0.203 F 
ATOM     83  F   UNL A   1      44.148  22.640  23.962  1.00  0.00    -0.200 F 
ATOM     84  C   UNL A   1      42.770  21.865  25.709  1.00  0.00     0.200 A 
ATOM     85  F   UNL A   1      41.448  21.136  27.521  1.00  0.00    -0.200 F 
ATOM     86  F   UNL A   1      42.916  20.601  25.287  1.00  0.00    -0.200 F 
ENDBRANCH  52  76
BRANCH  64  87
ATOM     87  C   UNL A   1      45.344  29.945  28.367  1.00  0.00     0.064 A 
ATOM     88  C   UNL A   1      44.246  30.576  27.757  1.00  0.00     0.173 A 
ATOM     89  C   UNL A   1      46.625  30.373  27.989  1.00  0.00     0.173 A 
ATOM     90  F   UNL A   1      42.991  30.295  28.135  1.00  0.00    -0.203 F 
ATOM     91  C   UNL A   1      44.425  31.566  26.792  1.00  0.00     0.198 A 
ATOM     92  C   UNL A   1      46.799  31.387  27.053  1.00  0.00     0.198 A 
ATOM     93  F   UNL A   1      47.709  29.846  28.581  1.00  0.00    -0.203 F 
ATOM     94  F   UNL A   1      43.360  32.155  26.228  1.00  0.00    -0.200 F 
ATOM     95  C   UNL A   1      45.701  31.978  26.450  1.00  0.00     0.200 A 
ATOM     96  F   UNL A   1      48.035  31.820  26.764  1.00  0.00    -0.200 F 
ATOM     97  F   UNL A   1      45.873  32.969  25.564  1.00  0.00    -0.200 F 
ENDBRANCH  64  87
ENDBRANCH  38  39
ENDBRANCH  30  33
ENDBRANCH  28  29
ENDBRANCH  27  28
ENDBRANCH  26  27
ENDBRANCH  25  26
ENDBRANCH   1  25
TORSDOF 17
ENDMDL
MODEL 2
REMARK VINA RESULT:     -12.1      3.436      9.230
REMARK SMILES C[C@H]([C@@H]1CCCO1)n1c(SCC(=O)NCCCCCCNC(=O)c2ccc(-c3c4nc(c(-c5c(F)c(F)c(F)c(F)c5F)c5ccc([nH]5)c(-c5c(F)c(F)c(F)c(F)c5F)c5nc(c(-c6c(F)c(F)c(F)c(F)c6F)c6ccc3[nH]6)C=C5)C=C4)cc2)nc2cnccc21
REMARK SMILES IDX 16 1 15 2 14 3 12 4 13 5 11 7 10 8 9 9 8 10 93 11 87 12
REMARK SMILES IDX 88 13 92 14 89 15 91 16 90 17 2 18 1 19 3 20 4 21 7 22 5 23
REMARK SMILES IDX 6 24 17 25 18 26 19 27 20 28 21 29 22 30 23 32 24 33 25 34
REMARK SMILES IDX 86 35 26 36 85 37 27 38 28 39 29 40 79 41 30 42 84 43 78 44
REMARK SMILES IDX 80 45 31 46 83 47 77 48 76 49 32 51 64 52 44 53 63 54 45 55
REMARK SMILES IDX 48 56 62 57 81 58 46 59 47 60 61 62 82 63 49 64 33 65 34 66
REMARK SMILES IDX 42 67 35 68 36 69 40 70 43 71 37 72 38 73 41 74 39 75 65 76
REMARK SMILES IDX 66 77 74 78 67 79 68 80 72 81 75 82 69 83 70 84 73 85 71 86
REMARK SMILES IDX 50 87 51 88 59 89 52 90 53 91 57 92 60 93 54 94 55 95 58 96
REMARK SMILES IDX 56 97
REMARK H PARENT 14 6 21 31 80 50 48 61
REMARK Flexibility Score: inf
ROOT
ATOM      1  C   UNL A   1      35.258  24.464  24.988  1.00  0.00     0.021 C 
ENDROOT
BRANCH   1   2
ATOM      2  C   UNL A   1      34.037  24.182  25.840  1.00  0.00     0.116 C 
BRANCH   2   3
ATOM      3  N   UNL A   1      33.336  23.015  25.382  1.00  0.00    -0.355 N 
ATOM      4  C   UNL A   1      32.465  22.952  24.346  1.00  0.00     0.230 C 
ATOM      5  O   UNL A   1      32.183  21.835  23.906  1.00  0.00    -0.274 OA
ATOM      6  H   UNL A   1      33.503  22.176  25.871  1.00  0.00     0.163 HD
BRANCH   4   7
ATOM      7  C   UNL A   1      31.980  24.215  23.690  1.00  0.00     0.178 C 
BRANCH   7   8
ATOM      8  S   UNL A   1      30.858  25.329  24.510  1.00  0.00    -0.078 SA
BRANCH   8   9
ATOM      9  C   UNL A   1      30.219  26.772  23.803  1.00  0.00     0.169 A 
ATOM     10  N   UNL A   1      30.692  28.071  23.664  1.00  0.00    -0.313 N 
ATOM     11  C   UNL A   1      29.586  28.876  23.338  1.00  0.00     0.072 A 
ATOM     12  N   UNL A   1      28.902  26.756  23.658  1.00  0.00    -0.221 NA
ATOM     13  C   UNL A   1      28.489  28.035  23.419  1.00  0.00     0.108 A 
ATOM     14  C   UNL A   1      29.433  30.232  23.008  1.00  0.00     0.049 A 
ATOM     15  C   UNL A   1      27.204  28.568  23.253  1.00  0.00     0.141 A 
ATOM     16  C   UNL A   1      28.127  30.665  22.828  1.00  0.00     0.113 A 
ATOM     17  N   UNL A   1      27.034  29.884  22.956  1.00  0.00    -0.262 NA
BRANCH  10  18
ATOM     18  C   UNL A   1      32.023  28.678  23.681  1.00  0.00     0.116 C 
ATOM     19  C   UNL A   1      32.962  27.958  22.718  1.00  0.00     0.034 C 
BRANCH  18  20
ATOM     20  C   UNL A   1      32.613  29.209  25.009  1.00  0.00     0.141 C 
ATOM     21  C   UNL A   1      33.860  28.568  25.544  1.00  0.00     0.036 C 
ATOM     22  O   UNL A   1      31.627  29.196  26.048  1.00  0.00    -0.376 OA
ATOM     23  C   UNL A   1      33.513  28.023  26.904  1.00  0.00     0.031 C 
ATOM     24  C   UNL A   1      32.047  28.322  27.095  1.00  0.00     0.160 C 
ENDBRANCH  18  20
ENDBRANCH  10  18
ENDBRANCH   8   9
ENDBRANCH   7   8
ENDBRANCH   4   7
ENDBRANCH   2   3
ENDBRANCH   1   2
BRANCH   1  25
ATOM     25  C   UNL A   1      36.479  23.610  25.335  1.00  0.00     0.002 C 
BRANCH  25  26
ATOM     26  C   UNL A   1      36.836  22.522  24.318  1.00  0.00     0.002 C 
BRANCH  26  27
ATOM     27  C   UNL A   1      37.804  21.437  24.809  1.00  0.00     0.021 C 
BRANCH  27  28
ATOM     28  C   UNL A   1      38.534  21.777  26.106  1.00  0.00     0.116 C 
BRANCH  28  29
ATOM     29  N   UNL A   1      39.968  21.742  25.958  1.00  0.00    -0.352 N 
ATOM     30  C   UNL A   1      40.972  22.597  26.292  1.00  0.00     0.251 C 
ATOM     31  H   UNL A   1      40.290  20.921  25.521  1.00  0.00     0.163 HD
ATOM     32  O   UNL A   1      42.122  22.215  26.023  1.00  0.00    -0.269 OA
BRANCH  30  33
ATOM     33  C   UNL A   1      40.792  23.944  26.897  1.00  0.00     0.039 A 
ATOM     34  C   UNL A   1      39.850  24.899  26.513  1.00  0.00     0.014 A 
ATOM     35  C   UNL A   1      41.699  24.278  27.920  1.00  0.00     0.014 A 
ATOM     36  C   UNL A   1      39.876  26.176  27.059  1.00  0.00     0.010 A 
ATOM     37  C   UNL A   1      41.710  25.544  28.493  1.00  0.00     0.010 A 
ATOM     38  C   UNL A   1      40.827  26.509  28.027  1.00  0.00    -0.014 A 
BRANCH  38  39
ATOM     39  C   UNL A   1      40.796  27.867  28.559  1.00  0.00     0.031 A 
ATOM     40  C   UNL A   1      41.907  28.755  28.110  1.00  0.00     0.074 A 
ATOM     41  C   UNL A   1      39.824  28.339  29.362  1.00  0.00     0.049 A 
ATOM     42  N   UNL A   1      42.823  29.308  28.838  1.00  0.00    -0.248 NA
ATOM     43  C   UNL A   1      42.073  28.977  26.668  1.00  0.00     0.031 C 
ATOM     44  C   UNL A   1      38.542  27.725  29.712  1.00  0.00     0.029 A 
ATOM     45  N   UNL A   1      39.766  29.549  29.987  1.00  0.00    -0.354 N 
ATOM     46  C   UNL A   1      43.608  30.066  27.971  1.00  0.00     0.074 A 
ATOM     47  C   UNL A   1      43.163  29.746  26.639  1.00  0.00     0.031 C 
ATOM     48  C   UNL A   1      37.751  28.650  30.302  1.00  0.00     0.029 A 
ATOM     49  C   UNL A   1      38.520  29.867  30.503  1.00  0.00     0.049 A 
ATOM     50  H   UNL A   1      40.545  30.146  30.066  1.00  0.00     0.167 HD
ATOM     51  C   UNL A   1      44.459  31.026  28.431  1.00  0.00     0.037 A 
ATOM     52  C   UNL A   1      38.138  31.066  31.006  1.00  0.00     0.037 A 
ATOM     53  C   UNL A   1      44.771  30.829  29.821  1.00  0.00     0.049 A 
ATOM     54  C   UNL A   1      39.367  31.790  31.417  1.00  0.00     0.074 A 
ATOM     55  C   UNL A   1      45.389  29.823  30.540  1.00  0.00     0.029 A 
ATOM     56  N   UNL A   1      44.144  31.614  30.756  1.00  0.00    -0.354 N 
ATOM     57  N   UNL A   1      40.122  31.432  32.417  1.00  0.00    -0.248 NA
ATOM     58  C   UNL A   1      39.995  32.669  30.442  1.00  0.00     0.031 C 
ATOM     59  C   UNL A   1      44.682  29.769  31.778  1.00  0.00     0.029 A 
ATOM     60  C   UNL A   1      43.715  30.774  31.749  1.00  0.00     0.049 A 
ATOM     61  H   UNL A   1      44.026  32.590  30.719  1.00  0.00     0.167 HD
ATOM     62  C   UNL A   1      41.416  31.674  31.984  1.00  0.00     0.074 A 
ATOM     63  C   UNL A   1      41.272  32.519  30.802  1.00  0.00     0.031 C 
ATOM     64  C   UNL A   1      42.468  30.944  32.454  1.00  0.00     0.037 A 
BRANCH  51  65
ATOM     65  C   UNL A   1      44.757  32.325  27.722  1.00  0.00     0.064 A 
ATOM     66  C   UNL A   1      45.973  32.464  27.019  1.00  0.00     0.173 A 
ATOM     67  C   UNL A   1      44.057  33.524  27.967  1.00  0.00     0.173 A 
ATOM     68  F   UNL A   1      46.727  31.391  26.733  1.00  0.00    -0.203 F 
ATOM     69  C   UNL A   1      46.493  33.716  26.680  1.00  0.00     0.198 A 
ATOM     70  C   UNL A   1      44.555  34.769  27.582  1.00  0.00     0.198 A 
ATOM     71  F   UNL A   1      42.927  33.555  28.681  1.00  0.00    -0.203 F 
ATOM     72  F   UNL A   1      47.713  33.805  26.136  1.00  0.00    -0.200 F 
ATOM     73  C   UNL A   1      45.788  34.869  26.973  1.00  0.00     0.200 A 
ATOM     74  F   UNL A   1      43.863  35.876  27.886  1.00  0.00    -0.200 F 
ATOM     75  F   UNL A   1      46.314  36.073  26.715  1.00  0.00    -0.200 F 
ENDBRANCH  51  65
BRANCH  52  76
ATOM     76  C   UNL A   1      36.827  31.740  30.849  1.00  0.00     0.064 A 
ATOM     77  C   UNL A   1      35.986  31.955  31.953  1.00  0.00     0.173 A 
ATOM     78  C   UNL A   1      36.502  32.437  29.669  1.00  0.00     0.173 A 
ATOM     79  F   UNL A   1      36.251  31.367  33.129  1.00  0.00    -0.203 F 
ATOM     80  C   UNL A   1      34.901  32.837  31.885  1.00  0.00     0.198 A 
ATOM     81  C   UNL A   1      35.415  33.308  29.601  1.00  0.00     0.198 A 
ATOM     82  F   UNL A   1      37.288  32.363  28.585  1.00  0.00    -0.203 F 
ATOM     83  F   UNL A   1      34.159  33.067  32.978  1.00  0.00    -0.200 F 
ATOM     84  C   UNL A   1      34.624  33.520  30.713  1.00  0.00     0.200 A 
ATOM     85  F   UNL A   1      35.181  33.991  28.471  1.00  0.00    -0.200 F 
ATOM     86  F   UNL A   1      33.624  34.412  30.668  1.00  0.00    -0.200 F 
ENDBRANCH  52  76
BRANCH  64  87
ATOM     87  C   UNL A   1      42.237  30.042  33.633  1.00  0.00     0.064 A 
ATOM     88  C   UNL A   1      41.751  28.728  33.527  1.00  0.00     0.173 A 
ATOM     89  C   UNL A   1      42.698  30.460  34.890  1.00  0.00     0.173 A 
ATOM     90  F   UNL A   1      41.386  28.220  32.342  1.00  0.00    -0.203 F 
ATOM     91  C   UNL A   1      41.699  27.884  34.635  1.00  0.00     0.198 A 
ATOM     92  C   UNL A   1      42.680  29.603  35.985  1.00  0.00     0.198 A 
ATOM     93  F   UNL A   1      43.227  31.685  35.037  1.00  0.00    -0.203 F 
ATOM     94  F   UNL A   1      41.234  26.633  34.507  1.00  0.00    -0.200 F 
ATOM     95  C   UNL A   1      42.175  28.319  35.860  1.00  0.00     0.200 A 
ATOM     96  F   UNL A   1      43.190  30.010  37.157  1.00  0.00    -0.200 F 
ATOM     97  F   UNL A   1      42.179  27.490  36.914  1.00  0.00    -0.200 F 
ENDBRANCH  64  87
ENDBRANCH  38  39
ENDBRANCH  30  33
ENDBRANCH  28  29
ENDBRANCH  27  28
ENDBRANCH  26  27
ENDBRANCH  25  26
ENDBRANCH   1  25
TORSDOF 17
ENDMDL
MODEL 3
REMARK VINA RESULT:     -11.9      1.107      2.297
REMARK SMILES C[C@H]([C@@H]1CCCO1)n1c(SCC(=O)NCCCCCCNC(=O)c2ccc(-c3c4nc(c(-c5c(F)c(F)c(F)c(F)c5F)c5ccc([nH]5)c(-c5c(F)c(F)c(F)c(F)c5F)c5nc(c(-c6c(F)c(F)c(F)c(F)c6F)c6ccc3[nH]6)C=C5)C=C4)cc2)nc2cnccc21
REMARK SMILES IDX 16 1 15 2 14 3 12 4 13 5 11 7 10 8 9 9 8 10 93 11 87 12
REMARK SMILES IDX 88 13 92 14 89 15 91 16 90 17 2 18 1 19 3 20 4 21 7 22 5 23
REMARK SMILES IDX 6 24 17 25 18 26 19 27 20 28 21 29 22 30 23 32 24 33 25 34
REMARK SMILES IDX 86 35 26 36 85 37 27 38 28 39 29 40 79 41 30 42 84 43 78 44
REMARK SMILES IDX 80 45 31 46 83 47 77 48 76 49 32 51 64 52 44 53 63 54 45 55
REMARK SMILES IDX 48 56 62 57 81 58 46 59 47 60 61 62 82 63 49 64 33 65 34 66
REMARK SMILES IDX 42 67 35 68 36 69 40 70 43 71 37 72 38 73 41 74 39 75 65 76
REMARK SMILES IDX 66 77 74 78 67 79 68 80 72 81 75 82 69 83 70 84 73 85 71 86
REMARK SMILES IDX 50 87 51 88 59 89 52 90 53 91 57 92 60 93 54 94 55 95 58 96
REMARK SMILES IDX 56 97
REMARK H PARENT 14 6 21 31 80 50 48 61
REMARK Flexibility Score: inf
ROOT
ATOM      1  C   UNL A   1      32.671  27.937  25.195  1.00  0.00     0.021 C 
ENDROOT
BRANCH   1   2
ATOM      2  C   UNL A   1      32.353  26.485  25.489  1.00  0.00     0.116 C 
BRANCH   2   3
ATOM      3  N   UNL A   1      31.032  26.336  26.033  1.00  0.00    -0.355 N 
ATOM      4  C   UNL A   1      30.294  25.200  26.058  1.00  0.00     0.230 C 
ATOM      5  O   UNL A   1      29.319  25.171  26.813  1.00  0.00    -0.274 OA
ATOM      6  H   UNL A   1      30.621  27.140  26.426  1.00  0.00     0.163 HD
BRANCH   4   7
ATOM      7  C   UNL A   1      30.744  23.990  25.287  1.00  0.00     0.178 C 
BRANCH   7   8
ATOM      8  S   UNL A   1      31.823  22.768  26.003  1.00  0.00    -0.078 SA
BRANCH   8   9
ATOM      9  C   UNL A   1      33.455  22.488  25.501  1.00  0.00     0.169 A 
ATOM     10  N   UNL A   1      34.139  21.381  25.014  1.00  0.00    -0.313 N 
ATOM     11  C   UNL A   1      35.512  21.665  25.133  1.00  0.00     0.072 A 
ATOM     12  N   UNL A   1      34.317  23.378  25.971  1.00  0.00    -0.221 NA
ATOM     13  C   UNL A   1      35.575  22.876  25.799  1.00  0.00     0.108 A 
ATOM     14  C   UNL A   1      36.681  20.987  24.755  1.00  0.00     0.049 A 
ATOM     15  C   UNL A   1      36.825  23.387  26.173  1.00  0.00     0.141 A 
ATOM     16  C   UNL A   1      37.874  21.584  25.137  1.00  0.00     0.113 A 
ATOM     17  N   UNL A   1      37.969  22.734  25.836  1.00  0.00    -0.262 NA
BRANCH  10  18
ATOM     18  C   UNL A   1      33.732  20.140  24.355  1.00  0.00     0.116 C 
ATOM     19  C   UNL A   1      32.487  20.360  23.502  1.00  0.00     0.034 C 
BRANCH  18  20
ATOM     20  C   UNL A   1      33.874  18.790  25.096  1.00  0.00     0.141 C 
ATOM     21  C   UNL A   1      34.470  17.628  24.357  1.00  0.00     0.036 C 
ATOM     22  O   UNL A   1      32.617  18.372  25.641  1.00  0.00    -0.376 OA
ATOM     23  C   UNL A   1      33.427  16.543  24.351  1.00  0.00     0.031 C 
ATOM     24  C   UNL A   1      32.226  17.134  25.047  1.00  0.00     0.160 C 
ENDBRANCH  18  20
ENDBRANCH  10  18
ENDBRANCH   8   9
ENDBRANCH   7   8
ENDBRANCH   4   7
ENDBRANCH   2   3
ENDBRANCH   1   2
BRANCH   1  25
ATOM     25  C   UNL A   1      33.992  28.426  25.794  1.00  0.00     0.002 C 
BRANCH  25  26
ATOM     26  C   UNL A   1      33.909  28.975  27.221  1.00  0.00     0.002 C 
BRANCH  26  27
ATOM     27  C   UNL A   1      33.404  30.417  27.356  1.00  0.00     0.021 C 
BRANCH  27  28
ATOM     28  C   UNL A   1      34.495  31.450  27.630  1.00  0.00     0.116 C 
BRANCH  28  29
ATOM     29  N   UNL A   1      34.408  32.005  28.958  1.00  0.00    -0.352 N 
ATOM     30  C   UNL A   1      35.222  31.977  30.046  1.00  0.00     0.251 C 
ATOM     31  H   UNL A   1      33.580  32.516  29.109  1.00  0.00     0.163 HD
ATOM     32  O   UNL A   1      34.821  32.604  31.040  1.00  0.00    -0.269 OA
BRANCH  30  33
ATOM     33  C   UNL A   1      36.503  31.228  30.146  1.00  0.00     0.039 A 
ATOM     34  C   UNL A   1      37.784  31.770  30.028  1.00  0.00     0.014 A 
ATOM     35  C   UNL A   1      36.383  29.838  30.332  1.00  0.00     0.014 A 
ATOM     36  C   UNL A   1      38.900  30.943  29.996  1.00  0.00     0.010 A 
ATOM     37  C   UNL A   1      37.498  29.008  30.333  1.00  0.00     0.010 A 
ATOM     38  C   UNL A   1      38.755  29.558  30.116  1.00  0.00    -0.014 A 
BRANCH  38  39
ATOM     39  C   UNL A   1      39.968  28.750  30.076  1.00  0.00     0.031 A 
ATOM     40  C   UNL A   1      40.668  28.581  31.382  1.00  0.00     0.074 A 
ATOM     41  C   UNL A   1      40.431  28.141  28.967  1.00  0.00     0.049 A 
ATOM     42  N   UNL A   1      41.858  28.979  31.701  1.00  0.00    -0.248 NA
ATOM     43  C   UNL A   1      39.918  27.982  32.494  1.00  0.00     0.031 C 
ATOM     44  C   UNL A   1      39.777  27.975  27.669  1.00  0.00     0.029 A 
ATOM     45  N   UNL A   1      41.601  27.459  28.812  1.00  0.00    -0.354 N 
ATOM     46  C   UNL A   1      42.071  28.561  33.014  1.00  0.00     0.074 A 
ATOM     47  C   UNL A   1      40.811  28.044  33.483  1.00  0.00     0.031 C 
ATOM     48  C   UNL A   1      40.460  27.064  26.939  1.00  0.00     0.029 A 
ATOM     49  C   UNL A   1      41.669  26.698  27.656  1.00  0.00     0.049 A 
ATOM     50  H   UNL A   1      42.336  27.505  29.465  1.00  0.00     0.167 HD
ATOM     51  C   UNL A   1      43.319  28.526  33.559  1.00  0.00     0.037 A 
ATOM     52  C   UNL A   1      42.627  25.791  27.344  1.00  0.00     0.037 A 
ATOM     53  C   UNL A   1      44.234  29.364  32.831  1.00  0.00     0.049 A 
ATOM     54  C   UNL A   1      43.837  26.129  28.136  1.00  0.00     0.074 A 
ATOM     55  C   UNL A   1      44.301  30.719  32.564  1.00  0.00     0.029 A 
ATOM     56  N   UNL A   1      45.118  28.776  31.961  1.00  0.00    -0.354 N 
ATOM     57  N   UNL A   1      44.559  27.195  27.942  1.00  0.00    -0.248 NA
ATOM     58  C   UNL A   1      43.996  25.492  29.435  1.00  0.00     0.031 C 
ATOM     59  C   UNL A   1      44.816  30.806  31.237  1.00  0.00     0.029 A 
ATOM     60  C   UNL A   1      45.072  29.506  30.803  1.00  0.00     0.049 A 
ATOM     61  H   UNL A   1      45.676  27.985  32.136  1.00  0.00     0.167 HD
ATOM     62  C   UNL A   1      44.924  27.608  29.214  1.00  0.00     0.074 A 
ATOM     63  C   UNL A   1      44.628  26.473  30.083  1.00  0.00     0.031 C 
ATOM     64  C   UNL A   1      45.170  28.922  29.488  1.00  0.00     0.037 A 
BRANCH  51  65
ATOM     65  C   UNL A   1      43.798  27.493  34.549  1.00  0.00     0.064 A 
ATOM     66  C   UNL A   1      43.919  26.148  34.139  1.00  0.00     0.173 A 
ATOM     67  C   UNL A   1      43.837  27.708  35.942  1.00  0.00     0.173 A 
ATOM     68  F   UNL A   1      43.891  25.822  32.837  1.00  0.00    -0.203 F 
ATOM     69  C   UNL A   1      43.971  25.095  35.058  1.00  0.00     0.198 A 
ATOM     70  C   UNL A   1      43.940  26.659  36.855  1.00  0.00     0.198 A 
ATOM     71  F   UNL A   1      43.664  28.920  36.480  1.00  0.00    -0.203 F 
ATOM     72  F   UNL A   1      43.948  23.830  34.621  1.00  0.00    -0.200 F 
ATOM     73  C   UNL A   1      43.969  25.352  36.416  1.00  0.00     0.200 A 
ATOM     74  F   UNL A   1      43.923  26.926  38.168  1.00  0.00    -0.200 F 
ATOM     75  F   UNL A   1      43.947  24.345  37.299  1.00  0.00    -0.200 F 
ENDBRANCH  51  65
BRANCH  52  76
ATOM     76  C   UNL A   1      42.453  24.485  26.666  1.00  0.00     0.064 A 
ATOM     77  C   UNL A   1      43.325  24.078  25.642  1.00  0.00     0.173 A 
ATOM     78  C   UNL A   1      41.608  23.493  27.199  1.00  0.00     0.173 A 
ATOM     79  F   UNL A   1      44.197  24.948  25.112  1.00  0.00    -0.203 F 
ATOM     80  C   UNL A   1      43.366  22.750  25.200  1.00  0.00     0.198 A 
ATOM     81  C   UNL A   1      41.644  22.173  26.751  1.00  0.00     0.198 A 
ATOM     82  F   UNL A   1      40.798  23.761  28.234  1.00  0.00    -0.203 F 
ATOM     83  F   UNL A   1      44.257  22.383  24.268  1.00  0.00    -0.200 F 
ATOM     84  C   UNL A   1      42.533  21.797  25.763  1.00  0.00     0.200 A 
ATOM     85  F   UNL A   1      40.858  21.253  27.331  1.00  0.00    -0.200 F 
ATOM     86  F   UNL A   1      42.617  20.514  25.385  1.00  0.00    -0.200 F 
ENDBRANCH  52  76
BRANCH  64  87
ATOM     87  C   UNL A   1      45.284  29.879  28.336  1.00  0.00     0.064 A 
ATOM     88  C   UNL A   1      44.183  30.519  27.742  1.00  0.00     0.173 A 
ATOM     89  C   UNL A   1      46.563  30.302  27.947  1.00  0.00     0.173 A 
ATOM     90  F   UNL A   1      42.931  30.244  28.133  1.00  0.00    -0.203 F 
ATOM     91  C   UNL A   1      44.357  31.512  26.779  1.00  0.00     0.198 A 
ATOM     92  C   UNL A   1      46.733  31.319  27.013  1.00  0.00     0.198 A 
ATOM     93  F   UNL A   1      47.651  29.767  28.524  1.00  0.00    -0.203 F 
ATOM     94  F   UNL A   1      43.289  32.109  26.229  1.00  0.00    -0.200 F 
ATOM     95  C   UNL A   1      45.631  31.918  26.425  1.00  0.00     0.200 A 
ATOM     96  F   UNL A   1      47.968  31.747  26.713  1.00  0.00    -0.200 F 
ATOM     97  F   UNL A   1      45.799  32.913  25.541  1.00  0.00    -0.200 F 
ENDBRANCH  64  87
ENDBRANCH  38  39
ENDBRANCH  30  33
ENDBRANCH  28  29
ENDBRANCH  27  28
ENDBRANCH  26  27
ENDBRANCH  25  26
ENDBRANCH   1  25
TORSDOF 17
ENDMDL
