MODEL 1
REMARK VINA RESULT:     -11.5      0.000      0.000
REMARK SMILES CC(C)(C)c1cc(NC(=O)CSC[C@H]([NH3+])C(=O)NCCCCCCNC(=O)c2ccc(-c3c4nc(c(-c5c(F)c(F)c(F)c(F)c5F)c5ccc([nH]5)c(-c5c(F)c(F)c(F)c(F)c5F)c5nc(c(-c6c(F)c(F)c(F)c(F)c6F)c6ccc3[nH]6)C=C5)C=C4)cc2)on1
REMARK SMILES IDX 19 1 18 2 16 3 17 4 14 6 13 7 12 8 11 9 9 10 8 11 10 13 7 14
REMARK SMILES IDX 5 15 6 16 92 17 91 18 2 19 1 20 3 21 4 22 15 23 20 27 21 28
REMARK SMILES IDX 22 29 23 30 24 31 25 32 26 33 27 35 28 36 29 37 90 38 30 39
REMARK SMILES IDX 89 40 31 41 32 42 33 43 83 44 34 45 88 46 82 47 84 48 35 49
REMARK SMILES IDX 87 50 81 51 80 52 36 54 68 55 48 56 67 57 49 58 52 59 66 60
REMARK SMILES IDX 85 61 50 62 51 63 65 65 86 66 53 67 37 68 38 69 46 70 39 71
REMARK SMILES IDX 40 72 44 73 47 74 41 75 42 76 45 77 43 78 69 79 70 80 78 81
REMARK SMILES IDX 71 82 72 83 76 84 79 85 73 86 74 87 77 88 75 89 54 90 55 91
REMARK SMILES IDX 63 92 56 93 57 94 61 95 64 96 58 97 59 98 62 99 60 100
REMARK H PARENT 18 5 8 12 15 24 15 25 15 26 25 34 84 53 52 64
REMARK Flexibility Score: inf
ROOT
ATOM      1  C   UNL A   1      33.683  28.536  24.974  1.00  0.00     0.116 C 
ENDROOT
BRANCH   1   2
ATOM      2  N   UNL A   1      33.970  27.202  24.481  1.00  0.00    -0.351 N 
ATOM      3  C   UNL A   1      33.264  26.360  23.678  1.00  0.00     0.279 C 
ATOM      4  O   UNL A   1      33.752  25.253  23.440  1.00  0.00    -0.268 OA
ATOM      5  H   UNL A   1      34.833  26.839  24.783  1.00  0.00     0.163 HD
BRANCH   3   6
ATOM      6  C   UNL A   1      31.930  26.792  23.062  1.00  0.00     0.280 C 
BRANCH   6   7
ATOM      7  C   UNL A   1      30.786  25.866  23.512  1.00  0.00     0.145 C 
BRANCH   7   8
ATOM      8  S   UNL A   1      30.727  25.505  25.303  1.00  0.00    -0.145 SA
BRANCH   8   9
ATOM      9  C   UNL A   1      30.745  23.677  25.391  1.00  0.00     0.170 C 
BRANCH   9  10
ATOM     10  C   UNL A   1      31.019  23.077  26.761  1.00  0.00     0.236 C 
ATOM     11  N   UNL A   1      32.206  22.514  27.122  1.00  0.00    -0.294 N 
ATOM     12  H   UNL A   1      32.290  22.259  28.068  1.00  0.00     0.173 HD
ATOM     13  O   UNL A   1      30.125  23.042  27.617  1.00  0.00    -0.274 OA
BRANCH  11  14
ATOM     14  C   UNL A   1      33.292  22.259  26.337  1.00  0.00     0.231 A 
ATOM     15  C   UNL A   1      35.219  22.206  25.262  1.00  0.00     0.091 A 
ATOM     16  C   UNL A   1      34.460  22.966  26.188  1.00  0.00     0.097 A 
ATOM     17  N   UNL A   1      34.541  21.115  24.882  1.00  0.00    -0.082 NA
ATOM     18  O   UNL A   1      33.355  21.143  25.574  1.00  0.00    -0.338 OA
BRANCH  15  19
ATOM     19  C   UNL A   1      36.595  22.465  24.691  1.00  0.00     0.008 C 
ATOM     20  C   UNL A   1      37.307  23.621  25.422  1.00  0.00     0.018 C 
ATOM     21  C   UNL A   1      36.478  22.832  23.198  1.00  0.00     0.018 C 
ATOM     22  C   UNL A   1      37.475  21.204  24.832  1.00  0.00     0.018 C 
ENDBRANCH  15  19
ENDBRANCH  11  14
ENDBRANCH   9  10
ENDBRANCH   8   9
ENDBRANCH   7   8
ENDBRANCH   6   7
BRANCH   6  23
ATOM     23  N   UNL A   1      32.049  26.902  21.585  1.00  0.00    -0.347 N 
ATOM     24  H   UNL A   1      31.617  27.773  21.273  1.00  0.00     0.345 HD
ATOM     25  H   UNL A   1      31.574  26.112  21.146  1.00  0.00     0.345 HD
ATOM     26  H   UNL A   1      33.033  26.897  21.322  1.00  0.00     0.345 HD
ENDBRANCH   6  23
ENDBRANCH   3   6
ENDBRANCH   1   2
BRANCH   1  27
ATOM     27  C   UNL A   1      33.966  28.625  26.468  1.00  0.00     0.021 C 
BRANCH  27  28
ATOM     28  C   UNL A   1      33.212  29.756  27.179  1.00  0.00     0.002 C 
BRANCH  28  29
ATOM     29  C   UNL A   1      31.996  30.304  26.426  1.00  0.00     0.002 C 
BRANCH  29  30
ATOM     30  C   UNL A   1      31.682  31.778  26.689  1.00  0.00     0.021 C 
BRANCH  30  31
ATOM     31  C   UNL A   1      32.798  32.553  27.381  1.00  0.00     0.116 C 
BRANCH  31  32
ATOM     32  N   UNL A   1      32.450  33.947  27.609  1.00  0.00    -0.352 N 
ATOM     33  C   UNL A   1      32.980  34.840  28.506  1.00  0.00     0.251 C 
ATOM     34  H   UNL A   1      31.730  34.299  27.038  1.00  0.00     0.163 HD
ATOM     35  O   UNL A   1      32.451  35.933  28.682  1.00  0.00    -0.269 OA
BRANCH  33  36
ATOM     36  C   UNL A   1      34.173  34.465  29.289  1.00  0.00     0.039 A 
ATOM     37  C   UNL A   1      33.997  33.915  30.561  1.00  0.00     0.014 A 
ATOM     38  C   UNL A   1      35.456  34.620  28.758  1.00  0.00     0.014 A 
ATOM     39  C   UNL A   1      35.103  33.437  31.264  1.00  0.00     0.010 A 
ATOM     40  C   UNL A   1      36.550  34.080  29.429  1.00  0.00     0.010 A 
ATOM     41  C   UNL A   1      36.380  33.468  30.681  1.00  0.00    -0.014 A 
BRANCH  41  42
ATOM     42  C   UNL A   1      37.536  32.805  31.332  1.00  0.00     0.031 A 
ATOM     43  C   UNL A   1      38.190  31.612  30.699  1.00  0.00     0.074 A 
ATOM     44  C   UNL A   1      37.933  33.225  32.549  1.00  0.00     0.049 A 
ATOM     45  N   UNL A   1      39.148  30.851  31.163  1.00  0.00    -0.248 NA
ATOM     46  C   UNL A   1      37.681  31.205  29.382  1.00  0.00     0.031 C 
ATOM     47  C   UNL A   1      37.337  34.337  33.290  1.00  0.00     0.029 A 
ATOM     48  N   UNL A   1      38.912  32.753  33.387  1.00  0.00    -0.354 N 
ATOM     49  C   UNL A   1      39.347  29.867  30.204  1.00  0.00     0.074 A 
ATOM     50  C   UNL A   1      38.379  30.101  29.154  1.00  0.00     0.031 C 
ATOM     51  C   UNL A   1      37.964  34.465  34.469  1.00  0.00     0.029 A 
ATOM     52  C   UNL A   1      38.973  33.417  34.588  1.00  0.00     0.049 A 
ATOM     53  H   UNL A   1      39.513  32.010  33.151  1.00  0.00     0.167 HD
ATOM     54  C   UNL A   1      40.267  28.872  30.196  1.00  0.00     0.037 A 
ATOM     55  C   UNL A   1      39.735  33.192  35.675  1.00  0.00     0.037 A 
ATOM     56  C   UNL A   1      41.233  28.653  31.242  1.00  0.00     0.049 A 
ATOM     57  C   UNL A   1      40.735  32.071  35.652  1.00  0.00     0.074 A 
ATOM     58  C   UNL A   1      42.264  27.732  31.286  1.00  0.00     0.029 A 
ATOM     59  N   UNL A   1      41.273  29.353  32.441  1.00  0.00    -0.354 N 
ATOM     60  N   UNL A   1      40.983  31.207  34.698  1.00  0.00    -0.248 NA
ATOM     61  C   UNL A   1      41.562  31.893  36.853  1.00  0.00     0.031 C 
ATOM     62  C   UNL A   1      42.882  27.825  32.537  1.00  0.00     0.029 A 
ATOM     63  C   UNL A   1      42.279  28.850  33.251  1.00  0.00     0.049 A 
ATOM     64  H   UNL A   1      40.675  30.098  32.680  1.00  0.00     0.167 HD
ATOM     65  C   UNL A   1      41.997  30.389  35.176  1.00  0.00     0.074 A 
ATOM     66  C   UNL A   1      42.336  30.877  36.498  1.00  0.00     0.031 C 
ATOM     67  C   UNL A   1      42.592  29.329  34.574  1.00  0.00     0.037 A 
BRANCH  54  68
ATOM     68  C   UNL A   1      40.255  27.928  29.027  1.00  0.00     0.064 A 
ATOM     69  C   UNL A   1      40.958  28.202  27.843  1.00  0.00     0.173 A 
ATOM     70  C   UNL A   1      39.546  26.718  29.099  1.00  0.00     0.173 A 
ATOM     71  F   UNL A   1      41.648  29.346  27.717  1.00  0.00    -0.203 F 
ATOM     72  C   UNL A   1      40.917  27.323  26.763  1.00  0.00     0.198 A 
ATOM     73  C   UNL A   1      39.536  25.826  28.032  1.00  0.00     0.198 A 
ATOM     74  F   UNL A   1      38.862  26.400  30.210  1.00  0.00    -0.203 F 
ATOM     75  F   UNL A   1      41.546  27.637  25.622  1.00  0.00    -0.200 F 
ATOM     76  C   UNL A   1      40.211  26.134  26.860  1.00  0.00     0.200 A 
ATOM     77  F   UNL A   1      38.865  24.670  28.133  1.00  0.00    -0.200 F 
ATOM     78  F   UNL A   1      40.173  25.288  25.822  1.00  0.00    -0.200 F 
ENDBRANCH  54  68
BRANCH  55  79
ATOM     79  C   UNL A   1      39.564  34.052  36.875  1.00  0.00     0.064 A 
ATOM     80  C   UNL A   1      38.768  33.643  37.953  1.00  0.00     0.173 A 
ATOM     81  C   UNL A   1      40.226  35.285  36.984  1.00  0.00     0.173 A 
ATOM     82  F   UNL A   1      38.102  32.481  37.889  1.00  0.00    -0.203 F 
ATOM     83  C   UNL A   1      38.636  34.436  39.091  1.00  0.00     0.198 A 
ATOM     84  C   UNL A   1      40.117  36.063  38.133  1.00  0.00     0.198 A 
ATOM     85  F   UNL A   1      41.007  35.718  35.982  1.00  0.00    -0.203 F 
ATOM     86  F   UNL A   1      37.846  34.035  40.096  1.00  0.00    -0.200 F 
ATOM     87  C   UNL A   1      39.318  35.640  39.184  1.00  0.00     0.200 A 
ATOM     88  F   UNL A   1      40.796  37.213  38.228  1.00  0.00    -0.200 F 
ATOM     89  F   UNL A   1      39.207  36.392  40.287  1.00  0.00    -0.200 F 
ENDBRANCH  55  79
BRANCH  67  90
ATOM     90  C   UNL A   1      43.669  28.616  35.342  1.00  0.00     0.064 A 
ATOM     91  C   UNL A   1      45.018  28.979  35.221  1.00  0.00     0.173 A 
ATOM     92  C   UNL A   1      43.344  27.591  36.244  1.00  0.00     0.173 A 
ATOM     93  F   UNL A   1      45.384  29.940  34.359  1.00  0.00    -0.203 F 
ATOM     94  C   UNL A   1      46.004  28.331  35.961  1.00  0.00     0.198 A 
ATOM     95  C   UNL A   1      44.328  26.967  37.006  1.00  0.00     0.198 A 
ATOM     96  F   UNL A   1      42.068  27.207  36.401  1.00  0.00    -0.203 F 
ATOM     97  F   UNL A   1      47.291  28.665  35.796  1.00  0.00    -0.200 F 
ATOM     98  C   UNL A   1      45.657  27.333  36.859  1.00  0.00     0.200 A 
ATOM     99  F   UNL A   1      43.990  26.013  37.884  1.00  0.00    -0.200 F 
ATOM    100  F   UNL A   1      46.606  26.719  37.579  1.00  0.00    -0.200 F 
ENDBRANCH  67  90
ENDBRANCH  41  42
ENDBRANCH  33  36
ENDBRANCH  31  32
ENDBRANCH  30  31
ENDBRANCH  29  30
ENDBRANCH  28  29
ENDBRANCH  27  28
ENDBRANCH   1  27
TORSDOF 20
ENDMDL
MODEL 2
REMARK VINA RESULT:     -11.4      1.606      4.188
REMARK SMILES CC(C)(C)c1cc(NC(=O)CSC[C@H]([NH3+])C(=O)NCCCCCCNC(=O)c2ccc(-c3c4nc(c(-c5c(F)c(F)c(F)c(F)c5F)c5ccc([nH]5)c(-c5c(F)c(F)c(F)c(F)c5F)c5nc(c(-c6c(F)c(F)c(F)c(F)c6F)c6ccc3[nH]6)C=C5)C=C4)cc2)on1
REMARK SMILES IDX 19 1 18 2 16 3 17 4 14 6 13 7 12 8 11 9 9 10 8 11 10 13 7 14
REMARK SMILES IDX 5 15 6 16 92 17 91 18 2 19 1 20 3 21 4 22 15 23 20 27 21 28
REMARK SMILES IDX 22 29 23 30 24 31 25 32 26 33 27 35 28 36 29 37 90 38 30 39
REMARK SMILES IDX 89 40 31 41 32 42 33 43 83 44 34 45 88 46 82 47 84 48 35 49
REMARK SMILES IDX 87 50 81 51 80 52 36 54 68 55 48 56 67 57 49 58 52 59 66 60
REMARK SMILES IDX 85 61 50 62 51 63 65 65 86 66 53 67 37 68 38 69 46 70 39 71
REMARK SMILES IDX 40 72 44 73 47 74 41 75 42 76 45 77 43 78 69 79 70 80 78 81
REMARK SMILES IDX 71 82 72 83 76 84 79 85 73 86 74 87 77 88 75 89 54 90 55 91
REMARK SMILES IDX 63 92 56 93 57 94 61 95 64 96 58 97 59 98 62 99 60 100
REMARK H PARENT 18 5 8 12 15 24 15 25 15 26 25 34 84 53 52 64
REMARK Flexibility Score: inf
ROOT
ATOM      1  C   UNL A   1      31.721  27.302  26.180  1.00  0.00     0.116 C 
ENDROOT
BRANCH   1   2
ATOM      2  N   UNL A   1      31.366  26.045  26.810  1.00  0.00    -0.351 N 
ATOM      3  C   UNL A   1      31.748  24.763  26.558  1.00  0.00     0.279 C 
ATOM      4  O   UNL A   1      31.256  23.871  27.252  1.00  0.00    -0.268 OA
ATOM      5  H   UNL A   1      30.732  26.135  27.557  1.00  0.00     0.163 HD
BRANCH   3   6
ATOM      6  C   UNL A   1      32.784  24.449  25.473  1.00  0.00     0.280 C 
BRANCH   6   7
ATOM      7  C   UNL A   1      32.266  23.364  24.511  1.00  0.00     0.145 C 
BRANCH   7   8
ATOM      8  S   UNL A   1      32.325  23.797  22.736  1.00  0.00    -0.145 SA
BRANCH   8   9
ATOM      9  C   UNL A   1      31.790  25.547  22.685  1.00  0.00     0.170 C 
BRANCH   9  10
ATOM     10  C   UNL A   1      32.820  26.546  22.181  1.00  0.00     0.236 C 
ATOM     11  N   UNL A   1      32.660  27.897  22.234  1.00  0.00    -0.294 N 
ATOM     12  H   UNL A   1      33.443  28.433  21.974  1.00  0.00     0.173 HD
ATOM     13  O   UNL A   1      33.864  26.148  21.646  1.00  0.00    -0.274 OA
BRANCH  11  14
ATOM     14  C   UNL A   1      31.552  28.602  22.604  1.00  0.00     0.231 A 
ATOM     15  C   UNL A   1      29.572  29.546  22.852  1.00  0.00     0.091 A 
ATOM     16  C   UNL A   1      30.321  28.692  22.002  1.00  0.00     0.097 A 
ATOM     17  N   UNL A   1      30.315  29.941  23.893  1.00  0.00    -0.082 NA
ATOM     18  O   UNL A   1      31.536  29.329  23.745  1.00  0.00    -0.338 OA
BRANCH  15  19
ATOM     19  C   UNL A   1      28.145  30.032  22.726  1.00  0.00     0.008 C 
ATOM     20  C   UNL A   1      27.816  30.466  21.284  1.00  0.00     0.018 C 
ATOM     21  C   UNL A   1      27.923  31.236  23.661  1.00  0.00     0.018 C 
ATOM     22  C   UNL A   1      27.165  28.904  23.115  1.00  0.00     0.018 C 
ENDBRANCH  15  19
ENDBRANCH  11  14
ENDBRANCH   9  10
ENDBRANCH   8   9
ENDBRANCH   7   8
ENDBRANCH   6   7
BRANCH   6  23
ATOM     23  N   UNL A   1      34.094  24.112  26.086  1.00  0.00    -0.347 N 
ATOM     24  H   UNL A   1      34.807  24.063  25.357  1.00  0.00     0.345 HD
ATOM     25  H   UNL A   1      34.027  23.209  26.556  1.00  0.00     0.345 HD
ATOM     26  H   UNL A   1      34.348  24.830  26.762  1.00  0.00     0.345 HD
ENDBRANCH   6  23
ENDBRANCH   3   6
ENDBRANCH   1   2
BRANCH   1  27
ATOM     27  C   UNL A   1      33.077  27.786  26.680  1.00  0.00     0.021 C 
BRANCH  27  28
ATOM     28  C   UNL A   1      33.141  29.296  26.945  1.00  0.00     0.002 C 
BRANCH  28  29
ATOM     29  C   UNL A   1      31.784  29.986  27.119  1.00  0.00     0.002 C 
BRANCH  29  30
ATOM     30  C   UNL A   1      31.765  31.473  26.765  1.00  0.00     0.021 C 
BRANCH  30  31
ATOM     31  C   UNL A   1      32.911  32.284  27.360  1.00  0.00     0.116 C 
BRANCH  31  32
ATOM     32  N   UNL A   1      32.550  33.674  27.589  1.00  0.00    -0.352 N 
ATOM     33  C   UNL A   1      33.067  34.570  28.491  1.00  0.00     0.251 C 
ATOM     34  H   UNL A   1      31.829  34.021  27.016  1.00  0.00     0.163 HD
ATOM     35  O   UNL A   1      32.527  35.658  28.667  1.00  0.00    -0.269 OA
BRANCH  33  36
ATOM     36  C   UNL A   1      34.260  34.204  29.279  1.00  0.00     0.039 A 
ATOM     37  C   UNL A   1      34.082  33.633  30.541  1.00  0.00     0.014 A 
ATOM     38  C   UNL A   1      35.545  34.388  28.761  1.00  0.00     0.014 A 
ATOM     39  C   UNL A   1      35.190  33.164  31.247  1.00  0.00     0.010 A 
ATOM     40  C   UNL A   1      36.641  33.857  29.434  1.00  0.00     0.010 A 
ATOM     41  C   UNL A   1      36.472  33.224  30.676  1.00  0.00    -0.014 A 
BRANCH  41  42
ATOM     42  C   UNL A   1      37.633  32.571  31.327  1.00  0.00     0.031 A 
ATOM     43  C   UNL A   1      38.301  31.388  30.691  1.00  0.00     0.074 A 
ATOM     44  C   UNL A   1      38.022  32.990  32.547  1.00  0.00     0.049 A 
ATOM     45  N   UNL A   1      39.266  30.635  31.155  1.00  0.00    -0.248 NA
ATOM     46  C   UNL A   1      37.801  30.981  29.370  1.00  0.00     0.031 C 
ATOM     47  C   UNL A   1      37.412  34.093  33.291  1.00  0.00     0.029 A 
ATOM     48  N   UNL A   1      39.004  32.526  33.386  1.00  0.00    -0.354 N 
ATOM     49  C   UNL A   1      39.480  29.658  30.192  1.00  0.00     0.074 A 
ATOM     50  C   UNL A   1      38.512  29.886  29.140  1.00  0.00     0.031 C 
ATOM     51  C   UNL A   1      38.034  34.223  34.472  1.00  0.00     0.029 A 
ATOM     52  C   UNL A   1      39.054  33.185  34.589  1.00  0.00     0.049 A 
ATOM     53  H   UNL A   1      39.613  31.790  33.148  1.00  0.00     0.167 HD
ATOM     54  C   UNL A   1      40.410  28.673  30.182  1.00  0.00     0.037 A 
ATOM     55  C   UNL A   1      39.816  32.965  35.678  1.00  0.00     0.037 A 
ATOM     56  C   UNL A   1      41.375  28.461  31.231  1.00  0.00     0.049 A 
ATOM     57  C   UNL A   1      40.828  31.854  35.653  1.00  0.00     0.074 A 
ATOM     58  C   UNL A   1      42.416  27.551  31.273  1.00  0.00     0.029 A 
ATOM     59  N   UNL A   1      41.405  29.156  32.432  1.00  0.00    -0.354 N 
ATOM     60  N   UNL A   1      41.088  30.997  34.696  1.00  0.00    -0.248 NA
ATOM     61  C   UNL A   1      41.653  31.681  36.855  1.00  0.00     0.031 C 
ATOM     62  C   UNL A   1      43.030  27.646  32.526  1.00  0.00     0.029 A 
ATOM     63  C   UNL A   1      42.414  28.660  33.243  1.00  0.00     0.049 A 
ATOM     64  H   UNL A   1      40.798  29.894  32.672  1.00  0.00     0.167 HD
ATOM     65  C   UNL A   1      42.110  30.188  35.173  1.00  0.00     0.074 A 
ATOM     66  C   UNL A   1      42.440  30.675  36.498  1.00  0.00     0.031 C 
ATOM     67  C   UNL A   1      42.718  29.137  34.569  1.00  0.00     0.037 A 
BRANCH  54  68
ATOM     68  C   UNL A   1      40.412  27.734  29.009  1.00  0.00     0.064 A 
ATOM     69  C   UNL A   1      39.648  26.556  28.998  1.00  0.00     0.173 A 
ATOM     70  C   UNL A   1      41.175  28.027  27.868  1.00  0.00     0.173 A 
ATOM     71  F   UNL A   1      38.905  26.224  30.065  1.00  0.00    -0.203 F 
ATOM     72  C   UNL A   1      39.681  25.689  27.909  1.00  0.00     0.198 A 
ATOM     73  C   UNL A   1      41.178  27.176  26.766  1.00  0.00     0.198 A 
ATOM     74  F   UNL A   1      41.918  29.144  27.819  1.00  0.00    -0.203 F 
ATOM     75  F   UNL A   1      38.991  24.540  27.949  1.00  0.00    -0.200 F 
ATOM     76  C   UNL A   1      40.441  26.002  26.792  1.00  0.00     0.200 A 
ATOM     77  F   UNL A   1      41.901  27.489  25.682  1.00  0.00    -0.200 F 
ATOM     78  F   UNL A   1      40.470  25.168  25.744  1.00  0.00    -0.200 F 
ENDBRANCH  54  68
BRANCH  55  79
ATOM     79  C   UNL A   1      39.632  33.817  36.881  1.00  0.00     0.064 A 
ATOM     80  C   UNL A   1      40.241  35.074  36.980  1.00  0.00     0.173 A 
ATOM     81  C   UNL A   1      38.809  33.405  37.942  1.00  0.00     0.173 A 
ATOM     82  F   UNL A   1      41.050  35.504  36.001  1.00  0.00    -0.203 F 
ATOM     83  C   UNL A   1      40.040  35.884  38.095  1.00  0.00     0.198 A 
ATOM     84  C   UNL A   1      38.586  34.228  39.042  1.00  0.00     0.198 A 
ATOM     85  F   UNL A   1      38.195  32.212  37.892  1.00  0.00    -0.203 F 
ATOM     86  F   UNL A   1      40.657  37.071  38.179  1.00  0.00    -0.200 F 
ATOM     87  C   UNL A   1      39.205  35.465  39.120  1.00  0.00     0.200 A 
ATOM     88  F   UNL A   1      37.760  33.828  40.018  1.00  0.00    -0.200 F 
ATOM     89  F   UNL A   1      38.996  36.254  40.183  1.00  0.00    -0.200 F 
ENDBRANCH  55  79
BRANCH  67  90
ATOM     90  C   UNL A   1      43.800  28.433  35.337  1.00  0.00     0.064 A 
ATOM     91  C   UNL A   1      43.510  27.375  36.211  1.00  0.00     0.173 A 
ATOM     92  C   UNL A   1      45.147  28.786  35.160  1.00  0.00     0.173 A 
ATOM     93  F   UNL A   1      42.237  27.011  36.430  1.00  0.00    -0.203 F 
ATOM     94  C   UNL A   1      44.525  26.710  36.894  1.00  0.00     0.198 A 
ATOM     95  C   UNL A   1      46.162  28.098  35.819  1.00  0.00     0.198 A 
ATOM     96  F   UNL A   1      45.480  29.788  34.332  1.00  0.00    -0.203 F 
ATOM     97  F   UNL A   1      44.219  25.733  37.758  1.00  0.00    -0.200 F 
ATOM     98  C   UNL A   1      45.850  27.065  36.690  1.00  0.00     0.200 A 
ATOM     99  F   UNL A   1      47.442  28.433  35.610  1.00  0.00    -0.200 F 
ATOM    100  F   UNL A   1      46.826  26.416  37.339  1.00  0.00    -0.200 F 
ENDBRANCH  67  90
ENDBRANCH  41  42
ENDBRANCH  33  36
ENDBRANCH  31  32
ENDBRANCH  30  31
ENDBRANCH  29  30
ENDBRANCH  28  29
ENDBRANCH  27  28
ENDBRANCH   1  27
TORSDOF 20
ENDMDL
MODEL 3
REMARK VINA RESULT:     -11.3      5.450     11.154
REMARK SMILES CC(C)(C)c1cc(NC(=O)CSC[C@H]([NH3+])C(=O)NCCCCCCNC(=O)c2ccc(-c3c4nc(c(-c5c(F)c(F)c(F)c(F)c5F)c5ccc([nH]5)c(-c5c(F)c(F)c(F)c(F)c5F)c5nc(c(-c6c(F)c(F)c(F)c(F)c6F)c6ccc3[nH]6)C=C5)C=C4)cc2)on1
REMARK SMILES IDX 19 1 18 2 16 3 17 4 14 6 13 7 12 8 11 9 9 10 8 11 10 13 7 14
REMARK SMILES IDX 5 15 6 16 92 17 91 18 2 19 1 20 3 21 4 22 15 23 20 27 21 28
REMARK SMILES IDX 22 29 23 30 24 31 25 32 26 33 27 35 28 36 29 37 90 38 30 39
REMARK SMILES IDX 89 40 31 41 32 42 33 43 83 44 34 45 88 46 82 47 84 48 35 49
REMARK SMILES IDX 87 50 81 51 80 52 36 54 68 55 48 56 67 57 49 58 52 59 66 60
REMARK SMILES IDX 85 61 50 62 51 63 65 65 86 66 53 67 37 68 38 69 46 70 39 71
REMARK SMILES IDX 40 72 44 73 47 74 41 75 42 76 45 77 43 78 69 79 70 80 78 81
REMARK SMILES IDX 71 82 72 83 76 84 79 85 73 86 74 87 77 88 75 89 54 90 55 91
REMARK SMILES IDX 63 92 56 93 57 94 61 95 64 96 58 97 59 98 62 99 60 100
REMARK H PARENT 18 5 8 12 15 24 15 25 15 26 25 34 84 53 52 64
REMARK Flexibility Score: inf
ROOT
ATOM      1  C   UNL A   1      35.324  24.138  25.168  1.00  0.00     0.116 C 
ENDROOT
BRANCH   1   2
ATOM      2  N   UNL A   1      34.126  24.049  25.981  1.00  0.00    -0.351 N 
ATOM      3  C   UNL A   1      33.111  23.143  26.005  1.00  0.00     0.279 C 
ATOM      4  O   UNL A   1      32.189  23.336  26.801  1.00  0.00    -0.268 OA
ATOM      5  H   UNL A   1      34.029  24.778  26.634  1.00  0.00     0.163 HD
BRANCH   3   6
ATOM      6  C   UNL A   1      33.137  21.905  25.102  1.00  0.00     0.280 C 
BRANCH   6   7
ATOM      7  C   UNL A   1      32.197  22.080  23.896  1.00  0.00     0.145 C 
BRANCH   7   8
ATOM      8  S   UNL A   1      32.914  22.961  22.463  1.00  0.00    -0.145 SA
BRANCH   8   9
ATOM      9  C   UNL A   1      32.197  24.642  22.567  1.00  0.00     0.170 C 
BRANCH   9  10
ATOM     10  C   UNL A   1      32.870  25.709  21.718  1.00  0.00     0.236 C 
ATOM     11  N   UNL A   1      33.067  26.993  22.126  1.00  0.00    -0.294 N 
ATOM     12  H   UNL A   1      33.608  27.555  21.527  1.00  0.00     0.173 HD
ATOM     13  O   UNL A   1      33.240  25.447  20.566  1.00  0.00    -0.274 OA
BRANCH  11  14
ATOM     14  C   UNL A   1      32.609  27.599  23.260  1.00  0.00     0.231 A 
ATOM     15  C   UNL A   1      32.283  28.517  25.240  1.00  0.00     0.091 A 
ATOM     16  C   UNL A   1      33.247  27.837  24.452  1.00  0.00     0.097 A 
ATOM     17  N   UNL A   1      31.141  28.670  24.556  1.00  0.00    -0.082 NA
ATOM     18  O   UNL A   1      31.362  28.118  23.318  1.00  0.00    -0.338 OA
BRANCH  15  19
ATOM     19  C   UNL A   1      32.381  29.043  26.655  1.00  0.00     0.008 C 
ATOM     20  C   UNL A   1      31.523  28.214  27.631  1.00  0.00     0.018 C 
ATOM     21  C   UNL A   1      31.897  30.505  26.701  1.00  0.00     0.018 C 
ATOM     22  C   UNL A   1      33.844  28.981  27.144  1.00  0.00     0.018 C 
ENDBRANCH  15  19
ENDBRANCH  11  14
ENDBRANCH   9  10
ENDBRANCH   8   9
ENDBRANCH   7   8
ENDBRANCH   6   7
BRANCH   6  23
ATOM     23  N   UNL A   1      32.857  20.678  25.891  1.00  0.00    -0.347 N 
ATOM     24  H   UNL A   1      33.604  20.533  26.571  1.00  0.00     0.345 HD
ATOM     25  H   UNL A   1      32.807  19.875  25.264  1.00  0.00     0.345 HD
ATOM     26  H   UNL A   1      31.969  20.784  26.380  1.00  0.00     0.345 HD
ENDBRANCH   6  23
ENDBRANCH   3   6
ENDBRANCH   1   2
BRANCH   1  27
ATOM     27  C   UNL A   1      36.543  23.687  25.963  1.00  0.00     0.021 C 
BRANCH  27  28
ATOM     28  C   UNL A   1      37.459  22.718  25.204  1.00  0.00     0.002 C 
BRANCH  28  29
ATOM     29  C   UNL A   1      36.870  21.327  24.950  1.00  0.00     0.002 C 
BRANCH  29  30
ATOM     30  C   UNL A   1      37.877  20.178  25.005  1.00  0.00     0.021 C 
BRANCH  30  31
ATOM     31  C   UNL A   1      39.168  20.498  25.751  1.00  0.00     0.116 C 
BRANCH  31  32
ATOM     32  N   UNL A   1      40.057  19.351  25.844  1.00  0.00    -0.352 N 
ATOM     33  C   UNL A   1      41.410  19.314  26.074  1.00  0.00     0.251 C 
ATOM     34  H   UNL A   1      39.626  18.474  25.724  1.00  0.00     0.163 HD
ATOM     35  O   UNL A   1      42.034  18.265  25.952  1.00  0.00    -0.269 OA
BRANCH  33  36
ATOM     36  C   UNL A   1      42.121  20.557  26.434  1.00  0.00     0.039 A 
ATOM     37  C   UNL A   1      42.699  21.318  25.416  1.00  0.00     0.014 A 
ATOM     38  C   UNL A   1      42.184  20.987  27.762  1.00  0.00     0.014 A 
ATOM     39  C   UNL A   1      43.265  22.558  25.720  1.00  0.00     0.010 A 
ATOM     40  C   UNL A   1      42.685  22.252  28.053  1.00  0.00     0.010 A 
ATOM     41  C   UNL A   1      43.214  23.057  27.031  1.00  0.00    -0.014 A 
BRANCH  41  42
ATOM     42  C   UNL A   1      43.644  24.442  27.341  1.00  0.00     0.031 A 
ATOM     43  C   UNL A   1      42.649  25.469  27.795  1.00  0.00     0.074 A 
ATOM     44  C   UNL A   1      44.924  24.797  27.116  1.00  0.00     0.049 A 
ATOM     45  N   UNL A   1      42.823  26.745  28.024  1.00  0.00    -0.248 NA
ATOM     46  C   UNL A   1      41.268  25.004  27.994  1.00  0.00     0.031 C 
ATOM     47  C   UNL A   1      45.970  23.902  26.620  1.00  0.00     0.029 A 
ATOM     48  N   UNL A   1      45.558  26.007  27.251  1.00  0.00    -0.354 N 
ATOM     49  C   UNL A   1      41.576  27.240  28.379  1.00  0.00     0.074 A 
ATOM     50  C   UNL A   1      40.645  26.135  28.290  1.00  0.00     0.031 C 
ATOM     51  C   UNL A   1      47.114  24.590  26.496  1.00  0.00     0.029 A 
ATOM     52  C   UNL A   1      46.874  25.983  26.858  1.00  0.00     0.049 A 
ATOM     53  H   UNL A   1      45.112  26.814  27.596  1.00  0.00     0.167 HD
ATOM     54  C   UNL A   1      41.245  28.498  28.759  1.00  0.00     0.037 A 
ATOM     55  C   UNL A   1      47.779  26.976  26.772  1.00  0.00     0.037 A 
ATOM     56  C   UNL A   1      42.182  29.588  28.854  1.00  0.00     0.049 A 
ATOM     57  C   UNL A   1      47.386  28.367  27.181  1.00  0.00     0.074 A 
ATOM     58  C   UNL A   1      41.965  30.874  29.316  1.00  0.00     0.029 A 
ATOM     59  N   UNL A   1      43.511  29.525  28.458  1.00  0.00    -0.354 N 
ATOM     60  N   UNL A   1      46.226  28.803  27.609  1.00  0.00    -0.248 NA
ATOM     61  C   UNL A   1      48.423  29.403  27.097  1.00  0.00     0.031 C 
ATOM     62  C   UNL A   1      43.141  31.608  29.134  1.00  0.00     0.029 A 
ATOM     63  C   UNL A   1      44.113  30.764  28.618  1.00  0.00     0.049 A 
ATOM     64  H   UNL A   1      43.961  28.720  28.115  1.00  0.00     0.167 HD
ATOM     65  C   UNL A   1      46.394  30.160  27.854  1.00  0.00     0.074 A 
ATOM     66  C   UNL A   1      47.777  30.468  27.550  1.00  0.00     0.031 C 
ATOM     67  C   UNL A   1      45.484  31.065  28.290  1.00  0.00     0.037 A 
BRANCH  54  68
ATOM     68  C   UNL A   1      39.801  28.767  29.080  1.00  0.00     0.064 A 
ATOM     69  C   UNL A   1      39.273  28.555  30.363  1.00  0.00     0.173 A 
ATOM     70  C   UNL A   1      38.937  29.265  28.093  1.00  0.00     0.173 A 
ATOM     71  F   UNL A   1      40.053  28.074  31.343  1.00  0.00    -0.203 F 
ATOM     72  C   UNL A   1      37.927  28.791  30.634  1.00  0.00     0.198 A 
ATOM     73  C   UNL A   1      37.601  29.534  28.376  1.00  0.00     0.198 A 
ATOM     74  F   UNL A   1      39.389  29.495  26.850  1.00  0.00    -0.203 F 
ATOM     75  F   UNL A   1      37.434  28.522  31.851  1.00  0.00    -0.200 F 
ATOM     76  C   UNL A   1      37.094  29.285  29.642  1.00  0.00     0.200 A 
ATOM     77  F   UNL A   1      36.801  30.026  27.420  1.00  0.00    -0.200 F 
ATOM     78  F   UNL A   1      35.800  29.514  29.904  1.00  0.00    -0.200 F 
ENDBRANCH  54  68
BRANCH  55  79
ATOM     79  C   UNL A   1      49.144  26.675  26.265  1.00  0.00     0.064 A 
ATOM     80  C   UNL A   1      50.115  26.098  27.094  1.00  0.00     0.173 A 
ATOM     81  C   UNL A   1      49.492  26.926  24.929  1.00  0.00     0.173 A 
ATOM     82  F   UNL A   1      49.835  25.856  28.383  1.00  0.00    -0.203 F 
ATOM     83  C   UNL A   1      51.382  25.787  26.607  1.00  0.00     0.198 A 
ATOM     84  C   UNL A   1      50.749  26.588  24.436  1.00  0.00     0.198 A 
ATOM     85  F   UNL A   1      48.595  27.471  24.092  1.00  0.00    -0.203 F 
ATOM     86  F   UNL A   1      52.302  25.261  27.427  1.00  0.00    -0.200 F 
ATOM     87  C   UNL A   1      51.695  26.023  25.276  1.00  0.00     0.200 A 
ATOM     88  F   UNL A   1      51.039  26.796  23.145  1.00  0.00    -0.200 F 
ATOM     89  F   UNL A   1      52.908  25.705  24.804  1.00  0.00    -0.200 F 
ENDBRANCH  55  79
BRANCH  67  90
ATOM     90  C   UNL A   1      45.950  32.484  28.459  1.00  0.00     0.064 A 
ATOM     91  C   UNL A   1      46.544  32.923  29.651  1.00  0.00     0.173 A 
ATOM     92  C   UNL A   1      45.846  33.401  27.402  1.00  0.00     0.173 A 
ATOM     93  F   UNL A   1      46.651  32.091  30.699  1.00  0.00    -0.203 F 
ATOM     94  C   UNL A   1      47.000  34.232  29.785  1.00  0.00     0.198 A 
ATOM     95  C   UNL A   1      46.332  34.699  27.527  1.00  0.00     0.198 A 
ATOM     96  F   UNL A   1      45.290  33.031  26.238  1.00  0.00    -0.203 F 
ATOM     97  F   UNL A   1      47.523  34.642  30.949  1.00  0.00    -0.200 F 
ATOM     98  C   UNL A   1      46.903  35.116  28.720  1.00  0.00     0.200 A 
ATOM     99  F   UNL A   1      46.250  35.547  26.493  1.00  0.00    -0.200 F 
ATOM    100  F   UNL A   1      47.353  36.371  28.847  1.00  0.00    -0.200 F 
ENDBRANCH  67  90
ENDBRANCH  41  42
ENDBRANCH  33  36
ENDBRANCH  31  32
ENDBRANCH  30  31
ENDBRANCH  29  30
ENDBRANCH  28  29
ENDBRANCH  27  28
ENDBRANCH   1  27
TORSDOF 20
ENDMDL
