MODEL 1
REMARK VINA RESULT:     -11.3      0.000      0.000
REMARK SMILES COC(=O)[C@@H]1CCN(C(=O)NC(=O)COCC(=O)NCCCCCCNC(=O)c2ccc(-c3c4nc(c(-c5c(F)c(F)c(F)c(F)c5F)c5ccc([nH]5)c(-c5c(F)c(F)c(F)c(F)c5F)c5nc(c(-c6c(F)c(F)c(F)c(F)c6F)c6ccc3[nH]6)C=C5)C=C4)cc2)C1
REMARK SMILES IDX 20 1 19 2 17 3 18 4 16 6 15 7 14 8 12 9 9 10 10 11 11 12
REMARK SMILES IDX 13 14 8 15 5 16 6 17 92 18 7 19 3 20 4 21 2 22 1 23 21 24
REMARK SMILES IDX 22 25 23 26 24 27 25 28 26 29 27 30 28 32 29 33 30 34 91 35
REMARK SMILES IDX 31 36 90 37 32 38 33 39 34 40 84 41 35 42 89 43 83 44 85 45
REMARK SMILES IDX 36 46 88 47 82 48 81 49 37 51 69 52 49 53 68 54 50 55 53 56
REMARK SMILES IDX 67 57 86 58 51 59 52 60 66 62 87 63 54 64 38 65 39 66 47 67
REMARK SMILES IDX 40 68 41 69 45 70 48 71 42 72 43 73 46 74 44 75 70 76 71 77
REMARK SMILES IDX 79 78 72 79 73 80 77 81 80 82 74 83 75 84 78 85 76 86 55 87
REMARK SMILES IDX 56 88 64 89 57 90 58 91 62 92 65 93 59 94 60 95 63 96 61 97
REMARK H PARENT 19 5 11 13 26 31 85 50 53 61
REMARK Flexibility Score: inf
ROOT
ATOM      1  C   UNL A   1      33.165  28.717  24.288  1.00  0.00     0.116 C 
ENDROOT
BRANCH   1   2
ATOM      2  N   UNL A   1      32.018  28.944  23.429  1.00  0.00    -0.354 N 
ATOM      3  C   UNL A   1      31.305  28.042  22.692  1.00  0.00     0.246 C 
ATOM      4  O   UNL A   1      30.362  28.441  22.009  1.00  0.00    -0.272 OA
ATOM      5  H   UNL A   1      31.712  29.877  23.369  1.00  0.00     0.163 HD
BRANCH   3   6
ATOM      6  C   UNL A   1      31.685  26.561  22.751  1.00  0.00     0.260 C 
BRANCH   6   7
ATOM      7  O   UNL A   1      31.005  25.856  23.775  1.00  0.00    -0.362 OA
BRANCH   7   8
ATOM      8  C   UNL A   1      31.861  25.340  24.774  1.00  0.00     0.261 C 
BRANCH   8   9
ATOM      9  C   UNL A   1      31.163  25.102  26.099  1.00  0.00     0.254 C 
ATOM     10  C   UNL A   1      32.271  22.921  27.044  1.00  0.00     0.324 C 
ATOM     11  O   UNL A   1      32.524  22.599  28.211  1.00  0.00    -0.248 OA
ATOM     12  N   UNL A   1      31.446  24.008  26.898  1.00  0.00    -0.276 N 
ATOM     13  H   UNL A   1      30.809  24.008  27.649  1.00  0.00     0.174 HD
ATOM     14  O   UNL A   1      30.315  25.905  26.506  1.00  0.00    -0.272 OA
BRANCH  10  15
ATOM     15  N   UNL A   1      32.742  22.183  26.004  1.00  0.00    -0.324 N 
ATOM     16  C   UNL A   1      32.590  21.030  23.912  1.00  0.00     0.120 C 
ATOM     17  C   UNL A   1      33.993  21.608  24.091  1.00  0.00     0.039 C 
ATOM     18  C   UNL A   1      31.785  21.754  24.984  1.00  0.00     0.136 C 
ATOM     19  C   UNL A   1      34.091  21.861  25.587  1.00  0.00     0.122 C 
BRANCH  16  20
ATOM     20  C   UNL A   1      32.421  19.534  24.076  1.00  0.00     0.310 C 
ATOM     21  O   UNL A   1      32.578  18.738  23.157  1.00  0.00    -0.252 OA
BRANCH  20  22
ATOM     22  O   UNL A   1      32.154  19.168  25.359  1.00  0.00    -0.469 OA
ATOM     23  C   UNL A   1      32.761  17.928  25.733  1.00  0.00     0.282 C 
ENDBRANCH  20  22
ENDBRANCH  16  20
ENDBRANCH  10  15
ENDBRANCH   8   9
ENDBRANCH   7   8
ENDBRANCH   6   7
ENDBRANCH   3   6
ENDBRANCH   1   2
BRANCH   1  24
ATOM     24  C   UNL A   1      32.777  28.708  25.769  1.00  0.00     0.021 C 
BRANCH  24  25
ATOM     25  C   UNL A   1      32.669  30.092  26.421  1.00  0.00     0.002 C 
BRANCH  25  26
ATOM     26  C   UNL A   1      31.327  30.808  26.244  1.00  0.00     0.002 C 
BRANCH  26  27
ATOM     27  C   UNL A   1      31.345  32.317  26.499  1.00  0.00     0.021 C 
BRANCH  27  28
ATOM     28  C   UNL A   1      32.631  32.854  27.121  1.00  0.00     0.116 C 
BRANCH  28  29
ATOM     29  N   UNL A   1      32.471  34.205  27.634  1.00  0.00    -0.352 N 
ATOM     30  C   UNL A   1      33.109  34.834  28.674  1.00  0.00     0.251 C 
ATOM     31  H   UNL A   1      31.803  34.753  27.163  1.00  0.00     0.163 HD
ATOM     32  O   UNL A   1      32.700  35.920  29.073  1.00  0.00    -0.269 OA
BRANCH  30  33
ATOM     33  C   UNL A   1      34.279  34.207  29.332  1.00  0.00     0.039 A 
ATOM     34  C   UNL A   1      34.053  33.324  30.392  1.00  0.00     0.014 A 
ATOM     35  C   UNL A   1      35.585  34.508  28.941  1.00  0.00     0.014 A 
ATOM     36  C   UNL A   1      35.135  32.701  31.020  1.00  0.00     0.010 A 
ATOM     37  C   UNL A   1      36.660  33.835  29.521  1.00  0.00     0.010 A 
ATOM     38  C   UNL A   1      36.446  32.924  30.568  1.00  0.00    -0.014 A 
BRANCH  38  39
ATOM     39  C   UNL A   1      37.591  32.192  31.169  1.00  0.00     0.031 A 
ATOM     40  C   UNL A   1      38.074  32.521  32.555  1.00  0.00     0.074 A 
ATOM     41  C   UNL A   1      38.228  31.254  30.442  1.00  0.00     0.049 A 
ATOM     42  N   UNL A   1      39.067  31.999  33.232  1.00  0.00    -0.248 NA
ATOM     43  C   UNL A   1      37.363  33.593  33.267  1.00  0.00     0.031 C 
ATOM     44  C   UNL A   1      37.890  30.877  29.069  1.00  0.00     0.029 A 
ATOM     45  N   UNL A   1      39.295  30.447  30.754  1.00  0.00    -0.354 N 
ATOM     46  C   UNL A   1      39.103  32.680  34.440  1.00  0.00     0.074 A 
ATOM     47  C   UNL A   1      38.068  33.691  34.385  1.00  0.00     0.031 C 
ATOM     48  C   UNL A   1      38.712  29.896  28.666  1.00  0.00     0.029 A 
ATOM     49  C   UNL A   1      39.657  29.597  29.736  1.00  0.00     0.049 A 
ATOM     50  H   UNL A   1      39.755  30.473  31.623  1.00  0.00     0.167 HD
ATOM     51  C   UNL A   1      39.909  32.466  35.509  1.00  0.00     0.037 A 
ATOM     52  C   UNL A   1      40.644  28.683  29.673  1.00  0.00     0.037 A 
ATOM     53  C   UNL A   1      40.929  31.451  35.568  1.00  0.00     0.049 A 
ATOM     54  C   UNL A   1      41.528  28.471  30.871  1.00  0.00     0.074 A 
ATOM     55  C   UNL A   1      41.760  31.120  36.625  1.00  0.00     0.029 A 
ATOM     56  N   UNL A   1      41.263  30.603  34.521  1.00  0.00    -0.354 N 
ATOM     57  N   UNL A   1      41.504  29.071  32.036  1.00  0.00    -0.248 NA
ATOM     58  C   UNL A   1      42.573  27.445  30.747  1.00  0.00     0.031 C 
ATOM     59  C   UNL A   1      42.630  30.111  36.201  1.00  0.00     0.029 A 
ATOM     60  C   UNL A   1      42.303  29.768  34.900  1.00  0.00     0.049 A 
ATOM     61  H   UNL A   1      40.825  30.596  33.639  1.00  0.00     0.167 HD
ATOM     62  C   UNL A   1      42.505  28.477  32.793  1.00  0.00     0.074 A 
ATOM     63  C   UNL A   1      43.105  27.456  31.961  1.00  0.00     0.031 C 
ATOM     64  C   UNL A   1      42.893  28.754  34.063  1.00  0.00     0.037 A 
BRANCH  51  65
ATOM     65  C   UNL A   1      39.722  33.351  36.710  1.00  0.00     0.064 A 
ATOM     66  C   UNL A   1      40.443  34.545  36.865  1.00  0.00     0.173 A 
ATOM     67  C   UNL A   1      38.780  33.024  37.697  1.00  0.00     0.173 A 
ATOM     68  F   UNL A   1      41.364  34.901  35.957  1.00  0.00    -0.203 F 
ATOM     69  C   UNL A   1      40.249  35.362  37.977  1.00  0.00     0.198 A 
ATOM     70  C   UNL A   1      38.565  33.860  38.790  1.00  0.00     0.198 A 
ATOM     71  F   UNL A   1      38.058  31.897  37.598  1.00  0.00    -0.203 F 
ATOM     72  F   UNL A   1      40.986  36.471  38.127  1.00  0.00    -0.200 F 
ATOM     73  C   UNL A   1      39.305  35.024  38.934  1.00  0.00     0.200 A 
ATOM     74  F   UNL A   1      37.642  33.538  39.708  1.00  0.00    -0.200 F 
ATOM     75  F   UNL A   1      39.114  35.816  39.997  1.00  0.00    -0.200 F 
ENDBRANCH  51  65
BRANCH  52  76
ATOM     76  C   UNL A   1      40.830  27.877  28.437  1.00  0.00     0.064 A 
ATOM     77  C   UNL A   1      40.208  26.630  28.289  1.00  0.00     0.173 A 
ATOM     78  C   UNL A   1      41.638  28.333  27.384  1.00  0.00     0.173 A 
ATOM     79  F   UNL A   1      39.442  26.143  29.275  1.00  0.00    -0.203 F 
ATOM     80  C   UNL A   1      40.405  25.858  27.145  1.00  0.00     0.198 A 
ATOM     81  C   UNL A   1      41.809  27.575  26.228  1.00  0.00     0.198 A 
ATOM     82  F   UNL A   1      42.250  29.523  27.473  1.00  0.00    -0.203 F 
ATOM     83  F   UNL A   1      39.840  24.648  27.052  1.00  0.00    -0.200 F 
ATOM     84  C   UNL A   1      41.201  26.334  26.113  1.00  0.00     0.200 A 
ATOM     85  F   UNL A   1      42.564  28.046  25.226  1.00  0.00    -0.200 F 
ATOM     86  F   UNL A   1      41.387  25.593  25.013  1.00  0.00    -0.200 F 
ENDBRANCH  52  76
BRANCH  64  87
ATOM     87  C   UNL A   1      43.996  27.914  34.641  1.00  0.00     0.064 A 
ATOM     88  C   UNL A   1      45.345  28.278  34.517  1.00  0.00     0.173 A 
ATOM     89  C   UNL A   1      43.697  26.735  35.342  1.00  0.00     0.173 A 
ATOM     90  F   UNL A   1      45.686  29.387  33.843  1.00  0.00    -0.203 F 
ATOM     91  C   UNL A   1      46.355  27.473  35.041  1.00  0.00     0.198 A 
ATOM     92  C   UNL A   1      44.707  25.953  35.895  1.00  0.00     0.198 A 
ATOM     93  F   UNL A   1      42.423  26.345  35.497  1.00  0.00    -0.203 F 
ATOM     94  F   UNL A   1      47.640  27.809  34.856  1.00  0.00    -0.200 F 
ATOM     95  C   UNL A   1      46.035  26.316  35.734  1.00  0.00     0.200 A 
ATOM     96  F   UNL A   1      44.395  24.842  36.577  1.00  0.00    -0.200 F 
ATOM     97  F   UNL A   1      47.008  25.544  36.238  1.00  0.00    -0.200 F 
ENDBRANCH  64  87
ENDBRANCH  38  39
ENDBRANCH  30  33
ENDBRANCH  28  29
ENDBRANCH  27  28
ENDBRANCH  26  27
ENDBRANCH  25  26
ENDBRANCH  24  25
ENDBRANCH   1  24
TORSDOF 19
ENDMDL
MODEL 2
REMARK VINA RESULT:     -11.3      0.721      7.299
REMARK SMILES COC(=O)[C@@H]1CCN(C(=O)NC(=O)COCC(=O)NCCCCCCNC(=O)c2ccc(-c3c4nc(c(-c5c(F)c(F)c(F)c(F)c5F)c5ccc([nH]5)c(-c5c(F)c(F)c(F)c(F)c5F)c5nc(c(-c6c(F)c(F)c(F)c(F)c6F)c6ccc3[nH]6)C=C5)C=C4)cc2)C1
REMARK SMILES IDX 20 1 19 2 17 3 18 4 16 6 15 7 14 8 12 9 9 10 10 11 11 12
REMARK SMILES IDX 13 14 8 15 5 16 6 17 92 18 7 19 3 20 4 21 2 22 1 23 21 24
REMARK SMILES IDX 22 25 23 26 24 27 25 28 26 29 27 30 28 32 29 33 30 34 91 35
REMARK SMILES IDX 31 36 90 37 32 38 33 39 34 40 84 41 35 42 89 43 83 44 85 45
REMARK SMILES IDX 36 46 88 47 82 48 81 49 37 51 69 52 49 53 68 54 50 55 53 56
REMARK SMILES IDX 67 57 86 58 51 59 52 60 66 62 87 63 54 64 38 65 39 66 47 67
REMARK SMILES IDX 40 68 41 69 45 70 48 71 42 72 43 73 46 74 44 75 70 76 71 77
REMARK SMILES IDX 79 78 72 79 73 80 77 81 80 82 74 83 75 84 78 85 76 86 55 87
REMARK SMILES IDX 56 88 64 89 57 90 58 91 62 92 65 93 59 94 60 95 63 96 61 97
REMARK H PARENT 19 5 11 13 26 31 85 50 53 61
REMARK Flexibility Score: inf
ROOT
ATOM      1  C   UNL A   1      33.169  28.507  24.296  1.00  0.00     0.116 C 
ENDROOT
BRANCH   1   2
ATOM      2  N   UNL A   1      32.017  28.831  23.476  1.00  0.00    -0.354 N 
ATOM      3  C   UNL A   1      31.241  28.001  22.717  1.00  0.00     0.246 C 
ATOM      4  O   UNL A   1      30.306  28.480  22.075  1.00  0.00    -0.272 OA
ATOM      5  H   UNL A   1      31.758  29.781  23.465  1.00  0.00     0.163 HD
BRANCH   3   6
ATOM      6  C   UNL A   1      31.545  26.502  22.700  1.00  0.00     0.260 C 
BRANCH   6   7
ATOM      7  O   UNL A   1      30.914  25.799  23.756  1.00  0.00    -0.362 OA
BRANCH   7   8
ATOM      8  C   UNL A   1      31.810  25.343  24.750  1.00  0.00     0.261 C 
BRANCH   8   9
ATOM      9  C   UNL A   1      31.144  25.083  26.086  1.00  0.00     0.254 C 
ATOM     10  C   UNL A   1      32.302  22.909  26.987  1.00  0.00     0.324 C 
ATOM     11  O   UNL A   1      32.583  22.579  28.146  1.00  0.00    -0.248 OA
ATOM     12  N   UNL A   1      31.458  23.985  26.869  1.00  0.00    -0.276 N 
ATOM     13  H   UNL A   1      30.838  23.969  27.633  1.00  0.00     0.174 HD
ATOM     14  O   UNL A   1      30.293  25.870  26.519  1.00  0.00    -0.272 OA
BRANCH  10  15
ATOM     15  N   UNL A   1      32.762  22.188  25.931  1.00  0.00    -0.324 N 
ATOM     16  C   UNL A   1      32.565  20.976  23.875  1.00  0.00     0.120 C 
ATOM     17  C   UNL A   1      33.924  21.672  23.947  1.00  0.00     0.039 C 
ATOM     18  C   UNL A   1      31.777  21.657  24.988  1.00  0.00     0.136 C 
ATOM     19  C   UNL A   1      34.101  21.968  25.427  1.00  0.00     0.122 C 
BRANCH  16  20
ATOM     20  C   UNL A   1      32.534  19.476  24.079  1.00  0.00     0.310 C 
ATOM     21  O   UNL A   1      32.932  18.679  23.237  1.00  0.00    -0.252 OA
BRANCH  20  22
ATOM     22  O   UNL A   1      32.091  19.117  25.314  1.00  0.00    -0.469 OA
ATOM     23  C   UNL A   1      32.903  18.119  25.939  1.00  0.00     0.282 C 
ENDBRANCH  20  22
ENDBRANCH  16  20
ENDBRANCH  10  15
ENDBRANCH   8   9
ENDBRANCH   7   8
ENDBRANCH   6   7
ENDBRANCH   3   6
ENDBRANCH   1   2
BRANCH   1  24
ATOM     24  C   UNL A   1      32.893  28.735  25.784  1.00  0.00     0.021 C 
BRANCH  24  25
ATOM     25  C   UNL A   1      32.783  30.205  26.207  1.00  0.00     0.002 C 
BRANCH  25  26
ATOM     26  C   UNL A   1      31.407  30.851  26.012  1.00  0.00     0.002 C 
BRANCH  26  27
ATOM     27  C   UNL A   1      31.282  32.295  26.502  1.00  0.00     0.021 C 
BRANCH  27  28
ATOM     28  C   UNL A   1      32.510  32.845  27.222  1.00  0.00     0.116 C 
BRANCH  28  29
ATOM     29  N   UNL A   1      32.338  34.232  27.623  1.00  0.00    -0.352 N 
ATOM     30  C   UNL A   1      32.956  34.944  28.621  1.00  0.00     0.251 C 
ATOM     31  H   UNL A   1      31.677  34.738  27.099  1.00  0.00     0.163 HD
ATOM     32  O   UNL A   1      32.536  36.056  28.926  1.00  0.00    -0.269 OA
BRANCH  30  33
ATOM     33  C   UNL A   1      34.115  34.376  29.347  1.00  0.00     0.039 A 
ATOM     34  C   UNL A   1      33.884  33.716  30.558  1.00  0.00     0.014 A 
ATOM     35  C   UNL A   1      35.419  34.519  28.869  1.00  0.00     0.014 A 
ATOM     36  C   UNL A   1      34.955  33.151  31.257  1.00  0.00     0.010 A 
ATOM     37  C   UNL A   1      36.477  33.897  29.530  1.00  0.00     0.010 A 
ATOM     38  C   UNL A   1      36.256  33.206  30.732  1.00  0.00    -0.014 A 
BRANCH  38  39
ATOM     39  C   UNL A   1      37.383  32.527  31.423  1.00  0.00     0.031 A 
ATOM     40  C   UNL A   1      38.093  31.366  30.782  1.00  0.00     0.074 A 
ATOM     41  C   UNL A   1      37.739  32.932  32.658  1.00  0.00     0.049 A 
ATOM     42  N   UNL A   1      39.083  30.643  31.245  1.00  0.00    -0.248 NA
ATOM     43  C   UNL A   1      37.613  30.946  29.457  1.00  0.00     0.031 C 
ATOM     44  C   UNL A   1      37.097  34.012  33.409  1.00  0.00     0.029 A 
ATOM     45  N   UNL A   1      38.726  32.482  33.500  1.00  0.00    -0.354 N 
ATOM     46  C   UNL A   1      39.339  29.685  30.274  1.00  0.00     0.074 A 
ATOM     47  C   UNL A   1      38.366  29.881  29.220  1.00  0.00     0.031 C 
ATOM     48  C   UNL A   1      37.722  34.161  34.587  1.00  0.00     0.029 A 
ATOM     49  C   UNL A   1      38.785  33.166  34.691  1.00  0.00     0.049 A 
ATOM     50  H   UNL A   1      39.333  31.743  33.273  1.00  0.00     0.167 HD
ATOM     51  C   UNL A   1      40.313  28.742  30.251  1.00  0.00     0.037 A 
ATOM     52  C   UNL A   1      39.601  33.006  35.749  1.00  0.00     0.037 A 
ATOM     53  C   UNL A   1      41.289  28.556  31.294  1.00  0.00     0.049 A 
ATOM     54  C   UNL A   1      40.669  31.947  35.701  1.00  0.00     0.074 A 
ATOM     55  C   UNL A   1      42.348  27.665  31.338  1.00  0.00     0.029 A 
ATOM     56  N   UNL A   1      41.323  29.273  32.483  1.00  0.00    -0.354 N 
ATOM     57  N   UNL A   1      40.949  31.095  34.745  1.00  0.00    -0.248 NA
ATOM     58  C   UNL A   1      41.542  31.835  36.878  1.00  0.00     0.031 C 
ATOM     59  C   UNL A   1      42.988  27.805  32.574  1.00  0.00     0.029 A 
ATOM     60  C   UNL A   1      42.369  28.825  33.276  1.00  0.00     0.049 A 
ATOM     61  H   UNL A   1      40.697  29.992  32.726  1.00  0.00     0.167 HD
ATOM     62  C   UNL A   1      42.045  30.368  35.190  1.00  0.00     0.074 A 
ATOM     63  C   UNL A   1      42.391  30.893  36.494  1.00  0.00     0.031 C 
ATOM     64  C   UNL A   1      42.705  29.356  34.573  1.00  0.00     0.037 A 
BRANCH  51  65
ATOM     65  C   UNL A   1      40.373  27.831  29.057  1.00  0.00     0.064 A 
ATOM     66  C   UNL A   1      39.623  26.646  28.995  1.00  0.00     0.173 A 
ATOM     67  C   UNL A   1      41.155  28.169  27.942  1.00  0.00     0.173 A 
ATOM     68  F   UNL A   1      38.867  26.270  30.037  1.00  0.00    -0.203 F 
ATOM     69  C   UNL A   1      39.678  25.819  27.875  1.00  0.00     0.198 A 
ATOM     70  C   UNL A   1      41.181  27.356  26.811  1.00  0.00     0.198 A 
ATOM     71  F   UNL A   1      41.887  29.293  27.943  1.00  0.00    -0.203 F 
ATOM     72  F   UNL A   1      38.993  24.668  27.861  1.00  0.00    -0.200 F 
ATOM     73  C   UNL A   1      40.450  26.179  26.781  1.00  0.00     0.200 A 
ATOM     74  F   UNL A   1      41.917  27.712  25.748  1.00  0.00    -0.200 F 
ATOM     75  F   UNL A   1      40.494  25.386  25.702  1.00  0.00    -0.200 F 
ENDBRANCH  51  65
BRANCH  52  76
ATOM     76  C   UNL A   1      39.460  33.889  36.937  1.00  0.00     0.064 A 
ATOM     77  C   UNL A   1      40.071  35.151  36.975  1.00  0.00     0.173 A 
ATOM     78  C   UNL A   1      38.718  33.490  38.059  1.00  0.00     0.173 A 
ATOM     79  F   UNL A   1      40.806  35.569  35.934  1.00  0.00    -0.203 F 
ATOM     80  C   UNL A   1      39.965  35.969  38.098  1.00  0.00     0.198 A 
ATOM     81  C   UNL A   1      38.588  34.322  39.169  1.00  0.00     0.198 A 
ATOM     82  F   UNL A   1      38.107  32.296  38.070  1.00  0.00    -0.203 F 
ATOM     83  F   UNL A   1      40.602  37.147  38.127  1.00  0.00    -0.200 F 
ATOM     84  C   UNL A   1      39.220  35.556  39.192  1.00  0.00     0.200 A 
ATOM     85  F   UNL A   1      37.851  33.927  40.216  1.00  0.00    -0.200 F 
ATOM     86  F   UNL A   1      39.115  36.345  40.269  1.00  0.00    -0.200 F 
ENDBRANCH  52  76
BRANCH  64  87
ATOM     87  C   UNL A   1      43.892  28.776  35.289  1.00  0.00     0.064 A 
ATOM     88  C   UNL A   1      45.193  29.253  35.072  1.00  0.00     0.173 A 
ATOM     89  C   UNL A   1      43.720  27.737  36.218  1.00  0.00     0.173 A 
ATOM     90  F   UNL A   1      45.413  30.234  34.184  1.00  0.00    -0.203 F 
ATOM     91  C   UNL A   1      46.283  28.686  35.730  1.00  0.00     0.198 A 
ATOM     92  C   UNL A   1      44.807  27.198  36.900  1.00  0.00     0.198 A 
ATOM     93  F   UNL A   1      42.496  27.249  36.470  1.00  0.00    -0.203 F 
ATOM     94  F   UNL A   1      47.523  29.116  35.459  1.00  0.00    -0.200 F 
ATOM     95  C   UNL A   1      46.089  27.664  36.646  1.00  0.00     0.200 A 
ATOM     96  F   UNL A   1      44.617  26.220  37.797  1.00  0.00    -0.200 F 
ATOM     97  F   UNL A   1      47.138  27.121  37.280  1.00  0.00    -0.200 F 
ENDBRANCH  64  87
ENDBRANCH  38  39
ENDBRANCH  30  33
ENDBRANCH  28  29
ENDBRANCH  27  28
ENDBRANCH  26  27
ENDBRANCH  25  26
ENDBRANCH  24  25
ENDBRANCH   1  24
TORSDOF 19
ENDMDL
MODEL 3
REMARK VINA RESULT:     -10.9      6.209     11.619
REMARK SMILES COC(=O)[C@@H]1CCN(C(=O)NC(=O)COCC(=O)NCCCCCCNC(=O)c2ccc(-c3c4nc(c(-c5c(F)c(F)c(F)c(F)c5F)c5ccc([nH]5)c(-c5c(F)c(F)c(F)c(F)c5F)c5nc(c(-c6c(F)c(F)c(F)c(F)c6F)c6ccc3[nH]6)C=C5)C=C4)cc2)C1
REMARK SMILES IDX 20 1 19 2 17 3 18 4 16 6 15 7 14 8 12 9 9 10 10 11 11 12
REMARK SMILES IDX 13 14 8 15 5 16 6 17 92 18 7 19 3 20 4 21 2 22 1 23 21 24
REMARK SMILES IDX 22 25 23 26 24 27 25 28 26 29 27 30 28 32 29 33 30 34 91 35
REMARK SMILES IDX 31 36 90 37 32 38 33 39 34 40 84 41 35 42 89 43 83 44 85 45
REMARK SMILES IDX 36 46 88 47 82 48 81 49 37 51 69 52 49 53 68 54 50 55 53 56
REMARK SMILES IDX 67 57 86 58 51 59 52 60 66 62 87 63 54 64 38 65 39 66 47 67
REMARK SMILES IDX 40 68 41 69 45 70 48 71 42 72 43 73 46 74 44 75 70 76 71 77
REMARK SMILES IDX 79 78 72 79 73 80 77 81 80 82 74 83 75 84 78 85 76 86 55 87
REMARK SMILES IDX 56 88 64 89 57 90 58 91 62 92 65 93 59 94 60 95 63 96 61 97
REMARK H PARENT 19 5 11 13 26 31 85 50 53 61
REMARK Flexibility Score: inf
ROOT
ATOM      1  C   UNL A   1      39.652  21.970  26.488  1.00  0.00     0.116 C 
ENDROOT
BRANCH   1   2
ATOM      2  N   UNL A   1      38.606  22.974  26.548  1.00  0.00    -0.354 N 
ATOM      3  C   UNL A   1      37.453  23.058  25.821  1.00  0.00     0.246 C 
ATOM      4  O   UNL A   1      36.693  24.007  26.014  1.00  0.00    -0.272 OA
ATOM      5  H   UNL A   1      38.747  23.694  27.204  1.00  0.00     0.163 HD
BRANCH   3   6
ATOM      6  C   UNL A   1      37.130  21.964  24.802  1.00  0.00     0.260 C 
BRANCH   6   7
ATOM      7  O   UNL A   1      35.744  21.689  24.707  1.00  0.00    -0.362 OA
BRANCH   7   8
ATOM      8  C   UNL A   1      35.118  22.300  23.597  1.00  0.00     0.261 C 
BRANCH   8   9
ATOM      9  C   UNL A   1      33.892  23.111  23.969  1.00  0.00     0.254 C 
ATOM     10  C   UNL A   1      32.173  21.339  24.853  1.00  0.00     0.324 C 
ATOM     11  O   UNL A   1      31.326  21.431  25.750  1.00  0.00    -0.248 OA
ATOM     12  N   UNL A   1      32.734  22.524  24.448  1.00  0.00    -0.276 N 
ATOM     13  H   UNL A   1      32.048  23.226  24.526  1.00  0.00     0.174 HD
ATOM     14  O   UNL A   1      33.907  24.343  23.859  1.00  0.00    -0.272 OA
BRANCH  10  15
ATOM     15  N   UNL A   1      32.453  20.136  24.287  1.00  0.00    -0.324 N 
ATOM     16  C   UNL A   1      32.764  17.762  24.267  1.00  0.00     0.120 C 
ATOM     17  C   UNL A   1      32.221  18.231  22.919  1.00  0.00     0.039 C 
ATOM     18  C   UNL A   1      32.527  18.969  25.167  1.00  0.00     0.136 C 
ATOM     19  C   UNL A   1      32.529  19.720  22.902  1.00  0.00     0.122 C 
BRANCH  16  20
ATOM     20  C   UNL A   1      34.223  17.360  24.335  1.00  0.00     0.310 C 
ATOM     21  O   UNL A   1      35.143  18.167  24.251  1.00  0.00    -0.252 OA
BRANCH  20  22
ATOM     22  O   UNL A   1      34.397  16.033  24.571  1.00  0.00    -0.469 OA
ATOM     23  C   UNL A   1      35.544  15.745  25.376  1.00  0.00     0.282 C 
ENDBRANCH  20  22
ENDBRANCH  16  20
ENDBRANCH  10  15
ENDBRANCH   8   9
ENDBRANCH   7   8
ENDBRANCH   6   7
ENDBRANCH   3   6
ENDBRANCH   1   2
BRANCH   1  24
ATOM     24  C   UNL A   1      41.029  22.560  26.805  1.00  0.00     0.021 C 
BRANCH  24  25
ATOM     25  C   UNL A   1      41.979  21.621  27.559  1.00  0.00     0.002 C 
BRANCH  25  26
ATOM     26  C   UNL A   1      41.522  20.164  27.675  1.00  0.00     0.002 C 
BRANCH  26  27
ATOM     27  C   UNL A   1      42.298  19.159  26.822  1.00  0.00     0.021 C 
BRANCH  27  28
ATOM     28  C   UNL A   1      42.398  19.507  25.339  1.00  0.00     0.116 C 
BRANCH  28  29
ATOM     29  N   UNL A   1      43.598  18.963  24.725  1.00  0.00    -0.352 N 
ATOM     30  C   UNL A   1      44.775  19.583  24.389  1.00  0.00     0.251 C 
ATOM     31  H   UNL A   1      43.561  18.001  24.520  1.00  0.00     0.163 HD
ATOM     32  O   UNL A   1      45.603  18.990  23.705  1.00  0.00    -0.269 OA
BRANCH  30  33
ATOM     33  C   UNL A   1      45.049  20.970  24.830  1.00  0.00     0.039 A 
ATOM     34  C   UNL A   1      44.896  22.006  23.904  1.00  0.00     0.014 A 
ATOM     35  C   UNL A   1      45.488  21.252  26.125  1.00  0.00     0.014 A 
ATOM     36  C   UNL A   1      45.127  23.328  24.294  1.00  0.00     0.010 A 
ATOM     37  C   UNL A   1      45.652  22.576  26.533  1.00  0.00     0.010 A 
ATOM     38  C   UNL A   1      45.474  23.628  25.622  1.00  0.00    -0.014 A 
BRANCH  38  39
ATOM     39  C   UNL A   1      45.629  25.038  26.066  1.00  0.00     0.031 A 
ATOM     40  C   UNL A   1      46.963  25.728  25.991  1.00  0.00     0.074 A 
ATOM     41  C   UNL A   1      44.566  25.686  26.582  1.00  0.00     0.049 A 
ATOM     42  N   UNL A   1      47.287  26.946  26.349  1.00  0.00    -0.248 NA
ATOM     43  C   UNL A   1      48.088  24.939  25.467  1.00  0.00     0.031 C 
ATOM     44  C   UNL A   1      43.231  25.113  26.755  1.00  0.00     0.029 A 
ATOM     45  N   UNL A   1      44.441  26.969  27.058  1.00  0.00    -0.354 N 
ATOM     46  C   UNL A   1      48.647  27.066  26.099  1.00  0.00     0.074 A 
ATOM     47  C   UNL A   1      49.101  25.781  25.611  1.00  0.00     0.031 C 
ATOM     48  C   UNL A   1      42.415  26.045  27.272  1.00  0.00     0.029 A 
ATOM     49  C   UNL A   1      43.175  27.269  27.500  1.00  0.00     0.049 A 
ATOM     50  H   UNL A   1      45.186  27.610  27.079  1.00  0.00     0.167 HD
ATOM     51  C   UNL A   1      49.440  28.156  26.241  1.00  0.00     0.037 A 
ATOM     52  C   UNL A   1      42.684  28.404  28.032  1.00  0.00     0.037 A 
ATOM     53  C   UNL A   1      48.984  29.439  26.713  1.00  0.00     0.049 A 
ATOM     54  C   UNL A   1      43.588  29.597  28.184  1.00  0.00     0.074 A 
ATOM     55  C   UNL A   1      49.699  30.618  26.840  1.00  0.00     0.029 A 
ATOM     56  N   UNL A   1      47.692  29.709  27.144  1.00  0.00    -0.354 N 
ATOM     57  N   UNL A   1      44.856  29.721  27.874  1.00  0.00    -0.248 NA
ATOM     58  C   UNL A   1      42.988  30.812  28.752  1.00  0.00     0.031 C 
ATOM     59  C   UNL A   1      48.855  31.584  27.397  1.00  0.00     0.029 A 
ATOM     60  C   UNL A   1      47.598  31.028  27.561  1.00  0.00     0.049 A 
ATOM     61  H   UNL A   1      46.953  29.059  27.153  1.00  0.00     0.167 HD
ATOM     62  C   UNL A   1      45.197  31.032  28.180  1.00  0.00     0.074 A 
ATOM     63  C   UNL A   1      43.997  31.668  28.682  1.00  0.00     0.031 C 
ATOM     64  C   UNL A   1      46.397  31.652  28.057  1.00  0.00     0.037 A 
BRANCH  51  65
ATOM     65  C   UNL A   1      50.892  28.013  25.879  1.00  0.00     0.064 A 
ATOM     66  C   UNL A   1      51.335  28.116  24.551  1.00  0.00     0.173 A 
ATOM     67  C   UNL A   1      51.859  27.813  26.876  1.00  0.00     0.173 A 
ATOM     68  F   UNL A   1      50.452  28.296  23.557  1.00  0.00    -0.203 F 
ATOM     69  C   UNL A   1      52.686  27.995  24.233  1.00  0.00     0.198 A 
ATOM     70  C   UNL A   1      53.212  27.726  26.558  1.00  0.00     0.198 A 
ATOM     71  F   UNL A   1      51.493  27.712  28.163  1.00  0.00    -0.203 F 
ATOM     72  F   UNL A   1      53.077  28.046  22.952  1.00  0.00    -0.200 F 
ATOM     73  C   UNL A   1      53.624  27.808  25.237  1.00  0.00     0.200 A 
ATOM     74  F   UNL A   1      54.119  27.559  27.531  1.00  0.00    -0.200 F 
ATOM     75  F   UNL A   1      54.923  27.700  24.929  1.00  0.00    -0.200 F 
ENDBRANCH  51  65
BRANCH  52  76
ATOM     76  C   UNL A   1      41.254  28.477  28.435  1.00  0.00     0.064 A 
ATOM     77  C   UNL A   1      40.846  28.083  29.718  1.00  0.00     0.173 A 
ATOM     78  C   UNL A   1      40.268  28.933  27.548  1.00  0.00     0.173 A 
ATOM     79  F   UNL A   1      41.749  27.622  30.594  1.00  0.00    -0.203 F 
ATOM     80  C   UNL A   1      39.504  28.121  30.089  1.00  0.00     0.198 A 
ATOM     81  C   UNL A   1      38.931  29.000  27.931  1.00  0.00     0.198 A 
ATOM     82  F   UNL A   1      40.608  29.329  26.312  1.00  0.00    -0.203 F 
ATOM     83  F   UNL A   1      39.135  27.691  31.303  1.00  0.00    -0.200 F 
ATOM     84  C   UNL A   1      38.548  28.585  29.198  1.00  0.00     0.200 A 
ATOM     85  F   UNL A   1      38.013  29.467  27.073  1.00  0.00    -0.200 F 
ATOM     86  F   UNL A   1      37.258  28.625  29.557  1.00  0.00    -0.200 F 
ENDBRANCH  52  76
BRANCH  64  87
ATOM     87  C   UNL A   1      46.460  33.104  28.439  1.00  0.00     0.064 A 
ATOM     88  C   UNL A   1      46.791  33.513  29.739  1.00  0.00     0.173 A 
ATOM     89  C   UNL A   1      46.201  34.100  27.484  1.00  0.00     0.173 A 
ATOM     90  F   UNL A   1      47.034  32.601  30.693  1.00  0.00    -0.203 F 
ATOM     91  C   UNL A   1      46.823  34.864  30.079  1.00  0.00     0.198 A 
ATOM     92  C   UNL A   1      46.268  35.450  27.818  1.00  0.00     0.198 A 
ATOM     93  F   UNL A   1      45.887  33.764  26.224  1.00  0.00    -0.203 F 
ATOM     94  F   UNL A   1      47.080  35.229  31.343  1.00  0.00    -0.200 F 
ATOM     95  C   UNL A   1      46.567  35.830  29.118  1.00  0.00     0.200 A 
ATOM     96  F   UNL A   1      46.035  36.382  26.885  1.00  0.00    -0.200 F 
ATOM     97  F   UNL A   1      46.599  37.129  29.446  1.00  0.00    -0.200 F 
ENDBRANCH  64  87
ENDBRANCH  38  39
ENDBRANCH  30  33
ENDBRANCH  28  29
ENDBRANCH  27  28
ENDBRANCH  26  27
ENDBRANCH  25  26
ENDBRANCH  24  25
ENDBRANCH   1  24
TORSDOF 19
ENDMDL
