MODEL 1
REMARK VINA RESULT:     -11.6      0.000      0.000
REMARK SMILES CC1(C)CCC[C@@H]1[C@H](O)C(=O)NCCCCCCNC(=O)c1ccc(-c2c3nc(c(-c4c(F)c(F)c(F)c(F)c4F)c4ccc([nH]4)c(-c4c(F)c(F)c(F)c(F)c4F)c4nc(c(-c5c(F)c(F)c(F)c(F)c5F)c5ccc2[nH]5)C=C4)C=C3)cc1
REMARK SMILES IDX 16 1 15 2 14 3 13 4 12 5 10 6 11 7 8 9 7 10 1 11 2 12 3 13
REMARK SMILES IDX 4 14 5 15 6 16 9 17 17 19 18 20 19 21 20 22 21 24 22 25
REMARK SMILES IDX 23 26 84 27 24 28 83 29 25 30 26 31 27 32 77 33 28 34 82 35
REMARK SMILES IDX 76 36 78 37 29 38 81 39 75 40 74 41 30 43 62 44 42 45 61 46
REMARK SMILES IDX 43 47 46 48 60 49 79 50 44 51 45 52 59 54 80 55 47 56 31 57
REMARK SMILES IDX 32 58 40 59 33 60 34 61 38 62 41 63 35 64 36 65 39 66 37 67
REMARK SMILES IDX 63 68 64 69 72 70 65 71 66 72 70 73 73 74 67 75 68 76 71 77
REMARK SMILES IDX 69 78 48 79 49 80 57 81 50 82 51 83 55 84 58 85 52 86 53 87
REMARK SMILES IDX 56 88 54 89
REMARK H PARENT 12 8 9 18 19 23 78 42 46 53
REMARK Flexibility Score: inf
ROOT
ATOM      1  C   UNL A   1      31.599  30.774  26.063  1.00  0.00     0.002 C 
ENDROOT
BRANCH   1   2
ATOM      2  C   UNL A   1      32.905  30.126  26.533  1.00  0.00     0.002 C 
BRANCH   2   3
ATOM      3  C   UNL A   1      33.153  28.710  26.005  1.00  0.00     0.021 C 
BRANCH   3   4
ATOM      4  C   UNL A   1      31.889  27.970  25.584  1.00  0.00     0.116 C 
BRANCH   4   5
ATOM      5  N   UNL A   1      32.059  27.310  24.305  1.00  0.00    -0.354 N 
ATOM      6  C   UNL A   1      31.716  27.691  23.041  1.00  0.00     0.249 C 
ATOM      7  O   UNL A   1      32.038  26.943  22.114  1.00  0.00    -0.272 OA
ATOM      8  H   UNL A   1      32.501  26.432  24.358  1.00  0.00     0.163 HD
BRANCH   6   9
ATOM      9  C   UNL A   1      30.987  29.028  22.779  1.00  0.00     0.206 C 
BRANCH   9  10
ATOM     10  C   UNL A   1      29.498  28.797  22.455  1.00  0.00     0.033 C 
ATOM     11  C   UNL A   1      28.623  30.843  21.177  1.00  0.00     0.011 C 
ATOM     12  C   UNL A   1      28.548  30.021  22.472  1.00  0.00    -0.030 C 
ATOM     13  C   UNL A   1      28.773  30.945  23.678  1.00  0.00     0.011 C 
ATOM     14  C   UNL A   1      27.177  29.324  22.564  1.00  0.00     0.007 C 
ATOM     15  C   UNL A   1      27.381  28.160  23.526  1.00  0.00     0.001 C 
ATOM     16  C   UNL A   1      28.857  27.783  23.423  1.00  0.00     0.007 C 
ENDBRANCH   9  10
BRANCH   9  17
ATOM     17  O   UNL A   1      31.649  29.840  21.818  1.00  0.00    -0.383 OA
ATOM     18  H   UNL A   1      32.011  30.626  22.254  1.00  0.00     0.211 HD
ENDBRANCH   9  17
ENDBRANCH   6   9
ENDBRANCH   4   5
ENDBRANCH   3   4
ENDBRANCH   2   3
ENDBRANCH   1   2
BRANCH   1  19
ATOM     19  C   UNL A   1      31.375  32.208  26.545  1.00  0.00     0.021 C 
BRANCH  19  20
ATOM     20  C   UNL A   1      32.555  32.819  27.293  1.00  0.00     0.116 C 
BRANCH  20  21
ATOM     21  N   UNL A   1      32.335  34.218  27.617  1.00  0.00    -0.352 N 
ATOM     22  C   UNL A   1      32.946  34.993  28.570  1.00  0.00     0.251 C 
ATOM     23  H   UNL A   1      31.653  34.676  27.076  1.00  0.00     0.163 HD
ATOM     24  O   UNL A   1      32.509  36.111  28.833  1.00  0.00    -0.269 OA
BRANCH  22  25
ATOM     25  C   UNL A   1      34.118  34.470  29.300  1.00  0.00     0.039 A 
ATOM     26  C   UNL A   1      33.919  33.829  30.524  1.00  0.00     0.014 A 
ATOM     27  C   UNL A   1      35.408  34.606  28.778  1.00  0.00     0.014 A 
ATOM     28  C   UNL A   1      35.008  33.272  31.197  1.00  0.00     0.010 A 
ATOM     29  C   UNL A   1      36.479  33.982  29.409  1.00  0.00     0.010 A 
ATOM     30  C   UNL A   1      36.291  33.313  30.627  1.00  0.00    -0.014 A 
BRANCH  30  31
ATOM     31  C   UNL A   1      37.446  32.659  31.293  1.00  0.00     0.031 A 
ATOM     32  C   UNL A   1      38.155  31.515  30.623  1.00  0.00     0.074 A 
ATOM     33  C   UNL A   1      37.819  33.058  32.524  1.00  0.00     0.049 A 
ATOM     34  N   UNL A   1      39.141  30.777  31.068  1.00  0.00    -0.248 NA
ATOM     35  C   UNL A   1      37.677  31.131  29.285  1.00  0.00     0.031 C 
ATOM     36  C   UNL A   1      37.182  34.126  33.295  1.00  0.00     0.029 A 
ATOM     37  N   UNL A   1      38.817  32.603  33.350  1.00  0.00    -0.354 N 
ATOM     38  C   UNL A   1      39.391  29.840  30.074  1.00  0.00     0.074 A 
ATOM     39  C   UNL A   1      38.417  30.063  29.029  1.00  0.00     0.031 C 
ATOM     40  C   UNL A   1      37.819  34.262  34.468  1.00  0.00     0.029 A 
ATOM     41  C   UNL A   1      38.879  33.263  34.553  1.00  0.00     0.049 A 
ATOM     42  H   UNL A   1      39.431  31.875  33.102  1.00  0.00     0.167 HD
ATOM     43  C   UNL A   1      40.361  28.896  30.027  1.00  0.00     0.037 A 
ATOM     44  C   UNL A   1      39.692  33.075  35.610  1.00  0.00     0.037 A 
ATOM     45  C   UNL A   1      41.338  28.690  31.064  1.00  0.00     0.049 A 
ATOM     46  C   UNL A   1      40.746  32.003  35.541  1.00  0.00     0.074 A 
ATOM     47  C   UNL A   1      42.396  27.797  31.088  1.00  0.00     0.029 A 
ATOM     48  N   UNL A   1      41.374  29.382  32.266  1.00  0.00    -0.354 N 
ATOM     49  N   UNL A   1      41.020  31.170  34.566  1.00  0.00    -0.248 NA
ATOM     50  C   UNL A   1      41.610  31.847  36.720  1.00  0.00     0.031 C 
ATOM     51  C   UNL A   1      43.034  27.906  32.327  1.00  0.00     0.029 A 
ATOM     52  C   UNL A   1      42.417  28.915  33.050  1.00  0.00     0.049 A 
ATOM     53  H   UNL A   1      40.751  30.099  32.524  1.00  0.00     0.167 HD
ATOM     54  C   UNL A   1      42.103  30.418  34.999  1.00  0.00     0.074 A 
ATOM     55  C   UNL A   1      42.448  30.903  36.317  1.00  0.00     0.031 C 
ATOM     56  C   UNL A   1      42.754  29.414  34.360  1.00  0.00     0.037 A 
BRANCH  43  57
ATOM     57  C   UNL A   1      40.414  28.010  28.815  1.00  0.00     0.064 A 
ATOM     58  C   UNL A   1      41.173  28.349  27.684  1.00  0.00     0.173 A 
ATOM     59  C   UNL A   1      39.730  26.784  28.799  1.00  0.00     0.173 A 
ATOM     60  F   UNL A   1      41.837  29.514  27.642  1.00  0.00    -0.203 F 
ATOM     61  C   UNL A   1      41.220  27.511  26.573  1.00  0.00     0.198 A 
ATOM     62  C   UNL A   1      39.807  25.932  27.700  1.00  0.00     0.198 A 
ATOM     63  F   UNL A   1      38.994  26.406  29.855  1.00  0.00    -0.203 F 
ATOM     64  F   UNL A   1      41.909  27.882  25.485  1.00  0.00    -0.200 F 
ATOM     65  C   UNL A   1      40.546  26.300  26.585  1.00  0.00     0.200 A 
ATOM     66  F   UNL A   1      39.167  24.756  27.720  1.00  0.00    -0.200 F 
ATOM     67  F   UNL A   1      40.601  25.489  25.519  1.00  0.00    -0.200 F 
ENDBRANCH  43  57
BRANCH  44  68
ATOM     68  C   UNL A   1      39.553  33.930  36.819  1.00  0.00     0.064 A 
ATOM     69  C   UNL A   1      40.196  35.173  36.903  1.00  0.00     0.173 A 
ATOM     70  C   UNL A   1      38.789  33.517  37.921  1.00  0.00     0.173 A 
ATOM     71  F   UNL A   1      40.955  35.604  35.884  1.00  0.00    -0.203 F 
ATOM     72  C   UNL A   1      40.102  35.957  38.051  1.00  0.00     0.198 A 
ATOM     73  C   UNL A   1      38.668  34.318  39.055  1.00  0.00     0.198 A 
ATOM     74  F   UNL A   1      38.148  32.340  37.892  1.00  0.00    -0.203 F 
ATOM     75  F   UNL A   1      40.773  37.115  38.124  1.00  0.00    -0.200 F 
ATOM     76  C   UNL A   1      39.334  35.532  39.124  1.00  0.00     0.200 A 
ATOM     77  F   UNL A   1      37.911  33.911  40.083  1.00  0.00    -0.200 F 
ATOM     78  F   UNL A   1      39.243  36.288  40.226  1.00  0.00    -0.200 F 
ENDBRANCH  44  68
BRANCH  56  79
ATOM     79  C   UNL A   1      43.934  28.800  35.059  1.00  0.00     0.064 A 
ATOM     80  C   UNL A   1      43.799  27.685  35.899  1.00  0.00     0.173 A 
ATOM     81  C   UNL A   1      45.225  29.313  34.853  1.00  0.00     0.173 A 
ATOM     82  F   UNL A   1      42.586  27.165  36.141  1.00  0.00    -0.203 F 
ATOM     83  C   UNL A   1      44.907  27.125  36.529  1.00  0.00     0.198 A 
ATOM     84  C   UNL A   1      46.334  28.729  35.457  1.00  0.00     0.198 A 
ATOM     85  F   UNL A   1      45.411  30.374  34.054  1.00  0.00    -0.203 F 
ATOM     86  F   UNL A   1      44.747  26.092  37.369  1.00  0.00    -0.200 F 
ATOM     87  C   UNL A   1      46.173  27.640  36.301  1.00  0.00     0.200 A 
ATOM     88  F   UNL A   1      47.560  29.218  35.220  1.00  0.00    -0.200 F 
ATOM     89  F   UNL A   1      47.240  27.094  36.900  1.00  0.00    -0.200 F 
ENDBRANCH  56  79
ENDBRANCH  30  31
ENDBRANCH  22  25
ENDBRANCH  20  21
ENDBRANCH  19  20
ENDBRANCH   1  19
TORSDOF 15
ENDMDL
MODEL 2
REMARK VINA RESULT:     -11.5      0.203      1.652
REMARK SMILES CC1(C)CCC[C@@H]1[C@H](O)C(=O)NCCCCCCNC(=O)c1ccc(-c2c3nc(c(-c4c(F)c(F)c(F)c(F)c4F)c4ccc([nH]4)c(-c4c(F)c(F)c(F)c(F)c4F)c4nc(c(-c5c(F)c(F)c(F)c(F)c5F)c5ccc2[nH]5)C=C4)C=C3)cc1
REMARK SMILES IDX 16 1 15 2 14 3 13 4 12 5 10 6 11 7 8 9 7 10 1 11 2 12 3 13
REMARK SMILES IDX 4 14 5 15 6 16 9 17 17 19 18 20 19 21 20 22 21 24 22 25
REMARK SMILES IDX 23 26 84 27 24 28 83 29 25 30 26 31 27 32 77 33 28 34 82 35
REMARK SMILES IDX 76 36 78 37 29 38 81 39 75 40 74 41 30 43 62 44 42 45 61 46
REMARK SMILES IDX 43 47 46 48 60 49 79 50 44 51 45 52 59 54 80 55 47 56 31 57
REMARK SMILES IDX 32 58 40 59 33 60 34 61 38 62 41 63 35 64 36 65 39 66 37 67
REMARK SMILES IDX 63 68 64 69 72 70 65 71 66 72 70 73 73 74 67 75 68 76 71 77
REMARK SMILES IDX 69 78 48 79 49 80 57 81 50 82 51 83 55 84 58 85 52 86 53 87
REMARK SMILES IDX 56 88 54 89
REMARK H PARENT 12 8 9 18 19 23 78 42 46 53
REMARK Flexibility Score: inf
ROOT
ATOM      1  C   UNL A   1      31.680  30.775  26.111  1.00  0.00     0.002 C 
ENDROOT
BRANCH   1   2
ATOM      2  C   UNL A   1      32.434  29.732  26.942  1.00  0.00     0.002 C 
BRANCH   2   3
ATOM      3  C   UNL A   1      32.745  28.422  26.211  1.00  0.00     0.021 C 
BRANCH   3   4
ATOM      4  C   UNL A   1      31.519  27.717  25.644  1.00  0.00     0.116 C 
BRANCH   4   5
ATOM      5  N   UNL A   1      31.793  27.132  24.347  1.00  0.00    -0.354 N 
ATOM      6  C   UNL A   1      31.615  27.615  23.084  1.00  0.00     0.249 C 
ATOM      7  O   UNL A   1      31.995  26.910  22.146  1.00  0.00    -0.272 OA
ATOM      8  H   UNL A   1      32.176  26.225  24.384  1.00  0.00     0.163 HD
BRANCH   6   9
ATOM      9  C   UNL A   1      30.996  29.010  22.841  1.00  0.00     0.206 C 
BRANCH   9  10
ATOM     10  C   UNL A   1      29.513  28.899  22.436  1.00  0.00     0.033 C 
ATOM     11  C   UNL A   1      28.832  31.079  21.265  1.00  0.00     0.011 C 
ATOM     12  C   UNL A   1      28.642  30.179  22.495  1.00  0.00    -0.030 C 
ATOM     13  C   UNL A   1      28.865  31.004  23.772  1.00  0.00     0.011 C 
ATOM     14  C   UNL A   1      27.227  29.570  22.478  1.00  0.00     0.007 C 
ATOM     15  C   UNL A   1      27.311  28.333  23.364  1.00  0.00     0.001 C 
ATOM     16  C   UNL A   1      28.763  27.868  23.302  1.00  0.00     0.007 C 
ENDBRANCH   9  10
BRANCH   9  17
ATOM     17  O   UNL A   1      31.762  29.808  21.948  1.00  0.00    -0.383 OA
ATOM     18  H   UNL A   1      31.844  30.705  22.306  1.00  0.00     0.211 HD
ENDBRANCH   9  17
ENDBRANCH   6   9
ENDBRANCH   4   5
ENDBRANCH   3   4
ENDBRANCH   2   3
ENDBRANCH   1   2
BRANCH   1  19
ATOM     19  C   UNL A   1      31.433  32.110  26.816  1.00  0.00     0.021 C 
BRANCH  19  20
ATOM     20  C   UNL A   1      32.697  32.857  27.224  1.00  0.00     0.116 C 
BRANCH  20  21
ATOM     21  N   UNL A   1      32.425  34.235  27.598  1.00  0.00    -0.352 N 
ATOM     22  C   UNL A   1      32.987  34.990  28.595  1.00  0.00     0.251 C 
ATOM     23  H   UNL A   1      31.741  34.693  27.058  1.00  0.00     0.163 HD
ATOM     24  O   UNL A   1      32.508  36.082  28.891  1.00  0.00    -0.269 OA
BRANCH  22  25
ATOM     25  C   UNL A   1      34.157  34.474  29.333  1.00  0.00     0.039 A 
ATOM     26  C   UNL A   1      33.962  33.902  30.592  1.00  0.00     0.014 A 
ATOM     27  C   UNL A   1      35.441  34.551  28.785  1.00  0.00     0.014 A 
ATOM     28  C   UNL A   1      35.048  33.353  31.276  1.00  0.00     0.010 A 
ATOM     29  C   UNL A   1      36.507  33.932  29.431  1.00  0.00     0.010 A 
ATOM     30  C   UNL A   1      36.322  33.332  30.686  1.00  0.00    -0.014 A 
BRANCH  30  31
ATOM     31  C   UNL A   1      37.471  32.683  31.366  1.00  0.00     0.031 A 
ATOM     32  C   UNL A   1      38.195  31.542  30.706  1.00  0.00     0.074 A 
ATOM     33  C   UNL A   1      37.826  33.084  32.603  1.00  0.00     0.049 A 
ATOM     34  N   UNL A   1      39.178  30.808  31.165  1.00  0.00    -0.248 NA
ATOM     35  C   UNL A   1      37.736  31.156  29.362  1.00  0.00     0.031 C 
ATOM     36  C   UNL A   1      37.174  34.149  33.365  1.00  0.00     0.029 A 
ATOM     37  N   UNL A   1      38.815  32.634  33.442  1.00  0.00    -0.354 N 
ATOM     38  C   UNL A   1      39.445  29.873  30.174  1.00  0.00     0.074 A 
ATOM     39  C   UNL A   1      38.484  30.091  29.116  1.00  0.00     0.031 C 
ATOM     40  C   UNL A   1      37.795  34.288  34.546  1.00  0.00     0.029 A 
ATOM     41  C   UNL A   1      38.859  33.294  34.645  1.00  0.00     0.049 A 
ATOM     42  H   UNL A   1      39.436  31.909  33.202  1.00  0.00     0.167 HD
ATOM     43  C   UNL A   1      40.420  28.933  30.140  1.00  0.00     0.037 A 
ATOM     44  C   UNL A   1      39.658  33.110  35.713  1.00  0.00     0.037 A 
ATOM     45  C   UNL A   1      41.385  28.732  31.190  1.00  0.00     0.049 A 
ATOM     46  C   UNL A   1      40.718  32.043  35.658  1.00  0.00     0.074 A 
ATOM     47  C   UNL A   1      42.446  27.843  31.228  1.00  0.00     0.029 A 
ATOM     48  N   UNL A   1      41.401  29.424  32.392  1.00  0.00    -0.354 N 
ATOM     49  N   UNL A   1      41.009  31.211  34.687  1.00  0.00    -0.248 NA
ATOM     50  C   UNL A   1      41.567  31.891  36.848  1.00  0.00     0.031 C 
ATOM     51  C   UNL A   1      43.067  27.956  32.475  1.00  0.00     0.029 A 
ATOM     52  C   UNL A   1      42.436  28.962  33.190  1.00  0.00     0.049 A 
ATOM     53  H   UNL A   1      40.771  30.138  32.642  1.00  0.00     0.167 HD
ATOM     54  C   UNL A   1      42.090  30.463  35.134  1.00  0.00     0.074 A 
ATOM     55  C   UNL A   1      42.415  30.951  36.457  1.00  0.00     0.031 C 
ATOM     56  C   UNL A   1      42.754  29.463  34.504  1.00  0.00     0.037 A 
BRANCH  43  57
ATOM     57  C   UNL A   1      40.493  28.047  28.929  1.00  0.00     0.064 A 
ATOM     58  C   UNL A   1      39.777  26.842  28.850  1.00  0.00     0.173 A 
ATOM     59  C   UNL A   1      41.256  28.428  27.813  1.00  0.00     0.173 A 
ATOM     60  F   UNL A   1      39.042  26.426  29.892  1.00  0.00    -0.203 F 
ATOM     61  C   UNL A   1      39.846  26.038  27.716  1.00  0.00     0.198 A 
ATOM     62  C   UNL A   1      41.295  27.639  26.667  1.00  0.00     0.198 A 
ATOM     63  F   UNL A   1      41.955  29.573  27.831  1.00  0.00    -0.203 F 
ATOM     64  F   UNL A   1      39.196  24.867  27.686  1.00  0.00    -0.200 F 
ATOM     65  C   UNL A   1      40.597  26.441  26.622  1.00  0.00     0.200 A 
ATOM     66  F   UNL A   1      42.009  28.037  25.605  1.00  0.00    -0.200 F 
ATOM     67  F   UNL A   1      40.655  25.672  25.526  1.00  0.00    -0.200 F 
ENDBRANCH  43  57
BRANCH  44  68
ATOM     68  C   UNL A   1      39.499  33.964  36.920  1.00  0.00     0.064 A 
ATOM     69  C   UNL A   1      40.118  35.220  37.003  1.00  0.00     0.173 A 
ATOM     70  C   UNL A   1      38.740  33.539  38.021  1.00  0.00     0.173 A 
ATOM     71  F   UNL A   1      40.872  35.663  35.986  1.00  0.00    -0.203 F 
ATOM     72  C   UNL A   1      40.006  36.004  38.149  1.00  0.00     0.198 A 
ATOM     73  C   UNL A   1      38.601  34.339  39.153  1.00  0.00     0.198 A 
ATOM     74  F   UNL A   1      38.121  32.350  37.992  1.00  0.00    -0.203 F 
ATOM     75  F   UNL A   1      40.654  37.175  38.222  1.00  0.00    -0.200 F 
ATOM     76  C   UNL A   1      39.243  35.566  39.221  1.00  0.00     0.200 A 
ATOM     77  F   UNL A   1      37.848  33.920  40.179  1.00  0.00    -0.200 F 
ATOM     78  F   UNL A   1      39.134  36.322  40.322  1.00  0.00    -0.200 F 
ENDBRANCH  44  68
BRANCH  56  79
ATOM     79  C   UNL A   1      43.927  28.855  35.219  1.00  0.00     0.064 A 
ATOM     80  C   UNL A   1      45.228  29.355  35.064  1.00  0.00     0.173 A 
ATOM     81  C   UNL A   1      43.739  27.780  36.102  1.00  0.00     0.173 A 
ATOM     82  F   UNL A   1      45.466  30.371  34.221  1.00  0.00    -0.203 F 
ATOM     83  C   UNL A   1      46.300  28.783  35.744  1.00  0.00     0.198 A 
ATOM     84  C   UNL A   1      44.807  27.234  36.806  1.00  0.00     0.198 A 
ATOM     85  F   UNL A   1      42.513  27.268  36.292  1.00  0.00    -0.203 F 
ATOM     86  F   UNL A   1      47.543  29.243  35.540  1.00  0.00    -0.200 F 
ATOM     87  C   UNL A   1      46.088  27.730  36.620  1.00  0.00     0.200 A 
ATOM     88  F   UNL A   1      44.596  26.227  37.667  1.00  0.00    -0.200 F 
ATOM     89  F   UNL A   1      47.120  27.188  37.281  1.00  0.00    -0.200 F 
ENDBRANCH  56  79
ENDBRANCH  30  31
ENDBRANCH  22  25
ENDBRANCH  20  21
ENDBRANCH  19  20
ENDBRANCH   1  19
TORSDOF 15
ENDMDL
MODEL 3
REMARK VINA RESULT:     -11.4      6.719     11.870
REMARK SMILES CC1(C)CCC[C@@H]1[C@H](O)C(=O)NCCCCCCNC(=O)c1ccc(-c2c3nc(c(-c4c(F)c(F)c(F)c(F)c4F)c4ccc([nH]4)c(-c4c(F)c(F)c(F)c(F)c4F)c4nc(c(-c5c(F)c(F)c(F)c(F)c5F)c5ccc2[nH]5)C=C4)C=C3)cc1
REMARK SMILES IDX 16 1 15 2 14 3 13 4 12 5 10 6 11 7 8 9 7 10 1 11 2 12 3 13
REMARK SMILES IDX 4 14 5 15 6 16 9 17 17 19 18 20 19 21 20 22 21 24 22 25
REMARK SMILES IDX 23 26 84 27 24 28 83 29 25 30 26 31 27 32 77 33 28 34 82 35
REMARK SMILES IDX 76 36 78 37 29 38 81 39 75 40 74 41 30 43 62 44 42 45 61 46
REMARK SMILES IDX 43 47 46 48 60 49 79 50 44 51 45 52 59 54 80 55 47 56 31 57
REMARK SMILES IDX 32 58 40 59 33 60 34 61 38 62 41 63 35 64 36 65 39 66 37 67
REMARK SMILES IDX 63 68 64 69 72 70 65 71 66 72 70 73 73 74 67 75 68 76 71 77
REMARK SMILES IDX 69 78 48 79 49 80 57 81 50 82 51 83 55 84 58 85 52 86 53 87
REMARK SMILES IDX 56 88 54 89
REMARK H PARENT 12 8 9 18 19 23 78 42 46 53
REMARK Flexibility Score: inf
ROOT
ATOM      1  C   UNL A   1      36.820  20.580  25.012  1.00  0.00     0.002 C 
ENDROOT
BRANCH   1   2
ATOM      2  C   UNL A   1      37.042  22.023  25.474  1.00  0.00     0.002 C 
BRANCH   2   3
ATOM      3  C   UNL A   1      36.056  23.046  24.903  1.00  0.00     0.021 C 
BRANCH   3   4
ATOM      4  C   UNL A   1      35.011  22.451  23.967  1.00  0.00     0.116 C 
BRANCH   4   5
ATOM      5  N   UNL A   1      33.672  22.592  24.505  1.00  0.00    -0.354 N 
ATOM      6  C   UNL A   1      32.879  21.719  25.189  1.00  0.00     0.249 C 
ATOM      7  O   UNL A   1      31.785  22.131  25.581  1.00  0.00    -0.272 OA
ATOM      8  H   UNL A   1      33.264  23.474  24.349  1.00  0.00     0.163 HD
BRANCH   6   9
ATOM      9  C   UNL A   1      33.352  20.279  25.494  1.00  0.00     0.206 C 
BRANCH   9  10
ATOM     10  C   UNL A   1      32.637  19.254  24.591  1.00  0.00     0.033 C 
ATOM     11  C   UNL A   1      32.888  16.931  25.651  1.00  0.00     0.011 C 
ATOM     12  C   UNL A   1      33.251  17.838  24.466  1.00  0.00    -0.030 C 
ATOM     13  C   UNL A   1      34.777  17.853  24.283  1.00  0.00     0.011 C 
ATOM     14  C   UNL A   1      32.552  17.328  23.191  1.00  0.00     0.007 C 
ATOM     15  C   UNL A   1      32.512  18.525  22.249  1.00  0.00     0.001 C 
ATOM     16  C   UNL A   1      32.516  19.764  23.141  1.00  0.00     0.007 C 
ENDBRANCH   9  10
BRANCH   9  17
ATOM     17  O   UNL A   1      33.279  19.954  26.876  1.00  0.00    -0.383 OA
ATOM     18  H   UNL A   1      33.836  19.181  27.056  1.00  0.00     0.211 HD
ENDBRANCH   9  17
ENDBRANCH   6   9
ENDBRANCH   4   5
ENDBRANCH   3   4
ENDBRANCH   2   3
ENDBRANCH   1   2
BRANCH   1  19
ATOM     19  C   UNL A   1      38.091  19.739  24.877  1.00  0.00     0.021 C 
BRANCH  19  20
ATOM     20  C   UNL A   1      39.252  20.196  25.752  1.00  0.00     0.116 C 
BRANCH  20  21
ATOM     21  N   UNL A   1      40.251  19.155  25.929  1.00  0.00    -0.352 N 
ATOM     22  C   UNL A   1      41.599  19.276  26.149  1.00  0.00     0.251 C 
ATOM     23  H   UNL A   1      39.912  18.232  25.887  1.00  0.00     0.163 HD
ATOM     24  O   UNL A   1      42.327  18.288  26.092  1.00  0.00    -0.269 OA
BRANCH  22  25
ATOM     25  C   UNL A   1      42.180  20.604  26.428  1.00  0.00     0.039 A 
ATOM     26  C   UNL A   1      42.623  21.385  25.359  1.00  0.00     0.014 A 
ATOM     27  C   UNL A   1      42.284  21.080  27.738  1.00  0.00     0.014 A 
ATOM     28  C   UNL A   1      43.117  22.668  25.598  1.00  0.00     0.010 A 
ATOM     29  C   UNL A   1      42.700  22.388  27.968  1.00  0.00     0.010 A 
ATOM     30  C   UNL A   1      43.126  23.193  26.901  1.00  0.00    -0.014 A 
BRANCH  30  31
ATOM     31  C   UNL A   1      43.575  24.584  27.164  1.00  0.00     0.031 A 
ATOM     32  C   UNL A   1      42.603  25.607  27.682  1.00  0.00     0.074 A 
ATOM     33  C   UNL A   1      44.844  24.938  26.881  1.00  0.00     0.049 A 
ATOM     34  N   UNL A   1      42.788  26.883  27.914  1.00  0.00    -0.248 NA
ATOM     35  C   UNL A   1      41.233  25.143  27.951  1.00  0.00     0.031 C 
ATOM     36  C   UNL A   1      45.868  24.048  26.334  1.00  0.00     0.029 A 
ATOM     37  N   UNL A   1      45.486  26.146  27.005  1.00  0.00    -0.354 N 
ATOM     38  C   UNL A   1      41.561  27.371  28.343  1.00  0.00     0.074 A 
ATOM     39  C   UNL A   1      40.624  26.270  28.283  1.00  0.00     0.031 C 
ATOM     40  C   UNL A   1      47.015  24.731  26.193  1.00  0.00     0.029 A 
ATOM     41  C   UNL A   1      46.797  26.116  26.596  1.00  0.00     0.049 A 
ATOM     42  H   UNL A   1      45.049  26.955  27.355  1.00  0.00     0.167 HD
ATOM     43  C   UNL A   1      41.250  28.618  28.772  1.00  0.00     0.037 A 
ATOM     44  C   UNL A   1      47.716  27.099  26.540  1.00  0.00     0.037 A 
ATOM     45  C   UNL A   1      42.192  29.705  28.844  1.00  0.00     0.049 A 
ATOM     46  C   UNL A   1      47.337  28.481  27.000  1.00  0.00     0.074 A 
ATOM     47  C   UNL A   1      41.990  30.990  29.316  1.00  0.00     0.029 A 
ATOM     48  N   UNL A   1      43.513  29.635  28.427  1.00  0.00    -0.354 N 
ATOM     49  N   UNL A   1      46.193  28.915  27.472  1.00  0.00    -0.248 NA
ATOM     50  C   UNL A   1      48.381  29.513  26.925  1.00  0.00     0.031 C 
ATOM     51  C   UNL A   1      43.171  31.715  29.129  1.00  0.00     0.029 A 
ATOM     52  C   UNL A   1      44.130  30.864  28.604  1.00  0.00     0.049 A 
ATOM     53  H   UNL A   1      43.949  28.832  28.061  1.00  0.00     0.167 HD
ATOM     54  C   UNL A   1      46.389  30.254  27.779  1.00  0.00     0.074 A 
ATOM     55  C   UNL A   1      47.766  30.559  27.456  1.00  0.00     0.031 C 
ATOM     56  C   UNL A   1      45.506  31.151  28.284  1.00  0.00     0.037 A 
BRANCH  43  57
ATOM     57  C   UNL A   1      39.832  28.877  29.195  1.00  0.00     0.064 A 
ATOM     58  C   UNL A   1      38.861  29.328  28.287  1.00  0.00     0.173 A 
ATOM     59  C   UNL A   1      39.427  28.631  30.516  1.00  0.00     0.173 A 
ATOM     60  F   UNL A   1      39.197  29.589  27.014  1.00  0.00    -0.203 F 
ATOM     61  C   UNL A   1      37.548  29.552  28.692  1.00  0.00     0.198 A 
ATOM     62  C   UNL A   1      38.105  28.823  30.909  1.00  0.00     0.198 A 
ATOM     63  F   UNL A   1      40.312  28.192  31.424  1.00  0.00    -0.203 F 
ATOM     64  F   UNL A   1      36.653  30.033  27.819  1.00  0.00    -0.200 F 
ATOM     65  C   UNL A   1      37.169  29.291  30.000  1.00  0.00     0.200 A 
ATOM     66  F   UNL A   1      37.738  28.555  32.170  1.00  0.00    -0.200 F 
ATOM     67  F   UNL A   1      35.902  29.496  30.386  1.00  0.00    -0.200 F 
ENDBRANCH  43  57
BRANCH  44  68
ATOM     68  C   UNL A   1      49.087  26.811  26.044  1.00  0.00     0.064 A 
ATOM     69  C   UNL A   1      49.426  27.011  24.697  1.00  0.00     0.173 A 
ATOM     70  C   UNL A   1      50.084  26.314  26.897  1.00  0.00     0.173 A 
ATOM     71  F   UNL A   1      48.503  27.466  23.836  1.00  0.00    -0.203 F 
ATOM     72  C   UNL A   1      50.698  26.703  24.220  1.00  0.00     0.198 A 
ATOM     73  C   UNL A   1      51.365  26.038  26.426  1.00  0.00     0.198 A 
ATOM     74  F   UNL A   1      49.816  26.110  28.195  1.00  0.00    -0.203 F 
ATOM     75  F   UNL A   1      50.976  26.853  22.918  1.00  0.00    -0.200 F 
ATOM     76  C   UNL A   1      51.668  26.221  25.086  1.00  0.00     0.200 A 
ATOM     77  F   UNL A   1      52.305  25.589  27.269  1.00  0.00    -0.200 F 
ATOM     78  F   UNL A   1      52.892  25.926  24.626  1.00  0.00    -0.200 F 
ENDBRANCH  44  68
BRANCH  56  79
ATOM     79  C   UNL A   1      46.012  32.539  28.560  1.00  0.00     0.064 A 
ATOM     80  C   UNL A   1      46.610  32.879  29.783  1.00  0.00     0.173 A 
ATOM     81  C   UNL A   1      45.932  33.532  27.572  1.00  0.00     0.173 A 
ATOM     82  F   UNL A   1      46.699  31.972  30.767  1.00  0.00    -0.203 F 
ATOM     83  C   UNL A   1      47.082  34.168  30.014  1.00  0.00     0.198 A 
ATOM     84  C   UNL A   1      46.436  34.809  27.794  1.00  0.00     0.198 A 
ATOM     85  F   UNL A   1      45.375  33.257  26.381  1.00  0.00    -0.203 F 
ATOM     86  F   UNL A   1      47.602  34.485  31.209  1.00  0.00    -0.200 F 
ATOM     87  C   UNL A   1      47.003  35.129  29.018  1.00  0.00     0.200 A 
ATOM     88  F   UNL A   1      46.375  35.731  26.822  1.00  0.00    -0.200 F 
ATOM     89  F   UNL A   1      47.467  36.366  29.239  1.00  0.00    -0.200 F 
ENDBRANCH  56  79
ENDBRANCH  30  31
ENDBRANCH  22  25
ENDBRANCH  20  21
ENDBRANCH  19  20
ENDBRANCH   1  19
TORSDOF 15
ENDMDL
