MODEL 1
REMARK VINA RESULT:     -12.0      0.000      0.000
REMARK SMILES CC1(C)CN(C(=O)NC[C@H]2CC[C@@H](C(=O)NCCCCCCNC(=O)c3ccc(-c4c5nc(c(-c6c(F)c(F)c(F)c(F)c6F)c6ccc([nH]6)c(-c6c(F)c(F)c(F)c(F)c6F)c6nc(c(-c7c(F)c(F)c(F)c(F)c7F)c7ccc4[nH]7)C=C6)C=C5)cc3)CC2)CCO1
REMARK SMILES IDX 19 1 18 2 17 3 16 4 14 5 15 6 13 8 10 9 11 10 90 11 12 12
REMARK SMILES IDX 89 13 9 14 8 15 6 16 7 17 5 19 1 20 2 21 3 22 4 23 93 24
REMARK SMILES IDX 92 25 91 26 20 27 21 28 22 29 23 30 24 31 25 33 26 34 27 35
REMARK SMILES IDX 88 36 28 37 87 38 29 39 30 40 31 41 81 42 32 43 86 44 80 45
REMARK SMILES IDX 82 46 33 47 85 48 79 49 78 50 34 52 66 53 46 54 65 55 47 56
REMARK SMILES IDX 50 57 64 58 83 59 48 60 49 61 63 63 84 64 51 65 35 66 36 67
REMARK SMILES IDX 44 68 37 69 38 70 42 71 45 72 39 73 40 74 43 75 41 76 67 77
REMARK SMILES IDX 68 78 76 79 69 80 70 81 74 82 77 83 71 84 72 85 75 86 73 87
REMARK SMILES IDX 52 88 53 89 61 90 54 91 55 92 59 93 62 94 56 95 57 96 60 97
REMARK SMILES IDX 58 98
REMARK H PARENT 16 7 8 18 23 32 82 51 50 62
REMARK Flexibility Score: inf
ROOT
ATOM      1  C   UNL A   1      34.640  33.161  29.190  1.00  0.00     0.002 C 
ENDROOT
BRANCH   1   2
ATOM      2  C   UNL A   1      35.149  32.053  28.262  1.00  0.00     0.021 C 
BRANCH   2   3
ATOM      3  C   UNL A   1      34.083  31.455  27.346  1.00  0.00     0.116 C 
BRANCH   3   4
ATOM      4  N   UNL A   1      33.711  30.109  27.733  1.00  0.00    -0.356 N 
ATOM      5  C   UNL A   1      33.118  29.114  27.020  1.00  0.00     0.223 C 
ATOM      6  O   UNL A   1      32.959  28.031  27.593  1.00  0.00    -0.275 OA
ATOM      7  H   UNL A   1      33.923  29.877  28.666  1.00  0.00     0.163 HD
BRANCH   5   8
ATOM      8  C   UNL A   1      32.673  29.280  25.566  1.00  0.00     0.078 C 
ATOM      9  C   UNL A   1      31.612  28.653  22.844  1.00  0.00     0.008 C 
ATOM     10  C   UNL A   1      30.742  29.295  23.933  1.00  0.00     0.006 C 
ATOM     11  C   UNL A   1      33.117  28.818  23.114  1.00  0.00     0.006 C 
ATOM     12  C   UNL A   1      31.182  29.009  25.365  1.00  0.00     0.014 C 
ATOM     13  C   UNL A   1      33.553  28.543  24.553  1.00  0.00     0.014 C 
BRANCH   9  14
ATOM     14  C   UNL A   1      31.180  27.233  22.426  1.00  0.00     0.121 C 
BRANCH  14  15
ATOM     15  N   UNL A   1      31.874  26.620  21.313  1.00  0.00    -0.338 N 
ATOM     16  C   UNL A   1      32.751  25.634  21.086  1.00  0.00     0.317 C 
ATOM     17  O   UNL A   1      33.089  25.509  19.903  1.00  0.00    -0.249 OA
ATOM     18  H   UNL A   1      31.626  27.060  20.467  1.00  0.00     0.165 HD
BRANCH  16  19
ATOM     19  N   UNL A   1      33.308  24.866  22.058  1.00  0.00    -0.320 N 
ATOM     20  C   UNL A   1      30.807  23.576  23.343  1.00  0.00     0.044 C 
ATOM     21  C   UNL A   1      32.232  23.005  23.323  1.00  0.00     0.080 C 
ATOM     22  C   UNL A   1      32.141  21.474  23.366  1.00  0.00     0.044 C 
ATOM     23  C   UNL A   1      33.009  23.429  22.060  1.00  0.00     0.156 C 
ATOM     24  O   UNL A   1      32.971  23.402  24.498  1.00  0.00    -0.372 OA
ATOM     25  C   UNL A   1      33.304  24.798  24.520  1.00  0.00     0.182 C 
ATOM     26  C   UNL A   1      34.043  25.262  23.253  1.00  0.00     0.150 C 
ENDBRANCH  16  19
ENDBRANCH  14  15
ENDBRANCH   9  14
ENDBRANCH   5   8
ENDBRANCH   3   4
ENDBRANCH   2   3
ENDBRANCH   1   2
BRANCH   1  27
ATOM     27  C   UNL A   1      34.413  34.533  28.538  1.00  0.00     0.002 C 
BRANCH  27  28
ATOM     28  C   UNL A   1      33.129  35.268  28.934  1.00  0.00     0.021 C 
BRANCH  28  29
ATOM     29  C   UNL A   1      33.307  36.504  29.805  1.00  0.00     0.116 C 
BRANCH  29  30
ATOM     30  N   UNL A   1      32.435  36.487  30.968  1.00  0.00    -0.352 N 
ATOM     31  C   UNL A   1      32.514  35.773  32.138  1.00  0.00     0.251 C 
ATOM     32  H   UNL A   1      31.657  37.088  30.907  1.00  0.00     0.163 HD
ATOM     33  O   UNL A   1      31.556  35.772  32.906  1.00  0.00    -0.269 OA
BRANCH  31  34
ATOM     34  C   UNL A   1      33.724  34.990  32.491  1.00  0.00     0.039 A 
ATOM     35  C   UNL A   1      34.977  35.593  32.331  1.00  0.00     0.014 A 
ATOM     36  C   UNL A   1      33.651  33.657  32.904  1.00  0.00     0.014 A 
ATOM     37  C   UNL A   1      36.145  34.884  32.632  1.00  0.00     0.010 A 
ATOM     38  C   UNL A   1      34.812  32.969  33.263  1.00  0.00     0.010 A 
ATOM     39  C   UNL A   1      36.071  33.573  33.126  1.00  0.00    -0.014 A 
BRANCH  39  40
ATOM     40  C   UNL A   1      37.297  32.817  33.493  1.00  0.00     0.031 A 
ATOM     41  C   UNL A   1      38.017  33.115  34.779  1.00  0.00     0.074 A 
ATOM     42  C   UNL A   1      37.799  31.901  32.642  1.00  0.00     0.049 A 
ATOM     43  N   UNL A   1      39.149  32.633  35.227  1.00  0.00    -0.248 NA
ATOM     44  C   UNL A   1      37.392  34.105  35.670  1.00  0.00     0.031 C 
ATOM     45  C   UNL A   1      37.218  31.539  31.350  1.00  0.00     0.029 A 
ATOM     46  N   UNL A   1      38.925  31.118  32.733  1.00  0.00    -0.354 N 
ATOM     47  C   UNL A   1      39.382  33.273  36.437  1.00  0.00     0.074 A 
ATOM     48  C   UNL A   1      38.292  34.204  36.638  1.00  0.00     0.031 C 
ATOM     49  C   UNL A   1      37.982  30.598  30.772  1.00  0.00     0.029 A 
ATOM     50  C   UNL A   1      39.125  30.316  31.637  1.00  0.00     0.049 A 
ATOM     51  H   UNL A   1      39.529  31.132  33.509  1.00  0.00     0.167 HD
ATOM     52  C   UNL A   1      40.405  33.092  37.307  1.00  0.00     0.037 A 
ATOM     53  C   UNL A   1      40.125  29.460  31.353  1.00  0.00     0.037 A 
ATOM     54  C   UNL A   1      41.472  32.142  37.128  1.00  0.00     0.049 A 
ATOM     55  C   UNL A   1      41.247  29.276  32.336  1.00  0.00     0.074 A 
ATOM     56  C   UNL A   1      42.512  31.839  37.989  1.00  0.00     0.029 A 
ATOM     57  N   UNL A   1      41.633  31.339  36.009  1.00  0.00    -0.354 N 
ATOM     58  N   UNL A   1      41.431  29.854  33.498  1.00  0.00    -0.248 NA
ATOM     59  C   UNL A   1      42.301  28.320  31.968  1.00  0.00     0.031 C 
ATOM     60  C   UNL A   1      43.322  30.876  37.378  1.00  0.00     0.029 A 
ATOM     61  C   UNL A   1      42.767  30.554  36.151  1.00  0.00     0.049 A 
ATOM     62  H   UNL A   1      41.030  31.326  35.231  1.00  0.00     0.167 HD
ATOM     63  C   UNL A   1      42.608  29.322  34.005  1.00  0.00     0.074 A 
ATOM     64  C   UNL A   1      43.089  28.363  33.034  1.00  0.00     0.031 C 
ATOM     65  C   UNL A   1      43.234  29.606  35.174  1.00  0.00     0.037 A 
BRANCH  52  66
ATOM     66  C   UNL A   1      40.420  33.942  38.543  1.00  0.00     0.064 A 
ATOM     67  C   UNL A   1      41.112  35.161  38.586  1.00  0.00     0.173 A 
ATOM     68  C   UNL A   1      39.701  33.552  39.682  1.00  0.00     0.173 A 
ATOM     69  F   UNL A   1      41.823  35.572  37.525  1.00  0.00    -0.203 F 
ATOM     70  C   UNL A   1      41.102  35.949  39.735  1.00  0.00     0.198 A 
ATOM     71  C   UNL A   1      39.673  34.354  40.820  1.00  0.00     0.198 A 
ATOM     72  F   UNL A   1      39.017  32.397  39.689  1.00  0.00    -0.203 F 
ATOM     73  F   UNL A   1      41.802  37.091  39.768  1.00  0.00    -0.200 F 
ATOM     74  C   UNL A   1      40.378  35.547  40.847  1.00  0.00     0.200 A 
ATOM     75  F   UNL A   1      38.965  33.970  41.892  1.00  0.00    -0.200 F 
ATOM     76  F   UNL A   1      40.365  36.310  41.950  1.00  0.00    -0.200 F 
ENDBRANCH  52  66
BRANCH  53  77
ATOM     77  C   UNL A   1      40.104  28.700  30.078  1.00  0.00     0.064 A 
ATOM     78  C   UNL A   1      40.705  29.219  28.923  1.00  0.00     0.173 A 
ATOM     79  C   UNL A   1      39.490  27.443  29.989  1.00  0.00     0.173 A 
ATOM     80  F   UNL A   1      41.283  30.429  28.957  1.00  0.00    -0.203 F 
ATOM     81  C   UNL A   1      40.680  28.516  27.722  1.00  0.00     0.198 A 
ATOM     82  C   UNL A   1      39.485  26.731  28.792  1.00  0.00     0.198 A 
ATOM     83  F   UNL A   1      38.901  26.905  31.066  1.00  0.00    -0.203 F 
ATOM     84  F   UNL A   1      41.229  29.052  26.623  1.00  0.00    -0.200 F 
ATOM     85  C   UNL A   1      40.076  27.269  27.658  1.00  0.00     0.200 A 
ATOM     86  F   UNL A   1      38.906  25.523  28.736  1.00  0.00    -0.200 F 
ATOM     87  F   UNL A   1      40.054  26.591  26.503  1.00  0.00    -0.200 F 
ENDBRANCH  53  77
BRANCH  65  88
ATOM     88  C   UNL A   1      44.500  28.859  35.471  1.00  0.00     0.064 A 
ATOM     89  C   UNL A   1      45.752  29.361  35.087  1.00  0.00     0.173 A 
ATOM     90  C   UNL A   1      44.463  27.648  36.177  1.00  0.00     0.173 A 
ATOM     91  F   UNL A   1      45.836  30.507  34.395  1.00  0.00    -0.203 F 
ATOM     92  C   UNL A   1      46.921  28.667  35.385  1.00  0.00     0.198 A 
ATOM     93  C   UNL A   1      45.636  26.967  36.492  1.00  0.00     0.198 A 
ATOM     94  F   UNL A   1      43.290  27.128  36.568  1.00  0.00    -0.203 F 
ATOM     95  F   UNL A   1      48.104  29.145  34.975  1.00  0.00    -0.200 F 
ATOM     96  C   UNL A   1      46.863  27.474  36.091  1.00  0.00     0.200 A 
ATOM     97  F   UNL A   1      45.579  25.820  37.181  1.00  0.00    -0.200 F 
ATOM     98  F   UNL A   1      47.990  26.810  36.379  1.00  0.00    -0.200 F 
ENDBRANCH  65  88
ENDBRANCH  39  40
ENDBRANCH  31  34
ENDBRANCH  29  30
ENDBRANCH  28  29
ENDBRANCH  27  28
ENDBRANCH   1  27
TORSDOF 16
ENDMDL
MODEL 2
REMARK VINA RESULT:     -12.0      1.317      2.215
REMARK SMILES CC1(C)CN(C(=O)NC[C@H]2CC[C@@H](C(=O)NCCCCCCNC(=O)c3ccc(-c4c5nc(c(-c6c(F)c(F)c(F)c(F)c6F)c6ccc([nH]6)c(-c6c(F)c(F)c(F)c(F)c6F)c6nc(c(-c7c(F)c(F)c(F)c(F)c7F)c7ccc4[nH]7)C=C6)C=C5)cc3)CC2)CCO1
REMARK SMILES IDX 19 1 18 2 17 3 16 4 14 5 15 6 13 8 10 9 11 10 90 11 12 12
REMARK SMILES IDX 89 13 9 14 8 15 6 16 7 17 5 19 1 20 2 21 3 22 4 23 93 24
REMARK SMILES IDX 92 25 91 26 20 27 21 28 22 29 23 30 24 31 25 33 26 34 27 35
REMARK SMILES IDX 88 36 28 37 87 38 29 39 30 40 31 41 81 42 32 43 86 44 80 45
REMARK SMILES IDX 82 46 33 47 85 48 79 49 78 50 34 52 66 53 46 54 65 55 47 56
REMARK SMILES IDX 50 57 64 58 83 59 48 60 49 61 63 63 84 64 51 65 35 66 36 67
REMARK SMILES IDX 44 68 37 69 38 70 42 71 45 72 39 73 40 74 43 75 41 76 67 77
REMARK SMILES IDX 68 78 76 79 69 80 70 81 74 82 77 83 71 84 72 85 75 86 73 87
REMARK SMILES IDX 52 88 53 89 61 90 54 91 55 92 59 93 62 94 56 95 57 96 60 97
REMARK SMILES IDX 58 98
REMARK H PARENT 16 7 8 18 23 32 82 51 50 62
REMARK Flexibility Score: inf
ROOT
ATOM      1  C   UNL A   1      35.283  33.578  29.037  1.00  0.00     0.002 C 
ENDROOT
BRANCH   1   2
ATOM      2  C   UNL A   1      34.417  32.328  29.229  1.00  0.00     0.021 C 
BRANCH   2   3
ATOM      3  C   UNL A   1      34.138  31.549  27.946  1.00  0.00     0.116 C 
BRANCH   3   4
ATOM      4  N   UNL A   1      32.888  31.935  27.323  1.00  0.00    -0.356 N 
ATOM      5  C   UNL A   1      32.013  31.215  26.572  1.00  0.00     0.223 C 
ATOM      6  O   UNL A   1      30.983  31.791  26.203  1.00  0.00    -0.275 OA
ATOM      7  H   UNL A   1      32.630  32.874  27.468  1.00  0.00     0.163 HD
BRANCH   5   8
ATOM      8  C   UNL A   1      32.243  29.750  26.197  1.00  0.00     0.078 C 
ATOM      9  C   UNL A   1      31.720  26.878  25.558  1.00  0.00     0.008 C 
ATOM     10  C   UNL A   1      31.927  27.934  24.464  1.00  0.00     0.006 C 
ATOM     11  C   UNL A   1      32.272  27.322  26.923  1.00  0.00     0.006 C 
ATOM     12  C   UNL A   1      31.584  29.363  24.873  1.00  0.00     0.014 C 
ATOM     13  C   UNL A   1      31.937  28.759  27.323  1.00  0.00     0.014 C 
BRANCH   9  14
ATOM     14  C   UNL A   1      30.308  26.260  25.599  1.00  0.00     0.121 C 
BRANCH  14  15
ATOM     15  N   UNL A   1      30.101  25.113  26.458  1.00  0.00    -0.338 N 
ATOM     16  C   UNL A   1      30.399  23.807  26.493  1.00  0.00     0.317 C 
ATOM     17  O   UNL A   1      29.946  23.203  27.472  1.00  0.00    -0.249 OA
ATOM     18  H   UNL A   1      29.585  25.368  27.257  1.00  0.00     0.165 HD
BRANCH  16  19
ATOM     19  N   UNL A   1      31.071  23.150  25.514  1.00  0.00    -0.320 N 
ATOM     20  C   UNL A   1      33.993  23.980  26.098  1.00  0.00     0.044 C 
ATOM     21  C   UNL A   1      33.522  22.698  25.397  1.00  0.00     0.080 C 
ATOM     22  C   UNL A   1      34.556  21.595  25.658  1.00  0.00     0.044 C 
ATOM     23  C   UNL A   1      32.145  22.231  25.910  1.00  0.00     0.156 C 
ATOM     24  O   UNL A   1      33.467  22.875  23.965  1.00  0.00    -0.372 OA
ATOM     25  C   UNL A   1      32.413  23.749  23.537  1.00  0.00     0.182 C 
ATOM     26  C   UNL A   1      31.030  23.332  24.068  1.00  0.00     0.150 C 
ENDBRANCH  16  19
ENDBRANCH  14  15
ENDBRANCH   9  14
ENDBRANCH   5   8
ENDBRANCH   3   4
ENDBRANCH   2   3
ENDBRANCH   1   2
BRANCH   1  27
ATOM     27  C   UNL A   1      34.632  34.737  28.268  1.00  0.00     0.002 C 
BRANCH  27  28
ATOM     28  C   UNL A   1      33.279  35.224  28.795  1.00  0.00     0.021 C 
BRANCH  28  29
ATOM     29  C   UNL A   1      33.309  36.484  29.651  1.00  0.00     0.116 C 
BRANCH  29  30
ATOM     30  N   UNL A   1      32.407  36.398  30.787  1.00  0.00    -0.352 N 
ATOM     31  C   UNL A   1      32.497  35.674  31.950  1.00  0.00     0.251 C 
ATOM     32  H   UNL A   1      31.597  36.952  30.711  1.00  0.00     0.163 HD
ATOM     33  O   UNL A   1      31.520  35.604  32.690  1.00  0.00    -0.269 OA
BRANCH  31  34
ATOM     34  C   UNL A   1      33.742  34.961  32.329  1.00  0.00     0.039 A 
ATOM     35  C   UNL A   1      33.635  33.660  32.835  1.00  0.00     0.014 A 
ATOM     36  C   UNL A   1      34.996  35.572  32.264  1.00  0.00     0.014 A 
ATOM     37  C   UNL A   1      34.781  32.958  33.225  1.00  0.00     0.010 A 
ATOM     38  C   UNL A   1      36.146  34.851  32.594  1.00  0.00     0.010 A 
ATOM     39  C   UNL A   1      36.050  33.539  33.083  1.00  0.00    -0.014 A 
BRANCH  39  40
ATOM     40  C   UNL A   1      37.284  32.795  33.449  1.00  0.00     0.031 A 
ATOM     41  C   UNL A   1      37.992  33.088  34.743  1.00  0.00     0.074 A 
ATOM     42  C   UNL A   1      37.804  31.896  32.591  1.00  0.00     0.049 A 
ATOM     43  N   UNL A   1      39.128  32.615  35.193  1.00  0.00    -0.248 NA
ATOM     44  C   UNL A   1      37.349  34.058  35.641  1.00  0.00     0.031 C 
ATOM     45  C   UNL A   1      37.235  31.542  31.291  1.00  0.00     0.029 A 
ATOM     46  N   UNL A   1      38.939  31.128  32.679  1.00  0.00    -0.354 N 
ATOM     47  C   UNL A   1      39.345  33.245  36.411  1.00  0.00     0.074 A 
ATOM     48  C   UNL A   1      38.242  34.158  36.616  1.00  0.00     0.031 C 
ATOM     49  C   UNL A   1      38.015  30.618  30.707  1.00  0.00     0.029 A 
ATOM     50  C   UNL A   1      39.157  30.342  31.575  1.00  0.00     0.049 A 
ATOM     51  H   UNL A   1      39.539  31.140  33.459  1.00  0.00     0.167 HD
ATOM     52  C   UNL A   1      40.365  33.067  37.285  1.00  0.00     0.037 A 
ATOM     53  C   UNL A   1      40.170  29.502  31.287  1.00  0.00     0.037 A 
ATOM     54  C   UNL A   1      41.445  32.133  37.102  1.00  0.00     0.049 A 
ATOM     55  C   UNL A   1      41.288  29.322  32.275  1.00  0.00     0.074 A 
ATOM     56  C   UNL A   1      42.485  31.835  37.966  1.00  0.00     0.029 A 
ATOM     57  N   UNL A   1      41.624  31.346  35.975  1.00  0.00    -0.354 N 
ATOM     58  N   UNL A   1      41.458  29.888  33.445  1.00  0.00    -0.248 NA
ATOM     59  C   UNL A   1      42.358  28.384  31.902  1.00  0.00     0.031 C 
ATOM     60  C   UNL A   1      43.312  30.890  37.348  1.00  0.00     0.029 A 
ATOM     61  C   UNL A   1      42.768  30.575  36.114  1.00  0.00     0.049 A 
ATOM     62  H   UNL A   1      41.026  31.334  35.193  1.00  0.00     0.167 HD
ATOM     63  C   UNL A   1      42.639  29.366  33.953  1.00  0.00     0.074 A 
ATOM     64  C   UNL A   1      43.139  28.426  32.973  1.00  0.00     0.031 C 
ATOM     65  C   UNL A   1      43.254  29.645  35.128  1.00  0.00     0.037 A 
BRANCH  52  66
ATOM     66  C   UNL A   1      40.362  33.902  38.531  1.00  0.00     0.064 A 
ATOM     67  C   UNL A   1      41.051  35.121  38.598  1.00  0.00     0.173 A 
ATOM     68  C   UNL A   1      39.627  33.498  39.655  1.00  0.00     0.173 A 
ATOM     69  F   UNL A   1      41.776  35.546  37.553  1.00  0.00    -0.203 F 
ATOM     70  C   UNL A   1      41.023  35.896  39.756  1.00  0.00     0.198 A 
ATOM     71  C   UNL A   1      39.581  34.286  40.802  1.00  0.00     0.198 A 
ATOM     72  F   UNL A   1      38.945  32.343  39.639  1.00  0.00    -0.203 F 
ATOM     73  F   UNL A   1      41.721  37.038  39.812  1.00  0.00    -0.200 F 
ATOM     74  C   UNL A   1      40.284  35.480  40.853  1.00  0.00     0.200 A 
ATOM     75  F   UNL A   1      38.858  33.889  41.859  1.00  0.00    -0.200 F 
ATOM     76  F   UNL A   1      40.254  36.230  41.965  1.00  0.00    -0.200 F 
ENDBRANCH  52  66
BRANCH  53  77
ATOM     77  C   UNL A   1      40.167  28.757  30.003  1.00  0.00     0.064 A 
ATOM     78  C   UNL A   1      39.557  27.499  29.906  1.00  0.00     0.173 A 
ATOM     79  C   UNL A   1      40.769  29.284  28.853  1.00  0.00     0.173 A 
ATOM     80  F   UNL A   1      38.990  26.946  30.988  1.00  0.00    -0.203 F 
ATOM     81  C   UNL A   1      39.560  26.790  28.708  1.00  0.00     0.198 A 
ATOM     82  C   UNL A   1      40.752  28.584  27.649  1.00  0.00     0.198 A 
ATOM     83  F   UNL A   1      41.367  30.484  28.896  1.00  0.00    -0.203 F 
ATOM     84  F   UNL A   1      39.003  25.573  28.651  1.00  0.00    -0.200 F 
ATOM     85  C   UNL A   1      40.153  27.335  27.578  1.00  0.00     0.200 A 
ATOM     86  F   UNL A   1      41.319  29.117  26.557  1.00  0.00    -0.200 F 
ATOM     87  F   UNL A   1      40.153  26.653  26.424  1.00  0.00    -0.200 F 
ENDBRANCH  53  77
BRANCH  65  88
ATOM     88  C   UNL A   1      44.528  28.911  35.425  1.00  0.00     0.064 A 
ATOM     89  C   UNL A   1      45.767  29.389  34.976  1.00  0.00     0.173 A 
ATOM     90  C   UNL A   1      44.512  27.739  36.195  1.00  0.00     0.173 A 
ATOM     91  F   UNL A   1      45.830  30.497  34.221  1.00  0.00    -0.203 F 
ATOM     92  C   UNL A   1      46.945  28.709  35.272  1.00  0.00     0.198 A 
ATOM     93  C   UNL A   1      45.694  27.073  36.508  1.00  0.00     0.198 A 
ATOM     94  F   UNL A   1      43.352  27.244  36.650  1.00  0.00    -0.203 F 
ATOM     95  F   UNL A   1      48.115  29.162  34.801  1.00  0.00    -0.200 F 
ATOM     96  C   UNL A   1      46.908  27.555  36.042  1.00  0.00     0.200 A 
ATOM     97  F   UNL A   1      45.658  25.964  37.258  1.00  0.00    -0.200 F 
ATOM     98  F   UNL A   1      48.043  26.905  36.329  1.00  0.00    -0.200 F 
ENDBRANCH  65  88
ENDBRANCH  39  40
ENDBRANCH  31  34
ENDBRANCH  29  30
ENDBRANCH  28  29
ENDBRANCH  27  28
ENDBRANCH   1  27
TORSDOF 16
ENDMDL
MODEL 3
REMARK VINA RESULT:     -11.9      0.470      2.177
REMARK SMILES CC1(C)CN(C(=O)NC[C@H]2CC[C@@H](C(=O)NCCCCCCNC(=O)c3ccc(-c4c5nc(c(-c6c(F)c(F)c(F)c(F)c6F)c6ccc([nH]6)c(-c6c(F)c(F)c(F)c(F)c6F)c6nc(c(-c7c(F)c(F)c(F)c(F)c7F)c7ccc4[nH]7)C=C6)C=C5)cc3)CC2)CCO1
REMARK SMILES IDX 19 1 18 2 17 3 16 4 14 5 15 6 13 8 10 9 11 10 90 11 12 12
REMARK SMILES IDX 89 13 9 14 8 15 6 16 7 17 5 19 1 20 2 21 3 22 4 23 93 24
REMARK SMILES IDX 92 25 91 26 20 27 21 28 22 29 23 30 24 31 25 33 26 34 27 35
REMARK SMILES IDX 88 36 28 37 87 38 29 39 30 40 31 41 81 42 32 43 86 44 80 45
REMARK SMILES IDX 82 46 33 47 85 48 79 49 78 50 34 52 66 53 46 54 65 55 47 56
REMARK SMILES IDX 50 57 64 58 83 59 48 60 49 61 63 63 84 64 51 65 35 66 36 67
REMARK SMILES IDX 44 68 37 69 38 70 42 71 45 72 39 73 40 74 43 75 41 76 67 77
REMARK SMILES IDX 68 78 76 79 69 80 70 81 74 82 77 83 71 84 72 85 75 86 73 87
REMARK SMILES IDX 52 88 53 89 61 90 54 91 55 92 59 93 62 94 56 95 57 96 60 97
REMARK SMILES IDX 58 98
REMARK H PARENT 16 7 8 18 23 32 82 51 50 62
REMARK Flexibility Score: inf
ROOT
ATOM      1  C   UNL A   1      34.555  32.795  29.299  1.00  0.00     0.002 C 
ENDROOT
BRANCH   1   2
ATOM      2  C   UNL A   1      34.774  32.016  27.997  1.00  0.00     0.021 C 
BRANCH   2   3
ATOM      3  C   UNL A   1      33.576  31.179  27.552  1.00  0.00     0.116 C 
BRANCH   3   4
ATOM      4  N   UNL A   1      33.862  29.759  27.548  1.00  0.00    -0.356 N 
ATOM      5  C   UNL A   1      33.647  28.815  26.594  1.00  0.00     0.223 C 
ATOM      6  O   UNL A   1      34.040  27.669  26.838  1.00  0.00    -0.275 OA
ATOM      7  H   UNL A   1      34.283  29.422  28.372  1.00  0.00     0.163 HD
BRANCH   5   8
ATOM      8  C   UNL A   1      32.971  29.119  25.255  1.00  0.00     0.078 C 
ATOM      9  C   UNL A   1      31.463  28.756  22.701  1.00  0.00     0.008 C 
ATOM     10  C   UNL A   1      30.797  29.295  23.974  1.00  0.00     0.006 C 
ATOM     11  C   UNL A   1      32.995  28.889  22.731  1.00  0.00     0.006 C 
ATOM     12  C   UNL A   1      31.462  28.873  25.280  1.00  0.00     0.014 C 
ATOM     13  C   UNL A   1      33.657  28.478  24.047  1.00  0.00     0.014 C 
BRANCH   9  14
ATOM     14  C   UNL A   1      30.941  27.383  22.231  1.00  0.00     0.121 C 
BRANCH  14  15
ATOM     15  N   UNL A   1      31.870  26.510  21.545  1.00  0.00    -0.338 N 
ATOM     16  C   UNL A   1      32.446  25.313  21.713  1.00  0.00     0.317 C 
ATOM     17  O   UNL A   1      33.241  24.995  20.819  1.00  0.00    -0.249 OA
ATOM     18  H   UNL A   1      32.170  26.920  20.701  1.00  0.00     0.165 HD
BRANCH  16  19
ATOM     19  N   UNL A   1      32.261  24.520  22.798  1.00  0.00    -0.320 N 
ATOM     20  C   UNL A   1      35.176  23.827  23.569  1.00  0.00     0.044 C 
ATOM     21  C   UNL A   1      33.958  23.863  24.504  1.00  0.00     0.080 C 
ATOM     22  C   UNL A   1      34.443  24.214  25.917  1.00  0.00     0.044 C 
ATOM     23  C   UNL A   1      32.914  24.904  24.055  1.00  0.00     0.156 C 
ATOM     24  O   UNL A   1      33.334  22.565  24.599  1.00  0.00    -0.372 OA
ATOM     25  C   UNL A   1      32.663  22.163  23.395  1.00  0.00     0.182 C 
ATOM     26  C   UNL A   1      31.643  23.202  22.898  1.00  0.00     0.150 C 
ENDBRANCH  16  19
ENDBRANCH  14  15
ENDBRANCH   9  14
ENDBRANCH   5   8
ENDBRANCH   3   4
ENDBRANCH   2   3
ENDBRANCH   1   2
BRANCH   1  27
ATOM     27  C   UNL A   1      34.637  34.325  29.189  1.00  0.00     0.002 C 
BRANCH  27  28
ATOM     28  C   UNL A   1      33.303  35.070  29.090  1.00  0.00     0.021 C 
BRANCH  28  29
ATOM     29  C   UNL A   1      33.240  36.425  29.784  1.00  0.00     0.116 C 
BRANCH  29  30
ATOM     30  N   UNL A   1      32.375  36.404  30.951  1.00  0.00    -0.352 N 
ATOM     31  C   UNL A   1      32.492  35.732  32.142  1.00  0.00     0.251 C 
ATOM     32  H   UNL A   1      31.570  36.967  30.876  1.00  0.00     0.163 HD
ATOM     33  O   UNL A   1      31.538  35.711  32.916  1.00  0.00    -0.269 OA
BRANCH  31  34
ATOM     34  C   UNL A   1      33.737  35.016  32.513  1.00  0.00     0.039 A 
ATOM     35  C   UNL A   1      33.641  33.681  32.924  1.00  0.00     0.014 A 
ATOM     36  C   UNL A   1      34.981  35.652  32.534  1.00  0.00     0.014 A 
ATOM     37  C   UNL A   1      34.787  32.974  33.303  1.00  0.00     0.010 A 
ATOM     38  C   UNL A   1      36.133  34.930  32.852  1.00  0.00     0.010 A 
ATOM     39  C   UNL A   1      36.048  33.586  33.245  1.00  0.00    -0.014 A 
BRANCH  39  40
ATOM     40  C   UNL A   1      37.283  32.840  33.601  1.00  0.00     0.031 A 
ATOM     41  C   UNL A   1      38.001  33.129  34.890  1.00  0.00     0.074 A 
ATOM     42  C   UNL A   1      37.797  31.943  32.736  1.00  0.00     0.049 A 
ATOM     43  N   UNL A   1      39.140  32.654  35.331  1.00  0.00    -0.248 NA
ATOM     44  C   UNL A   1      37.365  34.097  35.796  1.00  0.00     0.031 C 
ATOM     45  C   UNL A   1      37.219  31.593  31.439  1.00  0.00     0.029 A 
ATOM     46  N   UNL A   1      38.932  31.174  32.814  1.00  0.00    -0.354 N 
ATOM     47  C   UNL A   1      39.366  33.280  36.549  1.00  0.00     0.074 A 
ATOM     48  C   UNL A   1      38.264  34.194  36.765  1.00  0.00     0.031 C 
ATOM     49  C   UNL A   1      37.994  30.670  30.848  1.00  0.00     0.029 A 
ATOM     50  C   UNL A   1      39.141  30.390  31.707  1.00  0.00     0.049 A 
ATOM     51  H   UNL A   1      39.537  31.183  33.591  1.00  0.00     0.167 HD
ATOM     52  C   UNL A   1      40.392  33.099  37.416  1.00  0.00     0.037 A 
ATOM     53  C   UNL A   1      40.152  29.551  31.410  1.00  0.00     0.037 A 
ATOM     54  C   UNL A   1      41.470  32.165  37.222  1.00  0.00     0.049 A 
ATOM     55  C   UNL A   1      41.277  29.367  32.390  1.00  0.00     0.074 A 
ATOM     56  C   UNL A   1      42.515  31.864  38.078  1.00  0.00     0.029 A 
ATOM     57  N   UNL A   1      41.640  31.381  36.092  1.00  0.00    -0.354 N 
ATOM     58  N   UNL A   1      41.455  29.930  33.559  1.00  0.00    -0.248 NA
ATOM     59  C   UNL A   1      42.344  28.430  32.006  1.00  0.00     0.031 C 
ATOM     60  C   UNL A   1      43.337  30.920  37.452  1.00  0.00     0.029 A 
ATOM     61  C   UNL A   1      42.784  30.609  36.221  1.00  0.00     0.049 A 
ATOM     62  H   UNL A   1      41.037  31.372  35.314  1.00  0.00     0.167 HD
ATOM     63  C   UNL A   1      42.639  29.406  34.058  1.00  0.00     0.074 A 
ATOM     64  C   UNL A   1      43.132  28.468  33.073  1.00  0.00     0.031 C 
ATOM     65  C   UNL A   1      43.263  29.681  35.230  1.00  0.00     0.037 A 
BRANCH  52  66
ATOM     66  C   UNL A   1      40.397  33.931  38.664  1.00  0.00     0.064 A 
ATOM     67  C   UNL A   1      39.779  33.489  39.842  1.00  0.00     0.173 A 
ATOM     68  C   UNL A   1      41.064  35.165  38.693  1.00  0.00     0.173 A 
ATOM     69  F   UNL A   1      39.120  32.320  39.862  1.00  0.00    -0.203 F 
ATOM     70  C   UNL A   1      39.808  34.264  41.000  1.00  0.00     0.198 A 
ATOM     71  C   UNL A   1      41.112  35.925  39.858  1.00  0.00     0.198 A 
ATOM     72  F   UNL A   1      41.677  35.629  37.593  1.00  0.00    -0.203 F 
ATOM     73  F   UNL A   1      39.178  33.840  42.103  1.00  0.00    -0.200 F 
ATOM     74  C   UNL A   1      40.479  35.477  41.008  1.00  0.00     0.200 A 
ATOM     75  F   UNL A   1      41.770  37.094  39.868  1.00  0.00    -0.200 F 
ATOM     76  F   UNL A   1      40.511  36.219  42.124  1.00  0.00    -0.200 F 
ENDBRANCH  52  66
BRANCH  53  77
ATOM     77  C   UNL A   1      40.140  28.809  30.124  1.00  0.00     0.064 A 
ATOM     78  C   UNL A   1      39.512  27.560  30.023  1.00  0.00     0.173 A 
ATOM     79  C   UNL A   1      40.750  29.331  28.976  1.00  0.00     0.173 A 
ATOM     80  F   UNL A   1      38.936  27.012  31.103  1.00  0.00    -0.203 F 
ATOM     81  C   UNL A   1      39.506  26.854  28.823  1.00  0.00     0.198 A 
ATOM     82  C   UNL A   1      40.725  28.634  27.770  1.00  0.00     0.198 A 
ATOM     83  F   UNL A   1      41.365  30.521  29.023  1.00  0.00    -0.203 F 
ATOM     84  F   UNL A   1      38.932  25.645  28.762  1.00  0.00    -0.200 F 
ATOM     85  C   UNL A   1      40.107  27.393  27.695  1.00  0.00     0.200 A 
ATOM     86  F   UNL A   1      41.301  29.161  26.680  1.00  0.00    -0.200 F 
ATOM     87  F   UNL A   1      40.099  26.715  26.540  1.00  0.00    -0.200 F 
ENDBRANCH  53  77
BRANCH  65  88
ATOM     88  C   UNL A   1      44.538  28.946  35.515  1.00  0.00     0.064 A 
ATOM     89  C   UNL A   1      44.536  27.706  36.170  1.00  0.00     0.173 A 
ATOM     90  C   UNL A   1      45.771  29.469  35.098  1.00  0.00     0.173 A 
ATOM     91  F   UNL A   1      43.383  27.173  36.602  1.00  0.00    -0.203 F 
ATOM     92  C   UNL A   1      45.725  27.024  36.413  1.00  0.00     0.198 A 
ATOM     93  C   UNL A   1      46.956  28.775  35.324  1.00  0.00     0.198 A 
ATOM     94  F   UNL A   1      45.824  30.651  34.466  1.00  0.00    -0.203 F 
ATOM     95  F   UNL A   1      45.704  25.859  37.075  1.00  0.00    -0.200 F 
ATOM     96  C   UNL A   1      46.933  27.556  35.985  1.00  0.00     0.200 A 
ATOM     97  F   UNL A   1      48.121  29.286  34.903  1.00  0.00    -0.200 F 
ATOM     98  F   UNL A   1      48.076  26.897  36.218  1.00  0.00    -0.200 F 
ENDBRANCH  65  88
ENDBRANCH  39  40
ENDBRANCH  31  34
ENDBRANCH  29  30
ENDBRANCH  28  29
ENDBRANCH  27  28
ENDBRANCH   1  27
TORSDOF 16
ENDMDL
