MODEL 1
REMARK VINA RESULT:     -11.3      0.000      0.000
REMARK SMILES Cc1nnc(S[C@@H](C)CCO)c(C(=O)NCCCCCCNC(=O)c2ccc(-c3c4nc(c(-c5c(F)c(F)c(F)c(F)c5F)c5ccc([nH]5)c(-c5c(F)c(F)c(F)c(F)c5F)c5nc(c(-c6c(F)c(F)c(F)c(F)c6F)c6ccc3[nH]6)C=C5)C=C4)cc2)c1C
REMARK SMILES IDX 17 1 16 2 15 3 13 4 14 5 12 7 1 8 2 9 3 10 88 11 4 12 89 13
REMARK SMILES IDX 5 14 6 15 7 16 8 17 9 18 10 19 11 20 18 22 19 23 20 24 21 25
REMARK SMILES IDX 22 26 23 27 24 29 25 30 26 31 87 32 27 33 86 34 28 35 29 36
REMARK SMILES IDX 30 37 80 38 31 39 85 40 79 41 81 42 32 43 84 44 78 45 77 46
REMARK SMILES IDX 33 48 65 49 45 50 64 51 46 52 49 53 63 54 82 55 47 56 48 57
REMARK SMILES IDX 62 59 83 60 50 61 34 62 35 63 43 64 36 65 37 66 41 67 44 68
REMARK SMILES IDX 38 69 39 70 42 71 40 72 66 73 67 74 75 75 68 76 69 77 73 78
REMARK SMILES IDX 76 79 70 80 71 81 74 82 72 83 51 84 52 85 60 86 53 87 54 88
REMARK SMILES IDX 58 89 61 90 55 91 56 92 59 93 57 94
REMARK H PARENT 15 6 11 21 22 28 81 47 49 58
REMARK Flexibility Score: inf
ROOT
ATOM      1  C   UNL A   1      33.890  29.318  26.933  1.00  0.00     0.021 C 
ENDROOT
BRANCH   1   2
ATOM      2  C   UNL A   1      33.973  27.946  26.274  1.00  0.00     0.116 C 
BRANCH   2   3
ATOM      3  N   UNL A   1      32.844  27.065  26.500  1.00  0.00    -0.352 N 
ATOM      4  C   UNL A   1      32.607  25.765  26.093  1.00  0.00     0.254 C 
ATOM      5  O   UNL A   1      31.760  25.134  26.714  1.00  0.00    -0.269 OA
ATOM      6  H   UNL A   1      32.121  27.462  27.038  1.00  0.00     0.163 HD
BRANCH   4   7
ATOM      7  C   UNL A   1      33.306  25.132  24.950  1.00  0.00     0.078 A 
ATOM      8  C   UNL A   1      36.004  22.521  24.172  1.00  0.00     0.069 C 
ATOM      9  C   UNL A   1      34.987  23.619  24.077  1.00  0.00     0.064 A 
ATOM     10  N   UNL A   1      34.788  24.109  22.847  1.00  0.00    -0.155 NA
ATOM     11  C   UNL A   1      34.240  24.078  25.165  1.00  0.00    -0.012 A 
ATOM     12  N   UNL A   1      33.779  25.002  22.625  1.00  0.00    -0.143 NA
ATOM     13  C   UNL A   1      34.409  23.372  26.485  1.00  0.00     0.047 C 
ATOM     14  C   UNL A   1      32.999  25.487  23.625  1.00  0.00     0.132 A 
BRANCH  14  15
ATOM     15  S   UNL A   1      31.548  26.189  22.857  1.00  0.00    -0.101 SA
BRANCH  15  16
ATOM     16  C   UNL A   1      31.192  27.911  23.382  1.00  0.00     0.052 C 
ATOM     17  C   UNL A   1      32.387  28.813  23.057  1.00  0.00     0.020 C 
BRANCH  16  18
ATOM     18  C   UNL A   1      29.806  28.492  23.085  1.00  0.00     0.043 C 
BRANCH  18  19
ATOM     19  C   UNL A   1      29.868  29.930  22.564  1.00  0.00     0.157 C 
BRANCH  19  20
ATOM     20  O   UNL A   1      30.037  29.943  21.149  1.00  0.00    -0.396 OA
ATOM     21  H   UNL A   1      30.352  30.817  20.869  1.00  0.00     0.210 HD
ENDBRANCH  19  20
ENDBRANCH  18  19
ENDBRANCH  16  18
ENDBRANCH  15  16
ENDBRANCH  14  15
ENDBRANCH   4   7
ENDBRANCH   2   3
ENDBRANCH   1   2
BRANCH   1  22
ATOM     22  C   UNL A   1      32.505  29.882  27.269  1.00  0.00     0.002 C 
BRANCH  22  23
ATOM     23  C   UNL A   1      31.780  30.741  26.228  1.00  0.00     0.002 C 
BRANCH  23  24
ATOM     24  C   UNL A   1      31.593  32.221  26.546  1.00  0.00     0.021 C 
BRANCH  24  25
ATOM     25  C   UNL A   1      32.758  32.894  27.252  1.00  0.00     0.116 C 
BRANCH  25  26
ATOM     26  N   UNL A   1      32.478  34.267  27.630  1.00  0.00    -0.352 N 
ATOM     27  C   UNL A   1      33.026  34.991  28.664  1.00  0.00     0.251 C 
ATOM     28  H   UNL A   1      31.812  34.739  27.079  1.00  0.00     0.163 HD
ATOM     29  O   UNL A   1      32.618  36.101  28.959  1.00  0.00    -0.269 OA
BRANCH  27  30
ATOM     30  C   UNL A   1      34.120  34.368  29.434  1.00  0.00     0.039 A 
ATOM     31  C   UNL A   1      33.802  33.527  30.501  1.00  0.00     0.014 A 
ATOM     32  C   UNL A   1      35.446  34.554  29.030  1.00  0.00     0.014 A 
ATOM     33  C   UNL A   1      34.825  32.833  31.145  1.00  0.00     0.010 A 
ATOM     34  C   UNL A   1      36.452  33.797  29.617  1.00  0.00     0.010 A 
ATOM     35  C   UNL A   1      36.152  32.951  30.696  1.00  0.00    -0.014 A 
BRANCH  35  36
ATOM     36  C   UNL A   1      37.248  32.266  31.415  1.00  0.00     0.031 A 
ATOM     37  C   UNL A   1      37.975  31.142  30.735  1.00  0.00     0.074 A 
ATOM     38  C   UNL A   1      37.594  32.653  32.656  1.00  0.00     0.049 A 
ATOM     39  N   UNL A   1      39.010  30.458  31.146  1.00  0.00    -0.248 NA
ATOM     40  C   UNL A   1      37.457  30.716  29.424  1.00  0.00     0.031 C 
ATOM     41  C   UNL A   1      36.936  33.709  33.425  1.00  0.00     0.029 A 
ATOM     42  N   UNL A   1      38.598  32.213  33.482  1.00  0.00    -0.354 N 
ATOM     43  C   UNL A   1      39.279  29.547  30.136  1.00  0.00     0.074 A 
ATOM     44  C   UNL A   1      38.241  29.690  29.141  1.00  0.00     0.031 C 
ATOM     45  C   UNL A   1      37.583  33.869  34.592  1.00  0.00     0.029 A 
ATOM     46  C   UNL A   1      38.688  32.914  34.659  1.00  0.00     0.049 A 
ATOM     47  H   UNL A   1      39.197  31.467  33.252  1.00  0.00     0.167 HD
ATOM     48  C   UNL A   1      40.329  28.704  30.019  1.00  0.00     0.037 A 
ATOM     49  C   UNL A   1      39.579  32.810  35.665  1.00  0.00     0.037 A 
ATOM     50  C   UNL A   1      41.358  28.567  31.010  1.00  0.00     0.049 A 
ATOM     51  C   UNL A   1      40.696  31.806  35.553  1.00  0.00     0.074 A 
ATOM     52  C   UNL A   1      42.479  27.760  30.983  1.00  0.00     0.029 A 
ATOM     53  N   UNL A   1      41.383  29.254  32.216  1.00  0.00    -0.354 N 
ATOM     54  N   UNL A   1      40.990  31.006  34.557  1.00  0.00    -0.248 NA
ATOM     55  C   UNL A   1      41.606  31.692  36.702  1.00  0.00     0.031 C 
ATOM     56  C   UNL A   1      43.155  27.918  32.196  1.00  0.00     0.029 A 
ATOM     57  C   UNL A   1      42.484  28.862  32.958  1.00  0.00     0.049 A 
ATOM     58  H   UNL A   1      40.717  29.921  32.501  1.00  0.00     0.167 HD
ATOM     59  C   UNL A   1      42.128  30.310  34.946  1.00  0.00     0.074 A 
ATOM     60  C   UNL A   1      42.479  30.793  36.265  1.00  0.00     0.031 C 
ATOM     61  C   UNL A   1      42.817  29.358  34.270  1.00  0.00     0.037 A 
BRANCH  48  62
ATOM     62  C   UNL A   1      40.418  27.889  28.763  1.00  0.00     0.064 A 
ATOM     63  C   UNL A   1      39.777  26.644  28.657  1.00  0.00     0.173 A 
ATOM     64  C   UNL A   1      41.137  28.353  27.652  1.00  0.00     0.173 A 
ATOM     65  F   UNL A   1      39.090  26.147  29.697  1.00  0.00    -0.203 F 
ATOM     66  C   UNL A   1      39.883  25.878  27.499  1.00  0.00     0.198 A 
ATOM     67  C   UNL A   1      41.211  27.600  26.483  1.00  0.00     0.198 A 
ATOM     68  F   UNL A   1      41.766  29.537  27.699  1.00  0.00    -0.203 F 
ATOM     69  F   UNL A   1      39.313  24.667  27.445  1.00  0.00    -0.200 F 
ATOM     70  C   UNL A   1      40.593  26.361  26.410  1.00  0.00     0.200 A 
ATOM     71  F   UNL A   1      41.888  28.072  25.427  1.00  0.00    -0.200 F 
ATOM     72  F   UNL A   1      40.690  25.626  25.294  1.00  0.00    -0.200 F 
ENDBRANCH  48  62
BRANCH  49  73
ATOM     73  C   UNL A   1      39.485  33.731  36.828  1.00  0.00     0.064 A 
ATOM     74  C   UNL A   1      40.095  34.993  36.788  1.00  0.00     0.173 A 
ATOM     75  C   UNL A   1      38.758  33.394  37.978  1.00  0.00     0.173 A 
ATOM     76  F   UNL A   1      40.816  35.355  35.718  1.00  0.00    -0.203 F 
ATOM     77  C   UNL A   1      39.982  35.882  37.857  1.00  0.00     0.198 A 
ATOM     78  C   UNL A   1      38.625  34.291  39.035  1.00  0.00     0.198 A 
ATOM     79  F   UNL A   1      38.151  32.200  38.062  1.00  0.00    -0.203 F 
ATOM     80  F   UNL A   1      40.592  37.072  37.803  1.00  0.00    -0.200 F 
ATOM     81  C   UNL A   1      39.239  35.533  38.975  1.00  0.00     0.200 A 
ATOM     82  F   UNL A   1      37.894  33.957  40.107  1.00  0.00    -0.200 F 
ATOM     83  F   UNL A   1      39.115  36.395  39.995  1.00  0.00    -0.200 F 
ENDBRANCH  49  73
BRANCH  61  84
ATOM     84  C   UNL A   1      44.022  28.758  34.932  1.00  0.00     0.064 A 
ATOM     85  C   UNL A   1      43.927  27.573  35.674  1.00  0.00     0.173 A 
ATOM     86  C   UNL A   1      45.299  29.299  34.710  1.00  0.00     0.173 A 
ATOM     87  F   UNL A   1      42.728  27.025  35.921  1.00  0.00    -0.203 F 
ATOM     88  C   UNL A   1      45.069  26.946  36.166  1.00  0.00     0.198 A 
ATOM     89  C   UNL A   1      46.439  28.654  35.180  1.00  0.00     0.198 A 
ATOM     90  F   UNL A   1      45.441  30.426  33.997  1.00  0.00    -0.203 F 
ATOM     91  F   UNL A   1      44.955  25.820  36.884  1.00  0.00    -0.200 F 
ATOM     92  C   UNL A   1      46.324  27.478  35.906  1.00  0.00     0.200 A 
ATOM     93  F   UNL A   1      47.651  29.158  34.910  1.00  0.00    -0.200 F 
ATOM     94  F   UNL A   1      47.422  26.854  36.351  1.00  0.00    -0.200 F 
ENDBRANCH  61  84
ENDBRANCH  35  36
ENDBRANCH  27  30
ENDBRANCH  25  26
ENDBRANCH  24  25
ENDBRANCH  23  24
ENDBRANCH  22  23
ENDBRANCH   1  22
TORSDOF 18
ENDMDL
MODEL 2
REMARK VINA RESULT:     -11.1      0.916      7.467
REMARK SMILES Cc1nnc(S[C@@H](C)CCO)c(C(=O)NCCCCCCNC(=O)c2ccc(-c3c4nc(c(-c5c(F)c(F)c(F)c(F)c5F)c5ccc([nH]5)c(-c5c(F)c(F)c(F)c(F)c5F)c5nc(c(-c6c(F)c(F)c(F)c(F)c6F)c6ccc3[nH]6)C=C5)C=C4)cc2)c1C
REMARK SMILES IDX 17 1 16 2 15 3 13 4 14 5 12 7 1 8 2 9 3 10 88 11 4 12 89 13
REMARK SMILES IDX 5 14 6 15 7 16 8 17 9 18 10 19 11 20 18 22 19 23 20 24 21 25
REMARK SMILES IDX 22 26 23 27 24 29 25 30 26 31 87 32 27 33 86 34 28 35 29 36
REMARK SMILES IDX 30 37 80 38 31 39 85 40 79 41 81 42 32 43 84 44 78 45 77 46
REMARK SMILES IDX 33 48 65 49 45 50 64 51 46 52 49 53 63 54 82 55 47 56 48 57
REMARK SMILES IDX 62 59 83 60 50 61 34 62 35 63 43 64 36 65 37 66 41 67 44 68
REMARK SMILES IDX 38 69 39 70 42 71 40 72 66 73 67 74 75 75 68 76 69 77 73 78
REMARK SMILES IDX 76 79 70 80 71 81 74 82 72 83 51 84 52 85 60 86 53 87 54 88
REMARK SMILES IDX 58 89 61 90 55 91 56 92 59 93 57 94
REMARK H PARENT 15 6 11 21 22 28 81 47 49 58
REMARK Flexibility Score: inf
ROOT
ATOM      1  C   UNL A   1      32.901  28.418  26.619  1.00  0.00     0.021 C 
ENDROOT
BRANCH   1   2
ATOM      2  C   UNL A   1      31.905  27.500  27.317  1.00  0.00     0.116 C 
BRANCH   2   3
ATOM      3  N   UNL A   1      31.010  26.758  26.449  1.00  0.00    -0.352 N 
ATOM      4  C   UNL A   1      31.155  25.535  25.822  1.00  0.00     0.254 C 
ATOM      5  O   UNL A   1      30.130  24.975  25.453  1.00  0.00    -0.269 OA
ATOM      6  H   UNL A   1      30.150  27.205  26.277  1.00  0.00     0.163 HD
BRANCH   4   7
ATOM      7  C   UNL A   1      32.472  24.903  25.569  1.00  0.00     0.078 A 
ATOM      8  C   UNL A   1      34.757  22.123  26.892  1.00  0.00     0.069 C 
ATOM      9  C   UNL A   1      34.196  23.303  26.156  1.00  0.00     0.064 A 
ATOM     10  N   UNL A   1      35.021  23.867  25.265  1.00  0.00    -0.155 NA
ATOM     11  C   UNL A   1      32.888  23.768  26.322  1.00  0.00    -0.012 A 
ATOM     12  N   UNL A   1      34.559  24.849  24.436  1.00  0.00    -0.143 NA
ATOM     13  C   UNL A   1      31.971  22.987  27.226  1.00  0.00     0.047 C 
ATOM     14  C   UNL A   1      33.299  25.346  24.522  1.00  0.00     0.132 A 
BRANCH  14  15
ATOM     15  S   UNL A   1      32.973  26.201  22.989  1.00  0.00    -0.101 SA
BRANCH  15  16
ATOM     16  C   UNL A   1      32.189  27.845  23.209  1.00  0.00     0.052 C 
ATOM     17  C   UNL A   1      33.190  28.951  22.861  1.00  0.00     0.020 C 
BRANCH  16  18
ATOM     18  C   UNL A   1      30.758  28.044  22.702  1.00  0.00     0.043 C 
BRANCH  18  19
ATOM     19  C   UNL A   1      30.362  29.521  22.617  1.00  0.00     0.157 C 
BRANCH  19  20
ATOM     20  O   UNL A   1      30.278  29.940  21.259  1.00  0.00    -0.396 OA
ATOM     21  H   UNL A   1      29.816  30.793  21.211  1.00  0.00     0.210 HD
ENDBRANCH  19  20
ENDBRANCH  18  19
ENDBRANCH  16  18
ENDBRANCH  15  16
ENDBRANCH  14  15
ENDBRANCH   4   7
ENDBRANCH   2   3
ENDBRANCH   1   2
BRANCH   1  22
ATOM     22  C   UNL A   1      32.794  29.928  26.862  1.00  0.00     0.002 C 
BRANCH  22  23
ATOM     23  C   UNL A   1      31.653  30.707  26.199  1.00  0.00     0.002 C 
BRANCH  23  24
ATOM     24  C   UNL A   1      31.429  32.146  26.653  1.00  0.00     0.021 C 
BRANCH  24  25
ATOM     25  C   UNL A   1      32.656  32.863  27.192  1.00  0.00     0.116 C 
BRANCH  25  26
ATOM     26  N   UNL A   1      32.366  34.201  27.676  1.00  0.00    -0.352 N 
ATOM     27  C   UNL A   1      32.995  34.891  28.687  1.00  0.00     0.251 C 
ATOM     28  H   UNL A   1      31.627  34.672  27.227  1.00  0.00     0.163 HD
ATOM     29  O   UNL A   1      32.578  35.965  29.087  1.00  0.00    -0.269 OA
BRANCH  27  30
ATOM     30  C   UNL A   1      34.188  34.278  29.300  1.00  0.00     0.039 A 
ATOM     31  C   UNL A   1      34.019  33.344  30.322  1.00  0.00     0.014 A 
ATOM     32  C   UNL A   1      35.457  34.568  28.788  1.00  0.00     0.014 A 
ATOM     33  C   UNL A   1      35.133  32.664  30.810  1.00  0.00     0.010 A 
ATOM     34  C   UNL A   1      36.552  33.830  29.218  1.00  0.00     0.010 A 
ATOM     35  C   UNL A   1      36.402  32.891  30.250  1.00  0.00    -0.014 A 
BRANCH  35  36
ATOM     36  C   UNL A   1      37.596  32.218  30.806  1.00  0.00     0.031 A 
ATOM     37  C   UNL A   1      38.063  32.585  32.185  1.00  0.00     0.074 A 
ATOM     38  C   UNL A   1      38.246  31.283  30.090  1.00  0.00     0.049 A 
ATOM     39  N   UNL A   1      39.033  32.069  32.894  1.00  0.00    -0.248 NA
ATOM     40  C   UNL A   1      37.358  33.694  32.849  1.00  0.00     0.031 C 
ATOM     41  C   UNL A   1      37.901  30.872  28.729  1.00  0.00     0.029 A 
ATOM     42  N   UNL A   1      39.323  30.496  30.415  1.00  0.00    -0.354 N 
ATOM     43  C   UNL A   1      39.032  32.771  34.090  1.00  0.00     0.074 A 
ATOM     44  C   UNL A   1      38.041  33.816  33.976  1.00  0.00     0.031 C 
ATOM     45  C   UNL A   1      38.720  29.875  28.353  1.00  0.00     0.029 A 
ATOM     46  C   UNL A   1      39.657  29.592  29.438  1.00  0.00     0.049 A 
ATOM     47  H   UNL A   1      39.808  30.573  31.268  1.00  0.00     0.167 HD
ATOM     48  C   UNL A   1      39.754  32.532  35.208  1.00  0.00     0.037 A 
ATOM     49  C   UNL A   1      40.600  28.628  29.434  1.00  0.00     0.037 A 
ATOM     50  C   UNL A   1      40.738  31.492  35.317  1.00  0.00     0.049 A 
ATOM     51  C   UNL A   1      41.452  28.431  30.660  1.00  0.00     0.074 A 
ATOM     52  C   UNL A   1      41.510  31.148  36.409  1.00  0.00     0.029 A 
ATOM     53  N   UNL A   1      41.089  30.633  34.285  1.00  0.00    -0.354 N 
ATOM     54  N   UNL A   1      41.388  29.046  31.816  1.00  0.00    -0.248 NA
ATOM     55  C   UNL A   1      42.502  27.406  30.582  1.00  0.00     0.031 C 
ATOM     56  C   UNL A   1      42.368  30.114  36.023  1.00  0.00     0.029 A 
ATOM     57  C   UNL A   1      42.094  29.780  34.705  1.00  0.00     0.049 A 
ATOM     58  H   UNL A   1      40.683  30.630  33.388  1.00  0.00     0.167 HD
ATOM     59  C   UNL A   1      42.372  28.470  32.611  1.00  0.00     0.074 A 
ATOM     60  C   UNL A   1      43.009  27.448  31.808  1.00  0.00     0.031 C 
ATOM     61  C   UNL A   1      42.714  28.765  33.889  1.00  0.00     0.037 A 
BRANCH  48  62
ATOM     62  C   UNL A   1      39.482  33.401  36.400  1.00  0.00     0.064 A 
ATOM     63  C   UNL A   1      40.131  34.636  36.564  1.00  0.00     0.173 A 
ATOM     64  C   UNL A   1      38.561  33.010  37.381  1.00  0.00     0.173 A 
ATOM     65  F   UNL A   1      41.034  35.049  35.661  1.00  0.00    -0.203 F 
ATOM     66  C   UNL A   1      39.895  35.428  37.683  1.00  0.00     0.198 A 
ATOM     67  C   UNL A   1      38.301  33.821  38.482  1.00  0.00     0.198 A 
ATOM     68  F   UNL A   1      37.911  31.841  37.272  1.00  0.00    -0.203 F 
ATOM     69  F   UNL A   1      40.572  36.573  37.846  1.00  0.00    -0.200 F 
ATOM     70  C   UNL A   1      38.974  35.024  38.637  1.00  0.00     0.200 A 
ATOM     71  F   UNL A   1      37.402  33.435  39.399  1.00  0.00    -0.200 F 
ATOM     72  F   UNL A   1      38.743  35.789  39.713  1.00  0.00    -0.200 F 
ENDBRANCH  48  62
BRANCH  49  73
ATOM     73  C   UNL A   1      40.733  27.737  28.252  1.00  0.00     0.064 A 
ATOM     74  C   UNL A   1      41.537  28.109  27.166  1.00  0.00     0.173 A 
ATOM     75  C   UNL A   1      40.100  26.487  28.197  1.00  0.00     0.173 A 
ATOM     76  F   UNL A   1      42.150  29.301  27.164  1.00  0.00    -0.203 F 
ATOM     77  C   UNL A   1      41.702  27.265  26.068  1.00  0.00     0.198 A 
ATOM     78  C   UNL A   1      40.283  25.634  27.111  1.00  0.00     0.198 A 
ATOM     79  F   UNL A   1      39.323  26.083  29.213  1.00  0.00    -0.203 F 
ATOM     80  F   UNL A   1      42.458  27.653  25.033  1.00  0.00    -0.200 F 
ATOM     81  C   UNL A   1      41.082  26.024  26.046  1.00  0.00     0.200 A 
ATOM     82  F   UNL A   1      39.695  24.430  27.100  1.00  0.00    -0.200 F 
ATOM     83  F   UNL A   1      41.254  25.205  24.999  1.00  0.00    -0.200 F 
ENDBRANCH  49  73
BRANCH  61  84
ATOM     84  C   UNL A   1      43.831  27.985  34.517  1.00  0.00     0.064 A 
ATOM     85  C   UNL A   1      45.136  28.492  34.557  1.00  0.00     0.173 A 
ATOM     86  C   UNL A   1      43.567  26.786  35.198  1.00  0.00     0.173 A 
ATOM     87  F   UNL A   1      45.439  29.628  33.911  1.00  0.00    -0.203 F 
ATOM     88  C   UNL A   1      46.138  27.830  35.262  1.00  0.00     0.198 A 
ATOM     89  C   UNL A   1      44.563  26.143  35.925  1.00  0.00     0.198 A 
ATOM     90  F   UNL A   1      42.330  26.266  35.198  1.00  0.00    -0.203 F 
ATOM     91  F   UNL A   1      47.383  28.325  35.277  1.00  0.00    -0.200 F 
ATOM     92  C   UNL A   1      45.848  26.665  35.958  1.00  0.00     0.200 A 
ATOM     93  F   UNL A   1      44.276  25.029  36.614  1.00  0.00    -0.200 F 
ATOM     94  F   UNL A   1      46.805  26.049  36.664  1.00  0.00    -0.200 F 
ENDBRANCH  61  84
ENDBRANCH  35  36
ENDBRANCH  27  30
ENDBRANCH  25  26
ENDBRANCH  24  25
ENDBRANCH  23  24
ENDBRANCH  22  23
ENDBRANCH   1  22
TORSDOF 18
ENDMDL
MODEL 3
REMARK VINA RESULT:     -11.0      5.328      9.685
REMARK SMILES Cc1nnc(S[C@@H](C)CCO)c(C(=O)NCCCCCCNC(=O)c2ccc(-c3c4nc(c(-c5c(F)c(F)c(F)c(F)c5F)c5ccc([nH]5)c(-c5c(F)c(F)c(F)c(F)c5F)c5nc(c(-c6c(F)c(F)c(F)c(F)c6F)c6ccc3[nH]6)C=C5)C=C4)cc2)c1C
REMARK SMILES IDX 17 1 16 2 15 3 13 4 14 5 12 7 1 8 2 9 3 10 88 11 4 12 89 13
REMARK SMILES IDX 5 14 6 15 7 16 8 17 9 18 10 19 11 20 18 22 19 23 20 24 21 25
REMARK SMILES IDX 22 26 23 27 24 29 25 30 26 31 87 32 27 33 86 34 28 35 29 36
REMARK SMILES IDX 30 37 80 38 31 39 85 40 79 41 81 42 32 43 84 44 78 45 77 46
REMARK SMILES IDX 33 48 65 49 45 50 64 51 46 52 49 53 63 54 82 55 47 56 48 57
REMARK SMILES IDX 62 59 83 60 50 61 34 62 35 63 43 64 36 65 37 66 41 67 44 68
REMARK SMILES IDX 38 69 39 70 42 71 40 72 66 73 67 74 75 75 68 76 69 77 73 78
REMARK SMILES IDX 76 79 70 80 71 81 74 82 72 83 51 84 52 85 60 86 53 87 54 88
REMARK SMILES IDX 58 89 61 90 55 91 56 92 59 93 57 94
REMARK H PARENT 15 6 11 21 22 28 81 47 49 58
REMARK Flexibility Score: inf
ROOT
ATOM      1  C   UNL A   1      37.110  23.093  25.785  1.00  0.00     0.021 C 
ENDROOT
BRANCH   1   2
ATOM      2  C   UNL A   1      35.961  24.089  25.687  1.00  0.00     0.116 C 
BRANCH   2   3
ATOM      3  N   UNL A   1      35.271  24.137  24.413  1.00  0.00    -0.352 N 
ATOM      4  C   UNL A   1      34.146  24.833  24.011  1.00  0.00     0.254 C 
ATOM      5  O   UNL A   1      33.986  24.985  22.806  1.00  0.00    -0.269 OA
ATOM      6  H   UNL A   1      35.674  23.576  23.711  1.00  0.00     0.163 HD
BRANCH   4   7
ATOM      7  C   UNL A   1      33.141  25.369  24.961  1.00  0.00     0.078 A 
ATOM      8  C   UNL A   1      31.845  28.684  26.384  1.00  0.00     0.069 C 
ATOM      9  C   UNL A   1      32.115  27.232  26.122  1.00  0.00     0.064 A 
ATOM     10  N   UNL A   1      31.438  26.376  26.898  1.00  0.00    -0.155 NA
ATOM     11  C   UNL A   1      32.960  26.774  25.108  1.00  0.00    -0.012 A 
ATOM     12  N   UNL A   1      31.496  25.035  26.642  1.00  0.00    -0.143 NA
ATOM     13  C   UNL A   1      33.563  27.793  24.177  1.00  0.00     0.047 C 
ATOM     14  C   UNL A   1      32.281  24.510  25.667  1.00  0.00     0.132 A 
BRANCH  14  15
ATOM     15  S   UNL A   1      31.682  22.857  25.354  1.00  0.00    -0.101 SA
BRANCH  15  16
ATOM     16  C   UNL A   1      33.005  21.657  24.935  1.00  0.00     0.052 C 
ATOM     17  C   UNL A   1      33.245  20.711  26.116  1.00  0.00     0.020 C 
BRANCH  16  18
ATOM     18  C   UNL A   1      32.992  21.014  23.545  1.00  0.00     0.043 C 
BRANCH  18  19
ATOM     19  C   UNL A   1      32.019  21.703  22.585  1.00  0.00     0.157 C 
BRANCH  19  20
ATOM     20  O   UNL A   1      31.703  20.847  21.492  1.00  0.00    -0.396 OA
ATOM     21  H   UNL A   1      31.030  21.269  20.934  1.00  0.00     0.210 HD
ENDBRANCH  19  20
ENDBRANCH  18  19
ENDBRANCH  16  18
ENDBRANCH  15  16
ENDBRANCH  14  15
ENDBRANCH   4   7
ENDBRANCH   2   3
ENDBRANCH   1   2
BRANCH   1  22
ATOM     22  C   UNL A   1      37.262  22.045  24.676  1.00  0.00     0.002 C 
BRANCH  22  23
ATOM     23  C   UNL A   1      36.966  20.576  24.996  1.00  0.00     0.002 C 
BRANCH  23  24
ATOM     24  C   UNL A   1      38.143  19.606  24.998  1.00  0.00     0.021 C 
BRANCH  24  25
ATOM     25  C   UNL A   1      39.372  20.067  25.765  1.00  0.00     0.116 C 
BRANCH  25  26
ATOM     26  N   UNL A   1      40.429  19.072  25.794  1.00  0.00    -0.352 N 
ATOM     27  C   UNL A   1      41.761  19.259  26.086  1.00  0.00     0.251 C 
ATOM     28  H   UNL A   1      40.161  18.150  25.578  1.00  0.00     0.163 HD
ATOM     29  O   UNL A   1      42.579  18.364  25.956  1.00  0.00    -0.269 OA
BRANCH  27  30
ATOM     30  C   UNL A   1      42.184  20.597  26.541  1.00  0.00     0.039 A 
ATOM     31  C   UNL A   1      42.610  21.530  25.595  1.00  0.00     0.014 A 
ATOM     32  C   UNL A   1      42.064  20.940  27.892  1.00  0.00     0.014 A 
ATOM     33  C   UNL A   1      42.881  22.835  26.004  1.00  0.00     0.010 A 
ATOM     34  C   UNL A   1      42.253  22.260  28.281  1.00  0.00     0.010 A 
ATOM     35  C   UNL A   1      42.688  23.210  27.345  1.00  0.00    -0.014 A 
BRANCH  35  36
ATOM     36  C   UNL A   1      43.035  24.576  27.795  1.00  0.00     0.031 A 
ATOM     37  C   UNL A   1      44.479  24.983  27.847  1.00  0.00     0.074 A 
ATOM     38  C   UNL A   1      42.067  25.443  28.144  1.00  0.00     0.049 A 
ATOM     39  N   UNL A   1      45.000  26.146  28.134  1.00  0.00    -0.248 NA
ATOM     40  C   UNL A   1      45.472  23.936  27.554  1.00  0.00     0.031 C 
ATOM     41  C   UNL A   1      40.634  25.146  28.164  1.00  0.00     0.029 A 
ATOM     42  N   UNL A   1      42.141  26.758  28.530  1.00  0.00    -0.354 N 
ATOM     43  C   UNL A   1      46.373  25.974  28.029  1.00  0.00     0.074 A 
ATOM     44  C   UNL A   1      46.611  24.576  27.756  1.00  0.00     0.031 C 
ATOM     45  C   UNL A   1      39.961  26.260  28.497  1.00  0.00     0.029 A 
ATOM     46  C   UNL A   1      40.915  27.342  28.731  1.00  0.00     0.049 A 
ATOM     47  H   UNL A   1      42.993  27.237  28.650  1.00  0.00     0.167 HD
ATOM     48  C   UNL A   1      47.347  26.909  28.098  1.00  0.00     0.037 A 
ATOM     49  C   UNL A   1      40.602  28.615  29.045  1.00  0.00     0.037 A 
ATOM     50  C   UNL A   1      47.104  28.298  28.369  1.00  0.00     0.049 A 
ATOM     51  C   UNL A   1      41.708  29.625  29.199  1.00  0.00     0.074 A 
ATOM     52  C   UNL A   1      48.015  29.334  28.439  1.00  0.00     0.029 A 
ATOM     53  N   UNL A   1      45.852  28.840  28.624  1.00  0.00    -0.354 N 
ATOM     54  N   UNL A   1      42.998  29.471  29.017  1.00  0.00    -0.248 NA
ATOM     55  C   UNL A   1      41.317  30.984  29.599  1.00  0.00     0.031 C 
ATOM     56  C   UNL A   1      47.321  30.496  28.789  1.00  0.00     0.029 A 
ATOM     57  C   UNL A   1      45.971  30.194  28.887  1.00  0.00     0.049 A 
ATOM     58  H   UNL A   1      45.006  28.338  28.618  1.00  0.00     0.167 HD
ATOM     59  C   UNL A   1      43.570  30.715  29.257  1.00  0.00     0.074 A 
ATOM     60  C   UNL A   1      42.484  31.615  29.585  1.00  0.00     0.031 C 
ATOM     61  C   UNL A   1      44.876  31.074  29.209  1.00  0.00     0.037 A 
BRANCH  48  62
ATOM     62  C   UNL A   1      48.754  26.453  27.852  1.00  0.00     0.064 A 
ATOM     63  C   UNL A   1      49.610  26.127  28.918  1.00  0.00     0.173 A 
ATOM     64  C   UNL A   1      49.254  26.327  26.549  1.00  0.00     0.173 A 
ATOM     65  F   UNL A   1      49.185  26.246  30.186  1.00  0.00    -0.203 F 
ATOM     66  C   UNL A   1      50.923  25.729  28.688  1.00  0.00     0.198 A 
ATOM     67  C   UNL A   1      50.558  25.895  26.321  1.00  0.00     0.198 A 
ATOM     68  F   UNL A   1      48.479  26.623  25.495  1.00  0.00    -0.203 F 
ATOM     69  F   UNL A   1      51.737  25.482  29.723  1.00  0.00    -0.200 F 
ATOM     70  C   UNL A   1      51.393  25.605  27.390  1.00  0.00     0.200 A 
ATOM     71  F   UNL A   1      51.009  25.764  25.066  1.00  0.00    -0.200 F 
ATOM     72  F   UNL A   1      52.656  25.216  27.168  1.00  0.00    -0.200 F 
ENDBRANCH  48  62
BRANCH  49  73
ATOM     73  C   UNL A   1      39.174  29.012  29.164  1.00  0.00     0.064 A 
ATOM     74  C   UNL A   1      38.440  29.378  28.028  1.00  0.00     0.173 A 
ATOM     75  C   UNL A   1      38.505  28.995  30.396  1.00  0.00     0.173 A 
ATOM     76  F   UNL A   1      39.039  29.426  26.830  1.00  0.00    -0.203 F 
ATOM     77  C   UNL A   1      37.090  29.715  28.120  1.00  0.00     0.198 A 
ATOM     78  C   UNL A   1      37.151  29.309  30.485  1.00  0.00     0.198 A 
ATOM     79  F   UNL A   1      39.163  28.647  31.513  1.00  0.00    -0.203 F 
ATOM     80  F   UNL A   1      36.416  30.083  27.023  1.00  0.00    -0.200 F 
ATOM     81  C   UNL A   1      36.445  29.671  29.348  1.00  0.00     0.200 A 
ATOM     82  F   UNL A   1      36.528  29.250  31.669  1.00  0.00    -0.200 F 
ATOM     83  F   UNL A   1      35.142  29.977  29.434  1.00  0.00    -0.200 F 
ENDBRANCH  49  73
BRANCH  61  84
ATOM     84  C   UNL A   1      45.225  32.499  29.523  1.00  0.00     0.064 A 
ATOM     85  C   UNL A   1      45.651  32.877  30.803  1.00  0.00     0.173 A 
ATOM     86  C   UNL A   1      45.263  33.463  28.502  1.00  0.00     0.173 A 
ATOM     87  F   UNL A   1      45.622  31.994  31.812  1.00  0.00    -0.203 F 
ATOM     88  C   UNL A   1      46.108  34.169  31.051  1.00  0.00     0.198 A 
ATOM     89  C   UNL A   1      45.747  34.744  28.748  1.00  0.00     0.198 A 
ATOM     90  F   UNL A   1      44.876  33.146  27.258  1.00  0.00    -0.203 F 
ATOM     91  F   UNL A   1      46.498  34.513  32.286  1.00  0.00    -0.200 F 
ATOM     92  C   UNL A   1      46.170  35.096  30.021  1.00  0.00     0.200 A 
ATOM     93  F   UNL A   1      45.826  35.632  27.747  1.00  0.00    -0.200 F 
ATOM     94  F   UNL A   1      46.643  36.328  30.255  1.00  0.00    -0.200 F 
ENDBRANCH  61  84
ENDBRANCH  35  36
ENDBRANCH  27  30
ENDBRANCH  25  26
ENDBRANCH  24  25
ENDBRANCH  23  24
ENDBRANCH  22  23
ENDBRANCH   1  22
TORSDOF 18
ENDMDL
