MODEL 1
REMARK VINA RESULT:     -13.6      0.000      0.000
REMARK SMILES O=C(NCCCCCCNC(=O)c1cc(N2C(=O)[C@H]3[C@@H]4C=C[C@@H]([C@@H]5C[C@H]45)[C@@H]3C2=O)ccc1Cl)c1ccc(-c2c3nc(c(-c4c(F)c(F)c(F)c(F)c4F)c4ccc([nH]4)c(-c4c(F)c(F)c(F)c(F)c4F)c4nc(c(-c5c(F)c(F)c(F)c(F)c5F)c5ccc2[nH]5)C=C4)C=C3)cc1
REMARK SMILES IDX 6 1 5 2 4 3 3 4 1 5 2 6 34 8 35 9 96 10 36 11 95 12 37 13
REMARK SMILES IDX 38 14 39 15 89 16 40 17 94 18 88 19 90 20 41 21 93 22 87 23
REMARK SMILES IDX 86 24 42 26 74 27 54 28 73 29 55 30 58 31 72 32 91 33 56 34
REMARK SMILES IDX 57 35 71 37 92 38 59 39 43 40 44 41 52 42 45 43 46 44 50 45
REMARK SMILES IDX 53 46 47 47 48 48 51 49 49 50 75 51 76 52 84 53 77 54 78 55
REMARK SMILES IDX 82 56 85 57 79 58 80 59 83 60 81 61 60 62 61 63 69 64 62 65
REMARK SMILES IDX 63 66 67 67 70 68 64 69 65 70 68 71 66 72 7 73 8 74 9 75
REMARK SMILES IDX 10 76 11 77 12 79 13 80 14 81 32 82 15 83 31 84 33 85 30 86
REMARK SMILES IDX 16 87 17 88 28 89 18 90 19 91 27 92 29 93 20 94 23 95 21 96
REMARK SMILES IDX 26 97 22 98 24 99 25 100
REMARK H PARENT 3 7 90 25 58 36 10 78
REMARK Flexibility Score: inf
ROOT
ATOM      1  C   UNL A   1      31.591  27.999  26.055  1.00  0.00     0.002 C 
ENDROOT
BRANCH   1   2
ATOM      2  C   UNL A   1      32.471  27.793  27.285  1.00  0.00     0.021 C 
BRANCH   2   3
ATOM      3  C   UNL A   1      33.796  28.536  27.241  1.00  0.00     0.116 C 
BRANCH   3   4
ATOM      4  N   UNL A   1      33.644  29.959  27.492  1.00  0.00    -0.352 N 
ATOM      5  O   UNL A   1      34.168  31.953  28.422  1.00  0.00    -0.269 OA
ATOM      6  C   UNL A   1      34.507  30.810  28.136  1.00  0.00     0.251 C 
ATOM      7  H   UNL A   1      32.812  30.366  27.157  1.00  0.00     0.163 HD
BRANCH   6   8
ATOM      8  C   UNL A   1      35.857  30.327  28.493  1.00  0.00     0.039 A 
ATOM      9  C   UNL A   1      36.928  30.527  27.618  1.00  0.00     0.014 A 
ATOM     10  C   UNL A   1      36.053  29.674  29.713  1.00  0.00     0.014 A 
ATOM     11  C   UNL A   1      38.167  29.974  27.906  1.00  0.00     0.010 A 
ATOM     12  C   UNL A   1      37.326  29.202  30.046  1.00  0.00     0.010 A 
ATOM     13  C   UNL A   1      38.390  29.343  29.141  1.00  0.00    -0.014 A 
BRANCH  13  14
ATOM     14  C   UNL A   1      39.776  28.976  29.517  1.00  0.00     0.031 A 
ATOM     15  C   UNL A   1      40.621  29.863  30.382  1.00  0.00     0.074 A 
ATOM     16  C   UNL A   1      40.260  27.806  29.056  1.00  0.00     0.049 A 
ATOM     17  N   UNL A   1      41.854  29.683  30.783  1.00  0.00    -0.248 NA
ATOM     18  C   UNL A   1      40.015  31.118  30.854  1.00  0.00     0.031 C 
ATOM     19  C   UNL A   1      39.526  26.875  28.190  1.00  0.00     0.029 A 
ATOM     20  N   UNL A   1      41.470  27.189  29.247  1.00  0.00    -0.354 N 
ATOM     21  C   UNL A   1      42.178  30.803  31.537  1.00  0.00     0.074 A 
ATOM     22  C   UNL A   1      41.018  31.668  31.528  1.00  0.00     0.031 C 
ATOM     23  C   UNL A   1      40.285  25.798  27.955  1.00  0.00     0.029 A 
ATOM     24  C   UNL A   1      41.584  25.992  28.584  1.00  0.00     0.049 A 
ATOM     25  H   UNL A   1      42.186  27.569  29.806  1.00  0.00     0.167 HD
ATOM     26  C   UNL A   1      43.342  31.072  32.177  1.00  0.00     0.037 A 
ATOM     27  C   UNL A   1      42.632  25.159  28.461  1.00  0.00     0.037 A 
ATOM     28  C   UNL A   1      44.483  30.191  32.189  1.00  0.00     0.049 A 
ATOM     29  C   UNL A   1      43.917  25.513  29.153  1.00  0.00     0.074 A 
ATOM     30  C   UNL A   1      45.682  30.345  32.864  1.00  0.00     0.029 A 
ATOM     31  N   UNL A   1      44.574  28.999  31.484  1.00  0.00    -0.354 N 
ATOM     32  N   UNL A   1      44.188  26.539  29.921  1.00  0.00    -0.248 NA
ATOM     33  C   UNL A   1      45.046  24.594  28.956  1.00  0.00     0.031 C 
ATOM     34  C   UNL A   1      46.523  29.284  32.513  1.00  0.00     0.029 A 
ATOM     35  C   UNL A   1      45.826  28.432  31.672  1.00  0.00     0.049 A 
ATOM     36  H   UNL A   1      43.857  28.613  30.931  1.00  0.00     0.167 HD
ATOM     37  C   UNL A   1      45.509  26.384  30.311  1.00  0.00     0.074 A 
ATOM     38  C   UNL A   1      45.975  25.146  29.724  1.00  0.00     0.031 C 
ATOM     39  C   UNL A   1      46.273  27.199  31.078  1.00  0.00     0.037 A 
BRANCH  26  40
ATOM     40  C   UNL A   1      43.470  32.377  32.908  1.00  0.00     0.064 A 
ATOM     41  C   UNL A   1      43.867  33.553  32.258  1.00  0.00     0.173 A 
ATOM     42  C   UNL A   1      43.079  32.470  34.254  1.00  0.00     0.173 A 
ATOM     43  F   UNL A   1      44.255  33.518  30.975  1.00  0.00    -0.203 F 
ATOM     44  C   UNL A   1      43.872  34.775  32.928  1.00  0.00     0.198 A 
ATOM     45  C   UNL A   1      43.061  33.697  34.913  1.00  0.00     0.198 A 
ATOM     46  F   UNL A   1      42.682  31.376  34.920  1.00  0.00    -0.203 F 
ATOM     47  F   UNL A   1      44.273  35.885  32.293  1.00  0.00    -0.200 F 
ATOM     48  C   UNL A   1      43.458  34.847  34.251  1.00  0.00     0.200 A 
ATOM     49  F   UNL A   1      42.643  33.766  36.185  1.00  0.00    -0.200 F 
ATOM     50  F   UNL A   1      43.439  36.028  34.885  1.00  0.00    -0.200 F 
ENDBRANCH  26  40
BRANCH  27  51
ATOM     51  C   UNL A   1      42.525  23.941  27.614  1.00  0.00     0.064 A 
ATOM     52  C   UNL A   1      42.083  22.724  28.148  1.00  0.00     0.173 A 
ATOM     53  C   UNL A   1      42.893  23.966  26.260  1.00  0.00     0.173 A 
ATOM     54  F   UNL A   1      41.736  22.645  29.441  1.00  0.00    -0.203 F 
ATOM     55  C   UNL A   1      42.048  21.569  27.369  1.00  0.00     0.198 A 
ATOM     56  C   UNL A   1      42.819  22.820  25.472  1.00  0.00     0.198 A 
ATOM     57  F   UNL A   1      43.315  25.107  25.697  1.00  0.00    -0.203 F 
ATOM     58  F   UNL A   1      41.687  20.403  27.922  1.00  0.00    -0.200 F 
ATOM     59  C   UNL A   1      42.411  21.619  26.031  1.00  0.00     0.200 A 
ATOM     60  F   UNL A   1      43.150  22.879  24.175  1.00  0.00    -0.200 F 
ATOM     61  F   UNL A   1      42.380  20.507  25.284  1.00  0.00    -0.200 F 
ENDBRANCH  27  51
BRANCH  39  62
ATOM     62  C   UNL A   1      47.685  26.762  31.338  1.00  0.00     0.064 A 
ATOM     63  C   UNL A   1      48.752  27.221  30.550  1.00  0.00     0.173 A 
ATOM     64  C   UNL A   1      47.978  25.891  32.398  1.00  0.00     0.173 A 
ATOM     65  F   UNL A   1      48.522  28.039  29.512  1.00  0.00    -0.203 F 
ATOM     66  C   UNL A   1      50.055  26.800  30.795  1.00  0.00     0.198 A 
ATOM     67  C   UNL A   1      49.287  25.501  32.662  1.00  0.00     0.198 A 
ATOM     68  F   UNL A   1      46.995  25.427  33.183  1.00  0.00    -0.203 F 
ATOM     69  F   UNL A   1      51.051  27.204  29.993  1.00  0.00    -0.200 F 
ATOM     70  C   UNL A   1      50.323  25.947  31.856  1.00  0.00     0.200 A 
ATOM     71  F   UNL A   1      49.546  24.689  33.697  1.00  0.00    -0.200 F 
ATOM     72  F   UNL A   1      51.580  25.548  32.096  1.00  0.00    -0.200 F 
ENDBRANCH  39  62
ENDBRANCH  13  14
ENDBRANCH   6   8
ENDBRANCH   3   4
ENDBRANCH   2   3
ENDBRANCH   1   2
BRANCH   1  73
ATOM     73  C   UNL A   1      30.822  26.759  25.590  1.00  0.00     0.002 C 
BRANCH  73  74
ATOM     74  C   UNL A   1      30.514  26.694  24.089  1.00  0.00     0.021 C 
BRANCH  74  75
ATOM     75  C   UNL A   1      30.562  25.294  23.486  1.00  0.00     0.116 C 
BRANCH  75  76
ATOM     76  N   UNL A   1      31.414  25.238  22.315  1.00  0.00    -0.352 N 
ATOM     77  C   UNL A   1      32.724  24.857  22.220  1.00  0.00     0.252 C 
ATOM     78  H   UNL A   1      30.991  25.512  21.470  1.00  0.00     0.163 HD
ATOM     79  O   UNL A   1      33.326  24.955  21.155  1.00  0.00    -0.269 OA
BRANCH  77  80
ATOM     80  C   UNL A   1      33.445  24.375  23.407  1.00  0.00     0.060 A 
ATOM     81  C   UNL A   1      33.388  22.995  23.657  1.00  0.00     0.042 A 
ATOM     82  C   UNL A   1      34.084  25.238  24.307  1.00  0.00     0.053 A 
ATOM     83  C   UNL A   1      33.937  22.484  24.831  1.00  0.00     0.053 A 
ATOM     84  C   UNL A   1      34.701  24.710  25.440  1.00  0.00     0.023 A 
ATOM     85  Cl  UNL A   1      34.115  26.953  24.119  1.00  0.00    -0.083 Cl
ATOM     86  C   UNL A   1      34.605  23.346  25.714  1.00  0.00     0.028 A 
BRANCH  83  87
ATOM     87  N   UNL A   1      33.899  21.107  25.116  1.00  0.00    -0.250 N 
ATOM     88  C   UNL A   1      32.693  20.395  25.228  1.00  0.00     0.238 C 
ATOM     89  C   UNL A   1      35.008  20.258  24.926  1.00  0.00     0.238 C 
ATOM     90  O   UNL A   1      31.542  20.796  25.203  1.00  0.00    -0.274 OA
ATOM     91  C   UNL A   1      33.134  18.975  25.372  1.00  0.00     0.100 C 
ATOM     92  C   UNL A   1      34.356  19.013  24.450  1.00  0.00     0.100 C 
ATOM     93  O   UNL A   1      36.197  20.508  24.929  1.00  0.00    -0.274 OA
ATOM     94  C   UNL A   1      32.353  17.674  25.120  1.00  0.00     0.028 C 
ATOM     95  C   UNL A   1      34.776  17.593  24.105  1.00  0.00     0.028 C 
ATOM     96  C   UNL A   1      33.301  16.658  25.803  1.00  0.00    -0.026 C 
ATOM     97  C   UNL A   1      32.294  17.208  23.653  1.00  0.00     0.001 C 
ATOM     98  C   UNL A   1      34.563  16.667  25.313  1.00  0.00    -0.026 C 
ATOM     99  C   UNL A   1      33.703  17.142  23.043  1.00  0.00     0.001 C 
ATOM    100  C   UNL A   1      32.601  18.001  22.416  1.00  0.00     0.009 C 
ENDBRANCH  83  87
ENDBRANCH  77  80
ENDBRANCH  75  76
ENDBRANCH  74  75
ENDBRANCH  73  74
ENDBRANCH   1  73
TORSDOF 14
ENDMDL
MODEL 2
REMARK VINA RESULT:     -13.5      2.424      7.256
REMARK SMILES O=C(NCCCCCCNC(=O)c1cc(N2C(=O)[C@H]3[C@@H]4C=C[C@@H]([C@@H]5C[C@H]45)[C@@H]3C2=O)ccc1Cl)c1ccc(-c2c3nc(c(-c4c(F)c(F)c(F)c(F)c4F)c4ccc([nH]4)c(-c4c(F)c(F)c(F)c(F)c4F)c4nc(c(-c5c(F)c(F)c(F)c(F)c5F)c5ccc2[nH]5)C=C4)C=C3)cc1
REMARK SMILES IDX 6 1 5 2 4 3 3 4 1 5 2 6 34 8 35 9 96 10 36 11 95 12 37 13
REMARK SMILES IDX 38 14 39 15 89 16 40 17 94 18 88 19 90 20 41 21 93 22 87 23
REMARK SMILES IDX 86 24 42 26 74 27 54 28 73 29 55 30 58 31 72 32 91 33 56 34
REMARK SMILES IDX 57 35 71 37 92 38 59 39 43 40 44 41 52 42 45 43 46 44 50 45
REMARK SMILES IDX 53 46 47 47 48 48 51 49 49 50 75 51 76 52 84 53 77 54 78 55
REMARK SMILES IDX 82 56 85 57 79 58 80 59 83 60 81 61 60 62 61 63 69 64 62 65
REMARK SMILES IDX 63 66 67 67 70 68 64 69 65 70 68 71 66 72 7 73 8 74 9 75
REMARK SMILES IDX 10 76 11 77 12 79 13 80 14 81 32 82 15 83 31 84 33 85 30 86
REMARK SMILES IDX 16 87 17 88 28 89 18 90 19 91 27 92 29 93 20 94 23 95 21 96
REMARK SMILES IDX 26 97 22 98 24 99 25 100
REMARK H PARENT 3 7 90 25 58 36 10 78
REMARK Flexibility Score: inf
ROOT
ATOM      1  C   UNL A   1      31.430  27.768  26.679  1.00  0.00     0.002 C 
ENDROOT
BRANCH   1   2
ATOM      2  C   UNL A   1      31.531  29.003  25.786  1.00  0.00     0.021 C 
BRANCH   2   3
ATOM      3  C   UNL A   1      32.799  29.817  25.981  1.00  0.00     0.116 C 
BRANCH   3   4
ATOM      4  N   UNL A   1      32.523  31.205  26.312  1.00  0.00    -0.352 N 
ATOM      5  O   UNL A   1      32.714  33.112  27.512  1.00  0.00    -0.269 OA
ATOM      6  C   UNL A   1      33.166  32.011  27.218  1.00  0.00     0.251 C 
ATOM      7  H   UNL A   1      31.778  31.621  25.822  1.00  0.00     0.163 HD
BRANCH   6   8
ATOM      8  C   UNL A   1      34.413  31.530  27.848  1.00  0.00     0.039 A 
ATOM      9  C   UNL A   1      35.501  32.394  27.998  1.00  0.00     0.014 A 
ATOM     10  C   UNL A   1      34.492  30.208  28.295  1.00  0.00     0.014 A 
ATOM     11  C   UNL A   1      36.705  31.907  28.486  1.00  0.00     0.010 A 
ATOM     12  C   UNL A   1      35.676  29.746  28.876  1.00  0.00     0.010 A 
ATOM     13  C   UNL A   1      36.792  30.592  28.970  1.00  0.00    -0.014 A 
BRANCH  13  14
ATOM     14  C   UNL A   1      38.015  30.178  29.700  1.00  0.00     0.031 A 
ATOM     15  C   UNL A   1      38.997  29.210  29.111  1.00  0.00     0.074 A 
ATOM     16  C   UNL A   1      38.221  30.706  30.923  1.00  0.00     0.049 A 
ATOM     17  N   UNL A   1      40.102  28.743  29.634  1.00  0.00    -0.248 NA
ATOM     18  C   UNL A   1      38.704  28.688  27.767  1.00  0.00     0.031 C 
ATOM     19  C   UNL A   1      37.317  31.644  31.597  1.00  0.00     0.029 A 
ATOM     20  N   UNL A   1      39.249  30.543  31.816  1.00  0.00    -0.354 N 
ATOM     21  C   UNL A   1      40.628  27.864  28.698  1.00  0.00     0.074 A 
ATOM     22  C   UNL A   1      39.714  27.847  27.576  1.00  0.00     0.031 C 
ATOM     23  C   UNL A   1      37.844  31.997  32.776  1.00  0.00     0.029 A 
ATOM     24  C   UNL A   1      39.081  31.255  32.978  1.00  0.00     0.049 A 
ATOM     25  H   UNL A   1      40.031  29.972  31.640  1.00  0.00     0.167 HD
ATOM     26  C   UNL A   1      41.772  27.143  28.778  1.00  0.00     0.037 A 
ATOM     27  C   UNL A   1      39.818  31.278  34.102  1.00  0.00     0.037 A 
ATOM     28  C   UNL A   1      42.680  27.184  29.897  1.00  0.00     0.049 A 
ATOM     29  C   UNL A   1      41.059  30.434  34.166  1.00  0.00     0.074 A 
ATOM     30  C   UNL A   1      43.898  26.541  30.041  1.00  0.00     0.029 A 
ATOM     31  N   UNL A   1      42.464  27.894  31.069  1.00  0.00    -0.354 N 
ATOM     32  N   UNL A   1      41.582  29.662  33.246  1.00  0.00    -0.248 NA
ATOM     33  C   UNL A   1      41.810  30.461  35.428  1.00  0.00     0.031 C 
ATOM     34  C   UNL A   1      44.386  26.807  31.324  1.00  0.00     0.029 A 
ATOM     35  C   UNL A   1      43.505  27.668  31.958  1.00  0.00     0.049 A 
ATOM     36  H   UNL A   1      41.687  28.473  31.245  1.00  0.00     0.167 HD
ATOM     37  C   UNL A   1      42.729  29.123  33.809  1.00  0.00     0.074 A 
ATOM     38  C   UNL A   1      42.844  29.684  35.138  1.00  0.00     0.031 C 
ATOM     39  C   UNL A   1      43.602  28.234  33.278  1.00  0.00     0.037 A 
BRANCH  26  40
ATOM     40  C   UNL A   1      42.119  26.225  27.641  1.00  0.00     0.064 A 
ATOM     41  C   UNL A   1      43.064  26.577  26.667  1.00  0.00     0.173 A 
ATOM     42  C   UNL A   1      41.579  24.929  27.594  1.00  0.00     0.173 A 
ATOM     43  F   UNL A   1      43.606  27.804  26.664  1.00  0.00    -0.203 F 
ATOM     44  C   UNL A   1      43.453  25.668  25.686  1.00  0.00     0.198 A 
ATOM     45  C   UNL A   1      41.990  24.015  26.627  1.00  0.00     0.198 A 
ATOM     46  F   UNL A   1      40.678  24.538  28.507  1.00  0.00    -0.203 F 
ATOM     47  F   UNL A   1      44.345  26.031  24.753  1.00  0.00    -0.200 F 
ATOM     48  C   UNL A   1      42.925  24.385  25.674  1.00  0.00     0.200 A 
ATOM     49  F   UNL A   1      41.491  22.771  26.628  1.00  0.00    -0.200 F 
ATOM     50  F   UNL A   1      43.321  23.504  24.745  1.00  0.00    -0.200 F 
ENDBRANCH  26  40
BRANCH  27  51
ATOM     51  C   UNL A   1      39.379  32.088  35.270  1.00  0.00     0.064 A 
ATOM     52  C   UNL A   1      38.566  31.537  36.269  1.00  0.00     0.173 A 
ATOM     53  C   UNL A   1      39.740  33.438  35.393  1.00  0.00     0.173 A 
ATOM     54  F   UNL A   1      38.179  30.255  36.189  1.00  0.00    -0.203 F 
ATOM     55  C   UNL A   1      38.100  32.317  37.326  1.00  0.00     0.198 A 
ATOM     56  C   UNL A   1      39.308  34.205  36.471  1.00  0.00     0.198 A 
ATOM     57  F   UNL A   1      40.524  34.013  34.468  1.00  0.00    -0.203 F 
ATOM     58  F   UNL A   1      37.268  31.784  38.231  1.00  0.00    -0.200 F 
ATOM     59  C   UNL A   1      38.475  33.648  37.429  1.00  0.00     0.200 A 
ATOM     60  F   UNL A   1      39.691  35.485  36.577  1.00  0.00    -0.200 F 
ATOM     61  F   UNL A   1      38.025  34.397  38.444  1.00  0.00    -0.200 F 
ENDBRANCH  27  51
BRANCH  39  62
ATOM     62  C   UNL A   1      44.768  27.831  34.134  1.00  0.00     0.064 A 
ATOM     63  C   UNL A   1      45.973  28.549  34.115  1.00  0.00     0.173 A 
ATOM     64  C   UNL A   1      44.673  26.728  34.996  1.00  0.00     0.173 A 
ATOM     65  F   UNL A   1      46.123  29.599  33.294  1.00  0.00    -0.203 F 
ATOM     66  C   UNL A   1      47.050  28.159  34.906  1.00  0.00     0.198 A 
ATOM     67  C   UNL A   1      45.739  26.364  35.812  1.00  0.00     0.198 A 
ATOM     68  F   UNL A   1      43.540  26.012  35.054  1.00  0.00    -0.203 F 
ATOM     69  F   UNL A   1      48.212  28.823  34.829  1.00  0.00    -0.200 F 
ATOM     70  C   UNL A   1      46.929  27.072  35.760  1.00  0.00     0.200 A 
ATOM     71  F   UNL A   1      45.614  25.322  36.647  1.00  0.00    -0.200 F 
ATOM     72  F   UNL A   1      47.965  26.702  36.526  1.00  0.00    -0.200 F 
ENDBRANCH  39  62
ENDBRANCH  13  14
ENDBRANCH   6   8
ENDBRANCH   3   4
ENDBRANCH   2   3
ENDBRANCH   1   2
BRANCH   1  73
ATOM     73  C   UNL A   1      30.865  26.518  25.998  1.00  0.00     0.002 C 
BRANCH  73  74
ATOM     74  C   UNL A   1      30.636  26.633  24.486  1.00  0.00     0.021 C 
BRANCH  74  75
ATOM     75  C   UNL A   1      30.588  25.301  23.743  1.00  0.00     0.116 C 
BRANCH  75  76
ATOM     76  N   UNL A   1      31.444  25.304  22.574  1.00  0.00    -0.352 N 
ATOM     77  C   UNL A   1      32.756  24.932  22.466  1.00  0.00     0.252 C 
ATOM     78  H   UNL A   1      31.022  25.615  21.741  1.00  0.00     0.163 HD
ATOM     79  O   UNL A   1      33.361  25.083  21.408  1.00  0.00    -0.269 OA
BRANCH  77  80
ATOM     80  C   UNL A   1      33.476  24.398  23.630  1.00  0.00     0.060 A 
ATOM     81  C   UNL A   1      33.412  23.009  23.824  1.00  0.00     0.042 A 
ATOM     82  C   UNL A   1      34.119  25.219  24.565  1.00  0.00     0.053 A 
ATOM     83  C   UNL A   1      33.958  22.448  24.975  1.00  0.00     0.053 A 
ATOM     84  C   UNL A   1      34.734  24.642  25.675  1.00  0.00     0.023 A 
ATOM     85  Cl  UNL A   1      34.160  26.941  24.448  1.00  0.00    -0.083 Cl
ATOM     86  C   UNL A   1      34.631  23.268  25.892  1.00  0.00     0.028 A 
BRANCH  83  87
ATOM     87  N   UNL A   1      33.913  21.060  25.202  1.00  0.00    -0.250 N 
ATOM     88  C   UNL A   1      32.703  20.356  25.318  1.00  0.00     0.238 C 
ATOM     89  C   UNL A   1      35.007  20.209  24.945  1.00  0.00     0.238 C 
ATOM     90  O   UNL A   1      31.557  20.769  25.344  1.00  0.00    -0.274 OA
ATOM     91  C   UNL A   1      33.133  18.926  25.391  1.00  0.00     0.100 C 
ATOM     92  C   UNL A   1      34.328  18.992  24.437  1.00  0.00     0.100 C 
ATOM     93  O   UNL A   1      36.199  20.447  24.926  1.00  0.00    -0.274 OA
ATOM     94  C   UNL A   1      32.330  17.645  25.106  1.00  0.00     0.028 C 
ATOM     95  C   UNL A   1      34.723  17.583  24.020  1.00  0.00     0.028 C 
ATOM     96  C   UNL A   1      33.286  16.592  25.719  1.00  0.00    -0.026 C 
ATOM     97  C   UNL A   1      32.225  17.242  23.623  1.00  0.00     0.001 C 
ATOM     98  C   UNL A   1      34.534  16.609  25.194  1.00  0.00    -0.026 C 
ATOM     99  C   UNL A   1      33.616  17.188  22.972  1.00  0.00     0.001 C 
ATOM    100  C   UNL A   1      32.506  18.084  22.413  1.00  0.00     0.009 C 
ENDBRANCH  83  87
ENDBRANCH  77  80
ENDBRANCH  75  76
ENDBRANCH  74  75
ENDBRANCH  73  74
ENDBRANCH   1  73
TORSDOF 14
ENDMDL
MODEL 3
REMARK VINA RESULT:     -13.5      0.601      6.973
REMARK SMILES O=C(NCCCCCCNC(=O)c1cc(N2C(=O)[C@H]3[C@@H]4C=C[C@@H]([C@@H]5C[C@H]45)[C@@H]3C2=O)ccc1Cl)c1ccc(-c2c3nc(c(-c4c(F)c(F)c(F)c(F)c4F)c4ccc([nH]4)c(-c4c(F)c(F)c(F)c(F)c4F)c4nc(c(-c5c(F)c(F)c(F)c(F)c5F)c5ccc2[nH]5)C=C4)C=C3)cc1
REMARK SMILES IDX 6 1 5 2 4 3 3 4 1 5 2 6 34 8 35 9 96 10 36 11 95 12 37 13
REMARK SMILES IDX 38 14 39 15 89 16 40 17 94 18 88 19 90 20 41 21 93 22 87 23
REMARK SMILES IDX 86 24 42 26 74 27 54 28 73 29 55 30 58 31 72 32 91 33 56 34
REMARK SMILES IDX 57 35 71 37 92 38 59 39 43 40 44 41 52 42 45 43 46 44 50 45
REMARK SMILES IDX 53 46 47 47 48 48 51 49 49 50 75 51 76 52 84 53 77 54 78 55
REMARK SMILES IDX 82 56 85 57 79 58 80 59 83 60 81 61 60 62 61 63 69 64 62 65
REMARK SMILES IDX 63 66 67 67 70 68 64 69 65 70 68 71 66 72 7 73 8 74 9 75
REMARK SMILES IDX 10 76 11 77 12 79 13 80 14 81 32 82 15 83 31 84 33 85 30 86
REMARK SMILES IDX 16 87 17 88 28 89 18 90 19 91 27 92 29 93 20 94 23 95 21 96
REMARK SMILES IDX 26 97 22 98 24 99 25 100
REMARK H PARENT 3 7 90 25 58 36 10 78
REMARK Flexibility Score: inf
ROOT
ATOM      1  C   UNL A   1      31.449  28.060  26.135  1.00  0.00     0.002 C 
ENDROOT
BRANCH   1   2
ATOM      2  C   UNL A   1      32.349  27.885  27.356  1.00  0.00     0.021 C 
BRANCH   2   3
ATOM      3  C   UNL A   1      33.683  28.607  27.262  1.00  0.00     0.116 C 
BRANCH   3   4
ATOM      4  N   UNL A   1      33.555  30.040  27.466  1.00  0.00    -0.352 N 
ATOM      5  O   UNL A   1      34.111  32.053  28.333  1.00  0.00    -0.269 OA
ATOM      6  C   UNL A   1      34.431  30.896  28.086  1.00  0.00     0.251 C 
ATOM      7  H   UNL A   1      32.732  30.450  27.115  1.00  0.00     0.163 HD
BRANCH   6   8
ATOM      8  C   UNL A   1      35.771  30.402  28.463  1.00  0.00     0.039 A 
ATOM      9  C   UNL A   1      36.861  30.615  27.617  1.00  0.00     0.014 A 
ATOM     10  C   UNL A   1      35.938  29.725  29.674  1.00  0.00     0.014 A 
ATOM     11  C   UNL A   1      38.092  30.052  27.922  1.00  0.00     0.010 A 
ATOM     12  C   UNL A   1      37.201  29.242  30.026  1.00  0.00     0.010 A 
ATOM     13  C   UNL A   1      38.285  29.397  29.149  1.00  0.00    -0.014 A 
BRANCH  13  14
ATOM     14  C   UNL A   1      39.662  29.018  29.549  1.00  0.00     0.031 A 
ATOM     15  C   UNL A   1      40.335  27.796  29.001  1.00  0.00     0.074 A 
ATOM     16  C   UNL A   1      40.300  29.818  30.427  1.00  0.00     0.049 A 
ATOM     17  N   UNL A   1      41.529  27.329  29.267  1.00  0.00    -0.248 NA
ATOM     18  C   UNL A   1      39.575  26.984  28.038  1.00  0.00     0.031 C 
ATOM     19  C   UNL A   1      39.727  31.023  31.036  1.00  0.00     0.029 A 
ATOM     20  N   UNL A   1      41.562  29.750  30.959  1.00  0.00    -0.354 N 
ATOM     21  C   UNL A   1      41.659  26.165  28.522  1.00  0.00     0.074 A 
ATOM     22  C   UNL A   1      40.417  25.984  27.802  1.00  0.00     0.031 C 
ATOM     23  C   UNL A   1      40.642  31.597  31.828  1.00  0.00     0.029 A 
ATOM     24  C   UNL A   1      41.836  30.763  31.845  1.00  0.00     0.049 A 
ATOM     25  H   UNL A   1      42.208  29.044  30.727  1.00  0.00     0.167 HD
ATOM     26  C   UNL A   1      42.725  25.332  28.452  1.00  0.00     0.037 A 
ATOM     27  C   UNL A   1      42.914  30.976  32.620  1.00  0.00     0.037 A 
ATOM     28  C   UNL A   1      43.962  25.536  29.164  1.00  0.00     0.049 A 
ATOM     29  C   UNL A   1      44.059  30.007  32.543  1.00  0.00     0.074 A 
ATOM     30  C   UNL A   1      45.124  24.784  29.105  1.00  0.00     0.029 A 
ATOM     31  N   UNL A   1      44.195  26.557  30.075  1.00  0.00    -0.354 N 
ATOM     32  N   UNL A   1      44.198  28.950  31.782  1.00  0.00    -0.248 NA
ATOM     33  C   UNL A   1      45.197  30.259  33.437  1.00  0.00     0.031 C 
ATOM     34  C   UNL A   1      46.033  25.307  30.030  1.00  0.00     0.029 A 
ATOM     35  C   UNL A   1      45.465  26.426  30.618  1.00  0.00     0.049 A 
ATOM     36  H   UNL A   1      43.554  27.268  30.303  1.00  0.00     0.167 HD
ATOM     37  C   UNL A   1      45.441  28.419  32.092  1.00  0.00     0.074 A 
ATOM     38  C   UNL A   1      46.030  29.291  33.085  1.00  0.00     0.031 C 
ATOM     39  C   UNL A   1      46.036  27.302  31.607  1.00  0.00     0.037 A 
BRANCH  26  40
ATOM     40  C   UNL A   1      42.617  24.104  27.595  1.00  0.00     0.064 A 
ATOM     41  C   UNL A   1      42.935  24.123  26.230  1.00  0.00     0.173 A 
ATOM     42  C   UNL A   1      42.301  22.865  28.177  1.00  0.00     0.173 A 
ATOM     43  F   UNL A   1      43.239  25.281  25.624  1.00  0.00    -0.203 F 
ATOM     44  C   UNL A   1      42.936  22.951  25.478  1.00  0.00     0.198 A 
ATOM     45  C   UNL A   1      42.328  21.692  27.428  1.00  0.00     0.198 A 
ATOM     46  F   UNL A   1      41.998  22.789  29.482  1.00  0.00    -0.203 F 
ATOM     47  F   UNL A   1      43.225  22.995  24.170  1.00  0.00    -0.200 F 
ATOM     48  C   UNL A   1      42.644  21.735  26.080  1.00  0.00     0.200 A 
ATOM     49  F   UNL A   1      42.064  20.517  28.016  1.00  0.00    -0.200 F 
ATOM     50  F   UNL A   1      42.672  20.605  25.360  1.00  0.00    -0.200 F 
ENDBRANCH  26  40
BRANCH  27  51
ATOM     51  C   UNL A   1      42.940  32.123  33.567  1.00  0.00     0.064 A 
ATOM     52  C   UNL A   1      42.374  32.022  34.844  1.00  0.00     0.173 A 
ATOM     53  C   UNL A   1      43.507  33.353  33.199  1.00  0.00     0.173 A 
ATOM     54  F   UNL A   1      41.806  30.872  35.237  1.00  0.00    -0.203 F 
ATOM     55  C   UNL A   1      42.340  33.118  35.704  1.00  0.00     0.198 A 
ATOM     56  C   UNL A   1      43.509  34.436  34.075  1.00  0.00     0.198 A 
ATOM     57  F   UNL A   1      44.070  33.502  31.991  1.00  0.00    -0.203 F 
ATOM     58  F   UNL A   1      41.732  33.014  36.893  1.00  0.00    -0.200 F 
ATOM     59  C   UNL A   1      42.912  34.322  35.320  1.00  0.00     0.200 A 
ATOM     60  F   UNL A   1      44.081  35.590  33.707  1.00  0.00    -0.200 F 
ATOM     61  F   UNL A   1      42.876  35.377  36.146  1.00  0.00    -0.200 F 
ENDBRANCH  27  51
BRANCH  39  62
ATOM     62  C   UNL A   1      47.402  26.977  32.134  1.00  0.00     0.064 A 
ATOM     63  C   UNL A   1      48.562  27.489  31.532  1.00  0.00     0.173 A 
ATOM     64  C   UNL A   1      47.555  26.159  33.264  1.00  0.00     0.173 A 
ATOM     65  F   UNL A   1      48.471  28.258  30.437  1.00  0.00    -0.203 F 
ATOM     66  C   UNL A   1      49.824  27.170  32.025  1.00  0.00     0.198 A 
ATOM     67  C   UNL A   1      48.817  25.873  33.775  1.00  0.00     0.198 A 
ATOM     68  F   UNL A   1      46.478  25.648  33.879  1.00  0.00    -0.203 F 
ATOM     69  F   UNL A   1      50.919  27.623  31.399  1.00  0.00    -0.200 F 
ATOM     70  C   UNL A   1      49.950  26.369  33.151  1.00  0.00     0.200 A 
ATOM     71  F   UNL A   1      48.935  25.111  34.872  1.00  0.00    -0.200 F 
ATOM     72  F   UNL A   1      51.166  26.070  33.628  1.00  0.00    -0.200 F 
ENDBRANCH  39  62
ENDBRANCH  13  14
ENDBRANCH   6   8
ENDBRANCH   3   4
ENDBRANCH   2   3
ENDBRANCH   1   2
BRANCH   1  73
ATOM     73  C   UNL A   1      30.781  26.779  25.630  1.00  0.00     0.002 C 
BRANCH  73  74
ATOM     74  C   UNL A   1      30.536  26.712  24.117  1.00  0.00     0.021 C 
BRANCH  74  75
ATOM     75  C   UNL A   1      30.580  25.307  23.524  1.00  0.00     0.116 C 
BRANCH  75  76
ATOM     76  N   UNL A   1      31.426  25.243  22.349  1.00  0.00    -0.352 N 
ATOM     77  C   UNL A   1      32.731  24.850  22.247  1.00  0.00     0.252 C 
ATOM     78  H   UNL A   1      31.000  25.519  21.506  1.00  0.00     0.163 HD
ATOM     79  O   UNL A   1      33.329  24.942  21.179  1.00  0.00    -0.269 OA
BRANCH  77  80
ATOM     80  C   UNL A   1      33.455  24.363  23.430  1.00  0.00     0.060 A 
ATOM     81  C   UNL A   1      33.400  22.981  23.673  1.00  0.00     0.042 A 
ATOM     82  C   UNL A   1      34.094  25.221  24.334  1.00  0.00     0.053 A 
ATOM     83  C   UNL A   1      33.951  22.465  24.844  1.00  0.00     0.053 A 
ATOM     84  C   UNL A   1      34.713  24.688  25.463  1.00  0.00     0.023 A 
ATOM     85  Cl  UNL A   1      34.123  26.938  24.155  1.00  0.00    -0.083 Cl
ATOM     86  C   UNL A   1      34.619  23.323  25.730  1.00  0.00     0.028 A 
BRANCH  83  87
ATOM     87  N   UNL A   1      33.914  21.086  25.121  1.00  0.00    -0.250 N 
ATOM     88  C   UNL A   1      32.709  20.377  25.254  1.00  0.00     0.238 C 
ATOM     89  C   UNL A   1      35.017  20.236  24.903  1.00  0.00     0.238 C 
ATOM     90  O   UNL A   1      31.560  20.782  25.256  1.00  0.00    -0.274 OA
ATOM     91  C   UNL A   1      33.149  18.955  25.381  1.00  0.00     0.100 C 
ATOM     92  C   UNL A   1      34.352  18.995  24.434  1.00  0.00     0.100 C 
ATOM     93  O   UNL A   1      36.207  20.482  24.883  1.00  0.00    -0.274 OA
ATOM     94  C   UNL A   1      32.359  17.657  25.138  1.00  0.00     0.028 C 
ATOM     95  C   UNL A   1      34.760  17.576  24.072  1.00  0.00     0.028 C 
ATOM     96  C   UNL A   1      33.318  16.635  25.795  1.00  0.00    -0.026 C 
ATOM     97  C   UNL A   1      32.268  17.201  23.670  1.00  0.00     0.001 C 
ATOM     98  C   UNL A   1      34.570  16.643  25.279  1.00  0.00    -0.026 C 
ATOM     99  C   UNL A   1      33.664  17.134  23.031  1.00  0.00     0.001 C 
ATOM    100  C   UNL A   1      32.552  18.000  22.432  1.00  0.00     0.009 C 
ENDBRANCH  83  87
ENDBRANCH  77  80
ENDBRANCH  75  76
ENDBRANCH  74  75
ENDBRANCH  73  74
ENDBRANCH   1  73
TORSDOF 14
ENDMDL
