MODEL 1
REMARK VINA RESULT:     -12.5      0.000      0.000
REMARK SMILES C[C@@H]1CN(C(=O)N2c3ccccc3C[C@@H]2C(=O)NCCCCCCNC(=O)c2ccc(-c3c4nc(c(-c5c(F)c(F)c(F)c(F)c5F)c5ccc([nH]5)c(-c5c(F)c(F)c(F)c(F)c5F)c5nc(c(-c6c(F)c(F)c(F)c(F)c6F)c6ccc3[nH]6)C=C5)C=C4)cc2)C[C@@H]1C
REMARK SMILES IDX 21 1 20 2 19 3 18 4 16 5 17 6 15 8 7 9 8 10 9 11 13 12 14 13
REMARK SMILES IDX 10 14 12 15 11 16 5 17 6 18 4 19 1 20 2 21 3 22 92 23 91 24
REMARK SMILES IDX 93 25 22 26 23 27 24 28 25 29 26 30 27 32 28 33 29 34 90 35
REMARK SMILES IDX 30 36 89 37 31 38 32 39 33 40 83 41 34 42 88 43 82 44 84 45
REMARK SMILES IDX 35 46 87 47 81 48 80 49 36 51 68 52 48 53 67 54 49 55 52 56
REMARK SMILES IDX 66 57 85 58 50 59 51 60 65 62 86 63 53 64 37 65 38 66 46 67
REMARK SMILES IDX 39 68 40 69 44 70 47 71 41 72 42 73 45 74 43 75 69 76 70 77
REMARK SMILES IDX 78 78 71 79 72 80 76 81 79 82 73 83 74 84 77 85 75 86 54 87
REMARK SMILES IDX 55 88 63 89 56 90 57 91 61 92 64 93 58 94 59 95 62 96 60 97
REMARK H PARENT 18 7 25 31 84 50 52 61
REMARK Flexibility Score: inf
ROOT
ATOM      1  C   UNL A   1      32.403  29.648  26.885  1.00  0.00     0.002 C 
ENDROOT
BRANCH   1   2
ATOM      2  C   UNL A   1      31.644  28.460  27.494  1.00  0.00     0.021 C 
BRANCH   2   3
ATOM      3  C   UNL A   1      31.068  27.487  26.465  1.00  0.00     0.116 C 
BRANCH   3   4
ATOM      4  N   UNL A   1      31.280  26.115  26.876  1.00  0.00    -0.354 N 
ATOM      5  C   UNL A   1      32.076  25.153  26.326  1.00  0.00     0.243 C 
ATOM      6  O   UNL A   1      31.986  24.016  26.798  1.00  0.00    -0.273 OA
ATOM      7  H   UNL A   1      30.773  25.834  27.671  1.00  0.00     0.163 HD
BRANCH   5   8
ATOM      8  C   UNL A   1      33.124  25.549  25.273  1.00  0.00     0.186 C 
ATOM      9  N   UNL A   1      33.210  24.505  24.241  1.00  0.00    -0.281 N 
ATOM     10  C   UNL A   1      34.469  23.894  24.311  1.00  0.00     0.050 A 
ATOM     11  C   UNL A   1      35.038  22.946  23.480  1.00  0.00     0.027 A 
ATOM     12  C   UNL A   1      35.209  24.450  25.358  1.00  0.00    -0.021 A 
ATOM     13  C   UNL A   1      34.491  25.612  25.973  1.00  0.00     0.073 C 
ATOM     14  C   UNL A   1      36.318  22.470  23.788  1.00  0.00     0.002 A 
ATOM     15  C   UNL A   1      36.480  23.993  25.672  1.00  0.00     0.006 A 
ATOM     16  C   UNL A   1      37.025  22.977  24.889  1.00  0.00     0.000 A 
BRANCH   9  17
ATOM     17  C   UNL A   1      32.226  24.396  23.295  1.00  0.00     0.325 C 
ATOM     18  O   UNL A   1      31.835  23.279  22.939  1.00  0.00    -0.248 OA
BRANCH  17  19
ATOM     19  N   UNL A   1      31.798  25.539  22.659  1.00  0.00    -0.324 N 
ATOM     20  C   UNL A   1      30.149  28.834  23.071  1.00  0.00     0.010 C 
ATOM     21  C   UNL A   1      30.829  27.685  22.347  1.00  0.00     0.010 C 
ATOM     22  C   UNL A   1      30.647  26.344  23.063  1.00  0.00     0.125 C 
ATOM     23  C   UNL A   1      32.356  27.795  22.185  1.00  0.00     0.010 C 
ATOM     24  C   UNL A   1      32.735  26.340  21.883  1.00  0.00     0.125 C 
ATOM     25  C   UNL A   1      33.091  28.312  23.424  1.00  0.00     0.010 C 
ENDBRANCH  17  19
ENDBRANCH   9  17
ENDBRANCH   5   8
ENDBRANCH   3   4
ENDBRANCH   2   3
ENDBRANCH   1   2
BRANCH   1  26
ATOM     26  C   UNL A   1      31.573  30.559  25.973  1.00  0.00     0.002 C 
BRANCH  26  27
ATOM     27  C   UNL A   1      31.346  31.977  26.503  1.00  0.00     0.021 C 
BRANCH  27  28
ATOM     28  C   UNL A   1      32.534  32.579  27.247  1.00  0.00     0.116 C 
BRANCH  28  29
ATOM     29  N   UNL A   1      32.334  33.983  27.571  1.00  0.00    -0.352 N 
ATOM     30  C   UNL A   1      32.965  34.760  28.507  1.00  0.00     0.251 C 
ATOM     31  H   UNL A   1      31.643  34.441  27.041  1.00  0.00     0.163 HD
ATOM     32  O   UNL A   1      32.546  35.892  28.752  1.00  0.00    -0.269 OA
BRANCH  30  33
ATOM     33  C   UNL A   1      34.133  34.239  29.247  1.00  0.00     0.039 A 
ATOM     34  C   UNL A   1      33.919  33.541  30.438  1.00  0.00     0.014 A 
ATOM     35  C   UNL A   1      35.435  34.440  28.779  1.00  0.00     0.014 A 
ATOM     36  C   UNL A   1      35.001  32.992  31.128  1.00  0.00     0.010 A 
ATOM     37  C   UNL A   1      36.509  33.834  29.430  1.00  0.00     0.010 A 
ATOM     38  C   UNL A   1      36.302  33.102  30.609  1.00  0.00    -0.014 A 
BRANCH  38  39
ATOM     39  C   UNL A   1      37.451  32.442  31.281  1.00  0.00     0.031 A 
ATOM     40  C   UNL A   1      38.156  31.286  30.629  1.00  0.00     0.074 A 
ATOM     41  C   UNL A   1      37.820  32.850  32.510  1.00  0.00     0.049 A 
ATOM     42  N   UNL A   1      39.144  30.557  31.083  1.00  0.00    -0.248 NA
ATOM     43  C   UNL A   1      37.670  30.878  29.303  1.00  0.00     0.031 C 
ATOM     44  C   UNL A   1      37.182  33.925  33.272  1.00  0.00     0.029 A 
ATOM     45  N   UNL A   1      38.817  32.402  33.342  1.00  0.00    -0.354 N 
ATOM     46  C   UNL A   1      39.390  29.602  30.107  1.00  0.00     0.074 A 
ATOM     47  C   UNL A   1      38.414  29.810  29.058  1.00  0.00     0.031 C 
ATOM     48  C   UNL A   1      37.814  34.068  34.447  1.00  0.00     0.029 A 
ATOM     49  C   UNL A   1      38.879  33.073  34.538  1.00  0.00     0.049 A 
ATOM     50  H   UNL A   1      39.429  31.669  33.104  1.00  0.00     0.167 HD
ATOM     51  C   UNL A   1      40.356  28.653  30.077  1.00  0.00     0.037 A 
ATOM     52  C   UNL A   1      39.699  32.904  35.594  1.00  0.00     0.037 A 
ATOM     53  C   UNL A   1      41.340  28.462  31.111  1.00  0.00     0.049 A 
ATOM     54  C   UNL A   1      40.763  31.842  35.533  1.00  0.00     0.074 A 
ATOM     55  C   UNL A   1      42.400  27.572  31.142  1.00  0.00     0.029 A 
ATOM     56  N   UNL A   1      41.381  29.173  32.302  1.00  0.00    -0.354 N 
ATOM     57  N   UNL A   1      41.035  30.995  34.572  1.00  0.00    -0.248 NA
ATOM     58  C   UNL A   1      41.640  31.720  36.706  1.00  0.00     0.031 C 
ATOM     59  C   UNL A   1      43.054  27.711  32.371  1.00  0.00     0.029 A 
ATOM     60  C   UNL A   1      42.434  28.723  33.085  1.00  0.00     0.049 A 
ATOM     61  H   UNL A   1      40.756  29.890  32.554  1.00  0.00     0.167 HD
ATOM     62  C   UNL A   1      42.125  30.256  35.010  1.00  0.00     0.074 A 
ATOM     63  C   UNL A   1      42.477  30.768  36.318  1.00  0.00     0.031 C 
ATOM     64  C   UNL A   1      42.773  29.242  34.386  1.00  0.00     0.037 A 
BRANCH  51  65
ATOM     65  C   UNL A   1      40.401  27.744  28.883  1.00  0.00     0.064 A 
ATOM     66  C   UNL A   1      41.194  28.039  27.763  1.00  0.00     0.173 A 
ATOM     67  C   UNL A   1      39.674  26.543  28.873  1.00  0.00     0.173 A 
ATOM     68  F   UNL A   1      41.900  29.178  27.718  1.00  0.00    -0.203 F 
ATOM     69  C   UNL A   1      41.237  27.180  26.668  1.00  0.00     0.198 A 
ATOM     70  C   UNL A   1      39.743  25.672  27.788  1.00  0.00     0.198 A 
ATOM     71  F   UNL A   1      38.905  26.209  29.920  1.00  0.00    -0.203 F 
ATOM     72  F   UNL A   1      41.965  27.506  25.591  1.00  0.00    -0.200 F 
ATOM     73  C   UNL A   1      40.518  25.994  26.684  1.00  0.00     0.200 A 
ATOM     74  F   UNL A   1      39.058  24.520  27.811  1.00  0.00    -0.200 F 
ATOM     75  F   UNL A   1      40.566  25.165  25.632  1.00  0.00    -0.200 F 
ENDBRANCH  51  65
BRANCH  52  76
ATOM     76  C   UNL A   1      39.561  33.778  36.787  1.00  0.00     0.064 A 
ATOM     77  C   UNL A   1      38.776  33.383  37.881  1.00  0.00     0.173 A 
ATOM     78  C   UNL A   1      40.204  35.022  36.860  1.00  0.00     0.173 A 
ATOM     79  F   UNL A   1      38.125  32.212  37.848  1.00  0.00    -0.203 F 
ATOM     80  C   UNL A   1      38.624  34.209  38.991  1.00  0.00     0.198 A 
ATOM     81  C   UNL A   1      40.073  35.834  37.983  1.00  0.00     0.198 A 
ATOM     82  F   UNL A   1      40.970  35.442  35.842  1.00  0.00    -0.203 F 
ATOM     83  F   UNL A   1      37.832  33.829  40.003  1.00  0.00    -0.200 F 
ATOM     84  C   UNL A   1      39.277  35.432  39.045  1.00  0.00     0.200 A 
ATOM     85  F   UNL A   1      40.718  37.008  38.038  1.00  0.00    -0.200 F 
ATOM     86  F   UNL A   1      39.133  36.224  40.116  1.00  0.00    -0.200 F 
ENDBRANCH  52  76
BRANCH  64  87
ATOM     87  C   UNL A   1      43.946  28.637  35.100  1.00  0.00     0.064 A 
ATOM     88  C   UNL A   1      45.244  29.143  34.942  1.00  0.00     0.173 A 
ATOM     89  C   UNL A   1      43.765  27.554  35.974  1.00  0.00     0.173 A 
ATOM     90  F   UNL A   1      45.472  30.167  34.106  1.00  0.00    -0.203 F 
ATOM     91  C   UNL A   1      46.322  28.570  35.611  1.00  0.00     0.198 A 
ATOM     92  C   UNL A   1      44.840  27.003  36.665  1.00  0.00     0.198 A 
ATOM     93  F   UNL A   1      42.542  27.036  36.166  1.00  0.00    -0.203 F 
ATOM     94  F   UNL A   1      47.562  29.037  35.405  1.00  0.00    -0.200 F 
ATOM     95  C   UNL A   1      46.119  27.505  36.477  1.00  0.00     0.200 A 
ATOM     96  F   UNL A   1      44.640  25.983  37.511  1.00  0.00    -0.200 F 
ATOM     97  F   UNL A   1      47.158  26.957  37.123  1.00  0.00    -0.200 F 
ENDBRANCH  64  87
ENDBRANCH  38  39
ENDBRANCH  30  33
ENDBRANCH  28  29
ENDBRANCH  27  28
ENDBRANCH  26  27
ENDBRANCH   1  26
TORSDOF 15
ENDMDL
MODEL 2
REMARK VINA RESULT:     -12.5      0.692      2.032
REMARK SMILES C[C@@H]1CN(C(=O)N2c3ccccc3C[C@@H]2C(=O)NCCCCCCNC(=O)c2ccc(-c3c4nc(c(-c5c(F)c(F)c(F)c(F)c5F)c5ccc([nH]5)c(-c5c(F)c(F)c(F)c(F)c5F)c5nc(c(-c6c(F)c(F)c(F)c(F)c6F)c6ccc3[nH]6)C=C5)C=C4)cc2)C[C@@H]1C
REMARK SMILES IDX 21 1 20 2 19 3 18 4 16 5 17 6 15 8 7 9 8 10 9 11 13 12 14 13
REMARK SMILES IDX 10 14 12 15 11 16 5 17 6 18 4 19 1 20 2 21 3 22 92 23 91 24
REMARK SMILES IDX 93 25 22 26 23 27 24 28 25 29 26 30 27 32 28 33 29 34 90 35
REMARK SMILES IDX 30 36 89 37 31 38 32 39 33 40 83 41 34 42 88 43 82 44 84 45
REMARK SMILES IDX 35 46 87 47 81 48 80 49 36 51 68 52 48 53 67 54 49 55 52 56
REMARK SMILES IDX 66 57 85 58 50 59 51 60 65 62 86 63 53 64 37 65 38 66 46 67
REMARK SMILES IDX 39 68 40 69 44 70 47 71 41 72 42 73 45 74 43 75 69 76 70 77
REMARK SMILES IDX 78 78 71 79 72 80 76 81 79 82 73 83 74 84 77 85 75 86 54 87
REMARK SMILES IDX 55 88 63 89 56 90 57 91 61 92 64 93 58 94 59 95 62 96 60 97
REMARK H PARENT 18 7 25 31 84 50 52 61
REMARK Flexibility Score: inf
ROOT
ATOM      1  C   UNL A   1      32.664  29.965  26.863  1.00  0.00     0.002 C 
ENDROOT
BRANCH   1   2
ATOM      2  C   UNL A   1      32.225  28.578  27.358  1.00  0.00     0.021 C 
BRANCH   2   3
ATOM      3  C   UNL A   1      31.403  27.780  26.345  1.00  0.00     0.116 C 
BRANCH   3   4
ATOM      4  N   UNL A   1      31.037  26.487  26.881  1.00  0.00    -0.354 N 
ATOM      5  C   UNL A   1      31.417  25.238  26.484  1.00  0.00     0.243 C 
ATOM      6  O   UNL A   1      30.862  24.284  27.035  1.00  0.00    -0.273 OA
ATOM      7  H   UNL A   1      30.420  26.512  27.648  1.00  0.00     0.163 HD
BRANCH   5   8
ATOM      8  C   UNL A   1      32.588  25.081  25.501  1.00  0.00     0.186 C 
ATOM      9  N   UNL A   1      32.319  23.966  24.582  1.00  0.00    -0.281 N 
ATOM     10  C   UNL A   1      33.241  22.939  24.824  1.00  0.00     0.050 A 
ATOM     11  C   UNL A   1      33.444  21.754  24.140  1.00  0.00     0.027 A 
ATOM     12  C   UNL A   1      34.084  23.298  25.880  1.00  0.00    -0.021 A 
ATOM     13  C   UNL A   1      33.838  24.709  26.316  1.00  0.00     0.073 C 
ATOM     14  C   UNL A   1      34.425  20.873  24.608  1.00  0.00     0.002 A 
ATOM     15  C   UNL A   1      35.064  22.438  26.351  1.00  0.00     0.006 A 
ATOM     16  C   UNL A   1      35.216  21.205  25.719  1.00  0.00     0.000 A 
BRANCH   9  17
ATOM     17  C   UNL A   1      31.418  24.121  23.563  1.00  0.00     0.325 C 
ATOM     18  O   UNL A   1      30.653  23.196  23.269  1.00  0.00    -0.248 OA
BRANCH  17  19
ATOM     19  N   UNL A   1      31.486  25.262  22.795  1.00  0.00    -0.324 N 
ATOM     20  C   UNL A   1      31.144  28.953  22.764  1.00  0.00     0.010 C 
ATOM     21  C   UNL A   1      31.401  27.562  22.211  1.00  0.00     0.010 C 
ATOM     22  C   UNL A   1      30.688  26.467  23.009  1.00  0.00     0.125 C 
ATOM     23  C   UNL A   1      32.868  27.096  22.203  1.00  0.00     0.010 C 
ATOM     24  C   UNL A   1      32.704  25.578  22.061  1.00  0.00     0.125 C 
ATOM     25  C   UNL A   1      33.655  27.451  23.467  1.00  0.00     0.010 C 
ENDBRANCH  17  19
ENDBRANCH   9  17
ENDBRANCH   5   8
ENDBRANCH   3   4
ENDBRANCH   2   3
ENDBRANCH   1   2
BRANCH   1  26
ATOM     26  C   UNL A   1      31.603  30.749  26.083  1.00  0.00     0.002 C 
BRANCH  26  27
ATOM     27  C   UNL A   1      31.402  32.197  26.535  1.00  0.00     0.021 C 
BRANCH  27  28
ATOM     28  C   UNL A   1      32.596  32.814  27.258  1.00  0.00     0.116 C 
BRANCH  28  29
ATOM     29  N   UNL A   1      32.369  34.203  27.621  1.00  0.00    -0.352 N 
ATOM     30  C   UNL A   1      32.967  34.957  28.597  1.00  0.00     0.251 C 
ATOM     31  H   UNL A   1      31.686  34.670  27.089  1.00  0.00     0.163 HD
ATOM     32  O   UNL A   1      32.527  36.076  28.867  1.00  0.00    -0.269 OA
BRANCH  30  33
ATOM     33  C   UNL A   1      34.123  34.427  29.349  1.00  0.00     0.039 A 
ATOM     34  C   UNL A   1      33.894  33.773  30.562  1.00  0.00     0.014 A 
ATOM     35  C   UNL A   1      35.429  34.578  28.872  1.00  0.00     0.014 A 
ATOM     36  C   UNL A   1      34.964  33.215  31.265  1.00  0.00     0.010 A 
ATOM     37  C   UNL A   1      36.487  33.963  29.537  1.00  0.00     0.010 A 
ATOM     38  C   UNL A   1      36.265  33.273  30.739  1.00  0.00    -0.014 A 
BRANCH  38  39
ATOM     39  C   UNL A   1      37.398  32.603  31.428  1.00  0.00     0.031 A 
ATOM     40  C   UNL A   1      38.107  31.446  30.783  1.00  0.00     0.074 A 
ATOM     41  C   UNL A   1      37.747  33.001  32.666  1.00  0.00     0.049 A 
ATOM     42  N   UNL A   1      39.083  30.708  31.250  1.00  0.00    -0.248 NA
ATOM     43  C   UNL A   1      37.642  31.047  29.446  1.00  0.00     0.031 C 
ATOM     44  C   UNL A   1      37.102  34.077  33.422  1.00  0.00     0.029 A 
ATOM     45  N   UNL A   1      38.727  32.543  33.513  1.00  0.00    -0.354 N 
ATOM     46  C   UNL A   1      39.340  29.757  30.273  1.00  0.00     0.074 A 
ATOM     47  C   UNL A   1      38.384  29.976  29.208  1.00  0.00     0.031 C 
ATOM     48  C   UNL A   1      37.714  34.209  34.608  1.00  0.00     0.029 A 
ATOM     49  C   UNL A   1      38.772  33.208  34.713  1.00  0.00     0.049 A 
ATOM     50  H   UNL A   1      39.338  31.807  33.281  1.00  0.00     0.167 HD
ATOM     51  C   UNL A   1      40.300  28.801  30.256  1.00  0.00     0.037 A 
ATOM     52  C   UNL A   1      39.572  33.028  35.782  1.00  0.00     0.037 A 
ATOM     53  C   UNL A   1      41.264  28.599  31.305  1.00  0.00     0.049 A 
ATOM     54  C   UNL A   1      40.631  31.960  35.735  1.00  0.00     0.074 A 
ATOM     55  C   UNL A   1      42.318  27.702  31.350  1.00  0.00     0.029 A 
ATOM     56  N   UNL A   1      41.289  29.303  32.501  1.00  0.00    -0.354 N 
ATOM     57  N   UNL A   1      40.914  31.116  34.773  1.00  0.00    -0.248 NA
ATOM     58  C   UNL A   1      41.486  31.826  36.922  1.00  0.00     0.031 C 
ATOM     59  C   UNL A   1      42.951  27.831  32.591  1.00  0.00     0.029 A 
ATOM     60  C   UNL A   1      42.325  28.843  33.300  1.00  0.00     0.049 A 
ATOM     61  H   UNL A   1      40.664  30.023  32.746  1.00  0.00     0.167 HD
ATOM     62  C   UNL A   1      41.991  30.368  35.227  1.00  0.00     0.074 A 
ATOM     63  C   UNL A   1      42.324  30.871  36.544  1.00  0.00     0.031 C 
ATOM     64  C   UNL A   1      42.644  29.353  34.609  1.00  0.00     0.037 A 
BRANCH  51  65
ATOM     65  C   UNL A   1      40.361  27.898  29.057  1.00  0.00     0.064 A 
ATOM     66  C   UNL A   1      39.635  26.698  29.004  1.00  0.00     0.173 A 
ATOM     67  C   UNL A   1      41.119  28.256  27.933  1.00  0.00     0.173 A 
ATOM     68  F   UNL A   1      38.903  26.305  30.056  1.00  0.00    -0.203 F 
ATOM     69  C   UNL A   1      39.690  25.876  27.880  1.00  0.00     0.198 A 
ATOM     70  C   UNL A   1      41.147  27.447  26.799  1.00  0.00     0.198 A 
ATOM     71  F   UNL A   1      41.826  29.396  27.927  1.00  0.00    -0.203 F 
ATOM     72  F   UNL A   1      39.026  24.712  27.871  1.00  0.00    -0.200 F 
ATOM     73  C   UNL A   1      40.439  26.255  26.777  1.00  0.00     0.200 A 
ATOM     74  F   UNL A   1      41.861  27.821  25.728  1.00  0.00    -0.200 F 
ATOM     75  F   UNL A   1      40.484  25.467  25.693  1.00  0.00    -0.200 F 
ENDBRANCH  51  65
BRANCH  52  76
ATOM     76  C   UNL A   1      39.418  33.896  36.978  1.00  0.00     0.064 A 
ATOM     77  C   UNL A   1      40.021  35.161  37.031  1.00  0.00     0.173 A 
ATOM     78  C   UNL A   1      38.672  33.481  38.090  1.00  0.00     0.173 A 
ATOM     79  F   UNL A   1      40.762  35.592  36.001  1.00  0.00    -0.203 F 
ATOM     80  C   UNL A   1      39.901  35.968  38.160  1.00  0.00     0.198 A 
ATOM     81  C   UNL A   1      38.528  34.301  39.206  1.00  0.00     0.198 A 
ATOM     82  F   UNL A   1      38.071  32.282  38.086  1.00  0.00    -0.203 F 
ATOM     83  F   UNL A   1      40.525  37.152  38.203  1.00  0.00    -0.200 F 
ATOM     84  C   UNL A   1      39.149  35.540  39.245  1.00  0.00     0.200 A 
ATOM     85  F   UNL A   1      37.789  33.890  40.246  1.00  0.00    -0.200 F 
ATOM     86  F   UNL A   1      39.030  36.319  40.328  1.00  0.00    -0.200 F 
ENDBRANCH  52  76
BRANCH  64  87
ATOM     87  C   UNL A   1      43.800  28.737  35.341  1.00  0.00     0.064 A 
ATOM     88  C   UNL A   1      43.619  27.679  36.245  1.00  0.00     0.173 A 
ATOM     89  C   UNL A   1      45.108  29.191  35.115  1.00  0.00     0.173 A 
ATOM     90  F   UNL A   1      42.386  27.219  36.507  1.00  0.00    -0.203 F 
ATOM     91  C   UNL A   1      44.702  27.119  36.917  1.00  0.00     0.198 A 
ATOM     92  C   UNL A   1      46.192  28.608  35.766  1.00  0.00     0.198 A 
ATOM     93  F   UNL A   1      45.338  30.195  34.256  1.00  0.00    -0.203 F 
ATOM     94  F   UNL A   1      44.499  26.144  37.815  1.00  0.00    -0.200 F 
ATOM     95  C   UNL A   1      45.987  27.579  36.672  1.00  0.00     0.200 A 
ATOM     96  F   UNL A   1      47.435  29.044  35.519  1.00  0.00    -0.200 F 
ATOM     97  F   UNL A   1      47.029  27.035  37.318  1.00  0.00    -0.200 F 
ENDBRANCH  64  87
ENDBRANCH  38  39
ENDBRANCH  30  33
ENDBRANCH  28  29
ENDBRANCH  27  28
ENDBRANCH  26  27
ENDBRANCH   1  26
TORSDOF 15
ENDMDL
MODEL 3
REMARK VINA RESULT:     -12.4      0.630      7.251
REMARK SMILES C[C@@H]1CN(C(=O)N2c3ccccc3C[C@@H]2C(=O)NCCCCCCNC(=O)c2ccc(-c3c4nc(c(-c5c(F)c(F)c(F)c(F)c5F)c5ccc([nH]5)c(-c5c(F)c(F)c(F)c(F)c5F)c5nc(c(-c6c(F)c(F)c(F)c(F)c6F)c6ccc3[nH]6)C=C5)C=C4)cc2)C[C@@H]1C
REMARK SMILES IDX 21 1 20 2 19 3 18 4 16 5 17 6 15 8 7 9 8 10 9 11 13 12 14 13
REMARK SMILES IDX 10 14 12 15 11 16 5 17 6 18 4 19 1 20 2 21 3 22 92 23 91 24
REMARK SMILES IDX 93 25 22 26 23 27 24 28 25 29 26 30 27 32 28 33 29 34 90 35
REMARK SMILES IDX 30 36 89 37 31 38 32 39 33 40 83 41 34 42 88 43 82 44 84 45
REMARK SMILES IDX 35 46 87 47 81 48 80 49 36 51 68 52 48 53 67 54 49 55 52 56
REMARK SMILES IDX 66 57 85 58 50 59 51 60 65 62 86 63 53 64 37 65 38 66 46 67
REMARK SMILES IDX 39 68 40 69 44 70 47 71 41 72 42 73 45 74 43 75 69 76 70 77
REMARK SMILES IDX 78 78 71 79 72 80 76 81 79 82 73 83 74 84 77 85 75 86 54 87
REMARK SMILES IDX 55 88 63 89 56 90 57 91 61 92 64 93 58 94 59 95 62 96 60 97
REMARK H PARENT 18 7 25 31 84 50 52 61
REMARK Flexibility Score: inf
ROOT
ATOM      1  C   UNL A   1      32.354  29.533  27.138  1.00  0.00     0.002 C 
ENDROOT
BRANCH   1   2
ATOM      2  C   UNL A   1      31.757  28.204  27.624  1.00  0.00     0.021 C 
BRANCH   2   3
ATOM      3  C   UNL A   1      31.231  27.304  26.505  1.00  0.00     0.116 C 
BRANCH   3   4
ATOM      4  N   UNL A   1      31.414  25.907  26.836  1.00  0.00    -0.354 N 
ATOM      5  C   UNL A   1      32.241  24.978  26.277  1.00  0.00     0.243 C 
ATOM      6  O   UNL A   1      32.118  23.814  26.665  1.00  0.00    -0.273 OA
ATOM      7  H   UNL A   1      30.855  25.577  27.577  1.00  0.00     0.163 HD
BRANCH   5   8
ATOM      8  C   UNL A   1      33.356  25.437  25.321  1.00  0.00     0.186 C 
ATOM      9  N   UNL A   1      33.475  24.487  24.206  1.00  0.00    -0.281 N 
ATOM     10  C   UNL A   1      34.713  23.836  24.287  1.00  0.00     0.050 A 
ATOM     11  C   UNL A   1      35.305  22.950  23.405  1.00  0.00     0.027 A 
ATOM     12  C   UNL A   1      35.406  24.275  25.418  1.00  0.00    -0.021 A 
ATOM     13  C   UNL A   1      34.683  25.397  26.097  1.00  0.00     0.073 C 
ATOM     14  C   UNL A   1      36.553  22.412  23.737  1.00  0.00     0.002 A 
ATOM     15  C   UNL A   1      36.646  23.755  25.757  1.00  0.00     0.006 A 
ATOM     16  C   UNL A   1      37.210  22.798  24.916  1.00  0.00     0.000 A 
BRANCH   9  17
ATOM     17  C   UNL A   1      32.543  24.491  23.202  1.00  0.00     0.325 C 
ATOM     18  O   UNL A   1      32.102  23.422  22.766  1.00  0.00    -0.248 OA
BRANCH  17  19
ATOM     19  N   UNL A   1      32.228  25.691  22.604  1.00  0.00    -0.324 N 
ATOM     20  C   UNL A   1      30.630  29.005  23.054  1.00  0.00     0.010 C 
ATOM     21  C   UNL A   1      31.363  27.886  22.336  1.00  0.00     0.010 C 
ATOM     22  C   UNL A   1      31.058  26.505  22.923  1.00  0.00     0.125 C 
ATOM     23  C   UNL A   1      32.901  27.952  22.370  1.00  0.00     0.010 C 
ATOM     24  C   UNL A   1      33.276  26.510  22.009  1.00  0.00     0.125 C 
ATOM     25  C   UNL A   1      33.490  28.356  23.723  1.00  0.00     0.010 C 
ENDBRANCH  17  19
ENDBRANCH   9  17
ENDBRANCH   5   8
ENDBRANCH   3   4
ENDBRANCH   2   3
ENDBRANCH   1   2
BRANCH   1  26
ATOM     26  C   UNL A   1      31.466  30.344  26.188  1.00  0.00     0.002 C 
BRANCH  26  27
ATOM     27  C   UNL A   1      31.365  31.837  26.507  1.00  0.00     0.021 C 
BRANCH  27  28
ATOM     28  C   UNL A   1      32.653  32.468  27.029  1.00  0.00     0.116 C 
BRANCH  28  29
ATOM     29  N   UNL A   1      32.467  33.848  27.448  1.00  0.00    -0.352 N 
ATOM     30  C   UNL A   1      33.101  34.552  28.436  1.00  0.00     0.251 C 
ATOM     31  H   UNL A   1      31.783  34.349  26.947  1.00  0.00     0.163 HD
ATOM     32  O   UNL A   1      32.694  35.669  28.756  1.00  0.00    -0.269 OA
BRANCH  30  33
ATOM     33  C   UNL A   1      34.260  33.968  29.144  1.00  0.00     0.039 A 
ATOM     34  C   UNL A   1      34.028  33.145  30.250  1.00  0.00     0.014 A 
ATOM     35  C   UNL A   1      35.569  34.233  28.732  1.00  0.00     0.014 A 
ATOM     36  C   UNL A   1      35.103  32.538  30.902  1.00  0.00     0.010 A 
ATOM     37  C   UNL A   1      36.636  33.574  29.340  1.00  0.00     0.010 A 
ATOM     38  C   UNL A   1      36.413  32.718  30.430  1.00  0.00    -0.014 A 
BRANCH  38  39
ATOM     39  C   UNL A   1      37.556  32.003  31.055  1.00  0.00     0.031 A 
ATOM     40  C   UNL A   1      38.015  32.362  32.440  1.00  0.00     0.074 A 
ATOM     41  C   UNL A   1      38.217  31.068  30.347  1.00  0.00     0.049 A 
ATOM     42  N   UNL A   1      39.020  31.882  33.129  1.00  0.00    -0.248 NA
ATOM     43  C   UNL A   1      37.263  33.419  33.133  1.00  0.00     0.031 C 
ATOM     44  C   UNL A   1      37.902  30.666  28.975  1.00  0.00     0.029 A 
ATOM     45  N   UNL A   1      39.299  30.290  30.680  1.00  0.00    -0.354 N 
ATOM     46  C   UNL A   1      39.026  32.583  34.328  1.00  0.00     0.074 A 
ATOM     47  C   UNL A   1      37.958  33.557  34.252  1.00  0.00     0.031 C 
ATOM     48  C   UNL A   1      38.755  29.705  28.591  1.00  0.00     0.029 A 
ATOM     49  C   UNL A   1      39.699  29.444  29.675  1.00  0.00     0.049 A 
ATOM     50  H   UNL A   1      39.745  30.334  31.556  1.00  0.00     0.167 HD
ATOM     51  C   UNL A   1      39.835  32.413  35.401  1.00  0.00     0.037 A 
ATOM     52  C   UNL A   1      40.715  28.562  29.628  1.00  0.00     0.037 A 
ATOM     53  C   UNL A   1      40.882  31.429  35.483  1.00  0.00     0.049 A 
ATOM     54  C   UNL A   1      41.597  28.394  30.835  1.00  0.00     0.074 A 
ATOM     55  C   UNL A   1      41.710  31.134  36.552  1.00  0.00     0.029 A 
ATOM     56  N   UNL A   1      41.247  30.578  34.449  1.00  0.00    -0.354 N 
ATOM     57  N   UNL A   1      41.545  29.009  31.991  1.00  0.00    -0.248 NA
ATOM     58  C   UNL A   1      42.676  27.401  30.731  1.00  0.00     0.031 C 
ATOM     59  C   UNL A   1      42.608  30.139  36.150  1.00  0.00     0.029 A 
ATOM     60  C   UNL A   1      42.306  29.777  34.848  1.00  0.00     0.049 A 
ATOM     61  H   UNL A   1      40.819  30.548  33.563  1.00  0.00     0.167 HD
ATOM     62  C   UNL A   1      42.565  28.464  32.759  1.00  0.00     0.074 A 
ATOM     63  C   UNL A   1      43.208  27.454  31.944  1.00  0.00     0.031 C 
ATOM     64  C   UNL A   1      42.937  28.776  34.025  1.00  0.00     0.037 A 
BRANCH  51  65
ATOM     65  C   UNL A   1      39.618  33.313  36.583  1.00  0.00     0.064 A 
ATOM     66  C   UNL A   1      38.729  32.972  37.615  1.00  0.00     0.173 A 
ATOM     67  C   UNL A   1      40.336  34.512  36.708  1.00  0.00     0.173 A 
ATOM     68  F   UNL A   1      38.010  31.842  37.539  1.00  0.00    -0.203 F 
ATOM     69  C   UNL A   1      38.548  33.810  38.712  1.00  0.00     0.198 A 
ATOM     70  C   UNL A   1      40.175  35.333  37.822  1.00  0.00     0.198 A 
ATOM     71  F   UNL A   1      41.204  34.883  35.755  1.00  0.00    -0.203 F 
ATOM     72  F   UNL A   1      37.658  33.485  39.661  1.00  0.00    -0.200 F 
ATOM     73  C   UNL A   1      39.275  34.985  38.819  1.00  0.00     0.200 A 
ATOM     74  F   UNL A   1      40.889  36.462  37.930  1.00  0.00    -0.200 F 
ATOM     75  F   UNL A   1      39.106  35.786  39.880  1.00  0.00    -0.200 F 
ENDBRANCH  51  65
BRANCH  52  76
ATOM     76  C   UNL A   1      40.938  27.752  28.403  1.00  0.00     0.064 A 
ATOM     77  C   UNL A   1      40.268  26.535  28.212  1.00  0.00     0.173 A 
ATOM     78  C   UNL A   1      41.826  28.172  27.402  1.00  0.00     0.173 A 
ATOM     79  F   UNL A   1      39.425  26.082  29.151  1.00  0.00    -0.203 F 
ATOM     80  C   UNL A   1      40.492  25.760  27.077  1.00  0.00     0.198 A 
ATOM     81  C   UNL A   1      42.028  27.410  26.254  1.00  0.00     0.198 A 
ATOM     82  F   UNL A   1      42.488  29.331  27.534  1.00  0.00    -0.203 F 
ATOM     83  F   UNL A   1      39.873  24.580  26.941  1.00  0.00    -0.200 F 
ATOM     84  C   UNL A   1      41.368  26.200  26.095  1.00  0.00     0.200 A 
ATOM     85  F   UNL A   1      42.863  27.846  25.301  1.00  0.00    -0.200 F 
ATOM     86  F   UNL A   1      41.580  25.457  25.002  1.00  0.00    -0.200 F 
ENDBRANCH  52  76
BRANCH  64  87
ATOM     87  C   UNL A   1      44.076  27.997  34.615  1.00  0.00     0.064 A 
ATOM     88  C   UNL A   1      43.868  26.779  35.281  1.00  0.00     0.173 A 
ATOM     89  C   UNL A   1      45.395  28.460  34.490  1.00  0.00     0.173 A 
ATOM     90  F   UNL A   1      42.625  26.301  35.441  1.00  0.00    -0.203 F 
ATOM     91  C   UNL A   1      44.936  26.069  35.823  1.00  0.00     0.198 A 
ATOM     92  C   UNL A   1      46.463  27.732  35.007  1.00  0.00     0.198 A 
ATOM     93  F   UNL A   1      45.650  29.615  33.857  1.00  0.00    -0.203 F 
ATOM     94  F   UNL A   1      44.709  24.935  36.500  1.00  0.00    -0.200 F 
ATOM     95  C   UNL A   1      46.232  26.542  35.680  1.00  0.00     0.200 A 
ATOM     96  F   UNL A   1      47.716  28.183  34.856  1.00  0.00    -0.200 F 
ATOM     97  F   UNL A   1      47.259  25.855  36.200  1.00  0.00    -0.200 F 
ENDBRANCH  64  87
ENDBRANCH  38  39
ENDBRANCH  30  33
ENDBRANCH  28  29
ENDBRANCH  27  28
ENDBRANCH  26  27
ENDBRANCH   1  26
TORSDOF 15
ENDMDL
