MODEL 1
REMARK VINA RESULT:     -11.8      0.000      0.000
REMARK SMILES COc1ccc(-c2nc(NCC(=O)NCCCCCCNC(=O)c3ccc(-c4c5nc(c(-c6c(F)c(F)c(F)c(F)c6F)c6ccc([nH]6)c(-c6c(F)c(F)c(F)c(F)c6F)c6nc(c(-c7c(F)c(F)c(F)c(F)c7F)c7ccc4[nH]7)C=C6)C=C5)cc3)sc2-c2ccc(OC)cc2)cc1
REMARK SMILES IDX 16 1 15 2 14 3 12 4 13 5 11 7 10 8 9 10 7 11 8 12 88 13
REMARK SMILES IDX 87 14 6 15 3 16 4 17 98 18 5 19 97 20 2 21 1 22 89 23 90 24
REMARK SMILES IDX 96 25 91 26 95 27 92 28 93 29 94 30 17 31 18 32 19 33 20 34
REMARK SMILES IDX 21 35 22 36 23 38 24 39 25 40 86 41 26 42 85 43 27 44 28 45
REMARK SMILES IDX 29 46 79 47 30 48 84 49 78 50 80 51 31 52 83 53 77 54 76 55
REMARK SMILES IDX 32 57 64 58 44 59 63 60 45 61 48 62 62 63 81 64 46 65 47 66
REMARK SMILES IDX 61 68 82 69 49 70 33 71 34 72 42 73 35 74 36 75 40 76 43 77
REMARK SMILES IDX 37 78 38 79 41 80 39 81 65 82 66 83 74 84 67 85 68 86 72 87
REMARK SMILES IDX 75 88 69 89 70 90 73 91 71 92 50 93 51 94 59 95 52 96 53 97
REMARK SMILES IDX 57 98 60 99 54 100 55 101 58 102 56 103
REMARK H PARENT 14 6 10 9 21 37 80 56 48 67
REMARK Flexibility Score: inf
ROOT
ATOM      1  C   UNL A   1      36.413  21.972  24.332  1.00  0.00     0.021 C 
ENDROOT
BRANCH   1   2
ATOM      2  C   UNL A   1      35.512  23.180  24.584  1.00  0.00     0.116 C 
BRANCH   2   3
ATOM      3  N   UNL A   1      34.954  23.682  23.346  1.00  0.00    -0.355 N 
ATOM      4  C   UNL A   1      33.872  23.220  22.648  1.00  0.00     0.239 C 
ATOM      5  O   UNL A   1      33.621  23.731  21.554  1.00  0.00    -0.273 OA
ATOM      6  H   UNL A   1      35.414  24.460  22.953  1.00  0.00     0.163 HD
BRANCH   4   7
ATOM      7  C   UNL A   1      32.970  22.138  23.255  1.00  0.00     0.215 C 
BRANCH   7   8
ATOM      8  N   UNL A   1      32.116  22.669  24.306  1.00  0.00    -0.352 N 
ATOM      9  H   UNL A   1      31.856  22.053  25.029  1.00  0.00     0.163 HD
BRANCH   8  10
ATOM     10  C   UNL A   1      31.650  23.934  24.374  1.00  0.00     0.184 A 
ATOM     11  C   UNL A   1      31.674  26.089  24.900  1.00  0.00     0.091 A 
ATOM     12  N   UNL A   1      32.287  24.857  25.057  1.00  0.00    -0.220 NA
ATOM     13  C   UNL A   1      30.610  26.115  24.009  1.00  0.00     0.064 A 
ATOM     14  S   UNL A   1      30.239  24.506  23.559  1.00  0.00    -0.096 S 
BRANCH  11  15
ATOM     15  C   UNL A   1      32.164  27.271  25.592  1.00  0.00     0.002 A 
ATOM     16  C   UNL A   1      33.199  29.447  27.024  1.00  0.00     0.118 A 
ATOM     17  C   UNL A   1      33.907  28.919  25.946  1.00  0.00     0.047 A 
ATOM     18  C   UNL A   1      31.949  28.922  27.357  1.00  0.00     0.047 A 
ATOM     19  C   UNL A   1      33.397  27.832  25.236  1.00  0.00     0.014 A 
ATOM     20  C   UNL A   1      31.429  27.839  26.638  1.00  0.00     0.014 A 
BRANCH  16  21
ATOM     21  O   UNL A   1      33.789  30.509  27.652  1.00  0.00    -0.497 OA
ATOM     22  C   UNL A   1      33.120  31.753  27.470  1.00  0.00     0.278 C 
ENDBRANCH  16  21
ENDBRANCH  11  15
BRANCH  13  23
ATOM     23  C   UNL A   1      29.865  27.239  23.434  1.00  0.00    -0.006 A 
ATOM     24  C   UNL A   1      28.480  27.361  23.576  1.00  0.00     0.013 A 
ATOM     25  C   UNL A   1      30.556  28.235  22.726  1.00  0.00     0.013 A 
ATOM     26  C   UNL A   1      27.809  28.464  23.038  1.00  0.00     0.047 A 
ATOM     27  C   UNL A   1      29.885  29.341  22.193  1.00  0.00     0.047 A 
ATOM     28  C   UNL A   1      28.507  29.464  22.357  1.00  0.00     0.118 A 
BRANCH  28  29
ATOM     29  O   UNL A   1      27.737  30.497  21.898  1.00  0.00    -0.497 OA
ATOM     30  C   UNL A   1      28.424  31.582  21.286  1.00  0.00     0.278 C 
ENDBRANCH  28  29
ENDBRANCH  13  23
ENDBRANCH   8  10
ENDBRANCH   7   8
ENDBRANCH   4   7
ENDBRANCH   2   3
ENDBRANCH   1   2
BRANCH   1  31
ATOM     31  C   UNL A   1      35.922  20.690  25.018  1.00  0.00     0.002 C 
BRANCH  31  32
ATOM     32  C   UNL A   1      36.905  19.512  24.973  1.00  0.00     0.002 C 
BRANCH  32  33
ATOM     33  C   UNL A   1      38.369  19.894  24.737  1.00  0.00     0.021 C 
BRANCH  33  34
ATOM     34  C   UNL A   1      39.217  19.962  26.003  1.00  0.00     0.116 C 
BRANCH  34  35
ATOM     35  N   UNL A   1      40.356  19.060  25.945  1.00  0.00    -0.352 N 
ATOM     36  C   UNL A   1      41.694  19.343  26.040  1.00  0.00     0.251 C 
ATOM     37  H   UNL A   1      40.135  18.109  25.820  1.00  0.00     0.163 HD
ATOM     38  O   UNL A   1      42.529  18.477  25.782  1.00  0.00    -0.269 OA
BRANCH  36  39
ATOM     39  C   UNL A   1      42.142  20.693  26.441  1.00  0.00     0.039 A 
ATOM     40  C   UNL A   1      42.253  20.993  27.801  1.00  0.00     0.014 A 
ATOM     41  C   UNL A   1      42.422  21.671  25.482  1.00  0.00     0.014 A 
ATOM     42  C   UNL A   1      42.686  22.258  28.201  1.00  0.00     0.010 A 
ATOM     43  C   UNL A   1      42.916  22.911  25.879  1.00  0.00     0.010 A 
ATOM     44  C   UNL A   1      43.042  23.220  27.242  1.00  0.00    -0.014 A 
BRANCH  44  45
ATOM     45  C   UNL A   1      43.511  24.570  27.644  1.00  0.00     0.031 A 
ATOM     46  C   UNL A   1      42.512  25.631  28.013  1.00  0.00     0.074 A 
ATOM     47  C   UNL A   1      44.827  24.855  27.629  1.00  0.00     0.049 A 
ATOM     48  N   UNL A   1      42.710  26.891  28.312  1.00  0.00    -0.248 NA
ATOM     49  C   UNL A   1      41.096  25.229  28.023  1.00  0.00     0.031 C 
ATOM     50  C   UNL A   1      45.892  23.922  27.261  1.00  0.00     0.029 A 
ATOM     51  N   UNL A   1      45.493  26.019  27.925  1.00  0.00    -0.354 N 
ATOM     52  C   UNL A   1      41.450  27.429  28.535  1.00  0.00     0.074 A 
ATOM     53  C   UNL A   1      40.488  26.378  28.280  1.00  0.00     0.031 C 
ATOM     54  C   UNL A   1      47.079  24.540  27.377  1.00  0.00     0.029 A 
ATOM     55  C   UNL A   1      46.856  25.922  27.791  1.00  0.00     0.049 A 
ATOM     56  H   UNL A   1      45.036  26.843  28.207  1.00  0.00     0.167 HD
ATOM     57  C   UNL A   1      41.123  28.679  28.941  1.00  0.00     0.037 A 
ATOM     58  C   UNL A   1      47.815  26.848  27.979  1.00  0.00     0.037 A 
ATOM     59  C   UNL A   1      42.081  29.717  29.218  1.00  0.00     0.049 A 
ATOM     60  C   UNL A   1      47.424  28.233  28.422  1.00  0.00     0.074 A 
ATOM     61  C   UNL A   1      41.854  31.010  29.653  1.00  0.00     0.029 A 
ATOM     62  N   UNL A   1      43.455  29.571  29.096  1.00  0.00    -0.354 N 
ATOM     63  N   UNL A   1      46.231  28.719  28.663  1.00  0.00    -0.248 NA
ATOM     64  C   UNL A   1      48.516  29.195  28.626  1.00  0.00     0.031 C 
ATOM     65  C   UNL A   1      43.088  31.658  29.764  1.00  0.00     0.029 A 
ATOM     66  C   UNL A   1      44.088  30.755  29.442  1.00  0.00     0.049 A 
ATOM     67  H   UNL A   1      43.913  28.750  28.806  1.00  0.00     0.167 HD
ATOM     68  C   UNL A   1      46.430  30.027  29.085  1.00  0.00     0.074 A 
ATOM     69  C   UNL A   1      47.861  30.255  29.075  1.00  0.00     0.031 C 
ATOM     70  C   UNL A   1      45.513  30.954  29.452  1.00  0.00     0.037 A 
BRANCH  57  71
ATOM     71  C   UNL A   1      39.666  28.989  29.121  1.00  0.00     0.064 A 
ATOM     72  C   UNL A   1      38.863  29.392  28.043  1.00  0.00     0.173 A 
ATOM     73  C   UNL A   1      39.055  28.853  30.377  1.00  0.00     0.173 A 
ATOM     74  F   UNL A   1      39.401  29.552  26.824  1.00  0.00    -0.203 F 
ATOM     75  C   UNL A   1      37.511  29.673  28.220  1.00  0.00     0.198 A 
ATOM     76  C   UNL A   1      37.696  29.105  30.545  1.00  0.00     0.198 A 
ATOM     77  F   UNL A   1      39.776  28.468  31.441  1.00  0.00    -0.203 F 
ATOM     78  F   UNL A   1      36.776  30.104  27.185  1.00  0.00    -0.200 F 
ATOM     79  C   UNL A   1      36.927  29.521  29.469  1.00  0.00     0.200 A 
ATOM     80  F   UNL A   1      37.130  28.947  31.750  1.00  0.00    -0.200 F 
ATOM     81  F   UNL A   1      35.624  29.786  29.637  1.00  0.00    -0.200 F 
ENDBRANCH  57  71
BRANCH  58  82
ATOM     82  C   UNL A   1      49.246  26.493  27.785  1.00  0.00     0.064 A 
ATOM     83  C   UNL A   1      50.087  26.280  28.886  1.00  0.00     0.173 A 
ATOM     84  C   UNL A   1      49.806  26.385  26.505  1.00  0.00     0.173 A 
ATOM     85  F   UNL A   1      49.601  26.394  30.131  1.00  0.00    -0.203 F 
ATOM     86  C   UNL A   1      51.441  26.002  28.716  1.00  0.00     0.198 A 
ATOM     87  C   UNL A   1      51.155  26.078  26.335  1.00  0.00     0.198 A 
ATOM     88  F   UNL A   1      49.044  26.576  25.418  1.00  0.00    -0.203 F 
ATOM     89  F   UNL A   1      52.233  25.858  29.787  1.00  0.00    -0.200 F 
ATOM     90  C   UNL A   1      51.973  25.897  27.439  1.00  0.00     0.200 A 
ATOM     91  F   UNL A   1      51.662  25.965  25.100  1.00  0.00    -0.200 F 
ATOM     92  F   UNL A   1      53.277  25.632  27.275  1.00  0.00    -0.200 F 
ENDBRANCH  58  82
BRANCH  70  93
ATOM     93  C   UNL A   1      46.028  32.281  29.929  1.00  0.00     0.064 A 
ATOM     94  C   UNL A   1      46.378  32.499  31.269  1.00  0.00     0.173 A 
ATOM     95  C   UNL A   1      46.203  33.337  29.023  1.00  0.00     0.173 A 
ATOM     96  F   UNL A   1      46.214  31.525  32.178  1.00  0.00    -0.203 F 
ATOM     97  C   UNL A   1      46.860  33.736  31.690  1.00  0.00     0.198 A 
ATOM     98  C   UNL A   1      46.712  34.563  29.440  1.00  0.00     0.198 A 
ATOM     99  F   UNL A   1      45.888  33.176  27.729  1.00  0.00    -0.203 F 
ATOM    100  F   UNL A   1      47.142  33.938  32.984  1.00  0.00    -0.200 F 
ATOM    101  C   UNL A   1      47.032  34.764  30.775  1.00  0.00     0.200 A 
ATOM    102  F   UNL A   1      46.890  35.551  28.553  1.00  0.00    -0.200 F 
ATOM    103  F   UNL A   1      47.500  35.952  31.180  1.00  0.00    -0.200 F 
ENDBRANCH  70  93
ENDBRANCH  44  45
ENDBRANCH  36  39
ENDBRANCH  34  35
ENDBRANCH  33  34
ENDBRANCH  32  33
ENDBRANCH  31  32
ENDBRANCH   1  31
TORSDOF 19
ENDMDL
MODEL 2
REMARK VINA RESULT:     -11.6      0.856      2.249
REMARK SMILES COc1ccc(-c2nc(NCC(=O)NCCCCCCNC(=O)c3ccc(-c4c5nc(c(-c6c(F)c(F)c(F)c(F)c6F)c6ccc([nH]6)c(-c6c(F)c(F)c(F)c(F)c6F)c6nc(c(-c7c(F)c(F)c(F)c(F)c7F)c7ccc4[nH]7)C=C6)C=C5)cc3)sc2-c2ccc(OC)cc2)cc1
REMARK SMILES IDX 16 1 15 2 14 3 12 4 13 5 11 7 10 8 9 10 7 11 8 12 88 13
REMARK SMILES IDX 87 14 6 15 3 16 4 17 98 18 5 19 97 20 2 21 1 22 89 23 90 24
REMARK SMILES IDX 96 25 91 26 95 27 92 28 93 29 94 30 17 31 18 32 19 33 20 34
REMARK SMILES IDX 21 35 22 36 23 38 24 39 25 40 86 41 26 42 85 43 27 44 28 45
REMARK SMILES IDX 29 46 79 47 30 48 84 49 78 50 80 51 31 52 83 53 77 54 76 55
REMARK SMILES IDX 32 57 64 58 44 59 63 60 45 61 48 62 62 63 81 64 46 65 47 66
REMARK SMILES IDX 61 68 82 69 49 70 33 71 34 72 42 73 35 74 36 75 40 76 43 77
REMARK SMILES IDX 37 78 38 79 41 80 39 81 65 82 66 83 74 84 67 85 68 86 72 87
REMARK SMILES IDX 75 88 69 89 70 90 73 91 71 92 50 93 51 94 59 95 52 96 53 97
REMARK SMILES IDX 57 98 60 99 54 100 55 101 58 102 56 103
REMARK H PARENT 14 6 10 9 21 37 80 56 48 67
REMARK Flexibility Score: inf
ROOT
ATOM      1  C   UNL A   1      36.273  21.867  24.262  1.00  0.00     0.021 C 
ENDROOT
BRANCH   1   2
ATOM      2  C   UNL A   1      35.261  22.985  24.511  1.00  0.00     0.116 C 
BRANCH   2   3
ATOM      3  N   UNL A   1      34.673  23.442  23.268  1.00  0.00    -0.355 N 
ATOM      4  C   UNL A   1      33.560  22.973  22.627  1.00  0.00     0.239 C 
ATOM      5  O   UNL A   1      33.284  23.438  21.519  1.00  0.00    -0.273 OA
ATOM      6  H   UNL A   1      35.137  24.189  22.825  1.00  0.00     0.163 HD
BRANCH   4   7
ATOM      7  C   UNL A   1      32.655  21.941  23.313  1.00  0.00     0.215 C 
BRANCH   7   8
ATOM      8  N   UNL A   1      31.723  22.565  24.239  1.00  0.00    -0.352 N 
ATOM      9  H   UNL A   1      31.239  21.972  24.858  1.00  0.00     0.163 HD
BRANCH   8  10
ATOM     10  C   UNL A   1      31.467  23.888  24.322  1.00  0.00     0.184 A 
ATOM     11  C   UNL A   1      31.777  25.987  24.970  1.00  0.00     0.091 A 
ATOM     12  N   UNL A   1      32.152  24.664  25.130  1.00  0.00    -0.220 NA
ATOM     13  C   UNL A   1      30.857  26.226  23.958  1.00  0.00     0.064 A 
ATOM     14  S   UNL A   1      30.288  24.721  23.374  1.00  0.00    -0.096 S 
BRANCH  11  15
ATOM     15  C   UNL A   1      32.360  27.043  25.783  1.00  0.00     0.002 A 
ATOM     16  C   UNL A   1      33.405  29.191  27.250  1.00  0.00     0.118 A 
ATOM     17  C   UNL A   1      32.143  28.683  27.555  1.00  0.00     0.047 A 
ATOM     18  C   UNL A   1      34.167  28.595  26.244  1.00  0.00     0.047 A 
ATOM     19  C   UNL A   1      31.618  27.618  26.822  1.00  0.00     0.014 A 
ATOM     20  C   UNL A   1      33.648  27.517  25.515  1.00  0.00     0.014 A 
BRANCH  16  21
ATOM     21  O   UNL A   1      33.822  30.235  28.028  1.00  0.00    -0.497 OA
ATOM     22  C   UNL A   1      33.578  31.524  27.473  1.00  0.00     0.278 C 
ENDBRANCH  16  21
ENDBRANCH  11  15
BRANCH  13  23
ATOM     23  C   UNL A   1      30.389  27.481  23.361  1.00  0.00    -0.006 A 
ATOM     24  C   UNL A   1      31.260  28.368  22.722  1.00  0.00     0.013 A 
ATOM     25  C   UNL A   1      29.024  27.806  23.419  1.00  0.00     0.013 A 
ATOM     26  C   UNL A   1      30.770  29.542  22.139  1.00  0.00     0.047 A 
ATOM     27  C   UNL A   1      28.534  28.977  22.831  1.00  0.00     0.047 A 
ATOM     28  C   UNL A   1      29.406  29.845  22.179  1.00  0.00     0.118 A 
BRANCH  28  29
ATOM     29  O   UNL A   1      29.055  31.011  21.555  1.00  0.00    -0.497 OA
ATOM     30  C   UNL A   1      27.663  31.281  21.444  1.00  0.00     0.278 C 
ENDBRANCH  28  29
ENDBRANCH  13  23
ENDBRANCH   8  10
ENDBRANCH   7   8
ENDBRANCH   4   7
ENDBRANCH   2   3
ENDBRANCH   1   2
BRANCH   1  31
ATOM     31  C   UNL A   1      35.942  20.568  25.010  1.00  0.00     0.002 C 
BRANCH  31  32
ATOM     32  C   UNL A   1      37.056  19.512  25.000  1.00  0.00     0.002 C 
BRANCH  32  33
ATOM     33  C   UNL A   1      38.476  20.064  24.853  1.00  0.00     0.021 C 
BRANCH  33  34
ATOM     34  C   UNL A   1      39.290  20.068  26.142  1.00  0.00     0.116 C 
BRANCH  34  35
ATOM     35  N   UNL A   1      40.406  19.137  26.087  1.00  0.00    -0.352 N 
ATOM     36  C   UNL A   1      41.752  19.393  26.089  1.00  0.00     0.251 C 
ATOM     37  H   UNL A   1      40.158  18.185  26.042  1.00  0.00     0.163 HD
ATOM     38  O   UNL A   1      42.553  18.490  25.847  1.00  0.00    -0.269 OA
BRANCH  36  39
ATOM     39  C   UNL A   1      42.251  20.756  26.366  1.00  0.00     0.039 A 
ATOM     40  C   UNL A   1      42.453  21.632  25.297  1.00  0.00     0.014 A 
ATOM     41  C   UNL A   1      42.549  21.160  27.671  1.00  0.00     0.014 A 
ATOM     42  C   UNL A   1      42.913  22.928  25.538  1.00  0.00     0.010 A 
ATOM     43  C   UNL A   1      42.943  22.472  27.917  1.00  0.00     0.010 A 
ATOM     44  C   UNL A   1      43.141  23.365  26.853  1.00  0.00    -0.014 A 
BRANCH  44  45
ATOM     45  C   UNL A   1      43.623  24.740  27.134  1.00  0.00     0.031 A 
ATOM     46  C   UNL A   1      42.664  25.781  27.640  1.00  0.00     0.074 A 
ATOM     47  C   UNL A   1      44.907  25.064  26.889  1.00  0.00     0.049 A 
ATOM     48  N   UNL A   1      42.866  27.055  27.868  1.00  0.00    -0.248 NA
ATOM     49  C   UNL A   1      41.286  25.337  27.900  1.00  0.00     0.031 C 
ATOM     50  C   UNL A   1      45.927  24.152  26.370  1.00  0.00     0.029 A 
ATOM     51  N   UNL A   1      45.572  26.256  27.037  1.00  0.00    -0.354 N 
ATOM     52  C   UNL A   1      41.643  27.562  28.287  1.00  0.00     0.074 A 
ATOM     53  C   UNL A   1      40.690  26.474  28.227  1.00  0.00     0.031 C 
ATOM     54  C   UNL A   1      47.094  24.810  26.267  1.00  0.00     0.029 A 
ATOM     55  C   UNL A   1      46.896  26.197  26.676  1.00  0.00     0.049 A 
ATOM     56  H   UNL A   1      45.141  27.075  27.371  1.00  0.00     0.167 HD
ATOM     57  C   UNL A   1      41.345  28.814  28.710  1.00  0.00     0.037 A 
ATOM     58  C   UNL A   1      47.840  27.157  26.675  1.00  0.00     0.037 A 
ATOM     59  C   UNL A   1      42.300  29.888  28.794  1.00  0.00     0.049 A 
ATOM     60  C   UNL A   1      47.480  28.542  27.141  1.00  0.00     0.074 A 
ATOM     61  C   UNL A   1      42.103  31.187  29.227  1.00  0.00     0.029 A 
ATOM     62  N   UNL A   1      43.638  29.781  28.444  1.00  0.00    -0.354 N 
ATOM     63  N   UNL A   1      46.329  29.000  27.568  1.00  0.00    -0.248 NA
ATOM     64  C   UNL A   1      48.557  29.543  27.133  1.00  0.00     0.031 C 
ATOM     65  C   UNL A   1      43.315  31.876  29.110  1.00  0.00     0.029 A 
ATOM     66  C   UNL A   1      44.277  30.993  28.647  1.00  0.00     0.049 A 
ATOM     67  H   UNL A   1      44.069  28.965  28.102  1.00  0.00     0.167 HD
ATOM     68  C   UNL A   1      46.550  30.326  27.917  1.00  0.00     0.074 A 
ATOM     69  C   UNL A   1      47.950  30.597  27.658  1.00  0.00     0.031 C 
ATOM     70  C   UNL A   1      45.676  31.236  28.410  1.00  0.00     0.037 A 
BRANCH  57  71
ATOM     71  C   UNL A   1      39.930  29.085  29.127  1.00  0.00     0.064 A 
ATOM     72  C   UNL A   1      39.538  29.021  30.473  1.00  0.00     0.173 A 
ATOM     73  C   UNL A   1      38.960  29.444  28.179  1.00  0.00     0.173 A 
ATOM     74  F   UNL A   1      40.423  28.668  31.418  1.00  0.00    -0.203 F 
ATOM     75  C   UNL A   1      38.222  29.278  30.851  1.00  0.00     0.198 A 
ATOM     76  C   UNL A   1      37.652  29.730  28.564  1.00  0.00     0.198 A 
ATOM     77  F   UNL A   1      39.282  29.523  26.879  1.00  0.00    -0.203 F 
ATOM     78  F   UNL A   1      37.860  29.161  32.136  1.00  0.00    -0.200 F 
ATOM     79  C   UNL A   1      37.283  29.641  29.897  1.00  0.00     0.200 A 
ATOM     80  F   UNL A   1      36.748  30.091  27.642  1.00  0.00    -0.200 F 
ATOM     81  F   UNL A   1      36.019  29.894  30.262  1.00  0.00    -0.200 F 
ENDBRANCH  57  71
BRANCH  58  82
ATOM     82  C   UNL A   1      49.229  26.839  26.250  1.00  0.00     0.064 A 
ATOM     83  C   UNL A   1      49.624  27.005  24.915  1.00  0.00     0.173 A 
ATOM     84  C   UNL A   1      50.176  26.341  27.155  1.00  0.00     0.173 A 
ATOM     85  F   UNL A   1      48.746  27.458  24.008  1.00  0.00    -0.203 F 
ATOM     86  C   UNL A   1      50.906  26.658  24.494  1.00  0.00     0.198 A 
ATOM     87  C   UNL A   1      51.467  26.021  26.739  1.00  0.00     0.198 A 
ATOM     88  F   UNL A   1      49.849  26.167  28.444  1.00  0.00    -0.203 F 
ATOM     89  F   UNL A   1      51.240  26.775  23.202  1.00  0.00    -0.200 F 
ATOM     90  C   UNL A   1      51.828  26.170  25.409  1.00  0.00     0.200 A 
ATOM     91  F   UNL A   1      52.358  25.561  27.628  1.00  0.00    -0.200 F 
ATOM     92  F   UNL A   1      53.060  25.832  25.004  1.00  0.00    -0.200 F 
ENDBRANCH  58  82
BRANCH  70  93
ATOM     93  C   UNL A   1      46.217  32.592  28.758  1.00  0.00     0.064 A 
ATOM     94  C   UNL A   1      46.221  33.646  27.834  1.00  0.00     0.173 A 
ATOM     95  C   UNL A   1      46.708  32.845  30.047  1.00  0.00     0.173 A 
ATOM     96  F   UNL A   1      45.777  33.450  26.583  1.00  0.00    -0.203 F 
ATOM     97  C   UNL A   1      46.723  34.898  28.180  1.00  0.00     0.198 A 
ATOM     98  C   UNL A   1      47.182  34.105  30.399  1.00  0.00     0.198 A 
ATOM     99  F   UNL A   1      46.720  31.870  30.969  1.00  0.00    -0.203 F 
ATOM    100  F   UNL A   1      46.762  35.878  27.267  1.00  0.00    -0.200 F 
ATOM    101  C   UNL A   1      47.196  35.128  29.463  1.00  0.00     0.200 A 
ATOM    102  F   UNL A   1      47.627  34.329  31.643  1.00  0.00    -0.200 F 
ATOM    103  F   UNL A   1      47.674  36.335  29.796  1.00  0.00    -0.200 F 
ENDBRANCH  70  93
ENDBRANCH  44  45
ENDBRANCH  36  39
ENDBRANCH  34  35
ENDBRANCH  33  34
ENDBRANCH  32  33
ENDBRANCH  31  32
ENDBRANCH   1  31
TORSDOF 19
ENDMDL
MODEL 3
REMARK VINA RESULT:     -11.6      1.067      7.148
REMARK SMILES COc1ccc(-c2nc(NCC(=O)NCCCCCCNC(=O)c3ccc(-c4c5nc(c(-c6c(F)c(F)c(F)c(F)c6F)c6ccc([nH]6)c(-c6c(F)c(F)c(F)c(F)c6F)c6nc(c(-c7c(F)c(F)c(F)c(F)c7F)c7ccc4[nH]7)C=C6)C=C5)cc3)sc2-c2ccc(OC)cc2)cc1
REMARK SMILES IDX 16 1 15 2 14 3 12 4 13 5 11 7 10 8 9 10 7 11 8 12 88 13
REMARK SMILES IDX 87 14 6 15 3 16 4 17 98 18 5 19 97 20 2 21 1 22 89 23 90 24
REMARK SMILES IDX 96 25 91 26 95 27 92 28 93 29 94 30 17 31 18 32 19 33 20 34
REMARK SMILES IDX 21 35 22 36 23 38 24 39 25 40 86 41 26 42 85 43 27 44 28 45
REMARK SMILES IDX 29 46 79 47 30 48 84 49 78 50 80 51 31 52 83 53 77 54 76 55
REMARK SMILES IDX 32 57 64 58 44 59 63 60 45 61 48 62 62 63 81 64 46 65 47 66
REMARK SMILES IDX 61 68 82 69 49 70 33 71 34 72 42 73 35 74 36 75 40 76 43 77
REMARK SMILES IDX 37 78 38 79 41 80 39 81 65 82 66 83 74 84 67 85 68 86 72 87
REMARK SMILES IDX 75 88 69 89 70 90 73 91 71 92 50 93 51 94 59 95 52 96 53 97
REMARK SMILES IDX 57 98 60 99 54 100 55 101 58 102 56 103
REMARK H PARENT 14 6 10 9 21 37 80 56 48 67
REMARK Flexibility Score: inf
ROOT
ATOM      1  C   UNL A   1      36.334  21.992  24.312  1.00  0.00     0.021 C 
ENDROOT
BRANCH   1   2
ATOM      2  C   UNL A   1      35.534  23.260  24.608  1.00  0.00     0.116 C 
BRANCH   2   3
ATOM      3  N   UNL A   1      34.890  23.762  23.412  1.00  0.00    -0.355 N 
ATOM      4  C   UNL A   1      33.760  23.304  22.794  1.00  0.00     0.239 C 
ATOM      5  O   UNL A   1      33.433  23.814  21.720  1.00  0.00    -0.273 OA
ATOM      6  H   UNL A   1      35.326  24.536  22.985  1.00  0.00     0.163 HD
BRANCH   4   7
ATOM      7  C   UNL A   1      32.898  22.228  23.467  1.00  0.00     0.215 C 
BRANCH   7   8
ATOM      8  N   UNL A   1      31.846  22.808  24.287  1.00  0.00    -0.352 N 
ATOM      9  H   UNL A   1      31.330  22.193  24.857  1.00  0.00     0.163 HD
BRANCH   8  10
ATOM     10  C   UNL A   1      31.519  24.116  24.333  1.00  0.00     0.184 A 
ATOM     11  C   UNL A   1      31.737  26.253  24.885  1.00  0.00     0.091 A 
ATOM     12  N   UNL A   1      32.195  24.961  25.076  1.00  0.00    -0.220 NA
ATOM     13  C   UNL A   1      30.758  26.400  23.912  1.00  0.00     0.064 A 
ATOM     14  S   UNL A   1      30.250  24.843  23.414  1.00  0.00    -0.096 S 
BRANCH  11  15
ATOM     15  C   UNL A   1      32.296  27.372  25.628  1.00  0.00     0.002 A 
ATOM     16  C   UNL A   1      33.431  29.416  27.175  1.00  0.00     0.118 A 
ATOM     17  C   UNL A   1      34.205  28.738  26.235  1.00  0.00     0.047 A 
ATOM     18  C   UNL A   1      32.076  29.109  27.309  1.00  0.00     0.047 A 
ATOM     19  C   UNL A   1      33.644  27.716  25.469  1.00  0.00     0.014 A 
ATOM     20  C   UNL A   1      31.507  28.091  26.532  1.00  0.00     0.014 A 
BRANCH  16  21
ATOM     21  O   UNL A   1      34.079  30.398  27.873  1.00  0.00    -0.497 OA
ATOM     22  C   UNL A   1      33.598  31.716  27.630  1.00  0.00     0.278 C 
ENDBRANCH  16  21
ENDBRANCH  11  15
BRANCH  13  23
ATOM     23  C   UNL A   1      30.191  27.602  23.293  1.00  0.00    -0.006 A 
ATOM     24  C   UNL A   1      30.981  28.520  22.595  1.00  0.00     0.013 A 
ATOM     25  C   UNL A   1      28.811  27.842  23.389  1.00  0.00     0.013 A 
ATOM     26  C   UNL A   1      30.398  29.639  21.993  1.00  0.00     0.047 A 
ATOM     27  C   UNL A   1      28.228  28.959  22.782  1.00  0.00     0.047 A 
ATOM     28  C   UNL A   1      29.020  29.858  22.072  1.00  0.00     0.118 A 
BRANCH  28  29
ATOM     29  O   UNL A   1      28.574  30.977  21.423  1.00  0.00    -0.497 OA
ATOM     30  C   UNL A   1      28.530  32.179  22.183  1.00  0.00     0.278 C 
ENDBRANCH  28  29
ENDBRANCH  13  23
ENDBRANCH   8  10
ENDBRANCH   7   8
ENDBRANCH   4   7
ENDBRANCH   2   3
ENDBRANCH   1   2
BRANCH   1  31
ATOM     31  C   UNL A   1      35.798  20.748  25.034  1.00  0.00     0.002 C 
BRANCH  31  32
ATOM     32  C   UNL A   1      36.724  19.526  24.996  1.00  0.00     0.002 C 
BRANCH  32  33
ATOM     33  C   UNL A   1      38.199  19.834  24.725  1.00  0.00     0.021 C 
BRANCH  33  34
ATOM     34  C   UNL A   1      39.010  20.187  25.967  1.00  0.00     0.116 C 
BRANCH  34  35
ATOM     35  N   UNL A   1      40.142  19.293  26.152  1.00  0.00    -0.352 N 
ATOM     36  C   UNL A   1      41.463  19.594  26.359  1.00  0.00     0.251 C 
ATOM     37  H   UNL A   1      39.929  18.332  26.125  1.00  0.00     0.163 HD
ATOM     38  O   UNL A   1      42.315  18.707  26.308  1.00  0.00    -0.269 OA
BRANCH  36  39
ATOM     39  C   UNL A   1      41.875  20.987  26.632  1.00  0.00     0.039 A 
ATOM     40  C   UNL A   1      41.801  21.927  25.600  1.00  0.00     0.014 A 
ATOM     41  C   UNL A   1      42.362  21.359  27.887  1.00  0.00     0.014 A 
ATOM     42  C   UNL A   1      42.175  23.251  25.840  1.00  0.00     0.010 A 
ATOM     43  C   UNL A   1      42.672  22.692  28.144  1.00  0.00     0.010 A 
ATOM     44  C   UNL A   1      42.593  23.648  27.120  1.00  0.00    -0.014 A 
BRANCH  44  45
ATOM     45  C   UNL A   1      42.988  25.052  27.399  1.00  0.00     0.031 A 
ATOM     46  C   UNL A   1      44.380  25.516  27.072  1.00  0.00     0.074 A 
ATOM     47  C   UNL A   1      42.115  25.890  27.990  1.00  0.00     0.049 A 
ATOM     48  N   UNL A   1      44.947  26.673  27.311  1.00  0.00    -0.248 NA
ATOM     49  C   UNL A   1      45.262  24.542  26.411  1.00  0.00     0.031 C 
ATOM     50  C   UNL A   1      40.747  25.550  28.382  1.00  0.00     0.029 A 
ATOM     51  N   UNL A   1      42.253  27.202  28.369  1.00  0.00    -0.354 N 
ATOM     52  C   UNL A   1      46.248  26.560  26.839  1.00  0.00     0.074 A 
ATOM     53  C   UNL A   1      46.407  25.206  26.353  1.00  0.00     0.031 C 
ATOM     54  C   UNL A   1      40.164  26.632  28.924  1.00  0.00     0.029 A 
ATOM     55  C   UNL A   1      41.127  27.729  28.951  1.00  0.00     0.049 A 
ATOM     56  H   UNL A   1      43.082  27.716  28.236  1.00  0.00     0.167 HD
ATOM     57  C   UNL A   1      47.216  27.507  26.790  1.00  0.00     0.037 A 
ATOM     58  C   UNL A   1      40.901  28.958  29.451  1.00  0.00     0.037 A 
ATOM     59  C   UNL A   1      47.048  28.860  27.250  1.00  0.00     0.049 A 
ATOM     60  C   UNL A   1      41.996  29.989  29.392  1.00  0.00     0.074 A 
ATOM     61  C   UNL A   1      47.960  29.900  27.227  1.00  0.00     0.029 A 
ATOM     62  N   UNL A   1      45.882  29.362  27.809  1.00  0.00    -0.354 N 
ATOM     63  N   UNL A   1      43.211  29.880  28.912  1.00  0.00    -0.248 NA
ATOM     64  C   UNL A   1      41.685  31.317  29.939  1.00  0.00     0.031 C 
ATOM     65  C   UNL A   1      47.356  31.024  27.801  1.00  0.00     0.029 A 
ATOM     66  C   UNL A   1      46.054  30.697  28.141  1.00  0.00     0.049 A 
ATOM     67  H   UNL A   1      45.056  28.847  27.951  1.00  0.00     0.167 HD
ATOM     68  C   UNL A   1      43.793  31.132  29.060  1.00  0.00     0.074 A 
ATOM     69  C   UNL A   1      42.795  31.987  29.669  1.00  0.00     0.031 C 
ATOM     70  C   UNL A   1      45.040  31.538  28.720  1.00  0.00     0.037 A 
BRANCH  57  71
ATOM     71  C   UNL A   1      48.540  27.112  26.206  1.00  0.00     0.064 A 
ATOM     72  C   UNL A   1      49.554  26.554  26.999  1.00  0.00     0.173 A 
ATOM     73  C   UNL A   1      48.790  27.263  24.833  1.00  0.00     0.173 A 
ATOM     74  F   UNL A   1      49.371  26.401  28.320  1.00  0.00    -0.203 F 
ATOM     75  C   UNL A   1      50.778  26.187  26.446  1.00  0.00     0.198 A 
ATOM     76  C   UNL A   1      50.005  26.867  24.278  1.00  0.00     0.198 A 
ATOM     77  F   UNL A   1      47.854  27.790  24.029  1.00  0.00    -0.203 F 
ATOM     78  F   UNL A   1      51.749  25.702  27.233  1.00  0.00    -0.200 F 
ATOM     79  C   UNL A   1      51.000  26.336  25.085  1.00  0.00     0.200 A 
ATOM     80  F   UNL A   1      50.213  27.002  22.961  1.00  0.00    -0.200 F 
ATOM     81  F   UNL A   1      52.176  25.977  24.553  1.00  0.00    -0.200 F 
ENDBRANCH  57  71
BRANCH  58  82
ATOM     82  C   UNL A   1      39.571  29.300  30.023  1.00  0.00     0.064 A 
ATOM     83  C   UNL A   1      38.628  30.010  29.266  1.00  0.00     0.173 A 
ATOM     84  C   UNL A   1      39.227  28.951  31.336  1.00  0.00     0.173 A 
ATOM     85  F   UNL A   1      38.921  30.384  28.012  1.00  0.00    -0.203 F 
ATOM     86  C   UNL A   1      37.401  30.383  29.811  1.00  0.00     0.198 A 
ATOM     87  C   UNL A   1      37.988  29.301  31.870  1.00  0.00     0.198 A 
ATOM     88  F   UNL A   1      40.093  28.270  32.100  1.00  0.00    -0.203 F 
ATOM     89  F   UNL A   1      36.541  31.109  29.083  1.00  0.00    -0.200 F 
ATOM     90  C   UNL A   1      37.081  30.024  31.112  1.00  0.00     0.200 A 
ATOM     91  F   UNL A   1      37.678  28.942  33.123  1.00  0.00    -0.200 F 
ATOM     92  F   UNL A   1      35.902  30.387  31.637  1.00  0.00    -0.200 F 
ENDBRANCH  58  82
BRANCH  70  93
ATOM     93  C   UNL A   1      45.378  32.984  28.942  1.00  0.00     0.064 A 
ATOM     94  C   UNL A   1      45.133  33.959  27.965  1.00  0.00     0.173 A 
ATOM     95  C   UNL A   1      45.924  33.400  30.165  1.00  0.00     0.173 A 
ATOM     96  F   UNL A   1      44.625  33.609  26.773  1.00  0.00    -0.203 F 
ATOM     97  C   UNL A   1      45.448  35.296  28.195  1.00  0.00     0.198 A 
ATOM     98  C   UNL A   1      46.211  34.741  30.403  1.00  0.00     0.198 A 
ATOM     99  F   UNL A   1      46.172  32.506  31.134  1.00  0.00    -0.203 F 
ATOM    100  F   UNL A   1      45.251  36.204  27.230  1.00  0.00    -0.200 F 
ATOM    101  C   UNL A   1      45.981  35.686  29.414  1.00  0.00     0.200 A 
ATOM    102  F   UNL A   1      46.714  35.119  31.586  1.00  0.00    -0.200 F 
ATOM    103  F   UNL A   1      46.279  36.974  29.635  1.00  0.00    -0.200 F 
ENDBRANCH  70  93
ENDBRANCH  44  45
ENDBRANCH  36  39
ENDBRANCH  34  35
ENDBRANCH  33  34
ENDBRANCH  32  33
ENDBRANCH  31  32
ENDBRANCH   1  31
TORSDOF 19
ENDMDL
