MODEL 1
REMARK VINA RESULT:     -12.3      0.000      0.000
REMARK SMILES CN(C)C(=O)Nc1cccc(/C=C/C(=O)NCCCCCCNC(=O)c2ccc(-c3c4nc(c(-c5c(F)c(F)c(F)c(F)c5F)c5ccc([nH]5)c(-c5c(F)c(F)c(F)c(F)c5F)c5nc(c(-c6c(F)c(F)c(F)c(F)c6F)c6ccc3[nH]6)C=C5)C=C4)cc2)n1
REMARK SMILES IDX 19 1 18 2 17 3 16 4 14 5 15 6 13 8 12 9 11 10 7 11 8 12
REMARK SMILES IDX 89 13 9 14 10 15 6 16 1 17 2 18 3 19 4 20 5 21 20 23 21 24
REMARK SMILES IDX 22 25 23 26 24 27 25 29 26 30 27 31 88 32 28 33 87 34 29 35
REMARK SMILES IDX 30 36 31 37 81 38 32 39 86 40 80 41 82 42 33 43 85 44 79 45
REMARK SMILES IDX 78 46 34 48 66 49 46 50 65 51 47 52 50 53 64 54 83 55 48 56
REMARK SMILES IDX 49 57 63 59 84 60 51 61 35 62 36 63 44 64 37 65 38 66 42 67
REMARK SMILES IDX 45 68 39 69 40 70 43 71 41 72 67 73 68 74 76 75 69 76 70 77
REMARK SMILES IDX 74 78 77 79 71 80 72 81 75 82 73 83 52 84 53 85 61 86 54 87
REMARK SMILES IDX 55 88 59 89 62 90 56 91 57 92 60 93 58 94
REMARK H PARENT 16 7 6 22 23 28 82 47 50 58
REMARK Flexibility Score: inf
ROOT
ATOM      1  C   UNL A   1      31.386  30.135  25.078  1.00  0.00     0.002 C 
ENDROOT
BRANCH   1   2
ATOM      2  C   UNL A   1      31.604  28.641  24.797  1.00  0.00     0.021 C 
BRANCH   2   3
ATOM      3  C   UNL A   1      33.078  28.245  24.703  1.00  0.00     0.116 C 
BRANCH   3   4
ATOM      4  N   UNL A   1      33.392  27.768  23.371  1.00  0.00    -0.353 N 
ATOM      5  C   UNL A   1      33.603  26.516  22.888  1.00  0.00     0.244 C 
ATOM      6  O   UNL A   1      33.785  26.366  21.681  1.00  0.00    -0.270 OA
ATOM      7  H   UNL A   1      33.466  28.480  22.694  1.00  0.00     0.163 HD
BRANCH   5   8
ATOM      8  C   UNL A   1      33.532  25.323  23.760  1.00  0.00     0.073 C 
ATOM      9  C   UNL A   1      34.543  24.802  24.472  1.00  0.00     0.034 C 
BRANCH   9  10
ATOM     10  C   UNL A   1      34.401  23.622  25.332  1.00  0.00     0.066 A 
ATOM     11  C   UNL A   1      34.686  21.345  25.603  1.00  0.00     0.134 A 
ATOM     12  C   UNL A   1      34.152  21.388  26.883  1.00  0.00     0.047 A 
ATOM     13  N   UNL A   1      34.860  22.447  24.848  1.00  0.00    -0.231 NA
ATOM     14  C   UNL A   1      33.682  22.602  27.369  1.00  0.00     0.006 A 
ATOM     15  C   UNL A   1      33.794  23.738  26.576  1.00  0.00     0.028 A 
BRANCH  11  16
ATOM     16  N   UNL A   1      35.102  20.165  24.999  1.00  0.00    -0.292 N 
ATOM     17  C   UNL A   1      32.467  17.841  23.915  1.00  0.00     0.148 C 
ATOM     18  N   UNL A   1      33.128  19.101  24.218  1.00  0.00    -0.331 N 
ATOM     19  C   UNL A   1      32.448  20.290  23.717  1.00  0.00     0.148 C 
ATOM     20  C   UNL A   1      34.440  19.040  24.640  1.00  0.00     0.322 C 
ATOM     21  O   UNL A   1      35.077  17.983  24.616  1.00  0.00    -0.248 OA
ATOM     22  H   UNL A   1      36.064  20.144  24.788  1.00  0.00     0.173 HD
ENDBRANCH  11  16
ENDBRANCH   9  10
ENDBRANCH   5   8
ENDBRANCH   3   4
ENDBRANCH   2   3
ENDBRANCH   1   2
BRANCH   1  23
ATOM     23  C   UNL A   1      31.713  30.578  26.509  1.00  0.00     0.002 C 
BRANCH  23  24
ATOM     24  C   UNL A   1      31.513  32.070  26.790  1.00  0.00     0.021 C 
BRANCH  24  25
ATOM     25  C   UNL A   1      32.779  32.803  27.223  1.00  0.00     0.116 C 
BRANCH  25  26
ATOM     26  N   UNL A   1      32.502  34.181  27.601  1.00  0.00    -0.352 N 
ATOM     27  C   UNL A   1      33.022  34.923  28.628  1.00  0.00     0.251 C 
ATOM     28  H   UNL A   1      31.846  34.648  27.035  1.00  0.00     0.163 HD
ATOM     29  O   UNL A   1      32.505  35.996  28.944  1.00  0.00    -0.269 OA
BRANCH  27  30
ATOM     30  C   UNL A   1      34.200  34.432  29.372  1.00  0.00     0.039 A 
ATOM     31  C   UNL A   1      34.012  33.829  30.618  1.00  0.00     0.014 A 
ATOM     32  C   UNL A   1      35.486  34.577  28.846  1.00  0.00     0.014 A 
ATOM     33  C   UNL A   1      35.110  33.307  31.305  1.00  0.00     0.010 A 
ATOM     34  C   UNL A   1      36.570  33.998  29.498  1.00  0.00     0.010 A 
ATOM     35  C   UNL A   1      36.391  33.352  30.732  1.00  0.00    -0.014 A 
BRANCH  35  36
ATOM     36  C   UNL A   1      37.552  32.703  31.390  1.00  0.00     0.031 A 
ATOM     37  C   UNL A   1      38.237  31.533  30.744  1.00  0.00     0.074 A 
ATOM     38  C   UNL A   1      37.937  33.123  32.611  1.00  0.00     0.049 A 
ATOM     39  N   UNL A   1      39.209  30.786  31.204  1.00  0.00    -0.248 NA
ATOM     40  C   UNL A   1      37.748  31.132  29.415  1.00  0.00     0.031 C 
ATOM     41  C   UNL A   1      37.318  34.218  33.360  1.00  0.00     0.029 A 
ATOM     42  N   UNL A   1      38.927  32.669  33.445  1.00  0.00    -0.354 N 
ATOM     43  C   UNL A   1      39.438  29.822  30.230  1.00  0.00     0.074 A 
ATOM     44  C   UNL A   1      38.473  30.048  29.177  1.00  0.00     0.031 C 
ATOM     45  C   UNL A   1      37.951  34.361  34.534  1.00  0.00     0.029 A 
ATOM     46  C   UNL A   1      38.992  33.343  34.640  1.00  0.00     0.049 A 
ATOM     47  H   UNL A   1      39.534  31.930  33.209  1.00  0.00     0.167 HD
ATOM     48  C   UNL A   1      40.382  28.852  30.212  1.00  0.00     0.037 A 
ATOM     49  C   UNL A   1      39.789  33.151  35.708  1.00  0.00     0.037 A 
ATOM     50  C   UNL A   1      41.353  28.647  31.254  1.00  0.00     0.049 A 
ATOM     51  C   UNL A   1      40.817  32.054  35.668  1.00  0.00     0.074 A 
ATOM     52  C   UNL A   1      42.400  27.742  31.292  1.00  0.00     0.029 A 
ATOM     53  N   UNL A   1      41.393  29.353  32.447  1.00  0.00    -0.354 N 
ATOM     54  N   UNL A   1      41.076  31.199  34.709  1.00  0.00    -0.248 NA
ATOM     55  C   UNL A   1      41.663  31.895  36.859  1.00  0.00     0.031 C 
ATOM     56  C   UNL A   1      43.038  27.863  32.531  1.00  0.00     0.029 A 
ATOM     57  C   UNL A   1      42.423  28.880  33.245  1.00  0.00     0.049 A 
ATOM     58  H   UNL A   1      40.780  30.084  32.692  1.00  0.00     0.167 HD
ATOM     59  C   UNL A   1      42.124  30.415  35.170  1.00  0.00     0.074 A 
ATOM     60  C   UNL A   1      42.468  30.909  36.487  1.00  0.00     0.031 C 
ATOM     61  C   UNL A   1      42.746  29.377  34.557  1.00  0.00     0.037 A 
BRANCH  48  62
ATOM     62  C   UNL A   1      40.411  27.930  29.025  1.00  0.00     0.064 A 
ATOM     63  C   UNL A   1      39.652  26.752  28.989  1.00  0.00     0.173 A 
ATOM     64  C   UNL A   1      41.174  28.253  27.893  1.00  0.00     0.173 A 
ATOM     65  F   UNL A   1      38.912  26.391  30.050  1.00  0.00    -0.203 F 
ATOM     66  C   UNL A   1      39.677  25.915  27.876  1.00  0.00     0.198 A 
ATOM     67  C   UNL A   1      41.173  27.431  26.769  1.00  0.00     0.198 A 
ATOM     68  F   UNL A   1      41.914  29.372  27.872  1.00  0.00    -0.203 F 
ATOM     69  F   UNL A   1      38.982  24.770  27.883  1.00  0.00    -0.200 F 
ATOM     70  C   UNL A   1      40.432  26.260  26.764  1.00  0.00     0.200 A 
ATOM     71  F   UNL A   1      41.892  27.772  25.691  1.00  0.00    -0.200 F 
ATOM     72  F   UNL A   1      40.449  25.458  25.691  1.00  0.00    -0.200 F 
ENDBRANCH  48  62
BRANCH  49  73
ATOM     73  C   UNL A   1      39.649  34.024  36.903  1.00  0.00     0.064 A 
ATOM     74  C   UNL A   1      38.869  33.626  37.998  1.00  0.00     0.173 A 
ATOM     75  C   UNL A   1      40.293  35.267  36.978  1.00  0.00     0.173 A 
ATOM     76  F   UNL A   1      38.217  32.455  37.965  1.00  0.00    -0.203 F 
ATOM     77  C   UNL A   1      38.724  34.447  39.114  1.00  0.00     0.198 A 
ATOM     78  C   UNL A   1      40.171  36.074  38.107  1.00  0.00     0.198 A 
ATOM     79  F   UNL A   1      41.056  35.692  35.960  1.00  0.00    -0.203 F 
ATOM     80  F   UNL A   1      37.937  34.062  40.128  1.00  0.00    -0.200 F 
ATOM     81  C   UNL A   1      39.381  35.668  39.171  1.00  0.00     0.200 A 
ATOM     82  F   UNL A   1      40.819  37.246  38.164  1.00  0.00    -0.200 F 
ATOM     83  F   UNL A   1      39.246  36.454  40.247  1.00  0.00    -0.200 F 
ENDBRANCH  49  73
BRANCH  61  84
ATOM     84  C   UNL A   1      43.867  28.712  35.301  1.00  0.00     0.064 A 
ATOM     85  C   UNL A   1      45.191  29.160  35.186  1.00  0.00     0.173 A 
ATOM     86  C   UNL A   1      43.608  27.645  36.176  1.00  0.00     0.173 A 
ATOM     87  F   UNL A   1      45.492  30.165  34.349  1.00  0.00    -0.203 F 
ATOM     88  C   UNL A   1      46.217  28.552  35.902  1.00  0.00     0.198 A 
ATOM     89  C   UNL A   1      44.632  27.059  36.914  1.00  0.00     0.198 A 
ATOM     90  F   UNL A   1      42.358  27.182  36.327  1.00  0.00    -0.203 F 
ATOM     91  F   UNL A   1      47.481  28.968  35.741  1.00  0.00    -0.200 F 
ATOM     92  C   UNL A   1      45.937  27.508  36.772  1.00  0.00     0.200 A 
ATOM     93  F   UNL A   1      44.357  26.060  37.763  1.00  0.00    -0.200 F 
ATOM     94  F   UNL A   1      46.925  26.931  37.468  1.00  0.00    -0.200 F 
ENDBRANCH  61  84
ENDBRANCH  35  36
ENDBRANCH  27  30
ENDBRANCH  25  26
ENDBRANCH  24  25
ENDBRANCH  23  24
ENDBRANCH   1  23
TORSDOF 15
ENDMDL
MODEL 2
REMARK VINA RESULT:     -12.0      5.681     11.614
REMARK SMILES CN(C)C(=O)Nc1cccc(/C=C/C(=O)NCCCCCCNC(=O)c2ccc(-c3c4nc(c(-c5c(F)c(F)c(F)c(F)c5F)c5ccc([nH]5)c(-c5c(F)c(F)c(F)c(F)c5F)c5nc(c(-c6c(F)c(F)c(F)c(F)c6F)c6ccc3[nH]6)C=C5)C=C4)cc2)n1
REMARK SMILES IDX 19 1 18 2 17 3 16 4 14 5 15 6 13 8 12 9 11 10 7 11 8 12
REMARK SMILES IDX 89 13 9 14 10 15 6 16 1 17 2 18 3 19 4 20 5 21 20 23 21 24
REMARK SMILES IDX 22 25 23 26 24 27 25 29 26 30 27 31 88 32 28 33 87 34 29 35
REMARK SMILES IDX 30 36 31 37 81 38 32 39 86 40 80 41 82 42 33 43 85 44 79 45
REMARK SMILES IDX 78 46 34 48 66 49 46 50 65 51 47 52 50 53 64 54 83 55 48 56
REMARK SMILES IDX 49 57 63 59 84 60 51 61 35 62 36 63 44 64 37 65 38 66 42 67
REMARK SMILES IDX 45 68 39 69 40 70 43 71 41 72 67 73 68 74 76 75 69 76 70 77
REMARK SMILES IDX 74 78 77 79 71 80 72 81 75 82 73 83 52 84 53 85 61 86 54 87
REMARK SMILES IDX 55 88 59 89 62 90 56 91 57 92 60 93 58 94
REMARK H PARENT 16 7 6 22 23 28 82 47 50 58
REMARK Flexibility Score: inf
ROOT
ATOM      1  C   UNL A   1      37.372  21.856  24.563  1.00  0.00     0.002 C 
ENDROOT
BRANCH   1   2
ATOM      2  C   UNL A   1      37.967  22.706  25.695  1.00  0.00     0.021 C 
BRANCH   2   3
ATOM      3  C   UNL A   1      37.049  23.839  26.155  1.00  0.00     0.116 C 
BRANCH   3   4
ATOM      4  N   UNL A   1      35.752  23.318  26.541  1.00  0.00    -0.353 N 
ATOM      5  C   UNL A   1      34.492  23.698  26.205  1.00  0.00     0.244 C 
ATOM      6  O   UNL A   1      33.541  23.036  26.615  1.00  0.00    -0.270 OA
ATOM      7  H   UNL A   1      35.793  22.551  27.157  1.00  0.00     0.163 HD
BRANCH   5   8
ATOM      8  C   UNL A   1      34.238  24.833  25.289  1.00  0.00     0.073 C 
ATOM      9  C   UNL A   1      33.199  25.678  25.346  1.00  0.00     0.034 C 
BRANCH   9  10
ATOM     10  C   UNL A   1      33.014  26.794  24.413  1.00  0.00     0.066 A 
ATOM     11  C   UNL A   1      31.951  28.786  23.920  1.00  0.00     0.134 A 
ATOM     12  C   UNL A   1      32.622  28.894  22.711  1.00  0.00     0.047 A 
ATOM     13  N   UNL A   1      32.173  27.782  24.790  1.00  0.00    -0.231 NA
ATOM     14  C   UNL A   1      33.484  27.871  22.333  1.00  0.00     0.006 A 
ATOM     15  C   UNL A   1      33.674  26.795  23.191  1.00  0.00     0.028 A 
BRANCH  11  16
ATOM     16  N   UNL A   1      31.006  29.713  24.344  1.00  0.00    -0.292 N 
ATOM     17  C   UNL A   1      27.846  29.831  22.470  1.00  0.00     0.148 C 
ATOM     18  N   UNL A   1      29.049  29.279  23.070  1.00  0.00    -0.331 N 
ATOM     19  C   UNL A   1      29.105  27.823  23.115  1.00  0.00     0.148 C 
ATOM     20  C   UNL A   1      29.839  30.139  23.806  1.00  0.00     0.322 C 
ATOM     21  O   UNL A   1      29.468  31.285  24.075  1.00  0.00    -0.248 OA
ATOM     22  H   UNL A   1      31.227  30.142  25.203  1.00  0.00     0.173 HD
ENDBRANCH  11  16
ENDBRANCH   9  10
ENDBRANCH   5   8
ENDBRANCH   3   4
ENDBRANCH   2   3
ENDBRANCH   1   2
BRANCH   1  23
ATOM     23  C   UNL A   1      37.003  20.421  24.959  1.00  0.00     0.002 C 
BRANCH  23  24
ATOM     24  C   UNL A   1      38.174  19.437  25.006  1.00  0.00     0.021 C 
BRANCH  24  25
ATOM     25  C   UNL A   1      39.397  19.949  25.762  1.00  0.00     0.116 C 
BRANCH  25  26
ATOM     26  N   UNL A   1      40.410  18.916  25.913  1.00  0.00    -0.352 N 
ATOM     27  C   UNL A   1      41.763  19.043  26.087  1.00  0.00     0.251 C 
ATOM     28  H   UNL A   1      40.074  17.991  25.888  1.00  0.00     0.163 HD
ATOM     29  O   UNL A   1      42.499  18.063  25.964  1.00  0.00    -0.269 OA
BRANCH  27  30
ATOM     30  C   UNL A   1      42.347  20.360  26.410  1.00  0.00     0.039 A 
ATOM     31  C   UNL A   1      42.954  21.100  25.393  1.00  0.00     0.014 A 
ATOM     32  C   UNL A   1      42.303  20.858  27.714  1.00  0.00     0.014 A 
ATOM     33  C   UNL A   1      43.456  22.373  25.671  1.00  0.00     0.010 A 
ATOM     34  C   UNL A   1      42.743  22.152  27.976  1.00  0.00     0.010 A 
ATOM     35  C   UNL A   1      43.319  22.925  26.955  1.00  0.00    -0.014 A 
BRANCH  35  36
ATOM     36  C   UNL A   1      43.741  24.317  27.244  1.00  0.00     0.031 A 
ATOM     37  C   UNL A   1      42.744  25.330  27.727  1.00  0.00     0.074 A 
ATOM     38  C   UNL A   1      45.013  24.686  26.993  1.00  0.00     0.049 A 
ATOM     39  N   UNL A   1      42.907  26.610  27.951  1.00  0.00    -0.248 NA
ATOM     40  C   UNL A   1      41.375  24.848  27.966  1.00  0.00     0.031 C 
ATOM     41  C   UNL A   1      46.060  23.802  26.476  1.00  0.00     0.029 A 
ATOM     42  N   UNL A   1      45.637  25.901  27.120  1.00  0.00    -0.354 N 
ATOM     43  C   UNL A   1      41.662  27.086  28.343  1.00  0.00     0.074 A 
ATOM     44  C   UNL A   1      40.744  25.970  28.280  1.00  0.00     0.031 C 
ATOM     45  C   UNL A   1      47.199  24.500  26.345  1.00  0.00     0.029 A 
ATOM     46  C   UNL A   1      46.953  25.887  26.728  1.00  0.00     0.049 A 
ATOM     47  H   UNL A   1      45.184  26.706  27.461  1.00  0.00     0.167 HD
ATOM     48  C   UNL A   1      41.325  28.336  28.739  1.00  0.00     0.037 A 
ATOM     49  C   UNL A   1      47.856  26.885  26.668  1.00  0.00     0.037 A 
ATOM     50  C   UNL A   1      42.250  29.437  28.820  1.00  0.00     0.049 A 
ATOM     51  C   UNL A   1      47.449  28.268  27.096  1.00  0.00     0.074 A 
ATOM     52  C   UNL A   1      42.024  30.721  29.284  1.00  0.00     0.029 A 
ATOM     53  N   UNL A   1      43.577  29.385  28.421  1.00  0.00    -0.354 N 
ATOM     54  N   UNL A   1      46.291  28.689  27.539  1.00  0.00    -0.248 NA
ATOM     55  C   UNL A   1      48.477  29.315  27.014  1.00  0.00     0.031 C 
ATOM     56  C   UNL A   1      43.199  31.461  29.112  1.00  0.00     0.029 A 
ATOM     57  C   UNL A   1      44.173  30.624  28.592  1.00  0.00     0.049 A 
ATOM     58  H   UNL A   1      44.030  28.585  28.067  1.00  0.00     0.167 HD
ATOM     59  C   UNL A   1      46.453  30.041  27.808  1.00  0.00     0.074 A 
ATOM     60  C   UNL A   1      47.829  30.366  27.497  1.00  0.00     0.031 C 
ATOM     61  C   UNL A   1      45.542  30.933  28.269  1.00  0.00     0.037 A 
BRANCH  48  62
ATOM     62  C   UNL A   1      39.892  28.587  29.113  1.00  0.00     0.064 A 
ATOM     63  C   UNL A   1      39.422  28.371  30.418  1.00  0.00     0.173 A 
ATOM     64  C   UNL A   1      38.988  29.091  28.167  1.00  0.00     0.173 A 
ATOM     65  F   UNL A   1      40.244  27.880  31.359  1.00  0.00    -0.203 F 
ATOM     66  C   UNL A   1      38.094  28.622  30.753  1.00  0.00     0.198 A 
ATOM     67  C   UNL A   1      37.668  29.371  28.514  1.00  0.00     0.198 A 
ATOM     68  F   UNL A   1      39.386  29.322  26.907  1.00  0.00    -0.203 F 
ATOM     69  F   UNL A   1      37.657  28.363  31.992  1.00  0.00    -0.200 F 
ATOM     70  C   UNL A   1      37.221  29.129  29.803  1.00  0.00     0.200 A 
ATOM     71  F   UNL A   1      36.829  29.873  27.597  1.00  0.00    -0.200 F 
ATOM     72  F   UNL A   1      35.946  29.379  30.129  1.00  0.00    -0.200 F 
ENDBRANCH  48  62
BRANCH  49  73
ATOM     73  C   UNL A   1      49.235  26.607  26.188  1.00  0.00     0.064 A 
ATOM     74  C   UNL A   1      49.589  26.823  24.849  1.00  0.00     0.173 A 
ATOM     75  C   UNL A   1      50.227  26.126  27.055  1.00  0.00     0.173 A 
ATOM     76  F   UNL A   1      48.670  27.263  23.977  1.00  0.00    -0.203 F 
ATOM     77  C   UNL A   1      50.876  26.551  24.392  1.00  0.00     0.198 A 
ATOM     78  C   UNL A   1      51.521  25.882  26.604  1.00  0.00     0.198 A 
ATOM     79  F   UNL A   1      49.941  25.908  28.348  1.00  0.00    -0.203 F 
ATOM     80  F   UNL A   1      51.176  26.725  23.098  1.00  0.00    -0.200 F 
ATOM     81  C   UNL A   1      51.844  26.087  25.272  1.00  0.00     0.200 A 
ATOM     82  F   UNL A   1      52.457  25.449  27.460  1.00  0.00    -0.200 F 
ATOM     83  F   UNL A   1      53.085  25.832  24.833  1.00  0.00    -0.200 F 
ENDBRANCH  49  73
BRANCH  61  84
ATOM     84  C   UNL A   1      46.008  32.346  28.475  1.00  0.00     0.064 A 
ATOM     85  C   UNL A   1      46.585  32.758  29.685  1.00  0.00     0.173 A 
ATOM     86  C   UNL A   1      45.920  33.284  27.435  1.00  0.00     0.173 A 
ATOM     87  F   UNL A   1      46.675  31.903  30.715  1.00  0.00    -0.203 F 
ATOM     88  C   UNL A   1      47.037  34.063  29.853  1.00  0.00     0.198 A 
ATOM     89  C   UNL A   1      46.401  34.579  27.596  1.00  0.00     0.198 A 
ATOM     90  F   UNL A   1      45.382  32.938  26.256  1.00  0.00    -0.203 F 
ATOM     91  F   UNL A   1      47.544  34.448  31.033  1.00  0.00    -0.200 F 
ATOM     92  C   UNL A   1      46.954  34.971  28.806  1.00  0.00     0.200 A 
ATOM     93  F   UNL A   1      46.332  35.450  26.580  1.00  0.00    -0.200 F 
ATOM     94  F   UNL A   1      47.399  36.223  28.968  1.00  0.00    -0.200 F 
ENDBRANCH  61  84
ENDBRANCH  35  36
ENDBRANCH  27  30
ENDBRANCH  25  26
ENDBRANCH  24  25
ENDBRANCH  23  24
ENDBRANCH   1  23
TORSDOF 15
ENDMDL
MODEL 3
REMARK VINA RESULT:     -11.9      3.825      8.437
REMARK SMILES CN(C)C(=O)Nc1cccc(/C=C/C(=O)NCCCCCCNC(=O)c2ccc(-c3c4nc(c(-c5c(F)c(F)c(F)c(F)c5F)c5ccc([nH]5)c(-c5c(F)c(F)c(F)c(F)c5F)c5nc(c(-c6c(F)c(F)c(F)c(F)c6F)c6ccc3[nH]6)C=C5)C=C4)cc2)n1
REMARK SMILES IDX 19 1 18 2 17 3 16 4 14 5 15 6 13 8 12 9 11 10 7 11 8 12
REMARK SMILES IDX 89 13 9 14 10 15 6 16 1 17 2 18 3 19 4 20 5 21 20 23 21 24
REMARK SMILES IDX 22 25 23 26 24 27 25 29 26 30 27 31 88 32 28 33 87 34 29 35
REMARK SMILES IDX 30 36 31 37 81 38 32 39 86 40 80 41 82 42 33 43 85 44 79 45
REMARK SMILES IDX 78 46 34 48 66 49 46 50 65 51 47 52 50 53 64 54 83 55 48 56
REMARK SMILES IDX 49 57 63 59 84 60 51 61 35 62 36 63 44 64 37 65 38 66 42 67
REMARK SMILES IDX 45 68 39 69 40 70 43 71 41 72 67 73 68 74 76 75 69 76 70 77
REMARK SMILES IDX 74 78 77 79 71 80 72 81 75 82 73 83 52 84 53 85 61 86 54 87
REMARK SMILES IDX 55 88 59 89 62 90 56 91 57 92 60 93 58 94
REMARK H PARENT 16 7 6 22 23 28 82 47 50 58
REMARK Flexibility Score: inf
ROOT
ATOM      1  C   UNL A   1      34.276  22.010  26.661  1.00  0.00     0.002 C 
ENDROOT
BRANCH   1   2
ATOM      2  C   UNL A   1      33.225  20.988  26.204  1.00  0.00     0.021 C 
BRANCH   2   3
ATOM      3  C   UNL A   1      32.090  21.602  25.384  1.00  0.00     0.116 C 
BRANCH   3   4
ATOM      4  N   UNL A   1      31.082  22.172  26.257  1.00  0.00    -0.353 N 
ATOM      5  C   UNL A   1      30.736  23.461  26.513  1.00  0.00     0.244 C 
ATOM      6  O   UNL A   1      29.779  23.684  27.252  1.00  0.00    -0.270 OA
ATOM      7  H   UNL A   1      30.554  21.506  26.752  1.00  0.00     0.163 HD
BRANCH   5   8
ATOM      8  C   UNL A   1      31.423  24.597  25.858  1.00  0.00     0.073 C 
ATOM      9  C   UNL A   1      30.931  25.835  25.704  1.00  0.00     0.034 C 
BRANCH   9  10
ATOM     10  C   UNL A   1      31.672  26.922  25.057  1.00  0.00     0.066 A 
ATOM     11  C   UNL A   1      31.723  28.577  23.444  1.00  0.00     0.134 A 
ATOM     12  C   UNL A   1      33.008  28.951  23.807  1.00  0.00     0.047 A 
ATOM     13  N   UNL A   1      31.035  27.612  24.086  1.00  0.00    -0.231 NA
ATOM     14  C   UNL A   1      33.654  28.234  24.807  1.00  0.00     0.006 A 
ATOM     15  C   UNL A   1      32.982  27.192  25.435  1.00  0.00     0.028 A 
BRANCH  11  16
ATOM     16  N   UNL A   1      31.029  29.176  22.400  1.00  0.00    -0.292 N 
ATOM     17  C   UNL A   1      27.983  31.035  23.285  1.00  0.00     0.148 C 
ATOM     18  N   UNL A   1      29.320  30.477  23.413  1.00  0.00    -0.331 N 
ATOM     19  C   UNL A   1      30.107  31.009  24.519  1.00  0.00     0.148 C 
ATOM     20  C   UNL A   1      29.817  29.776  22.333  1.00  0.00     0.322 C 
ATOM     21  O   UNL A   1      29.223  29.752  21.251  1.00  0.00    -0.248 OA
ATOM     22  H   UNL A   1      31.513  29.164  21.542  1.00  0.00     0.173 HD
ENDBRANCH  11  16
ENDBRANCH   9  10
ENDBRANCH   5   8
ENDBRANCH   3   4
ENDBRANCH   2   3
ENDBRANCH   1   2
BRANCH   1  23
ATOM     23  C   UNL A   1      34.818  22.919  25.550  1.00  0.00     0.002 C 
BRANCH  23  24
ATOM     24  C   UNL A   1      35.995  23.810  25.956  1.00  0.00     0.021 C 
BRANCH  24  25
ATOM     25  C   UNL A   1      37.210  23.703  25.039  1.00  0.00     0.116 C 
BRANCH  25  26
ATOM     26  N   UNL A   1      38.174  22.732  25.532  1.00  0.00    -0.352 N 
ATOM     27  C   UNL A   1      39.325  22.934  26.249  1.00  0.00     0.251 C 
ATOM     28  H   UNL A   1      37.971  21.792  25.321  1.00  0.00     0.163 HD
ATOM     29  O   UNL A   1      40.142  22.022  26.382  1.00  0.00    -0.269 OA
BRANCH  27  30
ATOM     30  C   UNL A   1      39.596  24.253  26.855  1.00  0.00     0.039 A 
ATOM     31  C   UNL A   1      39.180  24.497  28.166  1.00  0.00     0.014 A 
ATOM     32  C   UNL A   1      40.250  25.250  26.126  1.00  0.00     0.014 A 
ATOM     33  C   UNL A   1      39.483  25.718  28.771  1.00  0.00     0.010 A 
ATOM     34  C   UNL A   1      40.610  26.440  26.751  1.00  0.00     0.010 A 
ATOM     35  C   UNL A   1      40.235  26.683  28.082  1.00  0.00    -0.014 A 
BRANCH  35  36
ATOM     36  C   UNL A   1      40.667  27.939  28.744  1.00  0.00     0.031 A 
ATOM     37  C   UNL A   1      42.070  28.086  29.257  1.00  0.00     0.074 A 
ATOM     38  C   UNL A   1      39.764  28.918  28.951  1.00  0.00     0.049 A 
ATOM     39  N   UNL A   1      42.604  29.070  29.934  1.00  0.00    -0.248 NA
ATOM     40  C   UNL A   1      42.988  26.966  28.998  1.00  0.00     0.031 C 
ATOM     41  C   UNL A   1      38.359  28.871  28.540  1.00  0.00     0.029 A 
ATOM     42  N   UNL A   1      39.887  30.135  29.573  1.00  0.00    -0.354 N 
ATOM     43  C   UNL A   1      43.913  28.685  30.192  1.00  0.00     0.074 A 
ATOM     44  C   UNL A   1      44.079  27.357  29.643  1.00  0.00     0.031 C 
ATOM     45  C   UNL A   1      37.755  30.011  28.908  1.00  0.00     0.029 A 
ATOM     46  C   UNL A   1      38.716  30.852  29.615  1.00  0.00     0.049 A 
ATOM     47  H   UNL A   1      40.734  30.463  29.953  1.00  0.00     0.167 HD
ATOM     48  C   UNL A   1      44.891  29.386  30.814  1.00  0.00     0.037 A 
ATOM     49  C   UNL A   1      38.444  32.046  30.176  1.00  0.00     0.037 A 
ATOM     50  C   UNL A   1      44.725  30.716  31.339  1.00  0.00     0.049 A 
ATOM     51  C   UNL A   1      39.544  32.794  30.876  1.00  0.00     0.074 A 
ATOM     52  C   UNL A   1      45.675  31.540  31.916  1.00  0.00     0.029 A 
ATOM     53  N   UNL A   1      43.526  31.414  31.358  1.00  0.00    -0.354 N 
ATOM     54  N   UNL A   1      40.799  32.454  31.046  1.00  0.00    -0.248 NA
ATOM     55  C   UNL A   1      39.191  34.095  31.464  1.00  0.00     0.031 C 
ATOM     56  C   UNL A   1      45.040  32.714  32.334  1.00  0.00     0.029 A 
ATOM     57  C   UNL A   1      43.704  32.644  31.970  1.00  0.00     0.049 A 
ATOM     58  H   UNL A   1      42.675  31.084  30.991  1.00  0.00     0.167 HD
ATOM     59  C   UNL A   1      41.388  33.501  31.740  1.00  0.00     0.074 A 
ATOM     60  C   UNL A   1      40.359  34.500  31.943  1.00  0.00     0.031 C 
ATOM     61  C   UNL A   1      42.667  33.624  32.172  1.00  0.00     0.037 A 
BRANCH  48  62
ATOM     62  C   UNL A   1      46.233  28.727  30.965  1.00  0.00     0.064 A 
ATOM     63  C   UNL A   1      46.570  27.997  32.115  1.00  0.00     0.173 A 
ATOM     64  C   UNL A   1      47.176  28.789  29.929  1.00  0.00     0.173 A 
ATOM     65  F   UNL A   1      45.708  27.914  33.140  1.00  0.00    -0.203 F 
ATOM     66  C   UNL A   1      47.813  27.379  32.233  1.00  0.00     0.198 A 
ATOM     67  C   UNL A   1      48.405  28.143  30.038  1.00  0.00     0.198 A 
ATOM     68  F   UNL A   1      46.902  29.468  28.804  1.00  0.00    -0.203 F 
ATOM     69  F   UNL A   1      48.131  26.729  33.361  1.00  0.00    -0.200 F 
ATOM     70  C   UNL A   1      48.725  27.447  31.192  1.00  0.00     0.200 A 
ATOM     71  F   UNL A   1      49.281  28.199  29.024  1.00  0.00    -0.200 F 
ATOM     72  F   UNL A   1      49.917  26.844  31.304  1.00  0.00    -0.200 F 
ENDBRANCH  48  62
BRANCH  49  73
ATOM     73  C   UNL A   1      37.070  32.608  30.091  1.00  0.00     0.064 A 
ATOM     74  C   UNL A   1      36.151  32.420  31.131  1.00  0.00     0.173 A 
ATOM     75  C   UNL A   1      36.652  33.346  28.974  1.00  0.00     0.173 A 
ATOM     76  F   UNL A   1      36.498  31.705  32.211  1.00  0.00    -0.203 F 
ATOM     77  C   UNL A   1      34.858  32.934  31.050  1.00  0.00     0.198 A 
ATOM     78  C   UNL A   1      35.368  33.883  28.907  1.00  0.00     0.198 A 
ATOM     79  F   UNL A   1      37.495  33.558  27.953  1.00  0.00    -0.203 F 
ATOM     80  F   UNL A   1      33.984  32.703  32.039  1.00  0.00    -0.200 F 
ATOM     81  C   UNL A   1      34.470  33.671  29.940  1.00  0.00     0.200 A 
ATOM     82  F   UNL A   1      35.003  34.607  27.840  1.00  0.00    -0.200 F 
ATOM     83  F   UNL A   1      33.228  34.170  29.865  1.00  0.00    -0.200 F 
ENDBRANCH  49  73
BRANCH  61  84
ATOM     84  C   UNL A   1      43.029  34.886  32.899  1.00  0.00     0.064 A 
ATOM     85  C   UNL A   1      43.473  36.026  32.213  1.00  0.00     0.173 A 
ATOM     86  C   UNL A   1      42.884  34.972  34.293  1.00  0.00     0.173 A 
ATOM     87  F   UNL A   1      43.644  35.987  30.882  1.00  0.00    -0.203 F 
ATOM     88  C   UNL A   1      43.779  37.198  32.896  1.00  0.00     0.198 A 
ATOM     89  C   UNL A   1      43.162  36.156  34.969  1.00  0.00     0.198 A 
ATOM     90  F   UNL A   1      42.458  33.913  34.995  1.00  0.00    -0.203 F 
ATOM     91  F   UNL A   1      44.244  38.261  32.225  1.00  0.00    -0.200 F 
ATOM     92  C   UNL A   1      43.615  37.266  34.272  1.00  0.00     0.200 A 
ATOM     93  F   UNL A   1      42.990  36.224  36.296  1.00  0.00    -0.200 F 
ATOM     94  F   UNL A   1      43.900  38.400  34.927  1.00  0.00    -0.200 F 
ENDBRANCH  61  84
ENDBRANCH  35  36
ENDBRANCH  27  30
ENDBRANCH  25  26
ENDBRANCH  24  25
ENDBRANCH  23  24
ENDBRANCH   1  23
TORSDOF 15
ENDMDL
