MODEL 1
REMARK VINA RESULT:     -11.9      0.000      0.000
REMARK SMILES CC(C)c1nc(N(C)CCc2ccccn2)sc1C(=O)NCCCCCCNC(=O)c1ccc(-c2c3nc(c(-c4c(F)c(F)c(F)c(F)c4F)c4ccc([nH]4)c(-c4c(F)c(F)c(F)c(F)c4F)c4nc(c(-c5c(F)c(F)c(F)c(F)c5F)c5ccc2[nH]5)C=C4)C=C3)cc1
REMARK SMILES IDX 23 1 22 2 21 3 19 4 20 5 18 7 4 8 5 9 6 10 17 11 2 12 1 13
REMARK SMILES IDX 3 14 7 15 8 16 9 17 10 18 11 19 12 20 16 21 13 22 15 23
REMARK SMILES IDX 14 24 24 25 25 26 26 27 27 28 28 29 29 30 30 32 31 33 32 34
REMARK SMILES IDX 93 35 33 36 92 37 34 38 35 39 36 40 86 41 37 42 91 43 85 44
REMARK SMILES IDX 87 45 38 46 90 47 84 48 83 49 39 51 71 52 51 53 70 54 52 55
REMARK SMILES IDX 55 56 69 57 88 58 53 59 54 60 68 62 89 63 56 64 40 65 41 66
REMARK SMILES IDX 49 67 42 68 43 69 47 70 50 71 44 72 45 73 48 74 46 75 72 76
REMARK SMILES IDX 73 77 81 78 74 79 75 80 79 81 82 82 76 83 77 84 80 85 78 86
REMARK SMILES IDX 57 87 58 88 66 89 59 90 60 91 64 92 67 93 61 94 62 95 65 96
REMARK SMILES IDX 63 97
REMARK H PARENT 21 6 28 31 87 50 55 61
REMARK Flexibility Score: inf
ROOT
ATOM      1  C   UNL A   1      32.268  28.191  27.155  1.00  0.00     0.021 C 
ENDROOT
BRANCH   1   2
ATOM      2  C   UNL A   1      31.351  27.517  26.132  1.00  0.00     0.116 C 
BRANCH   2   3
ATOM      3  N   UNL A   1      31.062  26.146  26.473  1.00  0.00    -0.351 N 
ATOM      4  C   UNL A   1      31.702  24.940  26.446  1.00  0.00     0.263 C 
ATOM      5  O   UNL A   1      31.185  24.176  27.278  1.00  0.00    -0.268 OA
ATOM      6  H   UNL A   1      30.147  26.053  26.823  1.00  0.00     0.163 HD
BRANCH   4   7
ATOM      7  C   UNL A   1      32.784  24.494  25.566  1.00  0.00     0.117 A 
ATOM      8  C   UNL A   1      33.269  24.650  24.268  1.00  0.00     0.069 A 
ATOM      9  N   UNL A   1      34.373  23.843  23.963  1.00  0.00    -0.224 NA
ATOM     10  C   UNL A   1      34.732  23.044  24.935  1.00  0.00     0.186 A 
ATOM     11  S   UNL A   1      33.829  23.324  26.355  1.00  0.00    -0.091 S 
BRANCH   8  12
ATOM     12  C   UNL A   1      32.856  25.496  23.093  1.00  0.00     0.034 C 
ATOM     13  C   UNL A   1      31.374  25.375  22.753  1.00  0.00     0.014 C 
ATOM     14  C   UNL A   1      33.415  26.918  23.160  1.00  0.00     0.014 C 
ENDBRANCH   8  12
BRANCH  10  15
ATOM     15  N   UNL A   1      35.705  22.092  24.809  1.00  0.00    -0.351 N 
ATOM     16  C   UNL A   1      37.079  22.385  24.441  1.00  0.00     0.146 C 
BRANCH  15  17
ATOM     17  C   UNL A   1      35.377  20.684  25.084  1.00  0.00     0.125 C 
BRANCH  17  18
ATOM     18  C   UNL A   1      33.933  20.328  24.708  1.00  0.00     0.077 C 
BRANCH  18  19
ATOM     19  C   UNL A   1      33.693  18.843  24.714  1.00  0.00     0.042 A 
ATOM     20  C   UNL A   1      34.704  17.961  24.346  1.00  0.00     0.024 A 
ATOM     21  N   UNL A   1      32.477  18.424  25.148  1.00  0.00    -0.261 NA
ATOM     22  C   UNL A   1      34.472  16.595  24.456  1.00  0.00     0.003 A 
ATOM     23  C   UNL A   1      32.284  17.093  25.249  1.00  0.00     0.111 A 
ATOM     24  C   UNL A   1      33.240  16.150  24.919  1.00  0.00     0.020 A 
ENDBRANCH  18  19
ENDBRANCH  17  18
ENDBRANCH  15  17
ENDBRANCH  10  15
ENDBRANCH   4   7
ENDBRANCH   2   3
ENDBRANCH   1   2
BRANCH   1  25
ATOM     25  C   UNL A   1      32.598  29.646  26.815  1.00  0.00     0.002 C 
BRANCH  25  26
ATOM     26  C   UNL A   1      31.480  30.456  26.152  1.00  0.00     0.002 C 
BRANCH  26  27
ATOM     27  C   UNL A   1      31.382  31.930  26.545  1.00  0.00     0.021 C 
BRANCH  27  28
ATOM     28  C   UNL A   1      32.679  32.573  27.030  1.00  0.00     0.116 C 
BRANCH  28  29
ATOM     29  N   UNL A   1      32.476  33.928  27.518  1.00  0.00    -0.352 N 
ATOM     30  C   UNL A   1      33.059  34.604  28.553  1.00  0.00     0.251 C 
ATOM     31  H   UNL A   1      31.803  34.446  27.018  1.00  0.00     0.163 HD
ATOM     32  O   UNL A   1      32.587  35.683  28.916  1.00  0.00    -0.269 OA
BRANCH  30  33
ATOM     33  C   UNL A   1      34.241  34.059  29.249  1.00  0.00     0.039 A 
ATOM     34  C   UNL A   1      34.043  33.255  30.376  1.00  0.00     0.014 A 
ATOM     35  C   UNL A   1      35.538  34.375  28.837  1.00  0.00     0.014 A 
ATOM     36  C   UNL A   1      35.143  32.727  31.056  1.00  0.00     0.010 A 
ATOM     37  C   UNL A   1      36.632  33.791  29.471  1.00  0.00     0.010 A 
ATOM     38  C   UNL A   1      36.445  32.966  30.591  1.00  0.00    -0.014 A 
BRANCH  38  39
ATOM     39  C   UNL A   1      37.622  32.364  31.267  1.00  0.00     0.031 A 
ATOM     40  C   UNL A   1      38.382  31.243  30.615  1.00  0.00     0.074 A 
ATOM     41  C   UNL A   1      37.969  32.791  32.496  1.00  0.00     0.049 A 
ATOM     42  N   UNL A   1      39.390  30.545  31.077  1.00  0.00    -0.248 NA
ATOM     43  C   UNL A   1      37.934  30.833  29.275  1.00  0.00     0.031 C 
ATOM     44  C   UNL A   1      37.286  33.844  33.249  1.00  0.00     0.029 A 
ATOM     45  N   UNL A   1      38.977  32.386  33.335  1.00  0.00    -0.354 N 
ATOM     46  C   UNL A   1      39.686  29.611  30.094  1.00  0.00     0.074 A 
ATOM     47  C   UNL A   1      38.719  29.793  29.033  1.00  0.00     0.031 C 
ATOM     48  C   UNL A   1      37.905  34.016  34.428  1.00  0.00     0.029 A 
ATOM     49  C   UNL A   1      39.002  33.059  34.532  1.00  0.00     0.049 A 
ATOM     50  H   UNL A   1      39.623  31.680  33.101  1.00  0.00     0.167 HD
ATOM     51  C   UNL A   1      40.687  28.699  30.069  1.00  0.00     0.037 A 
ATOM     52  C   UNL A   1      39.809  32.911  35.599  1.00  0.00     0.037 A 
ATOM     53  C   UNL A   1      41.659  28.536  31.119  1.00  0.00     0.049 A 
ATOM     54  C   UNL A   1      40.903  31.879  35.552  1.00  0.00     0.074 A 
ATOM     55  C   UNL A   1      42.744  27.679  31.166  1.00  0.00     0.029 A 
ATOM     56  N   UNL A   1      41.659  29.246  32.311  1.00  0.00    -0.354 N 
ATOM     57  N   UNL A   1      41.215  31.046  34.589  1.00  0.00    -0.248 NA
ATOM     58  C   UNL A   1      41.764  31.771  36.738  1.00  0.00     0.031 C 
ATOM     59  C   UNL A   1      43.370  27.832  32.407  1.00  0.00     0.029 A 
ATOM     60  C   UNL A   1      42.712  28.828  33.110  1.00  0.00     0.049 A 
ATOM     61  H   UNL A   1      41.007  29.944  32.555  1.00  0.00     0.167 HD
ATOM     62  C   UNL A   1      42.324  30.341  35.037  1.00  0.00     0.074 A 
ATOM     63  C   UNL A   1      42.640  30.854  36.355  1.00  0.00     0.031 C 
ATOM     64  C   UNL A   1      43.020  29.357  34.414  1.00  0.00     0.037 A 
BRANCH  51  65
ATOM     65  C   UNL A   1      40.785  27.801  28.867  1.00  0.00     0.064 A 
ATOM     66  C   UNL A   1      39.979  26.661  28.732  1.00  0.00     0.173 A 
ATOM     67  C   UNL A   1      41.661  28.112  27.816  1.00  0.00     0.173 A 
ATOM     68  F   UNL A   1      39.131  26.312  29.712  1.00  0.00    -0.203 F 
ATOM     69  C   UNL A   1      40.068  25.849  27.604  1.00  0.00     0.198 A 
ATOM     70  C   UNL A   1      41.724  27.316  26.675  1.00  0.00     0.198 A 
ATOM     71  F   UNL A   1      42.450  29.195  27.890  1.00  0.00    -0.203 F 
ATOM     72  F   UNL A   1      39.324  24.737  27.520  1.00  0.00    -0.200 F 
ATOM     73  C   UNL A   1      40.934  26.181  26.574  1.00  0.00     0.200 A 
ATOM     74  F   UNL A   1      42.550  27.648  25.674  1.00  0.00    -0.200 F 
ATOM     75  F   UNL A   1      41.011  25.405  25.484  1.00  0.00    -0.200 F 
ENDBRANCH  51  65
BRANCH  52  76
ATOM     76  C   UNL A   1      39.626  33.773  36.797  1.00  0.00     0.064 A 
ATOM     77  C   UNL A   1      38.836  33.352  37.875  1.00  0.00     0.173 A 
ATOM     78  C   UNL A   1      40.226  35.039  36.885  1.00  0.00     0.173 A 
ATOM     79  F   UNL A   1      38.225  32.158  37.831  1.00  0.00    -0.203 F 
ATOM     80  C   UNL A   1      38.631  34.172  38.983  1.00  0.00     0.198 A 
ATOM     81  C   UNL A   1      40.047  35.844  38.007  1.00  0.00     0.198 A 
ATOM     82  F   UNL A   1      40.998  35.488  35.883  1.00  0.00    -0.203 F 
ATOM     83  F   UNL A   1      37.829  33.765  39.975  1.00  0.00    -0.200 F 
ATOM     84  C   UNL A   1      39.242  35.415  39.050  1.00  0.00     0.200 A 
ATOM     85  F   UNL A   1      40.653  37.038  38.075  1.00  0.00    -0.200 F 
ATOM     86  F   UNL A   1      39.047  36.202  40.117  1.00  0.00    -0.200 F 
ENDBRANCH  52  76
BRANCH  64  87
ATOM     87  C   UNL A   1      44.219  28.802  35.128  1.00  0.00     0.064 A 
ATOM     88  C   UNL A   1      44.122  27.699  35.989  1.00  0.00     0.173 A 
ATOM     89  C   UNL A   1      45.490  29.357  34.913  1.00  0.00     0.173 A 
ATOM     90  F   UNL A   1      42.928  27.141  36.240  1.00  0.00    -0.203 F 
ATOM     91  C   UNL A   1      45.249  27.191  36.629  1.00  0.00     0.198 A 
ATOM     92  C   UNL A   1      46.619  28.825  35.528  1.00  0.00     0.198 A 
ATOM     93  F   UNL A   1      45.639  30.407  34.093  1.00  0.00    -0.203 F 
ATOM     94  F   UNL A   1      45.125  26.169  37.488  1.00  0.00    -0.200 F 
ATOM     95  C   UNL A   1      46.496  27.747  36.393  1.00  0.00     0.200 A 
ATOM     96  F   UNL A   1      47.826  29.354  35.285  1.00  0.00    -0.200 F 
ATOM     97  F   UNL A   1      47.581  27.250  37.003  1.00  0.00    -0.200 F 
ENDBRANCH  64  87
ENDBRANCH  38  39
ENDBRANCH  30  33
ENDBRANCH  28  29
ENDBRANCH  27  28
ENDBRANCH  26  27
ENDBRANCH  25  26
ENDBRANCH   1  25
TORSDOF 18
ENDMDL
MODEL 2
REMARK VINA RESULT:     -11.8      5.244     10.701
REMARK SMILES CC(C)c1nc(N(C)CCc2ccccn2)sc1C(=O)NCCCCCCNC(=O)c1ccc(-c2c3nc(c(-c4c(F)c(F)c(F)c(F)c4F)c4ccc([nH]4)c(-c4c(F)c(F)c(F)c(F)c4F)c4nc(c(-c5c(F)c(F)c(F)c(F)c5F)c5ccc2[nH]5)C=C4)C=C3)cc1
REMARK SMILES IDX 23 1 22 2 21 3 19 4 20 5 18 7 4 8 5 9 6 10 17 11 2 12 1 13
REMARK SMILES IDX 3 14 7 15 8 16 9 17 10 18 11 19 12 20 16 21 13 22 15 23
REMARK SMILES IDX 14 24 24 25 25 26 26 27 27 28 28 29 29 30 30 32 31 33 32 34
REMARK SMILES IDX 93 35 33 36 92 37 34 38 35 39 36 40 86 41 37 42 91 43 85 44
REMARK SMILES IDX 87 45 38 46 90 47 84 48 83 49 39 51 71 52 51 53 70 54 52 55
REMARK SMILES IDX 55 56 69 57 88 58 53 59 54 60 68 62 89 63 56 64 40 65 41 66
REMARK SMILES IDX 49 67 42 68 43 69 47 70 50 71 44 72 45 73 48 74 46 75 72 76
REMARK SMILES IDX 73 77 81 78 74 79 75 80 79 81 82 82 76 83 77 84 80 85 78 86
REMARK SMILES IDX 57 87 58 88 66 89 59 90 60 91 64 92 67 93 61 94 62 95 65 96
REMARK SMILES IDX 63 97
REMARK H PARENT 21 6 28 31 87 50 55 61
REMARK Flexibility Score: inf
ROOT
ATOM      1  C   UNL A   1      37.691  22.715  25.628  1.00  0.00     0.021 C 
ENDROOT
BRANCH   1   2
ATOM      2  C   UNL A   1      36.618  23.697  26.103  1.00  0.00     0.116 C 
BRANCH   2   3
ATOM      3  N   UNL A   1      35.550  23.042  26.815  1.00  0.00    -0.351 N 
ATOM      4  C   UNL A   1      34.328  22.500  26.532  1.00  0.00     0.263 C 
ATOM      5  O   UNL A   1      34.036  21.658  27.398  1.00  0.00    -0.268 OA
ATOM      6  H   UNL A   1      35.759  22.963  27.773  1.00  0.00     0.163 HD
BRANCH   4   7
ATOM      7  C   UNL A   1      33.401  22.840  25.452  1.00  0.00     0.117 A 
ATOM      8  C   UNL A   1      32.792  22.293  24.323  1.00  0.00     0.069 A 
ATOM      9  N   UNL A   1      32.013  23.197  23.591  1.00  0.00    -0.224 NA
ATOM     10  C   UNL A   1      32.027  24.416  24.066  1.00  0.00     0.186 A 
ATOM     11  S   UNL A   1      32.885  24.516  25.536  1.00  0.00    -0.091 S 
BRANCH   8  12
ATOM     12  C   UNL A   1      32.798  20.925  23.693  1.00  0.00     0.034 C 
ATOM     13  C   UNL A   1      32.536  19.800  24.689  1.00  0.00     0.014 C 
ATOM     14  C   UNL A   1      31.996  20.869  22.391  1.00  0.00     0.014 C 
ENDBRANCH   8  12
BRANCH  10  15
ATOM     15  N   UNL A   1      31.433  25.477  23.440  1.00  0.00    -0.351 N 
ATOM     16  C   UNL A   1      31.774  25.916  22.097  1.00  0.00     0.146 C 
BRANCH  15  17
ATOM     17  C   UNL A   1      30.365  26.217  24.129  1.00  0.00     0.125 C 
BRANCH  17  18
ATOM     18  C   UNL A   1      30.633  27.727  24.186  1.00  0.00     0.077 C 
BRANCH  18  19
ATOM     19  C   UNL A   1      31.691  28.080  25.196  1.00  0.00     0.042 A 
ATOM     20  C   UNL A   1      31.439  27.953  26.559  1.00  0.00     0.024 A 
ATOM     21  N   UNL A   1      32.897  28.464  24.706  1.00  0.00    -0.261 NA
ATOM     22  C   UNL A   1      32.472  28.198  27.455  1.00  0.00     0.003 A 
ATOM     23  C   UNL A   1      33.881  28.690  25.600  1.00  0.00     0.111 A 
ATOM     24  C   UNL A   1      33.720  28.571  26.969  1.00  0.00     0.020 A 
ENDBRANCH  18  19
ENDBRANCH  17  18
ENDBRANCH  15  17
ENDBRANCH  10  15
ENDBRANCH   4   7
ENDBRANCH   2   3
ENDBRANCH   1   2
BRANCH   1  25
ATOM     25  C   UNL A   1      37.210  21.771  24.523  1.00  0.00     0.002 C 
BRANCH  25  26
ATOM     26  C   UNL A   1      37.036  20.301  24.918  1.00  0.00     0.002 C 
BRANCH  26  27
ATOM     27  C   UNL A   1      38.303  19.445  24.925  1.00  0.00     0.021 C 
BRANCH  27  28
ATOM     28  C   UNL A   1      39.341  19.806  25.984  1.00  0.00     0.116 C 
BRANCH  28  29
ATOM     29  N   UNL A   1      40.508  18.941  25.933  1.00  0.00    -0.352 N 
ATOM     30  C   UNL A   1      41.841  19.229  26.031  1.00  0.00     0.251 C 
ATOM     31  H   UNL A   1      40.304  17.986  25.804  1.00  0.00     0.163 HD
ATOM     32  O   UNL A   1      42.672  18.361  25.756  1.00  0.00    -0.269 OA
BRANCH  30  33
ATOM     33  C   UNL A   1      42.303  20.565  26.455  1.00  0.00     0.039 A 
ATOM     34  C   UNL A   1      42.845  21.423  25.493  1.00  0.00     0.014 A 
ATOM     35  C   UNL A   1      42.257  20.959  27.795  1.00  0.00     0.014 A 
ATOM     36  C   UNL A   1      43.292  22.693  25.865  1.00  0.00     0.010 A 
ATOM     37  C   UNL A   1      42.636  22.251  28.153  1.00  0.00     0.010 A 
ATOM     38  C   UNL A   1      43.163  23.128  27.193  1.00  0.00    -0.014 A 
BRANCH  38  39
ATOM     39  C   UNL A   1      43.578  24.496  27.594  1.00  0.00     0.031 A 
ATOM     40  C   UNL A   1      42.547  25.531  27.948  1.00  0.00     0.074 A 
ATOM     41  C   UNL A   1      44.886  24.821  27.582  1.00  0.00     0.049 A 
ATOM     42  N   UNL A   1      42.710  26.794  28.254  1.00  0.00    -0.248 NA
ATOM     43  C   UNL A   1      41.141  25.096  27.930  1.00  0.00     0.031 C 
ATOM     44  C   UNL A   1      45.977  23.916  27.219  1.00  0.00     0.029 A 
ATOM     45  N   UNL A   1      45.518  26.004  27.874  1.00  0.00    -0.354 N 
ATOM     46  C   UNL A   1      41.434  27.303  28.452  1.00  0.00     0.074 A 
ATOM     47  C   UNL A   1      40.503  26.230  28.179  1.00  0.00     0.031 C 
ATOM     48  C   UNL A   1      47.145  24.570  27.328  1.00  0.00     0.029 A 
ATOM     49  C   UNL A   1      46.883  25.948  27.728  1.00  0.00     0.049 A 
ATOM     50  H   UNL A   1      45.040  26.815  28.160  1.00  0.00     0.167 HD
ATOM     51  C   UNL A   1      41.073  28.548  28.847  1.00  0.00     0.037 A 
ATOM     52  C   UNL A   1      47.817  26.906  27.886  1.00  0.00     0.037 A 
ATOM     53  C   UNL A   1      42.005  29.607  29.137  1.00  0.00     0.049 A 
ATOM     54  C   UNL A   1      47.387  28.284  28.310  1.00  0.00     0.074 A 
ATOM     55  C   UNL A   1      41.743  30.885  29.596  1.00  0.00     0.029 A 
ATOM     56  N   UNL A   1      43.381  29.508  28.991  1.00  0.00    -0.354 N 
ATOM     57  N   UNL A   1      46.181  28.736  28.559  1.00  0.00    -0.248 NA
ATOM     58  C   UNL A   1      48.448  29.285  28.482  1.00  0.00     0.031 C 
ATOM     59  C   UNL A   1      42.956  31.578  29.677  1.00  0.00     0.029 A 
ATOM     60  C   UNL A   1      43.979  30.712  29.328  1.00  0.00     0.049 A 
ATOM     61  H   UNL A   1      43.863  28.702  28.692  1.00  0.00     0.167 HD
ATOM     62  C   UNL A   1      46.342  30.060  28.948  1.00  0.00     0.074 A 
ATOM     63  C   UNL A   1      47.764  30.334  28.916  1.00  0.00     0.031 C 
ATOM     64  C   UNL A   1      45.397  30.966  29.302  1.00  0.00     0.037 A 
BRANCH  51  65
ATOM     65  C   UNL A   1      39.605  28.837  28.990  1.00  0.00     0.064 A 
ATOM     66  C   UNL A   1      38.943  28.699  30.220  1.00  0.00     0.173 A 
ATOM     67  C   UNL A   1      38.861  29.303  27.895  1.00  0.00     0.173 A 
ATOM     68  F   UNL A   1      39.604  28.248  31.296  1.00  0.00    -0.203 F 
ATOM     69  C   UNL A   1      37.586  28.988  30.340  1.00  0.00     0.198 A 
ATOM     70  C   UNL A   1      37.512  29.622  28.027  1.00  0.00     0.198 A 
ATOM     71  F   UNL A   1      39.446  29.460  26.698  1.00  0.00    -0.203 F 
ATOM     72  F   UNL A   1      36.964  28.800  31.512  1.00  0.00    -0.200 F 
ATOM     73  C   UNL A   1      36.874  29.457  29.247  1.00  0.00     0.200 A 
ATOM     74  F   UNL A   1      36.830  30.090  26.973  1.00  0.00    -0.200 F 
ATOM     75  F   UNL A   1      35.570  29.744  29.367  1.00  0.00    -0.200 F 
ENDBRANCH  51  65
BRANCH  52  76
ATOM     76  C   UNL A   1      49.252  26.591  27.661  1.00  0.00     0.064 A 
ATOM     77  C   UNL A   1      50.106  26.312  28.737  1.00  0.00     0.173 A 
ATOM     78  C   UNL A   1      49.803  26.574  26.371  1.00  0.00     0.173 A 
ATOM     79  F   UNL A   1      49.632  26.335  29.992  1.00  0.00    -0.203 F 
ATOM     80  C   UNL A   1      51.460  26.052  28.534  1.00  0.00     0.198 A 
ATOM     81  C   UNL A   1      51.150  26.283  26.167  1.00  0.00     0.198 A 
ATOM     82  F   UNL A   1      49.028  26.828  25.306  1.00  0.00    -0.203 F 
ATOM     83  F   UNL A   1      52.264  25.840  29.585  1.00  0.00    -0.200 F 
ATOM     84  C   UNL A   1      51.980  26.033  27.249  1.00  0.00     0.200 A 
ATOM     85  F   UNL A   1      51.644  26.248  24.922  1.00  0.00    -0.200 F 
ATOM     86  F   UNL A   1      53.282  25.781  27.054  1.00  0.00    -0.200 F 
ENDBRANCH  52  76
BRANCH  64  87
ATOM     87  C   UNL A   1      45.871  32.326  29.727  1.00  0.00     0.064 A 
ATOM     88  C   UNL A   1      45.990  33.386  28.816  1.00  0.00     0.173 A 
ATOM     89  C   UNL A   1      46.171  32.582  31.073  1.00  0.00     0.173 A 
ATOM     90  F   UNL A   1      45.729  33.190  27.514  1.00  0.00    -0.203 F 
ATOM     91  C   UNL A   1      46.417  34.644  29.234  1.00  0.00     0.198 A 
ATOM     92  C   UNL A   1      46.566  33.848  31.493  1.00  0.00     0.198 A 
ATOM     93  F   UNL A   1      46.067  31.605  31.987  1.00  0.00    -0.203 F 
ATOM     94  F   UNL A   1      46.572  35.628  28.337  1.00  0.00    -0.200 F 
ATOM     95  C   UNL A   1      46.696  34.876  30.572  1.00  0.00     0.200 A 
ATOM     96  F   UNL A   1      46.819  34.075  32.789  1.00  0.00    -0.200 F 
ATOM     97  F   UNL A   1      47.098  36.091  30.973  1.00  0.00    -0.200 F 
ENDBRANCH  64  87
ENDBRANCH  38  39
ENDBRANCH  30  33
ENDBRANCH  28  29
ENDBRANCH  27  28
ENDBRANCH  26  27
ENDBRANCH  25  26
ENDBRANCH   1  25
TORSDOF 18
ENDMDL
MODEL 3
REMARK VINA RESULT:     -11.8      3.578      8.435
REMARK SMILES CC(C)c1nc(N(C)CCc2ccccn2)sc1C(=O)NCCCCCCNC(=O)c1ccc(-c2c3nc(c(-c4c(F)c(F)c(F)c(F)c4F)c4ccc([nH]4)c(-c4c(F)c(F)c(F)c(F)c4F)c4nc(c(-c5c(F)c(F)c(F)c(F)c5F)c5ccc2[nH]5)C=C4)C=C3)cc1
REMARK SMILES IDX 23 1 22 2 21 3 19 4 20 5 18 7 4 8 5 9 6 10 17 11 2 12 1 13
REMARK SMILES IDX 3 14 7 15 8 16 9 17 10 18 11 19 12 20 16 21 13 22 15 23
REMARK SMILES IDX 14 24 24 25 25 26 26 27 27 28 28 29 29 30 30 32 31 33 32 34
REMARK SMILES IDX 93 35 33 36 92 37 34 38 35 39 36 40 86 41 37 42 91 43 85 44
REMARK SMILES IDX 87 45 38 46 90 47 84 48 83 49 39 51 71 52 51 53 70 54 52 55
REMARK SMILES IDX 55 56 69 57 88 58 53 59 54 60 68 62 89 63 56 64 40 65 41 66
REMARK SMILES IDX 49 67 42 68 43 69 47 70 50 71 44 72 45 73 48 74 46 75 72 76
REMARK SMILES IDX 73 77 81 78 74 79 75 80 79 81 82 82 76 83 77 84 80 85 78 86
REMARK SMILES IDX 57 87 58 88 66 89 59 90 60 91 64 92 67 93 61 94 62 95 65 96
REMARK SMILES IDX 63 97
REMARK H PARENT 21 6 28 31 87 50 55 61
REMARK Flexibility Score: inf
ROOT
ATOM      1  C   UNL A   1      31.745  28.817  22.879  1.00  0.00     0.021 C 
ENDROOT
BRANCH   1   2
ATOM      2  C   UNL A   1      33.219  28.422  22.779  1.00  0.00     0.116 C 
BRANCH   2   3
ATOM      3  N   UNL A   1      33.427  27.290  21.912  1.00  0.00    -0.351 N 
ATOM      4  C   UNL A   1      33.116  25.960  21.891  1.00  0.00     0.263 C 
ATOM      5  O   UNL A   1      33.114  25.551  20.718  1.00  0.00    -0.268 OA
ATOM      6  H   UNL A   1      33.936  27.547  21.109  1.00  0.00     0.163 HD
BRANCH   4   7
ATOM      7  C   UNL A   1      32.879  25.055  23.017  1.00  0.00     0.117 A 
ATOM      8  C   UNL A   1      32.033  24.870  24.110  1.00  0.00     0.069 A 
ATOM      9  N   UNL A   1      32.379  23.791  24.933  1.00  0.00    -0.224 NA
ATOM     10  C   UNL A   1      33.468  23.168  24.562  1.00  0.00     0.186 A 
ATOM     11  S   UNL A   1      34.074  23.769  23.086  1.00  0.00    -0.091 S 
BRANCH   8  12
ATOM     12  C   UNL A   1      30.816  25.594  24.623  1.00  0.00     0.034 C 
ATOM     13  C   UNL A   1      29.686  25.675  23.601  1.00  0.00     0.014 C 
ATOM     14  C   UNL A   1      30.416  25.155  26.033  1.00  0.00     0.014 C 
ENDBRANCH   8  12
BRANCH  10  15
ATOM     15  N   UNL A   1      34.049  22.165  25.288  1.00  0.00    -0.351 N 
ATOM     16  C   UNL A   1      34.521  22.326  26.652  1.00  0.00     0.146 C 
BRANCH  15  17
ATOM     17  C   UNL A   1      34.190  20.829  24.690  1.00  0.00     0.125 C 
BRANCH  17  18
ATOM     18  C   UNL A   1      32.838  20.153  24.425  1.00  0.00     0.077 C 
BRANCH  18  19
ATOM     19  C   UNL A   1      32.930  18.653  24.488  1.00  0.00     0.042 A 
ATOM     20  C   UNL A   1      33.554  17.937  23.470  1.00  0.00     0.024 A 
ATOM     21  N   UNL A   1      32.431  18.059  25.602  1.00  0.00    -0.261 NA
ATOM     22  C   UNL A   1      33.701  16.563  23.612  1.00  0.00     0.003 A 
ATOM     23  C   UNL A   1      32.594  16.724  25.714  1.00  0.00     0.111 A 
ATOM     24  C   UNL A   1      33.216  15.942  24.757  1.00  0.00     0.020 A 
ENDBRANCH  18  19
ENDBRANCH  17  18
ENDBRANCH  15  17
ENDBRANCH  10  15
ENDBRANCH   4   7
ENDBRANCH   2   3
ENDBRANCH   1   2
BRANCH   1  25
ATOM     25  C   UNL A   1      31.254  28.989  24.319  1.00  0.00     0.002 C 
BRANCH  25  26
ATOM     26  C   UNL A   1      32.317  29.369  25.355  1.00  0.00     0.002 C 
BRANCH  26  27
ATOM     27  C   UNL A   1      32.838  28.237  26.240  1.00  0.00     0.021 C 
BRANCH  27  28
ATOM     28  C   UNL A   1      33.989  28.602  27.174  1.00  0.00     0.116 C 
BRANCH  28  29
ATOM     29  N   UNL A   1      33.904  29.974  27.646  1.00  0.00    -0.352 N 
ATOM     30  C   UNL A   1      34.770  30.717  28.400  1.00  0.00     0.251 C 
ATOM     31  H   UNL A   1      33.083  30.449  27.379  1.00  0.00     0.163 HD
ATOM     32  O   UNL A   1      34.402  31.801  28.856  1.00  0.00    -0.269 OA
BRANCH  30  33
ATOM     33  C   UNL A   1      36.137  30.238  28.683  1.00  0.00     0.039 A 
ATOM     34  C   UNL A   1      37.126  30.426  27.712  1.00  0.00     0.014 A 
ATOM     35  C   UNL A   1      36.441  29.561  29.866  1.00  0.00     0.014 A 
ATOM     36  C   UNL A   1      38.429  29.981  27.950  1.00  0.00     0.010 A 
ATOM     37  C   UNL A   1      37.754  29.182  30.134  1.00  0.00     0.010 A 
ATOM     38  C   UNL A   1      38.760  29.383  29.176  1.00  0.00    -0.014 A 
BRANCH  38  39
ATOM     39  C   UNL A   1      40.152  28.959  29.469  1.00  0.00     0.031 A 
ATOM     40  C   UNL A   1      41.070  29.853  30.254  1.00  0.00     0.074 A 
ATOM     41  C   UNL A   1      40.606  27.790  28.976  1.00  0.00     0.049 A 
ATOM     42  N   UNL A   1      42.335  29.688  30.551  1.00  0.00    -0.248 NA
ATOM     43  C   UNL A   1      40.498  31.114  30.752  1.00  0.00     0.031 C 
ATOM     44  C   UNL A   1      39.823  26.855  28.167  1.00  0.00     0.029 A 
ATOM     45  N   UNL A   1      41.838  27.194  29.073  1.00  0.00    -0.354 N 
ATOM     46  C   UNL A   1      42.710  30.824  31.255  1.00  0.00     0.074 A 
ATOM     47  C   UNL A   1      41.556  31.697  31.296  1.00  0.00     0.031 C 
ATOM     48  C   UNL A   1      40.586  25.794  27.858  1.00  0.00     0.029 A 
ATOM     49  C   UNL A   1      41.922  25.992  28.411  1.00  0.00     0.049 A 
ATOM     50  H   UNL A   1      42.590  27.588  29.571  1.00  0.00     0.167 HD
ATOM     51  C   UNL A   1      43.903  31.105  31.834  1.00  0.00     0.037 A 
ATOM     52  C   UNL A   1      42.963  25.153  28.257  1.00  0.00     0.037 A 
ATOM     53  C   UNL A   1      45.041  30.224  31.807  1.00  0.00     0.049 A 
ATOM     54  C   UNL A   1      44.282  25.497  28.896  1.00  0.00     0.074 A 
ATOM     55  C   UNL A   1      46.276  30.390  32.409  1.00  0.00     0.029 A 
ATOM     56  N   UNL A   1      45.084  29.009  31.138  1.00  0.00    -0.354 N 
ATOM     57  N   UNL A   1      44.605  26.543  29.616  1.00  0.00    -0.248 NA
ATOM     58  C   UNL A   1      45.379  24.538  28.708  1.00  0.00     0.031 C 
ATOM     59  C   UNL A   1      47.084  29.304  32.059  1.00  0.00     0.029 A 
ATOM     60  C   UNL A   1      46.333  28.429  31.291  1.00  0.00     0.049 A 
ATOM     61  H   UNL A   1      44.338  28.617  30.628  1.00  0.00     0.167 HD
ATOM     62  C   UNL A   1      45.928  26.354  29.994  1.00  0.00     0.074 A 
ATOM     63  C   UNL A   1      46.343  25.084  29.434  1.00  0.00     0.031 C 
ATOM     64  C   UNL A   1      46.727  27.158  30.738  1.00  0.00     0.037 A 
BRANCH  51  65
ATOM     65  C   UNL A   1      44.041  32.420  32.547  1.00  0.00     0.064 A 
ATOM     66  C   UNL A   1      44.488  33.574  31.885  1.00  0.00     0.173 A 
ATOM     67  C   UNL A   1      43.676  32.541  33.896  1.00  0.00     0.173 A 
ATOM     68  F   UNL A   1      44.860  33.513  30.597  1.00  0.00    -0.203 F 
ATOM     69  C   UNL A   1      44.594  34.790  32.555  1.00  0.00     0.198 A 
ATOM     70  C   UNL A   1      43.751  33.766  34.554  1.00  0.00     0.198 A 
ATOM     71  F   UNL A   1      43.235  31.471  34.576  1.00  0.00    -0.203 F 
ATOM     72  F   UNL A   1      45.071  35.866  31.915  1.00  0.00    -0.200 F 
ATOM     73  C   UNL A   1      44.218  34.887  33.886  1.00  0.00     0.200 A 
ATOM     74  F   UNL A   1      43.372  33.860  35.836  1.00  0.00    -0.200 F 
ATOM     75  F   UNL A   1      44.310  36.061  34.527  1.00  0.00    -0.200 F 
ENDBRANCH  51  65
BRANCH  52  76
ATOM     76  C   UNL A   1      42.798  23.897  27.479  1.00  0.00     0.064 A 
ATOM     77  C   UNL A   1      42.341  22.723  28.093  1.00  0.00     0.173 A 
ATOM     78  C   UNL A   1      43.105  23.839  26.111  1.00  0.00     0.173 A 
ATOM     79  F   UNL A   1      42.053  22.722  29.403  1.00  0.00    -0.203 F 
ATOM     80  C   UNL A   1      42.220  21.534  27.376  1.00  0.00     0.198 A 
ATOM     81  C   UNL A   1      42.953  22.658  25.388  1.00  0.00     0.198 A 
ATOM     82  F   UNL A   1      43.541  24.936  25.472  1.00  0.00    -0.203 F 
ATOM     83  F   UNL A   1      41.830  20.415  28.001  1.00  0.00    -0.200 F 
ATOM     84  C   UNL A   1      42.521  21.504  26.023  1.00  0.00     0.200 A 
ATOM     85  F   UNL A   1      43.229  22.638  24.077  1.00  0.00    -0.200 F 
ATOM     86  F   UNL A   1      42.402  20.361  25.333  1.00  0.00    -0.200 F 
ENDBRANCH  52  76
BRANCH  64  87
ATOM     87  C   UNL A   1      48.117  26.670  31.030  1.00  0.00     0.064 A 
ATOM     88  C   UNL A   1      48.409  25.909  32.172  1.00  0.00     0.173 A 
ATOM     89  C   UNL A   1      49.162  26.932  30.132  1.00  0.00     0.173 A 
ATOM     90  F   UNL A   1      47.448  25.643  33.070  1.00  0.00    -0.203 F 
ATOM     91  C   UNL A   1      49.702  25.454  32.416  1.00  0.00     0.198 A 
ATOM     92  C   UNL A   1      50.446  26.448  30.362  1.00  0.00     0.198 A 
ATOM     93  F   UNL A   1      48.935  27.648  29.021  1.00  0.00    -0.203 F 
ATOM     94  F   UNL A   1      49.969  24.773  33.540  1.00  0.00    -0.200 F 
ATOM     95  C   UNL A   1      50.717  25.715  31.509  1.00  0.00     0.200 A 
ATOM     96  F   UNL A   1      51.421  26.687  29.475  1.00  0.00    -0.200 F 
ATOM     97  F   UNL A   1      51.958  25.268  31.742  1.00  0.00    -0.200 F 
ENDBRANCH  64  87
ENDBRANCH  38  39
ENDBRANCH  30  33
ENDBRANCH  28  29
ENDBRANCH  27  28
ENDBRANCH  26  27
ENDBRANCH  25  26
ENDBRANCH   1  25
TORSDOF 18
ENDMDL
