MODEL 1
REMARK VINA RESULT:     -12.2      0.000      0.000
REMARK SMILES C[C@H](CC(=O)NCCCCCCNC(=O)c1ccc(-c2c3nc(c(-c4c(F)c(F)c(F)c(F)c4F)c4ccc([nH]4)c(-c4c(F)c(F)c(F)c(F)c4F)c4nc(c(-c5c(F)c(F)c(F)c(F)c5F)c5ccc2[nH]5)C=C4)C=C3)cc1)NC(=O)Cn1nc2ccccn2c1=O
REMARK SMILES IDX 8 1 7 2 6 3 4 4 5 5 3 7 2 8 1 9 79 10 80 11 81 13 82 14
REMARK SMILES IDX 83 15 84 16 91 17 85 18 90 19 92 20 86 21 89 22 87 23 88 24
REMARK SMILES IDX 9 25 10 26 11 27 12 28 13 29 14 30 15 32 16 33 17 34 78 35
REMARK SMILES IDX 18 36 77 37 19 38 20 39 21 40 71 41 22 42 76 43 70 44 72 45
REMARK SMILES IDX 23 46 75 47 69 48 68 49 24 51 56 52 36 53 55 54 37 55 40 56
REMARK SMILES IDX 54 57 73 58 38 59 39 60 53 62 74 63 41 64 25 65 26 66 34 67
REMARK SMILES IDX 27 68 28 69 32 70 35 71 29 72 30 73 33 74 31 75 57 76 58 77
REMARK SMILES IDX 66 78 59 79 60 80 64 81 67 82 61 83 62 84 65 85 63 86 42 87
REMARK SMILES IDX 43 88 51 89 44 90 45 91 49 92 52 93 46 94 47 95 50 96 48 97
REMARK H PARENT 6 6 79 12 13 31 72 50 40 61
REMARK Flexibility Score: inf
ROOT
ATOM      1  C   UNL A   1      31.787  28.559  27.636  1.00  0.00     0.021 C 
ENDROOT
BRANCH   1   2
ATOM      2  C   UNL A   1      31.602  27.476  26.575  1.00  0.00     0.116 C 
BRANCH   2   3
ATOM      3  N   UNL A   1      32.843  27.264  25.854  1.00  0.00    -0.356 N 
ATOM      4  C   UNL A   1      33.140  27.518  24.551  1.00  0.00     0.222 C 
ATOM      5  O   UNL A   1      34.230  27.144  24.114  1.00  0.00    -0.275 OA
ATOM      6  H   UNL A   1      33.577  26.879  26.385  1.00  0.00     0.163 HD
BRANCH   4   7
ATOM      7  C   UNL A   1      32.164  28.275  23.673  1.00  0.00     0.124 C 
BRANCH   7   8
ATOM      8  C   UNL A   1      31.207  27.416  22.827  1.00  0.00     0.088 C 
ATOM      9  C   UNL A   1      29.939  28.173  22.435  1.00  0.00     0.031 C 
BRANCH   8  10
ATOM     10  N   UNL A   1      31.852  26.866  21.637  1.00  0.00    -0.352 N 
ATOM     11  C   UNL A   1      32.428  25.651  21.400  1.00  0.00     0.242 C 
ATOM     12  H   UNL A   1      31.874  27.481  20.868  1.00  0.00     0.163 HD
ATOM     13  O   UNL A   1      33.019  25.527  20.321  1.00  0.00    -0.273 OA
BRANCH  11  14
ATOM     14  C   UNL A   1      32.239  24.450  22.333  1.00  0.00     0.249 C 
BRANCH  14  15
ATOM     15  N   UNL A   1      33.409  24.049  23.076  1.00  0.00    -0.203 N 
ATOM     16  N   UNL A   1      34.602  23.706  22.475  1.00  0.00    -0.149 NA
ATOM     17  C   UNL A   1      33.502  23.906  24.471  1.00  0.00     0.350 A 
ATOM     18  C   UNL A   1      35.335  23.298  23.462  1.00  0.00     0.161 A 
ATOM     19  N   UNL A   1      34.761  23.397  24.685  1.00  0.00    -0.250 N 
ATOM     20  O   UNL A   1      32.638  24.143  25.304  1.00  0.00    -0.246 OA
ATOM     21  C   UNL A   1      36.699  22.708  23.365  1.00  0.00     0.050 A 
ATOM     22  C   UNL A   1      35.354  22.989  25.845  1.00  0.00     0.098 A 
ATOM     23  C   UNL A   1      37.069  21.997  24.451  1.00  0.00     0.005 A 
ATOM     24  C   UNL A   1      36.500  22.299  25.762  1.00  0.00     0.019 A 
ENDBRANCH  14  15
ENDBRANCH  11  14
ENDBRANCH   8  10
ENDBRANCH   7   8
ENDBRANCH   4   7
ENDBRANCH   2   3
ENDBRANCH   1   2
BRANCH   1  25
ATOM     25  C   UNL A   1      32.494  29.818  27.124  1.00  0.00     0.002 C 
BRANCH  25  26
ATOM     26  C   UNL A   1      31.636  30.715  26.227  1.00  0.00     0.002 C 
BRANCH  26  27
ATOM     27  C   UNL A   1      31.418  32.137  26.748  1.00  0.00     0.021 C 
BRANCH  27  28
ATOM     28  C   UNL A   1      32.654  32.788  27.363  1.00  0.00     0.116 C 
BRANCH  28  29
ATOM     29  N   UNL A   1      32.436  34.197  27.654  1.00  0.00    -0.352 N 
ATOM     30  C   UNL A   1      33.005  34.992  28.616  1.00  0.00     0.251 C 
ATOM     31  H   UNL A   1      31.782  34.647  27.071  1.00  0.00     0.163 HD
ATOM     32  O   UNL A   1      32.533  36.097  28.864  1.00  0.00    -0.269 OA
BRANCH  30  33
ATOM     33  C   UNL A   1      34.178  34.507  29.372  1.00  0.00     0.039 A 
ATOM     34  C   UNL A   1      33.984  33.966  30.644  1.00  0.00     0.014 A 
ATOM     35  C   UNL A   1      35.465  34.594  28.832  1.00  0.00     0.014 A 
ATOM     36  C   UNL A   1      35.071  33.444  31.346  1.00  0.00     0.010 A 
ATOM     37  C   UNL A   1      36.538  34.010  29.502  1.00  0.00     0.010 A 
ATOM     38  C   UNL A   1      36.350  33.424  30.762  1.00  0.00    -0.014 A 
BRANCH  38  39
ATOM     39  C   UNL A   1      37.486  32.750  31.439  1.00  0.00     0.031 A 
ATOM     40  C   UNL A   1      38.167  31.572  30.802  1.00  0.00     0.074 A 
ATOM     41  C   UNL A   1      37.862  33.166  32.665  1.00  0.00     0.049 A 
ATOM     42  N   UNL A   1      39.137  30.825  31.269  1.00  0.00    -0.248 NA
ATOM     43  C   UNL A   1      37.684  31.164  29.475  1.00  0.00     0.031 C 
ATOM     44  C   UNL A   1      37.243  34.265  33.408  1.00  0.00     0.029 A 
ATOM     45  N   UNL A   1      38.841  32.705  33.510  1.00  0.00    -0.354 N 
ATOM     46  C   UNL A   1      39.372  29.859  30.301  1.00  0.00     0.074 A 
ATOM     47  C   UNL A   1      38.414  30.082  29.240  1.00  0.00     0.031 C 
ATOM     48  C   UNL A   1      37.867  34.405  34.588  1.00  0.00     0.029 A 
ATOM     49  C   UNL A   1      38.898  33.380  34.706  1.00  0.00     0.049 A 
ATOM     50  H   UNL A   1      39.445  31.963  33.281  1.00  0.00     0.167 HD
ATOM     51  C   UNL A   1      40.314  28.884  30.293  1.00  0.00     0.037 A 
ATOM     52  C   UNL A   1      39.680  33.182  35.784  1.00  0.00     0.037 A 
ATOM     53  C   UNL A   1      41.273  28.676  31.347  1.00  0.00     0.049 A 
ATOM     54  C   UNL A   1      40.703  32.078  35.754  1.00  0.00     0.074 A 
ATOM     55  C   UNL A   1      42.311  27.762  31.397  1.00  0.00     0.029 A 
ATOM     56  N   UNL A   1      41.306  29.383  32.540  1.00  0.00    -0.354 N 
ATOM     57  N   UNL A   1      40.974  31.226  34.795  1.00  0.00    -0.248 NA
ATOM     58  C   UNL A   1      41.532  31.912  36.955  1.00  0.00     0.031 C 
ATOM     59  C   UNL A   1      42.932  27.873  32.645  1.00  0.00     0.029 A 
ATOM     60  C   UNL A   1      42.323  28.900  33.349  1.00  0.00     0.049 A 
ATOM     61  H   UNL A   1      40.696  30.119  32.777  1.00  0.00     0.167 HD
ATOM     62  C   UNL A   1      42.016  30.440  35.266  1.00  0.00     0.074 A 
ATOM     63  C   UNL A   1      42.347  30.934  36.587  1.00  0.00     0.031 C 
ATOM     64  C   UNL A   1      42.641  29.401  34.661  1.00  0.00     0.037 A 
BRANCH  51  65
ATOM     65  C   UNL A   1      40.358  27.961  29.110  1.00  0.00     0.064 A 
ATOM     66  C   UNL A   1      39.601  26.780  29.066  1.00  0.00     0.173 A 
ATOM     67  C   UNL A   1      41.114  28.296  27.975  1.00  0.00     0.173 A 
ATOM     68  F   UNL A   1      38.867  26.409  30.126  1.00  0.00    -0.203 F 
ATOM     69  C   UNL A   1      39.616  25.959  27.942  1.00  0.00     0.198 A 
ATOM     70  C   UNL A   1      41.102  27.489  26.841  1.00  0.00     0.198 A 
ATOM     71  F   UNL A   1      41.849  29.418  27.959  1.00  0.00    -0.203 F 
ATOM     72  F   UNL A   1      38.915  24.817  27.938  1.00  0.00    -0.200 F 
ATOM     73  C   UNL A   1      40.358  26.319  26.826  1.00  0.00     0.200 A 
ATOM     74  F   UNL A   1      41.806  27.847  25.758  1.00  0.00    -0.200 F 
ATOM     75  F   UNL A   1      40.357  25.537  25.738  1.00  0.00    -0.200 F 
ENDBRANCH  51  65
BRANCH  52  76
ATOM     76  C   UNL A   1      39.527  34.046  36.985  1.00  0.00     0.064 A 
ATOM     77  C   UNL A   1      40.164  35.292  37.067  1.00  0.00     0.173 A 
ATOM     78  C   UNL A   1      38.757  33.636  38.084  1.00  0.00     0.173 A 
ATOM     79  F   UNL A   1      40.929  35.720  36.053  1.00  0.00    -0.203 F 
ATOM     80  C   UNL A   1      40.063  36.079  38.212  1.00  0.00     0.198 A 
ATOM     81  C   UNL A   1      38.628  34.440  39.215  1.00  0.00     0.198 A 
ATOM     82  F   UNL A   1      38.122  32.454  38.057  1.00  0.00    -0.203 F 
ATOM     83  F   UNL A   1      40.731  37.239  38.286  1.00  0.00    -0.200 F 
ATOM     84  C   UNL A   1      39.290  35.655  39.283  1.00  0.00     0.200 A 
ATOM     85  F   UNL A   1      37.867  34.033  40.240  1.00  0.00    -0.200 F 
ATOM     86  F   UNL A   1      39.191  36.414  40.383  1.00  0.00    -0.200 F 
ENDBRANCH  52  76
BRANCH  64  87
ATOM     87  C   UNL A   1      43.765  28.742  35.411  1.00  0.00     0.064 A 
ATOM     88  C   UNL A   1      45.099  29.141  35.238  1.00  0.00     0.173 A 
ATOM     89  C   UNL A   1      43.499  27.723  36.338  1.00  0.00     0.173 A 
ATOM     90  F   UNL A   1      45.408  30.099  34.352  1.00  0.00    -0.203 F 
ATOM     91  C   UNL A   1      46.127  28.523  35.945  1.00  0.00     0.198 A 
ATOM     92  C   UNL A   1      44.527  27.133  37.069  1.00  0.00     0.198 A 
ATOM     93  F   UNL A   1      42.241  27.308  36.546  1.00  0.00    -0.203 F 
ATOM     94  F   UNL A   1      47.400  28.883  35.724  1.00  0.00    -0.200 F 
ATOM     95  C   UNL A   1      45.840  27.527  36.866  1.00  0.00     0.200 A 
ATOM     96  F   UNL A   1      44.245  26.181  37.970  1.00  0.00    -0.200 F 
ATOM     97  F   UNL A   1      46.830  26.940  37.551  1.00  0.00    -0.200 F 
ENDBRANCH  64  87
ENDBRANCH  38  39
ENDBRANCH  30  33
ENDBRANCH  28  29
ENDBRANCH  27  28
ENDBRANCH  26  27
ENDBRANCH  25  26
ENDBRANCH   1  25
TORSDOF 17
ENDMDL
MODEL 2
REMARK VINA RESULT:     -12.2      5.628     11.189
REMARK SMILES C[C@H](CC(=O)NCCCCCCNC(=O)c1ccc(-c2c3nc(c(-c4c(F)c(F)c(F)c(F)c4F)c4ccc([nH]4)c(-c4c(F)c(F)c(F)c(F)c4F)c4nc(c(-c5c(F)c(F)c(F)c(F)c5F)c5ccc2[nH]5)C=C4)C=C3)cc1)NC(=O)Cn1nc2ccccn2c1=O
REMARK SMILES IDX 8 1 7 2 6 3 4 4 5 5 3 7 2 8 1 9 79 10 80 11 81 13 82 14
REMARK SMILES IDX 83 15 84 16 91 17 85 18 90 19 92 20 86 21 89 22 87 23 88 24
REMARK SMILES IDX 9 25 10 26 11 27 12 28 13 29 14 30 15 32 16 33 17 34 78 35
REMARK SMILES IDX 18 36 77 37 19 38 20 39 21 40 71 41 22 42 76 43 70 44 72 45
REMARK SMILES IDX 23 46 75 47 69 48 68 49 24 51 56 52 36 53 55 54 37 55 40 56
REMARK SMILES IDX 54 57 73 58 38 59 39 60 53 62 74 63 41 64 25 65 26 66 34 67
REMARK SMILES IDX 27 68 28 69 32 70 35 71 29 72 30 73 33 74 31 75 57 76 58 77
REMARK SMILES IDX 66 78 59 79 60 80 64 81 67 82 61 83 62 84 65 85 63 86 42 87
REMARK SMILES IDX 43 88 51 89 44 90 45 91 49 92 52 93 46 94 47 95 50 96 48 97
REMARK H PARENT 6 6 79 12 13 31 72 50 40 61
REMARK Flexibility Score: inf
ROOT
ATOM      1  C   UNL A   1      37.433  23.030  25.486  1.00  0.00     0.021 C 
ENDROOT
BRANCH   1   2
ATOM      2  C   UNL A   1      36.130  23.694  25.929  1.00  0.00     0.116 C 
BRANCH   2   3
ATOM      3  N   UNL A   1      35.390  22.809  26.809  1.00  0.00    -0.356 N 
ATOM      4  C   UNL A   1      34.236  22.127  26.578  1.00  0.00     0.222 C 
ATOM      5  O   UNL A   1      33.713  21.523  27.517  1.00  0.00    -0.275 OA
ATOM      6  H   UNL A   1      35.780  22.684  27.704  1.00  0.00     0.163 HD
BRANCH   4   7
ATOM      7  C   UNL A   1      33.630  22.087  25.189  1.00  0.00     0.124 C 
BRANCH   7   8
ATOM      8  C   UNL A   1      32.248  21.421  25.072  1.00  0.00     0.088 C 
ATOM      9  C   UNL A   1      32.341  19.897  25.013  1.00  0.00     0.031 C 
BRANCH   8  10
ATOM     10  N   UNL A   1      31.337  21.827  26.140  1.00  0.00    -0.352 N 
ATOM     11  C   UNL A   1      30.757  23.030  26.425  1.00  0.00     0.242 C 
ATOM     12  H   UNL A   1      31.099  21.105  26.765  1.00  0.00     0.163 HD
ATOM     13  O   UNL A   1      30.133  23.097  27.491  1.00  0.00    -0.273 OA
BRANCH  11  14
ATOM     14  C   UNL A   1      30.742  24.197  25.432  1.00  0.00     0.249 C 
BRANCH  14  15
ATOM     15  N   UNL A   1      31.423  25.392  25.864  1.00  0.00    -0.203 N 
ATOM     16  N   UNL A   1      30.911  26.248  26.817  1.00  0.00    -0.149 NA
ATOM     17  C   UNL A   1      32.646  25.879  25.371  1.00  0.00     0.350 A 
ATOM     18  C   UNL A   1      31.750  27.236  26.822  1.00  0.00     0.161 A 
ATOM     19  N   UNL A   1      32.817  27.089  26.001  1.00  0.00    -0.250 N 
ATOM     20  O   UNL A   1      33.372  25.360  24.535  1.00  0.00    -0.246 OA
ATOM     21  C   UNL A   1      31.623  28.499  27.600  1.00  0.00     0.050 A 
ATOM     22  C   UNL A   1      33.793  28.030  25.837  1.00  0.00     0.098 A 
ATOM     23  C   UNL A   1      32.380  29.513  27.130  1.00  0.00     0.005 A 
ATOM     24  C   UNL A   1      33.608  29.237  26.389  1.00  0.00     0.019 A 
ENDBRANCH  14  15
ENDBRANCH  11  14
ENDBRANCH   8  10
ENDBRANCH   7   8
ENDBRANCH   4   7
ENDBRANCH   2   3
ENDBRANCH   1   2
BRANCH   1  25
ATOM     25  C   UNL A   1      37.251  21.963  24.403  1.00  0.00     0.002 C 
BRANCH  25  26
ATOM     26  C   UNL A   1      37.030  20.543  24.932  1.00  0.00     0.002 C 
BRANCH  26  27
ATOM     27  C   UNL A   1      38.257  19.630  24.876  1.00  0.00     0.021 C 
BRANCH  27  28
ATOM     28  C   UNL A   1      39.368  19.994  25.859  1.00  0.00     0.116 C 
BRANCH  28  29
ATOM     29  N   UNL A   1      40.398  18.968  25.915  1.00  0.00    -0.352 N 
ATOM     30  C   UNL A   1      41.757  19.097  26.044  1.00  0.00     0.251 C 
ATOM     31  H   UNL A   1      40.069  18.042  25.853  1.00  0.00     0.163 HD
ATOM     32  O   UNL A   1      42.492  18.136  25.841  1.00  0.00    -0.269 OA
BRANCH  30  33
ATOM     33  C   UNL A   1      42.341  20.404  26.408  1.00  0.00     0.039 A 
ATOM     34  C   UNL A   1      43.037  21.126  25.436  1.00  0.00     0.014 A 
ATOM     35  C   UNL A   1      42.210  20.914  27.703  1.00  0.00     0.014 A 
ATOM     36  C   UNL A   1      43.540  22.391  25.742  1.00  0.00     0.010 A 
ATOM     37  C   UNL A   1      42.650  22.204  27.988  1.00  0.00     0.010 A 
ATOM     38  C   UNL A   1      43.313  22.958  27.008  1.00  0.00    -0.014 A 
BRANCH  38  39
ATOM     39  C   UNL A   1      43.722  24.354  27.302  1.00  0.00     0.031 A 
ATOM     40  C   UNL A   1      42.707  25.374  27.735  1.00  0.00     0.074 A 
ATOM     41  C   UNL A   1      45.007  24.717  27.115  1.00  0.00     0.049 A 
ATOM     42  N   UNL A   1      42.870  26.650  27.982  1.00  0.00    -0.248 NA
ATOM     43  C   UNL A   1      41.322  24.906  27.893  1.00  0.00     0.031 C 
ATOM     44  C   UNL A   1      46.074  23.829  26.648  1.00  0.00     0.029 A 
ATOM     45  N   UNL A   1      45.632  25.928  27.278  1.00  0.00    -0.354 N 
ATOM     46  C   UNL A   1      41.613  27.137  28.313  1.00  0.00     0.074 A 
ATOM     47  C   UNL A   1      40.687  26.031  28.192  1.00  0.00     0.031 C 
ATOM     48  C   UNL A   1      47.222  24.519  26.579  1.00  0.00     0.029 A 
ATOM     49  C   UNL A   1      46.966  25.907  26.951  1.00  0.00     0.049 A 
ATOM     50  H   UNL A   1      45.168  26.735  27.599  1.00  0.00     0.167 HD
ATOM     51  C   UNL A   1      41.268  28.389  28.699  1.00  0.00     0.037 A 
ATOM     52  C   UNL A   1      47.878  26.898  26.936  1.00  0.00     0.037 A 
ATOM     53  C   UNL A   1      42.198  29.482  28.830  1.00  0.00     0.049 A 
ATOM     54  C   UNL A   1      47.460  28.283  27.350  1.00  0.00     0.074 A 
ATOM     55  C   UNL A   1      41.957  30.767  29.283  1.00  0.00     0.029 A 
ATOM     56  N   UNL A   1      43.543  29.421  28.498  1.00  0.00    -0.354 N 
ATOM     57  N   UNL A   1      46.285  28.711  27.745  1.00  0.00    -0.248 NA
ATOM     58  C   UNL A   1      48.497  29.324  27.319  1.00  0.00     0.031 C 
ATOM     59  C   UNL A   1      43.140  31.501  29.165  1.00  0.00     0.029 A 
ATOM     60  C   UNL A   1      44.136  30.658  28.700  1.00  0.00     0.049 A 
ATOM     61  H   UNL A   1      44.008  28.618  28.166  1.00  0.00     0.167 HD
ATOM     62  C   UNL A   1      46.447  30.059  28.032  1.00  0.00     0.074 A 
ATOM     63  C   UNL A   1      47.839  30.374  27.789  1.00  0.00     0.031 C 
ATOM     64  C   UNL A   1      45.524  30.957  28.455  1.00  0.00     0.037 A 
BRANCH  51  65
ATOM     65  C   UNL A   1      39.823  28.655  29.008  1.00  0.00     0.064 A 
ATOM     66  C   UNL A   1      39.293  28.453  30.291  1.00  0.00     0.173 A 
ATOM     67  C   UNL A   1      38.972  29.184  28.025  1.00  0.00     0.173 A 
ATOM     68  F   UNL A   1      40.061  27.942  31.266  1.00  0.00    -0.203 F 
ATOM     69  C   UNL A   1      37.962  28.750  30.574  1.00  0.00     0.198 A 
ATOM     70  C   UNL A   1      37.651  29.510  28.319  1.00  0.00     0.198 A 
ATOM     71  F   UNL A   1      39.428  29.405  26.783  1.00  0.00    -0.203 F 
ATOM     72  F   UNL A   1      37.469  28.513  31.796  1.00  0.00    -0.200 F 
ATOM     73  C   UNL A   1      37.145  29.287  29.590  1.00  0.00     0.200 A 
ATOM     74  F   UNL A   1      36.867  30.045  27.372  1.00  0.00    -0.200 F 
ATOM     75  F   UNL A   1      35.869  29.590  29.868  1.00  0.00    -0.200 F 
ENDBRANCH  51  65
BRANCH  52  76
ATOM     76  C   UNL A   1      49.276  26.620  26.511  1.00  0.00     0.064 A 
ATOM     77  C   UNL A   1      50.239  26.183  27.431  1.00  0.00     0.173 A 
ATOM     78  C   UNL A   1      49.683  26.802  25.181  1.00  0.00     0.173 A 
ATOM     79  F   UNL A   1      49.905  26.014  28.719  1.00  0.00    -0.203 F 
ATOM     80  C   UNL A   1      51.561  25.971  27.046  1.00  0.00     0.198 A 
ATOM     81  C   UNL A   1      50.998  26.555  24.788  1.00  0.00     0.198 A 
ATOM     82  F   UNL A   1      48.802  27.214  24.257  1.00  0.00    -0.203 F 
ATOM     83  F   UNL A   1      52.473  25.611  27.959  1.00  0.00    -0.200 F 
ATOM     84  C   UNL A   1      51.938  26.151  25.723  1.00  0.00     0.200 A 
ATOM     85  F   UNL A   1      51.353  26.715  23.507  1.00  0.00    -0.200 F 
ATOM     86  F   UNL A   1      53.208  25.944  25.352  1.00  0.00    -0.200 F 
ENDBRANCH  52  76
BRANCH  64  87
ATOM     87  C   UNL A   1      45.994  32.362  28.707  1.00  0.00     0.064 A 
ATOM     88  C   UNL A   1      46.505  32.755  29.953  1.00  0.00     0.173 A 
ATOM     89  C   UNL A   1      45.965  33.317  27.679  1.00  0.00     0.173 A 
ATOM     90  F   UNL A   1      46.540  31.884  30.974  1.00  0.00    -0.203 F 
ATOM     91  C   UNL A   1      46.942  34.059  30.168  1.00  0.00     0.198 A 
ATOM     92  C   UNL A   1      46.437  34.610  27.888  1.00  0.00     0.198 A 
ATOM     93  F   UNL A   1      45.493  32.992  26.467  1.00  0.00    -0.203 F 
ATOM     94  F   UNL A   1      47.377  34.426  31.383  1.00  0.00    -0.200 F 
ATOM     95  C   UNL A   1      46.917  34.982  29.134  1.00  0.00     0.200 A 
ATOM     96  F   UNL A   1      46.425  35.496  26.883  1.00  0.00    -0.200 F 
ATOM     97  F   UNL A   1      47.346  36.234  29.340  1.00  0.00    -0.200 F 
ENDBRANCH  64  87
ENDBRANCH  38  39
ENDBRANCH  30  33
ENDBRANCH  28  29
ENDBRANCH  27  28
ENDBRANCH  26  27
ENDBRANCH  25  26
ENDBRANCH   1  25
TORSDOF 17
ENDMDL
MODEL 3
REMARK VINA RESULT:     -11.9      5.581     10.991
REMARK SMILES C[C@H](CC(=O)NCCCCCCNC(=O)c1ccc(-c2c3nc(c(-c4c(F)c(F)c(F)c(F)c4F)c4ccc([nH]4)c(-c4c(F)c(F)c(F)c(F)c4F)c4nc(c(-c5c(F)c(F)c(F)c(F)c5F)c5ccc2[nH]5)C=C4)C=C3)cc1)NC(=O)Cn1nc2ccccn2c1=O
REMARK SMILES IDX 8 1 7 2 6 3 4 4 5 5 3 7 2 8 1 9 79 10 80 11 81 13 82 14
REMARK SMILES IDX 83 15 84 16 91 17 85 18 90 19 92 20 86 21 89 22 87 23 88 24
REMARK SMILES IDX 9 25 10 26 11 27 12 28 13 29 14 30 15 32 16 33 17 34 78 35
REMARK SMILES IDX 18 36 77 37 19 38 20 39 21 40 71 41 22 42 76 43 70 44 72 45
REMARK SMILES IDX 23 46 75 47 69 48 68 49 24 51 56 52 36 53 55 54 37 55 40 56
REMARK SMILES IDX 54 57 73 58 38 59 39 60 53 62 74 63 41 64 25 65 26 66 34 67
REMARK SMILES IDX 27 68 28 69 32 70 35 71 29 72 30 73 33 74 31 75 57 76 58 77
REMARK SMILES IDX 66 78 59 79 60 80 64 81 67 82 61 83 62 84 65 85 63 86 42 87
REMARK SMILES IDX 43 88 51 89 44 90 45 91 49 92 52 93 46 94 47 95 50 96 48 97
REMARK H PARENT 6 6 79 12 13 31 72 50 40 61
REMARK Flexibility Score: inf
ROOT
ATOM      1  C   UNL A   1      36.745  23.382  24.898  1.00  0.00     0.021 C 
ENDROOT
BRANCH   1   2
ATOM      2  C   UNL A   1      35.261  23.697  25.083  1.00  0.00     0.116 C 
BRANCH   2   3
ATOM      3  N   UNL A   1      34.801  24.581  24.029  1.00  0.00    -0.356 N 
ATOM      4  C   UNL A   1      34.025  25.695  24.112  1.00  0.00     0.222 C 
ATOM      5  O   UNL A   1      33.652  26.230  23.067  1.00  0.00    -0.275 OA
ATOM      6  H   UNL A   1      35.093  24.339  23.121  1.00  0.00     0.163 HD
BRANCH   4   7
ATOM      7  C   UNL A   1      33.659  26.279  25.462  1.00  0.00     0.124 C 
BRANCH   7   8
ATOM      8  C   UNL A   1      32.700  27.482  25.443  1.00  0.00     0.088 C 
ATOM      9  C   UNL A   1      33.420  28.794  25.134  1.00  0.00     0.031 C 
BRANCH   8  10
ATOM     10  N   UNL A   1      31.583  27.293  24.520  1.00  0.00    -0.352 N 
ATOM     11  C   UNL A   1      30.513  26.445  24.557  1.00  0.00     0.242 C 
ATOM     12  H   UNL A   1      31.605  27.883  23.732  1.00  0.00     0.163 HD
ATOM     13  O   UNL A   1      29.798  26.423  23.548  1.00  0.00    -0.273 OA
BRANCH  11  14
ATOM     14  C   UNL A   1      30.117  25.667  25.817  1.00  0.00     0.249 C 
BRANCH  14  15
ATOM     15  N   UNL A   1      30.816  24.424  26.026  1.00  0.00    -0.203 N 
ATOM     16  N   UNL A   1      31.400  24.081  27.228  1.00  0.00    -0.149 NA
ATOM     17  C   UNL A   1      31.043  23.422  25.066  1.00  0.00     0.350 A 
ATOM     18  C   UNL A   1      32.016  22.972  26.962  1.00  0.00     0.161 A 
ATOM     19  N   UNL A   1      31.844  22.504  25.703  1.00  0.00    -0.250 N 
ATOM     20  O   UNL A   1      30.651  23.399  23.908  1.00  0.00    -0.246 OA
ATOM     21  C   UNL A   1      32.904  22.212  27.885  1.00  0.00     0.050 A 
ATOM     22  C   UNL A   1      32.434  21.373  25.218  1.00  0.00     0.098 A 
ATOM     23  C   UNL A   1      33.733  21.347  27.262  1.00  0.00     0.005 A 
ATOM     24  C   UNL A   1      33.369  20.775  25.969  1.00  0.00     0.019 A 
ENDBRANCH  14  15
ENDBRANCH  11  14
ENDBRANCH   8  10
ENDBRANCH   7   8
ENDBRANCH   4   7
ENDBRANCH   2   3
ENDBRANCH   1   2
BRANCH   1  25
ATOM     25  C   UNL A   1      37.014  22.068  24.158  1.00  0.00     0.002 C 
BRANCH  25  26
ATOM     26  C   UNL A   1      36.819  20.805  25.001  1.00  0.00     0.002 C 
BRANCH  26  27
ATOM     27  C   UNL A   1      38.003  19.835  25.001  1.00  0.00     0.021 C 
BRANCH  27  28
ATOM     28  C   UNL A   1      39.183  20.268  25.868  1.00  0.00     0.116 C 
BRANCH  28  29
ATOM     29  N   UNL A   1      40.179  19.214  25.992  1.00  0.00    -0.352 N 
ATOM     30  C   UNL A   1      41.540  19.306  26.126  1.00  0.00     0.251 C 
ATOM     31  H   UNL A   1      39.820  18.297  25.979  1.00  0.00     0.163 HD
ATOM     32  O   UNL A   1      42.245  18.312  25.986  1.00  0.00    -0.269 OA
BRANCH  30  33
ATOM     33  C   UNL A   1      42.164  20.613  26.421  1.00  0.00     0.039 A 
ATOM     34  C   UNL A   1      42.645  21.384  25.362  1.00  0.00     0.014 A 
ATOM     35  C   UNL A   1      42.281  21.072  27.736  1.00  0.00     0.014 A 
ATOM     36  C   UNL A   1      43.179  22.649  25.614  1.00  0.00     0.010 A 
ATOM     37  C   UNL A   1      42.748  22.361  27.981  1.00  0.00     0.010 A 
ATOM     38  C   UNL A   1      43.195  23.165  26.922  1.00  0.00    -0.014 A 
BRANCH  38  39
ATOM     39  C   UNL A   1      43.632  24.558  27.186  1.00  0.00     0.031 A 
ATOM     40  C   UNL A   1      42.652  25.589  27.672  1.00  0.00     0.074 A 
ATOM     41  C   UNL A   1      44.907  24.909  26.924  1.00  0.00     0.049 A 
ATOM     42  N   UNL A   1      42.840  26.864  27.903  1.00  0.00    -0.248 NA
ATOM     43  C   UNL A   1      41.275  25.133  27.911  1.00  0.00     0.031 C 
ATOM     44  C   UNL A   1      45.938  24.010  26.400  1.00  0.00     0.029 A 
ATOM     45  N   UNL A   1      45.551  26.115  27.045  1.00  0.00    -0.354 N 
ATOM     46  C   UNL A   1      41.609  27.363  28.303  1.00  0.00     0.074 A 
ATOM     47  C   UNL A   1      40.668  26.265  28.241  1.00  0.00     0.031 C 
ATOM     48  C   UNL A   1      47.086  24.690  26.263  1.00  0.00     0.029 A 
ATOM     49  C   UNL A   1      46.864  26.081  26.643  1.00  0.00     0.049 A 
ATOM     50  H   UNL A   1      45.113  26.928  27.389  1.00  0.00     0.167 HD
ATOM     51  C   UNL A   1      41.297  28.620  28.703  1.00  0.00     0.037 A 
ATOM     52  C   UNL A   1      47.782  27.063  26.571  1.00  0.00     0.037 A 
ATOM     53  C   UNL A   1      42.242  29.705  28.776  1.00  0.00     0.049 A 
ATOM     54  C   UNL A   1      47.400  28.455  27.002  1.00  0.00     0.074 A 
ATOM     55  C   UNL A   1      42.038  30.994  29.236  1.00  0.00     0.029 A 
ATOM     56  N   UNL A   1      43.565  29.631  28.368  1.00  0.00    -0.354 N 
ATOM     57  N   UNL A   1      46.254  28.894  27.463  1.00  0.00    -0.248 NA
ATOM     58  C   UNL A   1      48.442  29.486  26.907  1.00  0.00     0.031 C 
ATOM     59  C   UNL A   1      43.219  31.717  29.048  1.00  0.00     0.029 A 
ATOM     60  C   UNL A   1      44.179  30.864  28.530  1.00  0.00     0.049 A 
ATOM     61  H   UNL A   1      44.003  28.823  28.014  1.00  0.00     0.167 HD
ATOM     62  C   UNL A   1      46.443  30.242  27.733  1.00  0.00     0.074 A 
ATOM     63  C   UNL A   1      47.822  30.543  27.411  1.00  0.00     0.031 C 
ATOM     64  C   UNL A   1      45.554  31.149  28.205  1.00  0.00     0.037 A 
BRANCH  51  65
ATOM     65  C   UNL A   1      39.874  28.899  29.093  1.00  0.00     0.064 A 
ATOM     66  C   UNL A   1      38.918  29.312  28.153  1.00  0.00     0.173 A 
ATOM     67  C   UNL A   1      39.444  28.686  30.413  1.00  0.00     0.173 A 
ATOM     68  F   UNL A   1      39.277  29.538  26.880  1.00  0.00    -0.203 F 
ATOM     69  C   UNL A   1      37.592  29.521  28.521  1.00  0.00     0.198 A 
ATOM     70  C   UNL A   1      38.111  28.865  30.771  1.00  0.00     0.198 A 
ATOM     71  F   UNL A   1      40.314  28.283  31.351  1.00  0.00    -0.203 F 
ATOM     72  F   UNL A   1      36.705  29.951  27.614  1.00  0.00    -0.200 F 
ATOM     73  C   UNL A   1      37.187  29.287  29.828  1.00  0.00     0.200 A 
ATOM     74  F   UNL A   1      37.718  28.623  32.029  1.00  0.00    -0.200 F 
ATOM     75  F   UNL A   1      35.906  29.472  30.177  1.00  0.00    -0.200 F 
ENDBRANCH  51  65
BRANCH  52  76
ATOM     76  C   UNL A   1      49.151  26.771  26.068  1.00  0.00     0.064 A 
ATOM     77  C   UNL A   1      49.499  27.016  24.732  1.00  0.00     0.173 A 
ATOM     78  C   UNL A   1      50.134  26.225  26.907  1.00  0.00     0.173 A 
ATOM     79  F   UNL A   1      48.588  27.517  23.885  1.00  0.00    -0.203 F 
ATOM     80  C   UNL A   1      50.765  26.696  24.247  1.00  0.00     0.198 A 
ATOM     81  C   UNL A   1      51.412  25.939  26.429  1.00  0.00     0.198 A 
ATOM     82  F   UNL A   1      49.857  25.975  28.195  1.00  0.00    -0.203 F 
ATOM     83  F   UNL A   1      51.051  26.886  22.952  1.00  0.00    -0.200 F 
ATOM     84  C   UNL A   1      51.723  26.164  25.097  1.00  0.00     0.200 A 
ATOM     85  F   UNL A   1      52.338  25.440  27.258  1.00  0.00    -0.200 F 
ATOM     86  F   UNL A   1      52.941  25.859  24.631  1.00  0.00    -0.200 F 
ENDBRANCH  52  76
BRANCH  64  87
ATOM     87  C   UNL A   1      46.050  32.551  28.424  1.00  0.00     0.064 A 
ATOM     88  C   UNL A   1      46.626  32.946  29.640  1.00  0.00     0.173 A 
ATOM     89  C   UNL A   1      45.979  33.499  27.392  1.00  0.00     0.173 A 
ATOM     90  F   UNL A   1      46.703  32.082  30.664  1.00  0.00    -0.203 F 
ATOM     91  C   UNL A   1      47.086  34.247  29.824  1.00  0.00     0.198 A 
ATOM     92  C   UNL A   1      46.473  34.789  27.569  1.00  0.00     0.198 A 
ATOM     93  F   UNL A   1      45.443  33.171  26.207  1.00  0.00    -0.203 F 
ATOM     94  F   UNL A   1      47.584  34.618  31.013  1.00  0.00    -0.200 F 
ATOM     95  C   UNL A   1      47.018  35.164  28.786  1.00  0.00     0.200 A 
ATOM     96  F   UNL A   1      46.420  35.669  26.559  1.00  0.00    -0.200 F 
ATOM     97  F   UNL A   1      47.469  36.414  28.962  1.00  0.00    -0.200 F 
ENDBRANCH  64  87
ENDBRANCH  38  39
ENDBRANCH  30  33
ENDBRANCH  28  29
ENDBRANCH  27  28
ENDBRANCH  26  27
ENDBRANCH  25  26
ENDBRANCH   1  25
TORSDOF 17
ENDMDL
