MODEL 1
REMARK VINA RESULT:     -12.7      0.000      0.000
REMARK SMILES Cc1ccc(C(=O)C[C@@H](C(=O)NCCCCCCNC(=O)c2ccc(-c3c4nc(c(-c5c(F)c(F)c(F)c(F)c5F)c5ccc([nH]5)c(-c5c(F)c(F)c(F)c(F)c5F)c5nc(c(-c6c(F)c(F)c(F)c(F)c6F)c6ccc3[nH]6)C=C5)C=C4)cc2)[NH+]2CC[NH+](Cc3ccccc3)CC2)cc1
REMARK SMILES IDX 15 1 14 2 13 3 12 4 10 5 11 6 9 8 8 9 6 10 7 11 5 12 1 13
REMARK SMILES IDX 2 14 3 15 99 16 4 17 98 18 85 19 86 20 97 21 87 23 96 24
REMARK SMILES IDX 88 25 89 27 90 28 91 29 95 30 92 31 94 32 93 33 16 34 17 35
REMARK SMILES IDX 18 36 19 37 20 38 21 40 22 41 23 42 84 43 24 44 83 45 25 46
REMARK SMILES IDX 26 47 27 48 77 49 28 50 82 51 76 52 78 53 29 54 81 55 75 56
REMARK SMILES IDX 74 57 30 59 62 60 42 61 61 62 43 63 46 64 60 65 79 66 44 67
REMARK SMILES IDX 45 68 59 70 80 71 47 72 31 73 32 74 40 75 33 76 34 77 38 78
REMARK SMILES IDX 41 79 35 80 36 81 39 82 37 83 63 84 64 85 72 86 65 87 66 88
REMARK SMILES IDX 70 89 73 90 67 91 68 92 71 93 69 94 48 95 49 96 57 97 50 98
REMARK SMILES IDX 51 99 55 100 58 101 52 102 53 103 56 104 54 105
REMARK H PARENT 12 7 85 22 88 26 19 39 78 58 46 69
REMARK Flexibility Score: inf
ROOT
ATOM      1  C   UNL A   1      31.788  29.083  25.919  1.00  0.00     0.002 C 
ENDROOT
BRANCH   1   2
ATOM      2  C   UNL A   1      31.043  27.802  26.325  1.00  0.00     0.021 C 
BRANCH   2   3
ATOM      3  C   UNL A   1      31.942  26.754  26.974  1.00  0.00     0.116 C 
BRANCH   3   4
ATOM      4  N   UNL A   1      31.407  25.429  26.738  1.00  0.00    -0.351 N 
ATOM      5  C   UNL A   1      31.312  24.745  25.561  1.00  0.00     0.278 C 
ATOM      6  O   UNL A   1      30.502  23.813  25.518  1.00  0.00    -0.268 OA
ATOM      7  H   UNL A   1      31.068  24.957  27.533  1.00  0.00     0.163 HD
BRANCH   5   8
ATOM      8  C   UNL A   1      32.271  25.060  24.379  1.00  0.00     0.282 C 
BRANCH   8   9
ATOM      9  C   UNL A   1      31.608  24.802  23.012  1.00  0.00     0.156 C 
BRANCH   9  10
ATOM     10  C   UNL A   1      31.537  26.079  22.181  1.00  0.00     0.169 C 
ATOM     11  O   UNL A   1      32.253  26.227  21.189  1.00  0.00    -0.294 OA
BRANCH  10  12
ATOM     12  C   UNL A   1      30.709  27.231  22.649  1.00  0.00     0.018 A 
ATOM     13  C   UNL A   1      27.725  30.304  22.849  1.00  0.00     0.044 C 
ATOM     14  C   UNL A   1      28.799  29.262  22.909  1.00  0.00    -0.051 A 
ATOM     15  C   UNL A   1      28.515  27.970  23.365  1.00  0.00     0.004 A 
ATOM     16  C   UNL A   1      30.093  29.559  22.476  1.00  0.00     0.004 A 
ATOM     17  C   UNL A   1      29.469  26.958  23.242  1.00  0.00     0.012 A 
ATOM     18  C   UNL A   1      31.049  28.552  22.362  1.00  0.00     0.012 A 
ENDBRANCH  10  12
ENDBRANCH   9  10
ENDBRANCH   8   9
BRANCH   8  19
ATOM     19  N   UNL A   1      33.504  24.222  24.506  1.00  0.00    -0.315 N 
ATOM     20  C   UNL A   1      33.889  23.572  23.245  1.00  0.00     0.325 C 
ATOM     21  C   UNL A   1      34.640  24.861  25.198  1.00  0.00     0.325 C 
ATOM     22  H   UNL A   1      33.225  23.477  25.145  1.00  0.00     0.349 HD
ATOM     23  C   UNL A   1      35.397  23.317  23.044  1.00  0.00     0.324 C 
ATOM     24  C   UNL A   1      35.941  24.023  25.310  1.00  0.00     0.324 C 
ATOM     25  N   UNL A   1      36.168  23.046  24.251  1.00  0.00    -0.322 N 
ATOM     26  H   UNL A   1      37.132  23.204  23.960  1.00  0.00     0.348 HD
BRANCH  25  27
ATOM     27  C   UNL A   1      36.271  21.650  24.668  1.00  0.00     0.299 C 
BRANCH  27  28
ATOM     28  C   UNL A   1      37.568  21.101  25.234  1.00  0.00     0.006 A 
ATOM     29  C   UNL A   1      37.886  19.753  24.997  1.00  0.00     0.009 A 
ATOM     30  C   UNL A   1      38.540  21.890  25.865  1.00  0.00     0.009 A 
ATOM     31  C   UNL A   1      39.107  19.211  25.413  1.00  0.00     0.001 A 
ATOM     32  C   UNL A   1      39.749  21.347  26.307  1.00  0.00     0.001 A 
ATOM     33  C   UNL A   1      40.034  20.006  26.080  1.00  0.00     0.000 A 
ENDBRANCH  27  28
ENDBRANCH  25  27
ENDBRANCH   8  19
ENDBRANCH   5   8
ENDBRANCH   3   4
ENDBRANCH   2   3
ENDBRANCH   1   2
BRANCH   1  34
ATOM     34  C   UNL A   1      33.241  28.878  25.473  1.00  0.00     0.002 C 
BRANCH  34  35
ATOM     35  C   UNL A   1      34.298  29.344  26.476  1.00  0.00     0.021 C 
BRANCH  35  36
ATOM     36  C   UNL A   1      33.738  29.820  27.811  1.00  0.00     0.116 C 
BRANCH  36  37
ATOM     37  N   UNL A   1      34.442  30.962  28.364  1.00  0.00    -0.352 N 
ATOM     38  C   UNL A   1      35.703  31.067  28.904  1.00  0.00     0.251 C 
ATOM     39  H   UNL A   1      33.931  31.804  28.352  1.00  0.00     0.163 HD
ATOM     40  O   UNL A   1      36.008  32.117  29.473  1.00  0.00    -0.269 OA
BRANCH  38  41
ATOM     41  C   UNL A   1      36.744  30.019  28.709  1.00  0.00     0.039 A 
ATOM     42  C   UNL A   1      36.977  29.129  29.774  1.00  0.00     0.014 A 
ATOM     43  C   UNL A   1      37.579  29.968  27.596  1.00  0.00     0.014 A 
ATOM     44  C   UNL A   1      38.140  28.360  29.809  1.00  0.00     0.010 A 
ATOM     45  C   UNL A   1      38.767  29.267  27.658  1.00  0.00     0.010 A 
ATOM     46  C   UNL A   1      39.075  28.517  28.791  1.00  0.00    -0.014 A 
BRANCH  46  47
ATOM     47  C   UNL A   1      40.448  28.043  28.866  1.00  0.00     0.031 A 
ATOM     48  C   UNL A   1      40.834  26.719  28.355  1.00  0.00     0.074 A 
ATOM     49  C   UNL A   1      41.402  28.906  29.276  1.00  0.00     0.049 A 
ATOM     50  N   UNL A   1      41.889  26.088  28.748  1.00  0.00    -0.248 NA
ATOM     51  C   UNL A   1      40.051  25.990  27.362  1.00  0.00     0.031 C 
ATOM     52  C   UNL A   1      42.848  28.774  29.124  1.00  0.00     0.029 A 
ATOM     53  N   UNL A   1      41.239  30.026  30.105  1.00  0.00    -0.354 N 
ATOM     54  C   UNL A   1      42.077  25.039  27.888  1.00  0.00     0.074 A 
ATOM     55  C   UNL A   1      40.871  24.967  27.092  1.00  0.00     0.031 C 
ATOM     56  C   UNL A   1      43.448  29.551  30.040  1.00  0.00     0.029 A 
ATOM     57  C   UNL A   1      42.404  30.069  30.907  1.00  0.00     0.049 A 
ATOM     58  H   UNL A   1      40.477  30.650  30.125  1.00  0.00     0.167 HD
ATOM     59  C   UNL A   1      43.289  24.420  27.828  1.00  0.00     0.037 A 
ATOM     60  C   UNL A   1      42.325  29.874  32.256  1.00  0.00     0.037 A 
ATOM     61  C   UNL A   1      44.262  25.000  28.745  1.00  0.00     0.049 A 
ATOM     62  C   UNL A   1      43.129  28.703  32.775  1.00  0.00     0.074 A 
ATOM     63  C   UNL A   1      45.313  25.892  28.600  1.00  0.00     0.029 A 
ATOM     64  N   UNL A   1      44.029  24.915  30.107  1.00  0.00    -0.354 N 
ATOM     65  N   UNL A   1      43.727  27.825  32.021  1.00  0.00    -0.248 NA
ATOM     66  C   UNL A   1      43.217  28.369  34.196  1.00  0.00     0.031 C 
ATOM     67  C   UNL A   1      45.730  26.312  29.893  1.00  0.00     0.029 A 
ATOM     68  C   UNL A   1      44.930  25.677  30.824  1.00  0.00     0.049 A 
ATOM     69  H   UNL A   1      43.311  24.379  30.513  1.00  0.00     0.167 HD
ATOM     70  C   UNL A   1      44.214  26.812  32.802  1.00  0.00     0.074 A 
ATOM     71  C   UNL A   1      43.864  27.193  34.158  1.00  0.00     0.031 C 
ATOM     72  C   UNL A   1      44.828  25.714  32.272  1.00  0.00     0.037 A 
BRANCH  59  73
ATOM     73  C   UNL A   1      43.621  23.451  26.728  1.00  0.00     0.064 A 
ATOM     74  C   UNL A   1      43.293  22.086  26.828  1.00  0.00     0.173 A 
ATOM     75  C   UNL A   1      44.314  23.827  25.563  1.00  0.00     0.173 A 
ATOM     76  F   UNL A   1      42.574  21.612  27.851  1.00  0.00    -0.203 F 
ATOM     77  C   UNL A   1      43.719  21.151  25.883  1.00  0.00     0.198 A 
ATOM     78  C   UNL A   1      44.784  22.884  24.645  1.00  0.00     0.198 A 
ATOM     79  F   UNL A   1      44.554  25.119  25.293  1.00  0.00    -0.203 F 
ATOM     80  F   UNL A   1      43.391  19.859  26.035  1.00  0.00    -0.200 F 
ATOM     81  C   UNL A   1      44.495  21.543  24.812  1.00  0.00     0.200 A 
ATOM     82  F   UNL A   1      45.536  23.280  23.607  1.00  0.00    -0.200 F 
ATOM     83  F   UNL A   1      44.955  20.635  23.941  1.00  0.00    -0.200 F 
ENDBRANCH  59  73
BRANCH  60  84
ATOM     84  C   UNL A   1      41.020  30.309  32.827  1.00  0.00     0.064 A 
ATOM     85  C   UNL A   1      40.738  31.686  32.895  1.00  0.00     0.173 A 
ATOM     86  C   UNL A   1      39.943  29.422  32.934  1.00  0.00     0.173 A 
ATOM     87  F   UNL A   1      41.740  32.576  32.824  1.00  0.00    -0.203 F 
ATOM     88  C   UNL A   1      39.428  32.156  32.918  1.00  0.00     0.198 A 
ATOM     89  C   UNL A   1      38.632  29.897  32.995  1.00  0.00     0.198 A 
ATOM     90  F   UNL A   1      40.143  28.098  32.869  1.00  0.00    -0.203 F 
ATOM     91  F   UNL A   1      39.189  33.473  32.840  1.00  0.00    -0.200 F 
ATOM     92  C   UNL A   1      38.374  31.259  32.945  1.00  0.00     0.200 A 
ATOM     93  F   UNL A   1      37.612  29.026  33.008  1.00  0.00    -0.200 F 
ATOM     94  F   UNL A   1      37.111  31.702  32.889  1.00  0.00    -0.200 F 
ENDBRANCH  60  84
BRANCH  72  95
ATOM     95  C   UNL A   1      45.379  24.573  33.081  1.00  0.00     0.064 A 
ATOM     96  C   UNL A   1      44.634  23.423  33.382  1.00  0.00     0.173 A 
ATOM     97  C   UNL A   1      46.655  24.657  33.682  1.00  0.00     0.173 A 
ATOM     98  F   UNL A   1      43.375  23.284  32.944  1.00  0.00    -0.203 F 
ATOM     99  C   UNL A   1      45.158  22.396  34.171  1.00  0.00     0.198 A 
ATOM    100  C   UNL A   1      47.153  23.656  34.513  1.00  0.00     0.198 A 
ATOM    101  F   UNL A   1      47.468  25.699  33.466  1.00  0.00    -0.203 F 
ATOM    102  F   UNL A   1      44.436  21.287  34.381  1.00  0.00    -0.200 F 
ATOM    103  C   UNL A   1      46.412  22.515  34.742  1.00  0.00     0.200 A 
ATOM    104  F   UNL A   1      48.357  23.804  35.084  1.00  0.00    -0.200 F 
ATOM    105  F   UNL A   1      46.904  21.537  35.512  1.00  0.00    -0.200 F 
ENDBRANCH  72  95
ENDBRANCH  46  47
ENDBRANCH  38  41
ENDBRANCH  36  37
ENDBRANCH  35  36
ENDBRANCH  34  35
ENDBRANCH   1  34
TORSDOF 19
ENDMDL
MODEL 2
REMARK VINA RESULT:     -12.7      3.806     10.113
REMARK SMILES Cc1ccc(C(=O)C[C@@H](C(=O)NCCCCCCNC(=O)c2ccc(-c3c4nc(c(-c5c(F)c(F)c(F)c(F)c5F)c5ccc([nH]5)c(-c5c(F)c(F)c(F)c(F)c5F)c5nc(c(-c6c(F)c(F)c(F)c(F)c6F)c6ccc3[nH]6)C=C5)C=C4)cc2)[NH+]2CC[NH+](Cc3ccccc3)CC2)cc1
REMARK SMILES IDX 15 1 14 2 13 3 12 4 10 5 11 6 9 8 8 9 6 10 7 11 5 12 1 13
REMARK SMILES IDX 2 14 3 15 99 16 4 17 98 18 85 19 86 20 97 21 87 23 96 24
REMARK SMILES IDX 88 25 89 27 90 28 91 29 95 30 92 31 94 32 93 33 16 34 17 35
REMARK SMILES IDX 18 36 19 37 20 38 21 40 22 41 23 42 84 43 24 44 83 45 25 46
REMARK SMILES IDX 26 47 27 48 77 49 28 50 82 51 76 52 78 53 29 54 81 55 75 56
REMARK SMILES IDX 74 57 30 59 62 60 42 61 61 62 43 63 46 64 60 65 79 66 44 67
REMARK SMILES IDX 45 68 59 70 80 71 47 72 31 73 32 74 40 75 33 76 34 77 38 78
REMARK SMILES IDX 41 79 35 80 36 81 39 82 37 83 63 84 64 85 72 86 65 87 66 88
REMARK SMILES IDX 70 89 73 90 67 91 68 92 71 93 69 94 48 95 49 96 57 97 50 98
REMARK SMILES IDX 51 99 55 100 58 101 52 102 53 103 56 104 54 105
REMARK H PARENT 12 7 85 22 88 26 19 39 78 58 46 69
REMARK Flexibility Score: inf
ROOT
ATOM      1  C   UNL A   1      36.013  23.626  26.238  1.00  0.00     0.002 C 
ENDROOT
BRANCH   1   2
ATOM      2  C   UNL A   1      34.757  22.799  26.548  1.00  0.00     0.021 C 
BRANCH   2   3
ATOM      3  C   UNL A   1      33.479  23.630  26.609  1.00  0.00     0.116 C 
BRANCH   3   4
ATOM      4  N   UNL A   1      32.323  22.759  26.674  1.00  0.00    -0.351 N 
ATOM      5  C   UNL A   1      31.292  22.644  25.788  1.00  0.00     0.278 C 
ATOM      6  O   UNL A   1      30.248  22.133  26.207  1.00  0.00    -0.268 OA
ATOM      7  H   UNL A   1      32.276  22.169  27.461  1.00  0.00     0.163 HD
BRANCH   5   8
ATOM      8  C   UNL A   1      31.480  23.032  24.295  1.00  0.00     0.282 C 
BRANCH   8   9
ATOM      9  C   UNL A   1      32.719  22.359  23.674  1.00  0.00     0.156 C 
BRANCH   9  10
ATOM     10  C   UNL A   1      32.359  21.022  23.033  1.00  0.00     0.169 C 
ATOM     11  O   UNL A   1      31.663  20.977  22.017  1.00  0.00    -0.294 OA
BRANCH  10  12
ATOM     12  C   UNL A   1      32.720  19.743  23.716  1.00  0.00     0.018 A 
ATOM     13  C   UNL A   1      32.445  15.951  25.697  1.00  0.00     0.044 C 
ATOM     14  C   UNL A   1      32.676  17.255  24.998  1.00  0.00    -0.051 A 
ATOM     15  C   UNL A   1      32.688  17.324  23.601  1.00  0.00     0.004 A 
ATOM     16  C   UNL A   1      32.849  18.427  25.737  1.00  0.00     0.004 A 
ATOM     17  C   UNL A   1      32.716  18.564  22.961  1.00  0.00     0.012 A 
ATOM     18  C   UNL A   1      32.887  19.665  25.098  1.00  0.00     0.012 A 
ENDBRANCH  10  12
ENDBRANCH   9  10
ENDBRANCH   8   9
BRANCH   8  19
ATOM     19  N   UNL A   1      31.608  24.520  24.183  1.00  0.00    -0.315 N 
ATOM     20  C   UNL A   1      31.952  24.965  22.826  1.00  0.00     0.325 C 
ATOM     21  C   UNL A   1      30.511  25.300  24.789  1.00  0.00     0.325 C 
ATOM     22  H   UNL A   1      32.410  24.737  24.774  1.00  0.00     0.349 HD
ATOM     23  C   UNL A   1      31.429  26.357  22.414  1.00  0.00     0.324 C 
ATOM     24  C   UNL A   1      30.605  26.843  24.654  1.00  0.00     0.324 C 
ATOM     25  N   UNL A   1      31.318  27.342  23.482  1.00  0.00    -0.322 N 
ATOM     26  H   UNL A   1      30.699  28.052  23.090  1.00  0.00     0.348 HD
BRANCH  25  27
ATOM     27  C   UNL A   1      32.493  28.169  23.742  1.00  0.00     0.299 C 
BRANCH  27  28
ATOM     28  C   UNL A   1      32.601  28.989  25.015  1.00  0.00     0.006 A 
ATOM     29  C   UNL A   1      33.746  28.836  25.816  1.00  0.00     0.009 A 
ATOM     30  C   UNL A   1      31.693  29.993  25.376  1.00  0.00     0.009 A 
ATOM     31  C   UNL A   1      33.947  29.627  26.952  1.00  0.00     0.001 A 
ATOM     32  C   UNL A   1      31.876  30.767  26.525  1.00  0.00     0.001 A 
ATOM     33  C   UNL A   1      33.005  30.585  27.313  1.00  0.00     0.000 A 
ENDBRANCH  27  28
ENDBRANCH  25  27
ENDBRANCH   8  19
ENDBRANCH   5   8
ENDBRANCH   3   4
ENDBRANCH   2   3
ENDBRANCH   1   2
BRANCH   1  34
ATOM     34  C   UNL A   1      36.728  23.260  24.932  1.00  0.00     0.002 C 
BRANCH  34  35
ATOM     35  C   UNL A   1      37.956  22.363  25.096  1.00  0.00     0.021 C 
BRANCH  35  36
ATOM     36  C   UNL A   1      38.626  22.449  26.462  1.00  0.00     0.116 C 
BRANCH  36  37
ATOM     37  N   UNL A   1      40.060  22.659  26.395  1.00  0.00    -0.352 N 
ATOM     38  C   UNL A   1      40.803  23.816  26.442  1.00  0.00     0.251 C 
ATOM     39  H   UNL A   1      40.590  21.835  26.301  1.00  0.00     0.163 HD
ATOM     40  O   UNL A   1      42.007  23.745  26.186  1.00  0.00    -0.269 OA
BRANCH  38  41
ATOM     41  C   UNL A   1      40.237  25.109  26.917  1.00  0.00     0.039 A 
ATOM     42  C   UNL A   1      40.577  26.270  26.198  1.00  0.00     0.014 A 
ATOM     43  C   UNL A   1      39.515  25.240  28.100  1.00  0.00     0.014 A 
ATOM     44  C   UNL A   1      40.381  27.531  26.761  1.00  0.00     0.010 A 
ATOM     45  C   UNL A   1      39.386  26.479  28.696  1.00  0.00     0.010 A 
ATOM     46  C   UNL A   1      39.878  27.614  28.054  1.00  0.00    -0.014 A 
BRANCH  46  47
ATOM     47  C   UNL A   1      39.932  28.813  28.875  1.00  0.00     0.031 A 
ATOM     48  C   UNL A   1      38.886  29.845  28.800  1.00  0.00     0.074 A 
ATOM     49  C   UNL A   1      40.887  28.897  29.826  1.00  0.00     0.049 A 
ATOM     50  N   UNL A   1      39.072  31.070  29.163  1.00  0.00    -0.248 NA
ATOM     51  C   UNL A   1      37.542  29.581  28.297  1.00  0.00     0.031 C 
ATOM     52  C   UNL A   1      40.940  29.818  30.957  1.00  0.00     0.029 A 
ATOM     53  N   UNL A   1      42.133  28.251  29.842  1.00  0.00    -0.354 N 
ATOM     54  C   UNL A   1      37.841  31.669  29.212  1.00  0.00     0.074 A 
ATOM     55  C   UNL A   1      36.929  30.733  28.590  1.00  0.00     0.031 C 
ATOM     56  C   UNL A   1      42.213  29.913  31.373  1.00  0.00     0.029 A 
ATOM     57  C   UNL A   1      43.028  29.185  30.416  1.00  0.00     0.049 A 
ATOM     58  H   UNL A   1      42.339  27.343  29.523  1.00  0.00     0.167 HD
ATOM     59  C   UNL A   1      37.680  32.833  29.900  1.00  0.00     0.037 A 
ATOM     60  C   UNL A   1      44.045  29.715  29.676  1.00  0.00     0.037 A 
ATOM     61  C   UNL A   1      38.917  33.297  30.517  1.00  0.00     0.049 A 
ATOM     62  C   UNL A   1      44.014  31.222  29.544  1.00  0.00     0.074 A 
ATOM     63  C   UNL A   1      39.437  33.237  31.800  1.00  0.00     0.029 A 
ATOM     64  N   UNL A   1      39.975  33.658  29.701  1.00  0.00    -0.354 N 
ATOM     65  N   UNL A   1      43.031  31.978  29.942  1.00  0.00    -0.248 NA
ATOM     66  C   UNL A   1      45.049  31.977  28.839  1.00  0.00     0.031 C 
ATOM     67  C   UNL A   1      40.811  33.603  31.747  1.00  0.00     0.029 A 
ATOM     68  C   UNL A   1      41.125  33.881  30.431  1.00  0.00     0.049 A 
ATOM     69  H   UNL A   1      39.915  33.745  28.722  1.00  0.00     0.167 HD
ATOM     70  C   UNL A   1      43.247  33.262  29.521  1.00  0.00     0.074 A 
ATOM     71  C   UNL A   1      44.520  33.212  28.827  1.00  0.00     0.031 C 
ATOM     72  C   UNL A   1      42.341  34.261  29.734  1.00  0.00     0.037 A 
BRANCH  59  73
ATOM     73  C   UNL A   1      36.314  33.383  30.202  1.00  0.00     0.064 A 
ATOM     74  C   UNL A   1      35.510  33.945  29.193  1.00  0.00     0.173 A 
ATOM     75  C   UNL A   1      35.775  33.416  31.501  1.00  0.00     0.173 A 
ATOM     76  F   UNL A   1      35.876  33.913  27.907  1.00  0.00    -0.203 F 
ATOM     77  C   UNL A   1      34.303  34.586  29.480  1.00  0.00     0.198 A 
ATOM     78  C   UNL A   1      34.593  34.103  31.794  1.00  0.00     0.198 A 
ATOM     79  F   UNL A   1      36.386  32.786  32.516  1.00  0.00    -0.203 F 
ATOM     80  F   UNL A   1      33.583  35.119  28.482  1.00  0.00    -0.200 F 
ATOM     81  C   UNL A   1      33.863  34.697  30.783  1.00  0.00     0.200 A 
ATOM     82  F   UNL A   1      34.176  34.201  33.065  1.00  0.00    -0.200 F 
ATOM     83  F   UNL A   1      32.737  35.368  31.062  1.00  0.00    -0.200 F 
ENDBRANCH  59  73
BRANCH  60  84
ATOM     84  C   UNL A   1      44.524  28.794  28.608  1.00  0.00     0.064 A 
ATOM     85  C   UNL A   1      45.289  27.672  28.977  1.00  0.00     0.173 A 
ATOM     86  C   UNL A   1      43.935  28.786  27.339  1.00  0.00     0.173 A 
ATOM     87  F   UNL A   1      45.895  27.643  30.174  1.00  0.00    -0.203 F 
ATOM     88  C   UNL A   1      45.338  26.535  28.175  1.00  0.00     0.198 A 
ATOM     89  C   UNL A   1      44.018  27.658  26.521  1.00  0.00     0.198 A 
ATOM     90  F   UNL A   1      43.188  29.821  26.929  1.00  0.00    -0.203 F 
ATOM     91  F   UNL A   1      45.958  25.432  28.619  1.00  0.00    -0.200 F 
ATOM     92  C   UNL A   1      44.683  26.521  26.957  1.00  0.00     0.200 A 
ATOM     93  F   UNL A   1      43.372  27.642  25.346  1.00  0.00    -0.200 F 
ATOM     94  F   UNL A   1      44.661  25.405  26.217  1.00  0.00    -0.200 F 
ENDBRANCH  60  84
BRANCH  72  95
ATOM     95  C   UNL A   1      42.525  35.686  29.292  1.00  0.00     0.064 A 
ATOM     96  C   UNL A   1      41.988  36.189  28.098  1.00  0.00     0.173 A 
ATOM     97  C   UNL A   1      43.357  36.570  30.015  1.00  0.00     0.173 A 
ATOM     98  F   UNL A   1      41.263  35.407  27.286  1.00  0.00    -0.203 F 
ATOM     99  C   UNL A   1      42.209  37.507  27.692  1.00  0.00     0.198 A 
ATOM    100  C   UNL A   1      43.622  37.867  29.580  1.00  0.00     0.198 A 
ATOM    101  F   UNL A   1      43.924  36.214  31.176  1.00  0.00    -0.203 F 
ATOM    102  F   UNL A   1      41.624  37.965  26.577  1.00  0.00    -0.200 F 
ATOM    103  C   UNL A   1      43.031  38.343  28.428  1.00  0.00     0.200 A 
ATOM    104  F   UNL A   1      44.447  38.651  30.288  1.00  0.00    -0.200 F 
ATOM    105  F   UNL A   1      43.256  39.600  28.026  1.00  0.00    -0.200 F 
ENDBRANCH  72  95
ENDBRANCH  46  47
ENDBRANCH  38  41
ENDBRANCH  36  37
ENDBRANCH  35  36
ENDBRANCH  34  35
ENDBRANCH   1  34
TORSDOF 19
ENDMDL
MODEL 3
REMARK VINA RESULT:     -12.5      3.534     10.277
REMARK SMILES Cc1ccc(C(=O)C[C@@H](C(=O)NCCCCCCNC(=O)c2ccc(-c3c4nc(c(-c5c(F)c(F)c(F)c(F)c5F)c5ccc([nH]5)c(-c5c(F)c(F)c(F)c(F)c5F)c5nc(c(-c6c(F)c(F)c(F)c(F)c6F)c6ccc3[nH]6)C=C5)C=C4)cc2)[NH+]2CC[NH+](Cc3ccccc3)CC2)cc1
REMARK SMILES IDX 15 1 14 2 13 3 12 4 10 5 11 6 9 8 8 9 6 10 7 11 5 12 1 13
REMARK SMILES IDX 2 14 3 15 99 16 4 17 98 18 85 19 86 20 97 21 87 23 96 24
REMARK SMILES IDX 88 25 89 27 90 28 91 29 95 30 92 31 94 32 93 33 16 34 17 35
REMARK SMILES IDX 18 36 19 37 20 38 21 40 22 41 23 42 84 43 24 44 83 45 25 46
REMARK SMILES IDX 26 47 27 48 77 49 28 50 82 51 76 52 78 53 29 54 81 55 75 56
REMARK SMILES IDX 74 57 30 59 62 60 42 61 61 62 43 63 46 64 60 65 79 66 44 67
REMARK SMILES IDX 45 68 59 70 80 71 47 72 31 73 32 74 40 75 33 76 34 77 38 78
REMARK SMILES IDX 41 79 35 80 36 81 39 82 37 83 63 84 64 85 72 86 65 87 66 88
REMARK SMILES IDX 70 89 73 90 67 91 68 92 71 93 69 94 48 95 49 96 57 97 50 98
REMARK SMILES IDX 51 99 55 100 58 101 52 102 53 103 56 104 54 105
REMARK H PARENT 12 7 85 22 88 26 19 39 78 58 46 69
REMARK Flexibility Score: inf
ROOT
ATOM      1  C   UNL A   1      35.615  22.009  24.562  1.00  0.00     0.002 C 
ENDROOT
BRANCH   1   2
ATOM      2  C   UNL A   1      35.244  23.273  23.773  1.00  0.00     0.021 C 
BRANCH   2   3
ATOM      3  C   UNL A   1      33.972  23.124  22.945  1.00  0.00     0.116 C 
BRANCH   3   4
ATOM      4  N   UNL A   1      32.812  23.128  23.813  1.00  0.00    -0.351 N 
ATOM      5  C   UNL A   1      32.437  24.067  24.729  1.00  0.00     0.278 C 
ATOM      6  O   UNL A   1      31.646  23.707  25.607  1.00  0.00    -0.268 OA
ATOM      7  H   UNL A   1      32.214  22.350  23.731  1.00  0.00     0.163 HD
BRANCH   5   8
ATOM      8  C   UNL A   1      32.898  25.544  24.588  1.00  0.00     0.282 C 
BRANCH   8   9
ATOM      9  C   UNL A   1      33.563  26.068  25.876  1.00  0.00     0.156 C 
BRANCH   9  10
ATOM     10  C   UNL A   1      32.645  27.034  26.618  1.00  0.00     0.169 C 
ATOM     11  O   UNL A   1      31.573  26.651  27.088  1.00  0.00    -0.294 OA
BRANCH  10  12
ATOM     12  C   UNL A   1      32.964  28.493  26.651  1.00  0.00     0.018 A 
ATOM     13  C   UNL A   1      33.609  32.505  28.020  1.00  0.00     0.044 C 
ATOM     14  C   UNL A   1      33.435  31.143  27.421  1.00  0.00    -0.051 A 
ATOM     15  C   UNL A   1      34.470  30.204  27.473  1.00  0.00     0.004 A 
ATOM     16  C   UNL A   1      32.221  30.784  26.833  1.00  0.00     0.004 A 
ATOM     17  C   UNL A   1      34.238  28.884  27.083  1.00  0.00     0.012 A 
ATOM     18  C   UNL A   1      31.992  29.468  26.434  1.00  0.00     0.012 A 
ENDBRANCH  10  12
ENDBRANCH   9  10
ENDBRANCH   8   9
BRANCH   8  19
ATOM     19  N   UNL A   1      31.719  26.400  24.247  1.00  0.00    -0.315 N 
ATOM     20  C   UNL A   1      32.028  27.433  23.248  1.00  0.00     0.325 C 
ATOM     21  C   UNL A   1      30.466  25.674  23.961  1.00  0.00     0.325 C 
ATOM     22  H   UNL A   1      31.516  26.889  25.119  1.00  0.00     0.349 HD
ATOM     23  C   UNL A   1      30.866  27.858  22.327  1.00  0.00     0.324 C 
ATOM     24  C   UNL A   1      29.239  26.540  23.571  1.00  0.00     0.324 C 
ATOM     25  N   UNL A   1      29.532  27.808  22.914  1.00  0.00    -0.322 N 
ATOM     26  H   UNL A   1      28.913  27.826  22.103  1.00  0.00     0.348 HD
BRANCH  25  27
ATOM     27  C   UNL A   1      29.066  29.014  23.594  1.00  0.00     0.299 C 
BRANCH  27  28
ATOM     28  C   UNL A   1      28.790  30.288  22.816  1.00  0.00     0.006 A 
ATOM     29  C   UNL A   1      28.296  30.180  21.505  1.00  0.00     0.009 A 
ATOM     30  C   UNL A   1      28.868  31.573  23.370  1.00  0.00     0.009 A 
ATOM     31  C   UNL A   1      27.936  31.314  20.769  1.00  0.00     0.001 A 
ATOM     32  C   UNL A   1      28.536  32.711  22.630  1.00  0.00     0.001 A 
ATOM     33  C   UNL A   1      28.068  32.581  21.328  1.00  0.00     0.000 A 
ENDBRANCH  27  28
ENDBRANCH  25  27
ENDBRANCH   8  19
ENDBRANCH   5   8
ENDBRANCH   3   4
ENDBRANCH   2   3
ENDBRANCH   1   2
BRANCH   1  34
ATOM     34  C   UNL A   1      37.118  21.744  24.701  1.00  0.00     0.002 C 
BRANCH  34  35
ATOM     35  C   UNL A   1      37.922  22.887  25.325  1.00  0.00     0.021 C 
BRANCH  35  36
ATOM     36  C   UNL A   1      38.800  22.476  26.500  1.00  0.00     0.116 C 
BRANCH  36  37
ATOM     37  N   UNL A   1      40.216  22.706  26.278  1.00  0.00    -0.352 N 
ATOM     38  C   UNL A   1      40.956  23.866  26.321  1.00  0.00     0.251 C 
ATOM     39  H   UNL A   1      40.733  21.898  26.061  1.00  0.00     0.163 HD
ATOM     40  O   UNL A   1      42.120  23.828  25.918  1.00  0.00    -0.269 OA
BRANCH  38  41
ATOM     41  C   UNL A   1      40.447  25.114  26.954  1.00  0.00     0.039 A 
ATOM     42  C   UNL A   1      40.580  26.312  26.227  1.00  0.00     0.014 A 
ATOM     43  C   UNL A   1      39.984  25.173  28.266  1.00  0.00     0.014 A 
ATOM     44  C   UNL A   1      40.453  27.544  26.868  1.00  0.00     0.010 A 
ATOM     45  C   UNL A   1      39.930  26.386  28.924  1.00  0.00     0.010 A 
ATOM     46  C   UNL A   1      40.228  27.563  28.240  1.00  0.00    -0.014 A 
BRANCH  46  47
ATOM     47  C   UNL A   1      40.402  28.738  29.078  1.00  0.00     0.031 A 
ATOM     48  C   UNL A   1      39.321  29.719  29.263  1.00  0.00     0.074 A 
ATOM     49  C   UNL A   1      41.530  28.840  29.814  1.00  0.00     0.049 A 
ATOM     50  N   UNL A   1      39.527  30.940  29.628  1.00  0.00    -0.248 NA
ATOM     51  C   UNL A   1      37.914  29.404  29.039  1.00  0.00     0.031 C 
ATOM     52  C   UNL A   1      41.779  29.729  30.946  1.00  0.00     0.029 A 
ATOM     53  N   UNL A   1      42.778  28.257  29.546  1.00  0.00    -0.354 N 
ATOM     54  C   UNL A   1      38.309  31.475  29.954  1.00  0.00     0.074 A 
ATOM     55  C   UNL A   1      37.327  30.515  29.499  1.00  0.00     0.031 C 
ATOM     56  C   UNL A   1      43.106  29.873  31.092  1.00  0.00     0.029 A 
ATOM     57  C   UNL A   1      43.733  29.216  29.958  1.00  0.00     0.049 A 
ATOM     58  H   UNL A   1      42.951  27.369  29.155  1.00  0.00     0.167 HD
ATOM     59  C   UNL A   1      38.246  32.609  30.707  1.00  0.00     0.037 A 
ATOM     60  C   UNL A   1      44.549  29.818  29.046  1.00  0.00     0.037 A 
ATOM     61  C   UNL A   1      39.563  33.114  31.072  1.00  0.00     0.049 A 
ATOM     62  C   UNL A   1      44.429  31.324  28.983  1.00  0.00     0.074 A 
ATOM     63  C   UNL A   1      40.342  33.042  32.216  1.00  0.00     0.029 A 
ATOM     64  N   UNL A   1      40.412  33.552  30.070  1.00  0.00    -0.354 N 
ATOM     65  N   UNL A   1      43.519  32.019  29.606  1.00  0.00    -0.248 NA
ATOM     66  C   UNL A   1      45.261  32.151  28.109  1.00  0.00     0.031 C 
ATOM     67  C   UNL A   1      41.658  33.476  31.895  1.00  0.00     0.029 A 
ATOM     68  C   UNL A   1      41.679  33.810  30.555  1.00  0.00     0.049 A 
ATOM     69  H   UNL A   1      40.145  33.665  29.130  1.00  0.00     0.167 HD
ATOM     70  C   UNL A   1      43.588  33.324  29.200  1.00  0.00     0.074 A 
ATOM     71  C   UNL A   1      44.690  33.358  28.257  1.00  0.00     0.031 C 
ATOM     72  C   UNL A   1      42.705  34.269  29.637  1.00  0.00     0.037 A 
BRANCH  59  73
ATOM     73  C   UNL A   1      36.952  33.081  31.307  1.00  0.00     0.064 A 
ATOM     74  C   UNL A   1      36.021  33.821  30.555  1.00  0.00     0.173 A 
ATOM     75  C   UNL A   1      36.608  32.859  32.654  1.00  0.00     0.173 A 
ATOM     76  F   UNL A   1      36.194  34.040  29.247  1.00  0.00    -0.203 F 
ATOM     77  C   UNL A   1      34.884  34.387  31.134  1.00  0.00     0.198 A 
ATOM     78  C   UNL A   1      35.498  33.469  33.244  1.00  0.00     0.198 A 
ATOM     79  F   UNL A   1      37.348  32.049  33.427  1.00  0.00    -0.203 F 
ATOM     80  F   UNL A   1      34.037  35.097  30.374  1.00  0.00    -0.200 F 
ATOM     81  C   UNL A   1      34.641  34.242  32.485  1.00  0.00     0.200 A 
ATOM     82  F   UNL A   1      35.273  33.317  34.558  1.00  0.00    -0.200 F 
ATOM     83  F   UNL A   1      33.583  34.839  33.050  1.00  0.00    -0.200 F 
ENDBRANCH  59  73
BRANCH  60  84
ATOM     84  C   UNL A   1      44.833  28.954  27.866  1.00  0.00     0.064 A 
ATOM     85  C   UNL A   1      45.738  27.887  28.013  1.00  0.00     0.173 A 
ATOM     86  C   UNL A   1      43.971  28.924  26.764  1.00  0.00     0.173 A 
ATOM     87  F   UNL A   1      46.603  27.882  29.039  1.00  0.00    -0.203 F 
ATOM     88  C   UNL A   1      45.681  26.770  27.182  1.00  0.00     0.198 A 
ATOM     89  C   UNL A   1      43.942  27.821  25.911  1.00  0.00     0.198 A 
ATOM     90  F   UNL A   1      43.081  29.907  26.570  1.00  0.00    -0.203 F 
ATOM     91  F   UNL A   1      46.461  25.709  27.436  1.00  0.00    -0.200 F 
ATOM     92  C   UNL A   1      44.767  26.729  26.145  1.00  0.00     0.200 A 
ATOM     93  F   UNL A   1      43.048  27.777  24.914  1.00  0.00    -0.200 F 
ATOM     94  F   UNL A   1      44.653  25.627  25.391  1.00  0.00    -0.200 F 
ENDBRANCH  60  84
BRANCH  72  95
ATOM     95  C   UNL A   1      42.733  35.715  29.223  1.00  0.00     0.064 A 
ATOM     96  C   UNL A   1      42.159  36.177  28.030  1.00  0.00     0.173 A 
ATOM     97  C   UNL A   1      43.449  36.673  29.975  1.00  0.00     0.173 A 
ATOM     98  F   UNL A   1      41.540  35.334  27.191  1.00  0.00    -0.203 F 
ATOM     99  C   UNL A   1      42.236  37.520  27.651  1.00  0.00     0.198 A 
ATOM    100  C   UNL A   1      43.571  38.000  29.567  1.00  0.00     0.198 A 
ATOM    101  F   UNL A   1      44.035  36.361  31.139  1.00  0.00    -0.203 F 
ATOM    102  F   UNL A   1      41.619  37.930  26.534  1.00  0.00    -0.200 F 
ATOM    103  C   UNL A   1      42.947  38.428  28.414  1.00  0.00     0.200 A 
ATOM    104  F   UNL A   1      44.291  38.858  30.303  1.00  0.00    -0.200 F 
ATOM    105  F   UNL A   1      43.033  39.711  28.039  1.00  0.00    -0.200 F 
ENDBRANCH  72  95
ENDBRANCH  46  47
ENDBRANCH  38  41
ENDBRANCH  36  37
ENDBRANCH  35  36
ENDBRANCH  34  35
ENDBRANCH   1  34
TORSDOF 19
ENDMDL
