MODEL 1
REMARK VINA RESULT:     -12.4      0.000      0.000
REMARK SMILES Cc1cc(C)c2c(C(=O)NCCCCCCNC(=O)c3ccc(-c4c5nc(c(-c6c(F)c(F)c(F)c(F)c6F)c6ccc([nH]6)c(-c6c(F)c(F)c(F)c(F)c6F)c6nc(c(-c7c(F)c(F)c(F)c(F)c7F)c7ccc4[nH]7)C=C6)C=C5)cc3)cc(-c3ccco3)nc2c1
REMARK SMILES IDX 14 1 13 2 12 3 11 4 10 5 8 6 9 7 7 9 1 10 2 11 3 12 92 13
REMARK SMILES IDX 4 14 91 15 5 16 6 17 90 18 84 19 83 20 85 21 86 22 89 23
REMARK SMILES IDX 87 24 88 25 15 26 16 27 17 28 18 29 19 31 20 32 21 33 82 34
REMARK SMILES IDX 22 35 81 36 23 37 24 38 25 39 75 40 26 41 80 42 74 43 76 44
REMARK SMILES IDX 27 45 79 46 73 47 72 48 28 50 60 51 40 52 59 53 41 54 44 55
REMARK SMILES IDX 58 56 77 57 42 58 43 59 57 61 78 62 45 63 29 64 30 65 38 66
REMARK SMILES IDX 31 67 32 68 36 69 39 70 33 71 34 72 37 73 35 74 61 75 62 76
REMARK SMILES IDX 70 77 63 78 64 79 68 80 71 81 65 82 66 83 69 84 67 85 46 86
REMARK SMILES IDX 47 87 55 88 48 89 49 90 53 91 56 92 50 93 51 94 54 95 52 96
REMARK H PARENT 10 8 17 30 76 49 44 60
REMARK Flexibility Score: inf
ROOT
ATOM      1  C   UNL A   1      33.948  23.353  26.777  1.00  0.00     0.002 C 
ENDROOT
BRANCH   1   2
ATOM      2  C   UNL A   1      32.531  23.483  26.206  1.00  0.00     0.002 C 
BRANCH   2   3
ATOM      3  C   UNL A   1      31.595  24.527  26.830  1.00  0.00     0.021 C 
BRANCH   3   4
ATOM      4  C   UNL A   1      30.332  24.870  26.045  1.00  0.00     0.116 C 
BRANCH   4   5
ATOM      5  N   UNL A   1      30.413  24.641  24.614  1.00  0.00    -0.352 N 
ATOM      6  C   UNL A   1      30.773  25.489  23.587  1.00  0.00     0.252 C 
ATOM      7  O   UNL A   1      30.806  25.031  22.444  1.00  0.00    -0.269 OA
ATOM      8  H   UNL A   1      30.171  23.730  24.329  1.00  0.00     0.163 HD
BRANCH   6   9
ATOM      9  C   UNL A   1      31.013  26.953  23.778  1.00  0.00     0.051 A 
ATOM     10  C   UNL A   1      34.511  29.212  27.650  1.00  0.00     0.044 C 
ATOM     11  C   UNL A   1      33.735  28.668  26.490  1.00  0.00    -0.049 A 
ATOM     12  C   UNL A   1      34.132  27.499  25.852  1.00  0.00     0.007 A 
ATOM     13  C   UNL A   1      32.655  29.374  25.952  1.00  0.00     0.032 A 
ATOM     14  C   UNL A   1      33.353  26.951  24.822  1.00  0.00    -0.041 A 
ATOM     15  C   UNL A   1      31.855  28.849  24.947  1.00  0.00     0.072 A 
ATOM     16  C   UNL A   1      33.992  25.887  23.961  1.00  0.00     0.045 C 
ATOM     17  C   UNL A   1      32.086  27.532  24.506  1.00  0.00     0.016 A 
ATOM     18  N   UNL A   1      30.887  29.633  24.449  1.00  0.00    -0.244 NA
ATOM     19  C   UNL A   1      30.046  29.118  23.531  1.00  0.00     0.107 A 
ATOM     20  C   UNL A   1      30.013  27.772  23.239  1.00  0.00     0.046 A 
BRANCH  19  21
ATOM     21  C   UNL A   1      29.181  30.069  22.855  1.00  0.00     0.152 A 
ATOM     22  C   UNL A   1      28.380  31.117  23.263  1.00  0.00     0.052 A 
ATOM     23  O   UNL A   1      29.026  29.872  21.510  1.00  0.00    -0.463 OA
ATOM     24  C   UNL A   1      27.704  31.585  22.106  1.00  0.00     0.043 A 
ATOM     25  C   UNL A   1      28.127  30.789  21.068  1.00  0.00     0.196 A 
ENDBRANCH  19  21
ENDBRANCH   6   9
ENDBRANCH   4   5
ENDBRANCH   3   4
ENDBRANCH   2   3
ENDBRANCH   1   2
BRANCH   1  26
ATOM     26  C   UNL A   1      35.071  23.002  25.800  1.00  0.00     0.021 C 
BRANCH  26  27
ATOM     27  C   UNL A   1      36.435  23.617  26.090  1.00  0.00     0.116 C 
BRANCH  27  28
ATOM     28  N   UNL A   1      37.523  22.660  26.012  1.00  0.00    -0.352 N 
ATOM     29  C   UNL A   1      38.853  22.824  26.315  1.00  0.00     0.251 C 
ATOM     30  H   UNL A   1      37.271  21.761  25.696  1.00  0.00     0.163 HD
ATOM     31  O   UNL A   1      39.659  21.933  26.090  1.00  0.00    -0.269 OA
BRANCH  29  32
ATOM     32  C   UNL A   1      39.317  24.103  26.895  1.00  0.00     0.039 A 
ATOM     33  C   UNL A   1      39.974  25.015  26.066  1.00  0.00     0.014 A 
ATOM     34  C   UNL A   1      39.116  24.394  28.248  1.00  0.00     0.014 A 
ATOM     35  C   UNL A   1      40.389  26.244  26.582  1.00  0.00     0.010 A 
ATOM     36  C   UNL A   1      39.480  25.642  28.748  1.00  0.00     0.010 A 
ATOM     37  C   UNL A   1      40.129  26.572  27.922  1.00  0.00    -0.014 A 
BRANCH  37  38
ATOM     38  C   UNL A   1      40.583  27.863  28.489  1.00  0.00     0.031 A 
ATOM     39  C   UNL A   1      42.039  28.068  28.791  1.00  0.00     0.074 A 
ATOM     40  C   UNL A   1      39.689  28.835  28.752  1.00  0.00     0.049 A 
ATOM     41  N   UNL A   1      42.639  29.112  29.306  1.00  0.00    -0.248 NA
ATOM     42  C   UNL A   1      42.940  26.945  28.488  1.00  0.00     0.031 C 
ATOM     43  C   UNL A   1      38.249  28.743  28.515  1.00  0.00     0.029 A 
ATOM     44  N   UNL A   1      39.862  30.091  29.278  1.00  0.00    -0.354 N 
ATOM     45  C   UNL A   1      43.982  28.773  29.378  1.00  0.00     0.074 A 
ATOM     46  C   UNL A   1      44.105  27.407  28.919  1.00  0.00     0.031 C 
ATOM     47  C   UNL A   1      37.671  29.901  28.874  1.00  0.00     0.029 A 
ATOM     48  C   UNL A   1      38.695  30.805  29.394  1.00  0.00     0.049 A 
ATOM     49  H   UNL A   1      40.740  30.447  29.546  1.00  0.00     0.167 HD
ATOM     50  C   UNL A   1      45.025  29.545  29.763  1.00  0.00     0.037 A 
ATOM     51  C   UNL A   1      38.479  32.048  29.867  1.00  0.00     0.037 A 
ATOM     52  C   UNL A   1      44.899  30.905  30.212  1.00  0.00     0.049 A 
ATOM     53  C   UNL A   1      39.649  32.866  30.344  1.00  0.00     0.074 A 
ATOM     54  C   UNL A   1      45.899  31.782  30.596  1.00  0.00     0.029 A 
ATOM     55  N   UNL A   1      43.697  31.586  30.343  1.00  0.00    -0.354 N 
ATOM     56  N   UNL A   1      40.923  32.557  30.357  1.00  0.00    -0.248 NA
ATOM     57  C   UNL A   1      39.353  34.207  30.869  1.00  0.00     0.031 C 
ATOM     58  C   UNL A   1      45.298  32.974  31.009  1.00  0.00     0.029 A 
ATOM     59  C   UNL A   1      43.928  32.862  30.828  1.00  0.00     0.049 A 
ATOM     60  H   UNL A   1      42.812  31.216  30.122  1.00  0.00     0.167 HD
ATOM     61  C   UNL A   1      41.582  33.670  30.863  1.00  0.00     0.074 A 
ATOM     62  C   UNL A   1      40.568  34.669  31.132  1.00  0.00     0.031 C 
ATOM     63  C   UNL A   1      42.908  33.848  31.083  1.00  0.00     0.037 A 
BRANCH  50  64
ATOM     64  C   UNL A   1      46.399  28.943  29.702  1.00  0.00     0.064 A 
ATOM     65  C   UNL A   1      47.187  29.037  28.545  1.00  0.00     0.173 A 
ATOM     66  C   UNL A   1      46.958  28.320  30.827  1.00  0.00     0.173 A 
ATOM     67  F   UNL A   1      46.693  29.612  27.437  1.00  0.00    -0.203 F 
ATOM     68  C   UNL A   1      48.476  28.514  28.510  1.00  0.00     0.198 A 
ATOM     69  C   UNL A   1      48.259  27.825  30.799  1.00  0.00     0.198 A 
ATOM     70  F   UNL A   1      46.249  28.207  31.960  1.00  0.00    -0.203 F 
ATOM     71  F   UNL A   1      49.195  28.581  27.381  1.00  0.00    -0.200 F 
ATOM     72  C   UNL A   1      49.015  27.919  29.640  1.00  0.00     0.200 A 
ATOM     73  F   UNL A   1      48.784  27.263  31.897  1.00  0.00    -0.200 F 
ATOM     74  F   UNL A   1      50.264  27.431  29.612  1.00  0.00    -0.200 F 
ENDBRANCH  50  64
BRANCH  51  75
ATOM     75  C   UNL A   1      37.100  32.606  29.875  1.00  0.00     0.064 A 
ATOM     76  C   UNL A   1      36.265  32.440  30.988  1.00  0.00     0.173 A 
ATOM     77  C   UNL A   1      36.594  33.325  28.782  1.00  0.00     0.173 A 
ATOM     78  F   UNL A   1      36.694  31.741  32.049  1.00  0.00    -0.203 F 
ATOM     79  C   UNL A   1      34.973  32.964  31.005  1.00  0.00     0.198 A 
ATOM     80  C   UNL A   1      35.312  33.873  28.811  1.00  0.00     0.198 A 
ATOM     81  F   UNL A   1      37.352  33.515  27.692  1.00  0.00    -0.203 F 
ATOM     82  F   UNL A   1      34.184  32.759  32.069  1.00  0.00    -0.200 F 
ATOM     83  C   UNL A   1      34.500  33.686  29.921  1.00  0.00     0.200 A 
ATOM     84  F   UNL A   1      34.865  34.583  27.767  1.00  0.00    -0.200 F 
ATOM     85  F   UNL A   1      33.264  34.200  29.942  1.00  0.00    -0.200 F 
ENDBRANCH  51  75
BRANCH  63  86
ATOM     86  C   UNL A   1      43.356  35.174  31.628  1.00  0.00     0.064 A 
ATOM     87  C   UNL A   1      43.709  36.233  30.779  1.00  0.00     0.173 A 
ATOM     88  C   UNL A   1      43.346  35.415  33.011  1.00  0.00     0.173 A 
ATOM     89  F   UNL A   1      43.745  36.050  29.451  1.00  0.00    -0.203 F 
ATOM     90  C   UNL A   1      44.048  37.480  31.296  1.00  0.00     0.198 A 
ATOM     91  C   UNL A   1      43.653  36.672  33.521  1.00  0.00     0.198 A 
ATOM     92  F   UNL A   1      43.006  34.438  33.865  1.00  0.00    -0.203 F 
ATOM     93  F   UNL A   1      44.414  38.469  30.468  1.00  0.00    -0.200 F 
ATOM     94  C   UNL A   1      44.008  37.702  32.665  1.00  0.00     0.200 A 
ATOM     95  F   UNL A   1      43.594  36.890  34.843  1.00  0.00    -0.200 F 
ATOM     96  F   UNL A   1      44.311  38.911  33.158  1.00  0.00    -0.200 F 
ENDBRANCH  63  86
ENDBRANCH  37  38
ENDBRANCH  29  32
ENDBRANCH  27  28
ENDBRANCH  26  27
ENDBRANCH   1  26
TORSDOF 14
ENDMDL
MODEL 2
REMARK VINA RESULT:     -12.4      0.171      1.230
REMARK SMILES Cc1cc(C)c2c(C(=O)NCCCCCCNC(=O)c3ccc(-c4c5nc(c(-c6c(F)c(F)c(F)c(F)c6F)c6ccc([nH]6)c(-c6c(F)c(F)c(F)c(F)c6F)c6nc(c(-c7c(F)c(F)c(F)c(F)c7F)c7ccc4[nH]7)C=C6)C=C5)cc3)cc(-c3ccco3)nc2c1
REMARK SMILES IDX 14 1 13 2 12 3 11 4 10 5 8 6 9 7 7 9 1 10 2 11 3 12 92 13
REMARK SMILES IDX 4 14 91 15 5 16 6 17 90 18 84 19 83 20 85 21 86 22 89 23
REMARK SMILES IDX 87 24 88 25 15 26 16 27 17 28 18 29 19 31 20 32 21 33 82 34
REMARK SMILES IDX 22 35 81 36 23 37 24 38 25 39 75 40 26 41 80 42 74 43 76 44
REMARK SMILES IDX 27 45 79 46 73 47 72 48 28 50 60 51 40 52 59 53 41 54 44 55
REMARK SMILES IDX 58 56 77 57 42 58 43 59 57 61 78 62 45 63 29 64 30 65 38 66
REMARK SMILES IDX 31 67 32 68 36 69 39 70 33 71 34 72 37 73 35 74 61 75 62 76
REMARK SMILES IDX 70 77 63 78 64 79 68 80 71 81 65 82 66 83 69 84 67 85 46 86
REMARK SMILES IDX 47 87 55 88 48 89 49 90 53 91 56 92 50 93 51 94 54 95 52 96
REMARK H PARENT 10 8 17 30 76 49 44 60
REMARK Flexibility Score: inf
ROOT
ATOM      1  C   UNL A   1      34.034  23.602  26.761  1.00  0.00     0.002 C 
ENDROOT
BRANCH   1   2
ATOM      2  C   UNL A   1      32.610  23.597  26.193  1.00  0.00     0.002 C 
BRANCH   2   3
ATOM      3  C   UNL A   1      31.591  24.576  26.795  1.00  0.00     0.021 C 
BRANCH   3   4
ATOM      4  C   UNL A   1      30.324  24.828  25.983  1.00  0.00     0.116 C 
BRANCH   4   5
ATOM      5  N   UNL A   1      30.451  24.608  24.554  1.00  0.00    -0.352 N 
ATOM      6  C   UNL A   1      30.835  25.465  23.544  1.00  0.00     0.252 C 
ATOM      7  O   UNL A   1      30.908  25.014  22.400  1.00  0.00    -0.269 OA
ATOM      8  H   UNL A   1      30.226  23.697  24.257  1.00  0.00     0.163 HD
BRANCH   6   9
ATOM      9  C   UNL A   1      31.057  26.930  23.750  1.00  0.00     0.051 A 
ATOM     10  C   UNL A   1      34.550  29.190  27.626  1.00  0.00     0.044 C 
ATOM     11  C   UNL A   1      33.774  28.649  26.465  1.00  0.00    -0.049 A 
ATOM     12  C   UNL A   1      34.183  27.493  25.810  1.00  0.00     0.007 A 
ATOM     13  C   UNL A   1      32.681  29.347  25.942  1.00  0.00     0.032 A 
ATOM     14  C   UNL A   1      33.403  26.947  24.779  1.00  0.00    -0.041 A 
ATOM     15  C   UNL A   1      31.881  28.823  24.936  1.00  0.00     0.072 A 
ATOM     16  C   UNL A   1      34.051  25.901  23.902  1.00  0.00     0.045 C 
ATOM     17  C   UNL A   1      32.127  27.514  24.479  1.00  0.00     0.016 A 
ATOM     18  N   UNL A   1      30.900  29.600  24.454  1.00  0.00    -0.244 NA
ATOM     19  C   UNL A   1      30.060  29.084  23.535  1.00  0.00     0.107 A 
ATOM     20  C   UNL A   1      30.043  27.742  23.227  1.00  0.00     0.046 A 
BRANCH  19  21
ATOM     21  C   UNL A   1      29.177  30.032  22.876  1.00  0.00     0.152 A 
ATOM     22  C   UNL A   1      28.404  31.095  23.295  1.00  0.00     0.052 A 
ATOM     23  O   UNL A   1      28.967  29.810  21.542  1.00  0.00    -0.463 OA
ATOM     24  C   UNL A   1      27.687  31.548  22.157  1.00  0.00     0.043 A 
ATOM     25  C   UNL A   1      28.060  30.729  21.119  1.00  0.00     0.196 A 
ENDBRANCH  19  21
ENDBRANCH   6   9
ENDBRANCH   4   5
ENDBRANCH   3   4
ENDBRANCH   2   3
ENDBRANCH   1   2
BRANCH   1  26
ATOM     26  C   UNL A   1      35.134  22.972  25.905  1.00  0.00     0.021 C 
BRANCH  26  27
ATOM     27  C   UNL A   1      36.505  23.635  25.973  1.00  0.00     0.116 C 
BRANCH  27  28
ATOM     28  N   UNL A   1      37.602  22.685  25.955  1.00  0.00    -0.352 N 
ATOM     29  C   UNL A   1      38.919  22.866  26.301  1.00  0.00     0.251 C 
ATOM     30  H   UNL A   1      37.368  21.778  25.650  1.00  0.00     0.163 HD
ATOM     31  O   UNL A   1      39.738  21.976  26.125  1.00  0.00    -0.269 OA
BRANCH  29  32
ATOM     32  C   UNL A   1      39.353  24.161  26.870  1.00  0.00     0.039 A 
ATOM     33  C   UNL A   1      39.122  24.408  28.225  1.00  0.00     0.014 A 
ATOM     34  C   UNL A   1      39.970  25.127  26.069  1.00  0.00     0.014 A 
ATOM     35  C   UNL A   1      39.555  25.607  28.793  1.00  0.00     0.010 A 
ATOM     36  C   UNL A   1      40.452  26.299  26.648  1.00  0.00     0.010 A 
ATOM     37  C   UNL A   1      40.238  26.552  28.011  1.00  0.00    -0.014 A 
BRANCH  37  38
ATOM     38  C   UNL A   1      40.684  27.839  28.595  1.00  0.00     0.031 A 
ATOM     39  C   UNL A   1      42.136  28.042  28.918  1.00  0.00     0.074 A 
ATOM     40  C   UNL A   1      39.787  28.809  28.854  1.00  0.00     0.049 A 
ATOM     41  N   UNL A   1      42.729  29.082  29.450  1.00  0.00    -0.248 NA
ATOM     42  C   UNL A   1      43.042  26.922  28.619  1.00  0.00     0.031 C 
ATOM     43  C   UNL A   1      38.350  28.718  28.597  1.00  0.00     0.029 A 
ATOM     44  N   UNL A   1      39.952  30.060  29.393  1.00  0.00    -0.354 N 
ATOM     45  C   UNL A   1      44.071  28.743  29.537  1.00  0.00     0.074 A 
ATOM     46  C   UNL A   1      44.200  27.381  29.069  1.00  0.00     0.031 C 
ATOM     47  C   UNL A   1      37.767  29.872  28.958  1.00  0.00     0.029 A 
ATOM     48  C   UNL A   1      38.783  30.773  29.499  1.00  0.00     0.049 A 
ATOM     49  H   UNL A   1      40.826  30.415  29.675  1.00  0.00     0.167 HD
ATOM     50  C   UNL A   1      45.109  29.512  29.943  1.00  0.00     0.037 A 
ATOM     51  C   UNL A   1      38.560  32.012  29.979  1.00  0.00     0.037 A 
ATOM     52  C   UNL A   1      44.976  30.869  30.401  1.00  0.00     0.049 A 
ATOM     53  C   UNL A   1      39.723  32.826  30.479  1.00  0.00     0.074 A 
ATOM     54  C   UNL A   1      45.970  31.742  30.806  1.00  0.00     0.029 A 
ATOM     55  N   UNL A   1      43.771  31.548  30.521  1.00  0.00    -0.354 N 
ATOM     56  N   UNL A   1      40.997  32.518  30.506  1.00  0.00    -0.248 NA
ATOM     57  C   UNL A   1      39.419  34.163  31.011  1.00  0.00     0.031 C 
ATOM     58  C   UNL A   1      45.363  32.931  31.220  1.00  0.00     0.029 A 
ATOM     59  C   UNL A   1      43.996  32.821  31.019  1.00  0.00     0.049 A 
ATOM     60  H   UNL A   1      42.890  31.179  30.285  1.00  0.00     0.167 HD
ATOM     61  C   UNL A   1      41.649  33.627  31.029  1.00  0.00     0.074 A 
ATOM     62  C   UNL A   1      40.631  34.623  31.293  1.00  0.00     0.031 C 
ATOM     63  C   UNL A   1      42.971  33.803  31.269  1.00  0.00     0.037 A 
BRANCH  50  64
ATOM     64  C   UNL A   1      46.483  28.912  29.895  1.00  0.00     0.064 A 
ATOM     65  C   UNL A   1      47.025  28.237  31.000  1.00  0.00     0.173 A 
ATOM     66  C   UNL A   1      47.243  28.956  28.717  1.00  0.00     0.173 A 
ATOM     67  F   UNL A   1      46.343  28.177  32.154  1.00  0.00    -0.203 F 
ATOM     68  C   UNL A   1      48.283  27.646  30.933  1.00  0.00     0.198 A 
ATOM     69  C   UNL A   1      48.488  28.338  28.644  1.00  0.00     0.198 A 
ATOM     70  F   UNL A   1      46.771  29.585  27.630  1.00  0.00    -0.203 F 
ATOM     71  F   UNL A   1      48.796  27.041  32.014  1.00  0.00    -0.200 F 
ATOM     72  C   UNL A   1      49.009  27.687  29.753  1.00  0.00     0.200 A 
ATOM     73  F   UNL A   1      49.182  28.366  27.498  1.00  0.00    -0.200 F 
ATOM     74  F   UNL A   1      50.213  27.102  29.684  1.00  0.00    -0.200 F 
ENDBRANCH  50  64
BRANCH  51  75
ATOM     75  C   UNL A   1      37.180  32.569  29.973  1.00  0.00     0.064 A 
ATOM     76  C   UNL A   1      36.306  32.331  31.042  1.00  0.00     0.173 A 
ATOM     77  C   UNL A   1      36.714  33.359  28.912  1.00  0.00     0.173 A 
ATOM     78  F   UNL A   1      36.697  31.563  32.069  1.00  0.00    -0.203 F 
ATOM     79  C   UNL A   1      35.013  32.854  31.046  1.00  0.00     0.198 A 
ATOM     80  C   UNL A   1      35.431  33.904  28.930  1.00  0.00     0.198 A 
ATOM     81  F   UNL A   1      37.511  33.620  27.866  1.00  0.00    -0.203 F 
ATOM     82  F   UNL A   1      34.187  32.581  32.064  1.00  0.00    -0.200 F 
ATOM     83  C   UNL A   1      34.580  33.646  29.995  1.00  0.00     0.200 A 
ATOM     84  F   UNL A   1      35.022  34.683  27.919  1.00  0.00    -0.200 F 
ATOM     85  F   UNL A   1      33.342  34.158  30.004  1.00  0.00    -0.200 F 
ENDBRANCH  51  75
BRANCH  63  86
ATOM     86  C   UNL A   1      43.411  35.125  31.830  1.00  0.00     0.064 A 
ATOM     87  C   UNL A   1      43.714  36.211  30.996  1.00  0.00     0.173 A 
ATOM     88  C   UNL A   1      43.445  35.333  33.219  1.00  0.00     0.173 A 
ATOM     89  F   UNL A   1      43.708  36.060  29.664  1.00  0.00    -0.203 F 
ATOM     90  C   UNL A   1      44.045  37.453  31.531  1.00  0.00     0.198 A 
ATOM     91  C   UNL A   1      43.744  36.584  33.749  1.00  0.00     0.198 A 
ATOM     92  F   UNL A   1      43.154  34.329  34.060  1.00  0.00    -0.203 F 
ATOM     93  F   UNL A   1      44.363  38.468  30.716  1.00  0.00    -0.200 F 
ATOM     94  C   UNL A   1      44.048  37.641  32.906  1.00  0.00     0.200 A 
ATOM     95  F   UNL A   1      43.726  36.769  35.077  1.00  0.00    -0.200 F 
ATOM     96  F   UNL A   1      44.344  38.844  33.418  1.00  0.00    -0.200 F 
ENDBRANCH  63  86
ENDBRANCH  37  38
ENDBRANCH  29  32
ENDBRANCH  27  28
ENDBRANCH  26  27
ENDBRANCH   1  26
TORSDOF 14
ENDMDL
MODEL 3
REMARK VINA RESULT:     -12.3      3.560      9.186
REMARK SMILES Cc1cc(C)c2c(C(=O)NCCCCCCNC(=O)c3ccc(-c4c5nc(c(-c6c(F)c(F)c(F)c(F)c6F)c6ccc([nH]6)c(-c6c(F)c(F)c(F)c(F)c6F)c6nc(c(-c7c(F)c(F)c(F)c(F)c7F)c7ccc4[nH]7)C=C6)C=C5)cc3)cc(-c3ccco3)nc2c1
REMARK SMILES IDX 14 1 13 2 12 3 11 4 10 5 8 6 9 7 7 9 1 10 2 11 3 12 92 13
REMARK SMILES IDX 4 14 91 15 5 16 6 17 90 18 84 19 83 20 85 21 86 22 89 23
REMARK SMILES IDX 87 24 88 25 15 26 16 27 17 28 18 29 19 31 20 32 21 33 82 34
REMARK SMILES IDX 22 35 81 36 23 37 24 38 25 39 75 40 26 41 80 42 74 43 76 44
REMARK SMILES IDX 27 45 79 46 73 47 72 48 28 50 60 51 40 52 59 53 41 54 44 55
REMARK SMILES IDX 58 56 77 57 42 58 43 59 57 61 78 62 45 63 29 64 30 65 38 66
REMARK SMILES IDX 31 67 32 68 36 69 39 70 33 71 34 72 37 73 35 74 61 75 62 76
REMARK SMILES IDX 70 77 63 78 64 79 68 80 71 81 65 82 66 83 69 84 67 85 46 86
REMARK SMILES IDX 47 87 55 88 48 89 49 90 53 91 56 92 50 93 51 94 54 95 52 96
REMARK H PARENT 10 8 17 30 76 49 44 60
REMARK Flexibility Score: inf
ROOT
ATOM      1  C   UNL A   1      33.900  27.205  24.070  1.00  0.00     0.002 C 
ENDROOT
BRANCH   1   2
ATOM      2  C   UNL A   1      33.095  26.235  23.197  1.00  0.00     0.002 C 
BRANCH   2   3
ATOM      3  C   UNL A   1      33.860  25.126  22.459  1.00  0.00     0.021 C 
BRANCH   3   4
ATOM      4  C   UNL A   1      33.055  23.893  22.057  1.00  0.00     0.116 C 
BRANCH   4   5
ATOM      5  N   UNL A   1      31.900  23.610  22.888  1.00  0.00    -0.352 N 
ATOM      6  C   UNL A   1      31.783  22.851  24.035  1.00  0.00     0.252 C 
ATOM      7  O   UNL A   1      30.683  22.806  24.587  1.00  0.00    -0.269 OA
ATOM      8  H   UNL A   1      31.063  24.029  22.585  1.00  0.00     0.163 HD
BRANCH   6   9
ATOM      9  C   UNL A   1      32.887  21.997  24.570  1.00  0.00     0.051 A 
ATOM     10  C   UNL A   1      38.110  23.841  25.856  1.00  0.00     0.044 C 
ATOM     11  C   UNL A   1      36.703  23.346  25.722  1.00  0.00    -0.049 A 
ATOM     12  C   UNL A   1      35.626  24.173  26.019  1.00  0.00     0.007 A 
ATOM     13  C   UNL A   1      36.437  22.012  25.400  1.00  0.00     0.032 A 
ATOM     14  C   UNL A   1      34.311  23.729  25.810  1.00  0.00    -0.041 A 
ATOM     15  C   UNL A   1      35.149  21.550  25.169  1.00  0.00     0.072 A 
ATOM     16  C   UNL A   1      33.201  24.530  26.448  1.00  0.00     0.045 C 
ATOM     17  C   UNL A   1      34.080  22.467  25.182  1.00  0.00     0.016 A 
ATOM     18  N   UNL A   1      34.991  20.239  24.935  1.00  0.00    -0.244 NA
ATOM     19  C   UNL A   1      33.762  19.780  24.628  1.00  0.00     0.107 A 
ATOM     20  C   UNL A   1      32.712  20.626  24.346  1.00  0.00     0.046 A 
BRANCH  19  21
ATOM     21  C   UNL A   1      33.604  18.336  24.624  1.00  0.00     0.152 A 
ATOM     22  C   UNL A   1      34.058  17.309  23.821  1.00  0.00     0.052 A 
ATOM     23  O   UNL A   1      32.748  17.834  25.567  1.00  0.00    -0.463 OA
ATOM     24  C   UNL A   1      33.451  16.120  24.301  1.00  0.00     0.043 A 
ATOM     25  C   UNL A   1      32.659  16.495  25.359  1.00  0.00     0.196 A 
ENDBRANCH  19  21
ENDBRANCH   6   9
ENDBRANCH   4   5
ENDBRANCH   3   4
ENDBRANCH   2   3
ENDBRANCH   1   2
BRANCH   1  26
ATOM     26  C   UNL A   1      33.161  27.898  25.215  1.00  0.00     0.021 C 
BRANCH  26  27
ATOM     27  C   UNL A   1      34.016  28.356  26.391  1.00  0.00     0.116 C 
BRANCH  27  28
ATOM     28  N   UNL A   1      33.681  29.689  26.857  1.00  0.00    -0.352 N 
ATOM     29  C   UNL A   1      34.395  30.532  27.675  1.00  0.00     0.251 C 
ATOM     30  H   UNL A   1      32.817  30.041  26.542  1.00  0.00     0.163 HD
ATOM     31  O   UNL A   1      33.912  31.589  28.055  1.00  0.00    -0.269 OA
BRANCH  29  32
ATOM     32  C   UNL A   1      35.751  30.143  28.120  1.00  0.00     0.039 A 
ATOM     33  C   UNL A   1      35.901  29.571  29.385  1.00  0.00     0.014 A 
ATOM     34  C   UNL A   1      36.865  30.354  27.301  1.00  0.00     0.014 A 
ATOM     35  C   UNL A   1      37.166  29.162  29.813  1.00  0.00     0.010 A 
ATOM     36  C   UNL A   1      38.115  29.895  27.705  1.00  0.00     0.010 A 
ATOM     37  C   UNL A   1      38.278  29.305  28.968  1.00  0.00    -0.014 A 
BRANCH  37  38
ATOM     38  C   UNL A   1      39.629  28.896  29.417  1.00  0.00     0.031 A 
ATOM     39  C   UNL A   1      40.376  29.756  30.396  1.00  0.00     0.074 A 
ATOM     40  C   UNL A   1      40.191  27.774  28.930  1.00  0.00     0.049 A 
ATOM     41  N   UNL A   1      41.573  29.589  30.900  1.00  0.00    -0.248 NA
ATOM     42  C   UNL A   1      39.693  30.973  30.861  1.00  0.00     0.031 C 
ATOM     43  C   UNL A   1      39.567  26.871  27.963  1.00  0.00     0.029 A 
ATOM     44  N   UNL A   1      41.413  27.203  29.181  1.00  0.00    -0.354 N 
ATOM     45  C   UNL A   1      41.778  30.671  31.743  1.00  0.00     0.074 A 
ATOM     46  C   UNL A   1      40.615  31.524  31.636  1.00  0.00     0.031 C 
ATOM     47  C   UNL A   1      40.401  25.848  27.719  1.00  0.00     0.029 A 
ATOM     48  C   UNL A   1      41.630  26.038  28.487  1.00  0.00     0.049 A 
ATOM     49  H   UNL A   1      42.073  27.591  29.801  1.00  0.00     0.167 HD
ATOM     50  C   UNL A   1      42.830  30.915  32.559  1.00  0.00     0.037 A 
ATOM     51  C   UNL A   1      42.700  25.219  28.475  1.00  0.00     0.037 A 
ATOM     52  C   UNL A   1      43.981  30.059  32.668  1.00  0.00     0.049 A 
ATOM     53  C   UNL A   1      43.882  25.542  29.348  1.00  0.00     0.074 A 
ATOM     54  C   UNL A   1      45.087  30.203  33.488  1.00  0.00     0.029 A 
ATOM     55  N   UNL A   1      44.177  28.901  31.929  1.00  0.00    -0.354 N 
ATOM     56  N   UNL A   1      44.044  26.539  30.185  1.00  0.00    -0.248 NA
ATOM     57  C   UNL A   1      45.030  24.626  29.280  1.00  0.00     0.031 C 
ATOM     58  C   UNL A   1      45.975  29.162  33.207  1.00  0.00     0.029 A 
ATOM     59  C   UNL A   1      45.400  28.336  32.254  1.00  0.00     0.049 A 
ATOM     60  H   UNL A   1      43.542  28.536  31.272  1.00  0.00     0.167 HD
ATOM     61  C   UNL A   1      45.295  26.357  30.762  1.00  0.00     0.074 A 
ATOM     62  C   UNL A   1      45.844  25.144  30.190  1.00  0.00     0.031 C 
ATOM     63  C   UNL A   1      45.929  27.124  31.681  1.00  0.00     0.037 A 
BRANCH  50  64
ATOM     64  C   UNL A   1      42.780  32.148  33.413  1.00  0.00     0.064 A 
ATOM     65  C   UNL A   1      43.246  33.383  32.939  1.00  0.00     0.173 A 
ATOM     66  C   UNL A   1      42.208  32.110  34.693  1.00  0.00     0.173 A 
ATOM     67  F   UNL A   1      43.814  33.471  31.726  1.00  0.00    -0.203 F 
ATOM     68  C   UNL A   1      43.157  34.531  33.721  1.00  0.00     0.198 A 
ATOM     69  C   UNL A   1      42.093  33.265  35.460  1.00  0.00     0.198 A 
ATOM     70  F   UNL A   1      41.744  30.955  35.193  1.00  0.00    -0.203 F 
ATOM     71  F   UNL A   1      43.645  35.693  33.262  1.00  0.00    -0.200 F 
ATOM     72  C   UNL A   1      42.572  34.474  34.976  1.00  0.00     0.200 A 
ATOM     73  F   UNL A   1      41.513  33.211  36.667  1.00  0.00    -0.200 F 
ATOM     74  F   UNL A   1      42.470  35.584  35.722  1.00  0.00    -0.200 F 
ENDBRANCH  50  64
BRANCH  51  75
ATOM     75  C   UNL A   1      42.681  23.992  27.634  1.00  0.00     0.064 A 
ATOM     76  C   UNL A   1      43.019  24.049  26.275  1.00  0.00     0.173 A 
ATOM     77  C   UNL A   1      42.342  22.741  28.168  1.00  0.00     0.173 A 
ATOM     78  F   UNL A   1      43.330  25.226  25.711  1.00  0.00    -0.203 F 
ATOM     79  C   UNL A   1      43.009  22.904  25.480  1.00  0.00     0.198 A 
ATOM     80  C   UNL A   1      42.359  21.592  27.380  1.00  0.00     0.198 A 
ATOM     81  F   UNL A   1      42.012  22.630  29.464  1.00  0.00    -0.203 F 
ATOM     82  F   UNL A   1      43.302  22.994  24.176  1.00  0.00    -0.200 F 
ATOM     83  C   UNL A   1      42.687  21.675  26.035  1.00  0.00     0.200 A 
ATOM     84  F   UNL A   1      42.062  20.404  27.924  1.00  0.00    -0.200 F 
ATOM     85  F   UNL A   1      42.689  20.573  25.274  1.00  0.00    -0.200 F 
ENDBRANCH  51  75
BRANCH  63  86
ATOM     86  C   UNL A   1      47.285  26.679  32.150  1.00  0.00     0.064 A 
ATOM     87  C   UNL A   1      47.432  25.780  33.216  1.00  0.00     0.173 A 
ATOM     88  C   UNL A   1      48.443  27.087  31.469  1.00  0.00     0.173 A 
ATOM     89  F   UNL A   1      46.358  25.369  33.906  1.00  0.00    -0.203 F 
ATOM     90  C   UNL A   1      48.690  25.315  33.590  1.00  0.00     0.198 A 
ATOM     91  C   UNL A   1      49.694  26.595  31.825  1.00  0.00     0.198 A 
ATOM     92  F   UNL A   1      48.355  27.938  30.436  1.00  0.00    -0.203 F 
ATOM     93  F   UNL A   1      48.810  24.481  34.633  1.00  0.00    -0.200 F 
ATOM     94  C   UNL A   1      49.818  25.713  32.888  1.00  0.00     0.200 A 
ATOM     95  F   UNL A   1      50.780  26.965  31.132  1.00  0.00    -0.200 F 
ATOM     96  F   UNL A   1      51.025  25.246  33.235  1.00  0.00    -0.200 F 
ENDBRANCH  63  86
ENDBRANCH  37  38
ENDBRANCH  29  32
ENDBRANCH  27  28
ENDBRANCH  26  27
ENDBRANCH   1  26
TORSDOF 14
ENDMDL
