MODEL 1
REMARK VINA RESULT:     -12.8      0.000      0.000
REMARK SMILES O=C(NCCCCCCNC(=O)c1nn2cc(Br)cnc2c1Br)c1ccc(-c2c3nc(c(-c4c(F)c(F)c(F)c(F)c4F)c4ccc([nH]4)c(-c4c(F)c(F)c(F)c(F)c4F)c4nc(c(-c5c(F)c(F)c(F)c(F)c5F)c5ccc2[nH]5)C=C4)C=C3)cc1
REMARK SMILES IDX 5 1 4 2 3 3 1 4 2 5 24 7 25 8 86 9 26 10 85 11 27 12 28 13
REMARK SMILES IDX 29 14 79 15 30 16 84 17 78 18 80 19 31 20 83 21 77 22 76 23
REMARK SMILES IDX 32 25 64 26 44 27 63 28 45 29 48 30 62 31 81 32 46 33 47 34
REMARK SMILES IDX 61 36 82 37 49 38 33 39 34 40 42 41 35 42 36 43 40 44 43 45
REMARK SMILES IDX 37 46 38 47 41 48 39 49 65 50 66 51 74 52 67 53 68 54 72 55
REMARK SMILES IDX 75 56 69 57 70 58 73 59 71 60 50 61 51 62 59 63 52 64 53 65
REMARK SMILES IDX 57 66 60 67 54 68 55 69 58 70 56 71 6 72 7 73 8 74 9 75
REMARK SMILES IDX 10 76 11 77 12 79 13 80 14 81 22 82 15 83 21 84 23 85 16 86
REMARK SMILES IDX 20 87 17 88 19 89 18 90
REMARK H PARENT 3 6 80 24 48 35 10 78
REMARK Flexibility Score: inf
ROOT
ATOM      1  C   UNL A   1      37.980  20.999  25.113  1.00  0.00     0.021 C 
ENDROOT
BRANCH   1   2
ATOM      2  C   UNL A   1      38.685  22.072  25.938  1.00  0.00     0.116 C 
BRANCH   2   3
ATOM      3  N   UNL A   1      40.130  21.993  25.913  1.00  0.00    -0.352 N 
ATOM      4  O   UNL A   1      42.289  22.325  26.258  1.00  0.00    -0.269 OA
ATOM      5  C   UNL A   1      41.149  22.780  26.371  1.00  0.00     0.251 C 
ATOM      6  H   UNL A   1      40.456  21.181  25.460  1.00  0.00     0.163 HD
BRANCH   5   7
ATOM      7  C   UNL A   1      40.984  24.155  26.907  1.00  0.00     0.039 A 
ATOM      8  C   UNL A   1      40.076  25.112  26.451  1.00  0.00     0.014 A 
ATOM      9  C   UNL A   1      41.841  24.493  27.971  1.00  0.00     0.014 A 
ATOM     10  C   UNL A   1      40.102  26.406  26.967  1.00  0.00     0.010 A 
ATOM     11  C   UNL A   1      41.855  25.773  28.506  1.00  0.00     0.010 A 
ATOM     12  C   UNL A   1      41.015  26.743  27.970  1.00  0.00    -0.014 A 
BRANCH  12  13
ATOM     13  C   UNL A   1      40.967  28.085  28.545  1.00  0.00     0.031 A 
ATOM     14  C   UNL A   1      42.030  29.013  28.049  1.00  0.00     0.074 A 
ATOM     15  C   UNL A   1      39.963  28.510  29.341  1.00  0.00     0.049 A 
ATOM     16  N   UNL A   1      42.928  29.645  28.733  1.00  0.00    -0.248 NA
ATOM     17  C   UNL A   1      42.169  29.181  26.591  1.00  0.00     0.031 C 
ATOM     18  C   UNL A   1      38.721  27.816  29.690  1.00  0.00     0.029 A 
ATOM     19  N   UNL A   1      39.809  29.720  29.951  1.00  0.00    -0.354 N 
ATOM     20  C   UNL A   1      43.658  30.404  27.818  1.00  0.00     0.074 A 
ATOM     21  C   UNL A   1      43.222  29.995  26.508  1.00  0.00     0.031 C 
ATOM     22  C   UNL A   1      37.856  28.693  30.252  1.00  0.00     0.029 A 
ATOM     23  C   UNL A   1      38.529  29.968  30.433  1.00  0.00     0.049 A 
ATOM     24  H   UNL A   1      40.546  30.367  30.042  1.00  0.00     0.167 HD
ATOM     25  C   UNL A   1      44.449  31.441  28.211  1.00  0.00     0.037 A 
ATOM     26  C   UNL A   1      38.054  31.153  30.897  1.00  0.00     0.037 A 
ATOM     27  C   UNL A   1      44.752  31.370  29.613  1.00  0.00     0.049 A 
ATOM     28  C   UNL A   1      39.227  31.989  31.253  1.00  0.00     0.074 A 
ATOM     29  C   UNL A   1      45.469  30.499  30.408  1.00  0.00     0.029 A 
ATOM     30  N   UNL A   1      43.994  32.121  30.474  1.00  0.00    -0.354 N 
ATOM     31  N   UNL A   1      40.033  31.724  32.242  1.00  0.00    -0.248 NA
ATOM     32  C   UNL A   1      39.759  32.867  30.222  1.00  0.00     0.031 C 
ATOM     33  C   UNL A   1      44.739  30.434  31.631  1.00  0.00     0.029 A 
ATOM     34  C   UNL A   1      43.661  31.313  31.530  1.00  0.00     0.049 A 
ATOM     35  H   UNL A   1      43.739  33.065  30.356  1.00  0.00     0.167 HD
ATOM     36  C   UNL A   1      41.293  32.032  31.754  1.00  0.00     0.074 A 
ATOM     37  C   UNL A   1      41.056  32.799  30.532  1.00  0.00     0.031 C 
ATOM     38  C   UNL A   1      42.404  31.397  32.229  1.00  0.00     0.037 A 
BRANCH  25  39
ATOM     39  C   UNL A   1      44.690  32.693  27.407  1.00  0.00     0.064 A 
ATOM     40  C   UNL A   1      45.895  32.841  26.689  1.00  0.00     0.173 A 
ATOM     41  C   UNL A   1      43.924  33.868  27.561  1.00  0.00     0.173 A 
ATOM     42  F   UNL A   1      46.713  31.793  26.503  1.00  0.00    -0.203 F 
ATOM     43  C   UNL A   1      46.329  34.086  26.223  1.00  0.00     0.198 A 
ATOM     44  C   UNL A   1      44.337  35.098  27.051  1.00  0.00     0.198 A 
ATOM     45  F   UNL A   1      42.810  33.893  28.302  1.00  0.00    -0.203 F 
ATOM     46  F   UNL A   1      47.536  34.199  25.652  1.00  0.00    -0.200 F 
ATOM     47  C   UNL A   1      45.552  35.214  26.410  1.00  0.00     0.200 A 
ATOM     48  F   UNL A   1      43.581  36.185  27.263  1.00  0.00    -0.200 F 
ATOM     49  F   UNL A   1      45.993  36.417  26.019  1.00  0.00    -0.200 F 
ENDBRANCH  25  39
BRANCH  26  50
ATOM     50  C   UNL A   1      36.708  31.754  30.704  1.00  0.00     0.064 A 
ATOM     51  C   UNL A   1      35.883  32.049  31.805  1.00  0.00     0.173 A 
ATOM     52  C   UNL A   1      36.341  32.338  29.477  1.00  0.00     0.173 A 
ATOM     53  F   UNL A   1      36.185  31.569  33.021  1.00  0.00    -0.203 F 
ATOM     54  C   UNL A   1      34.783  32.906  31.693  1.00  0.00     0.198 A 
ATOM     55  C   UNL A   1      35.242  33.191  29.365  1.00  0.00     0.198 A 
ATOM     56  F   UNL A   1      37.104  32.179  28.386  1.00  0.00    -0.203 F 
ATOM     57  F   UNL A   1      34.063  33.220  32.779  1.00  0.00    -0.200 F 
ATOM     58  C   UNL A   1      34.472  33.489  30.474  1.00  0.00     0.200 A 
ATOM     59  F   UNL A   1      34.974  33.780  28.190  1.00  0.00    -0.200 F 
ATOM     60  F   UNL A   1      33.464  34.367  30.380  1.00  0.00    -0.200 F 
ENDBRANCH  26  50
BRANCH  38  61
ATOM     61  C   UNL A   1      42.246  30.531  33.449  1.00  0.00     0.064 A 
ATOM     62  C   UNL A   1      42.295  31.014  34.768  1.00  0.00     0.173 A 
ATOM     63  C   UNL A   1      41.877  29.192  33.267  1.00  0.00     0.173 A 
ATOM     64  F   UNL A   1      42.542  32.305  35.023  1.00  0.00    -0.203 F 
ATOM     65  C   UNL A   1      42.022  30.183  35.854  1.00  0.00     0.198 A 
ATOM     66  C   UNL A   1      41.568  28.374  34.351  1.00  0.00     0.198 A 
ATOM     67  F   UNL A   1      41.760  28.690  32.028  1.00  0.00    -0.203 F 
ATOM     68  F   UNL A   1      42.078  30.668  37.104  1.00  0.00    -0.200 F 
ATOM     69  C   UNL A   1      41.650  28.866  35.643  1.00  0.00     0.200 A 
ATOM     70  F   UNL A   1      41.159  27.116  34.138  1.00  0.00    -0.200 F 
ATOM     71  F   UNL A   1      41.339  28.079  36.684  1.00  0.00    -0.200 F 
ENDBRANCH  38  61
ENDBRANCH  12  13
ENDBRANCH   5   7
ENDBRANCH   2   3
ENDBRANCH   1   2
BRANCH   1  72
ATOM     72  C   UNL A   1      36.643  21.436  24.498  1.00  0.00     0.002 C 
BRANCH  72  73
ATOM     73  C   UNL A   1      36.649  22.786  23.771  1.00  0.00     0.002 C 
BRANCH  73  74
ATOM     74  C   UNL A   1      35.800  23.891  24.407  1.00  0.00     0.021 C 
BRANCH  74  75
ATOM     75  C   UNL A   1      35.309  23.594  25.820  1.00  0.00     0.116 C 
BRANCH  75  76
ATOM     76  N   UNL A   1      33.961  24.083  26.050  1.00  0.00    -0.351 N 
ATOM     77  C   UNL A   1      32.762  23.458  25.793  1.00  0.00     0.273 C 
ATOM     78  H   UNL A   1      33.896  24.984  26.443  1.00  0.00     0.163 HD
ATOM     79  O   UNL A   1      31.716  24.088  25.976  1.00  0.00    -0.267 OA
BRANCH  77  80
ATOM     80  C   UNL A   1      32.777  22.083  25.296  1.00  0.00     0.167 A 
ATOM     81  N   UNL A   1      32.853  21.040  26.146  1.00  0.00    -0.160 NA
ATOM     82  C   UNL A   1      32.713  21.630  23.959  1.00  0.00     0.095 A 
ATOM     83  N   UNL A   1      32.814  19.940  25.360  1.00  0.00    -0.219 N 
ATOM     84  C   UNL A   1      32.656  20.261  24.009  1.00  0.00     0.170 A 
ATOM     85  Br  UNL A   1      32.695  22.693  22.415  1.00  0.00    -0.044 Br
ATOM     86  C   UNL A   1      32.902  18.614  25.767  1.00  0.00     0.132 A 
ATOM     87  N   UNL A   1      32.507  19.299  23.045  1.00  0.00    -0.235 NA
ATOM     88  C   UNL A   1      32.799  17.625  24.870  1.00  0.00     0.054 A 
ATOM     89  C   UNL A   1      32.570  18.068  23.462  1.00  0.00     0.131 A 
ATOM     90  Br  UNL A   1      32.909  15.822  25.255  1.00  0.00    -0.047 Br
ENDBRANCH  77  80
ENDBRANCH  75  76
ENDBRANCH  74  75
ENDBRANCH  73  74
ENDBRANCH  72  73
ENDBRANCH   1  72
TORSDOF 13
ENDMDL
MODEL 2
REMARK VINA RESULT:     -12.7      4.061      9.315
REMARK SMILES O=C(NCCCCCCNC(=O)c1nn2cc(Br)cnc2c1Br)c1ccc(-c2c3nc(c(-c4c(F)c(F)c(F)c(F)c4F)c4ccc([nH]4)c(-c4c(F)c(F)c(F)c(F)c4F)c4nc(c(-c5c(F)c(F)c(F)c(F)c5F)c5ccc2[nH]5)C=C4)C=C3)cc1
REMARK SMILES IDX 5 1 4 2 3 3 1 4 2 5 24 7 25 8 86 9 26 10 85 11 27 12 28 13
REMARK SMILES IDX 29 14 79 15 30 16 84 17 78 18 80 19 31 20 83 21 77 22 76 23
REMARK SMILES IDX 32 25 64 26 44 27 63 28 45 29 48 30 62 31 81 32 46 33 47 34
REMARK SMILES IDX 61 36 82 37 49 38 33 39 34 40 42 41 35 42 36 43 40 44 43 45
REMARK SMILES IDX 37 46 38 47 41 48 39 49 65 50 66 51 74 52 67 53 68 54 72 55
REMARK SMILES IDX 75 56 69 57 70 58 73 59 71 60 50 61 51 62 59 63 52 64 53 65
REMARK SMILES IDX 57 66 60 67 54 68 55 69 58 70 56 71 6 72 7 73 8 74 9 75
REMARK SMILES IDX 10 76 11 77 12 79 13 80 14 81 22 82 15 83 21 84 23 85 16 86
REMARK SMILES IDX 20 87 17 88 19 89 18 90
REMARK H PARENT 3 6 80 24 48 35 10 78
REMARK Flexibility Score: inf
ROOT
ATOM      1  C   UNL A   1      32.073  30.196  26.677  1.00  0.00     0.021 C 
ENDROOT
BRANCH   1   2
ATOM      2  C   UNL A   1      33.502  30.722  26.779  1.00  0.00     0.116 C 
BRANCH   2   3
ATOM      3  N   UNL A   1      33.719  31.660  27.859  1.00  0.00    -0.352 N 
ATOM      4  O   UNL A   1      34.618  32.931  29.430  1.00  0.00    -0.269 OA
ATOM      5  C   UNL A   1      34.773  31.973  28.669  1.00  0.00     0.251 C 
ATOM      6  H   UNL A   1      32.920  32.200  28.056  1.00  0.00     0.163 HD
BRANCH   5   7
ATOM      7  C   UNL A   1      36.038  31.199  28.755  1.00  0.00     0.039 A 
ATOM      8  C   UNL A   1      36.178  29.827  28.539  1.00  0.00     0.014 A 
ATOM      9  C   UNL A   1      37.181  31.948  29.088  1.00  0.00     0.014 A 
ATOM     10  C   UNL A   1      37.404  29.203  28.762  1.00  0.00     0.010 A 
ATOM     11  C   UNL A   1      38.410  31.336  29.289  1.00  0.00     0.010 A 
ATOM     12  C   UNL A   1      38.510  29.954  29.170  1.00  0.00    -0.014 A 
BRANCH  12  13
ATOM     13  C   UNL A   1      39.799  29.285  29.322  1.00  0.00     0.031 A 
ATOM     14  C   UNL A   1      40.179  28.981  30.736  1.00  0.00     0.074 A 
ATOM     15  C   UNL A   1      40.525  28.838  28.275  1.00  0.00     0.049 A 
ATOM     16  N   UNL A   1      41.231  29.365  31.385  1.00  0.00    -0.248 NA
ATOM     17  C   UNL A   1      39.214  28.233  31.561  1.00  0.00     0.031 C 
ATOM     18  C   UNL A   1      40.158  28.813  26.857  1.00  0.00     0.029 A 
ATOM     19  N   UNL A   1      41.740  28.219  28.280  1.00  0.00    -0.354 N 
ATOM     20  C   UNL A   1      41.140  28.793  32.655  1.00  0.00     0.074 A 
ATOM     21  C   UNL A   1      39.830  28.203  32.744  1.00  0.00     0.031 C 
ATOM     22  C   UNL A   1      41.020  28.015  26.182  1.00  0.00     0.029 A 
ATOM     23  C   UNL A   1      42.076  27.591  27.086  1.00  0.00     0.049 A 
ATOM     24  H   UNL A   1      42.333  28.217  29.067  1.00  0.00     0.167 HD
ATOM     25  C   UNL A   1      42.218  28.699  33.481  1.00  0.00     0.037 A 
ATOM     26  C   UNL A   1      43.118  26.745  26.881  1.00  0.00     0.037 A 
ATOM     27  C   UNL A   1      43.269  29.593  33.080  1.00  0.00     0.049 A 
ATOM     28  C   UNL A   1      44.095  26.977  27.974  1.00  0.00     0.074 A 
ATOM     29  C   UNL A   1      43.408  30.964  33.026  1.00  0.00     0.029 A 
ATOM     30  N   UNL A   1      44.289  29.085  32.318  1.00  0.00    -0.354 N 
ATOM     31  N   UNL A   1      44.784  28.075  28.110  1.00  0.00    -0.248 NA
ATOM     32  C   UNL A   1      43.965  26.161  29.170  1.00  0.00     0.031 C 
ATOM     33  C   UNL A   1      44.178  31.209  31.851  1.00  0.00     0.029 A 
ATOM     34  C   UNL A   1      44.512  29.973  31.298  1.00  0.00     0.049 A 
ATOM     35  H   UNL A   1      44.771  28.241  32.475  1.00  0.00     0.167 HD
ATOM     36  C   UNL A   1      44.799  28.308  29.475  1.00  0.00     0.074 A 
ATOM     37  C   UNL A   1      44.342  27.059  30.083  1.00  0.00     0.031 C 
ATOM     38  C   UNL A   1      44.908  29.575  29.970  1.00  0.00     0.037 A 
BRANCH  25  39
ATOM     39  C   UNL A   1      42.457  27.578  34.461  1.00  0.00     0.064 A 
ATOM     40  C   UNL A   1      43.024  26.367  34.013  1.00  0.00     0.173 A 
ATOM     41  C   UNL A   1      41.875  27.541  35.746  1.00  0.00     0.173 A 
ATOM     42  F   UNL A   1      43.584  26.284  32.796  1.00  0.00    -0.203 F 
ATOM     43  C   UNL A   1      42.949  25.193  34.767  1.00  0.00     0.198 A 
ATOM     44  C   UNL A   1      41.847  26.379  36.516  1.00  0.00     0.198 A 
ATOM     45  F   UNL A   1      41.217  28.588  36.254  1.00  0.00    -0.203 F 
ATOM     46  F   UNL A   1      43.395  24.040  34.251  1.00  0.00    -0.200 F 
ATOM     47  C   UNL A   1      42.355  25.198  36.016  1.00  0.00     0.200 A 
ATOM     48  F   UNL A   1      41.247  26.399  37.715  1.00  0.00    -0.200 F 
ATOM     49  F   UNL A   1      42.229  24.063  36.715  1.00  0.00    -0.200 F 
ENDBRANCH  25  39
BRANCH  26  50
ATOM     50  C   UNL A   1      43.166  25.512  26.053  1.00  0.00     0.064 A 
ATOM     51  C   UNL A   1      44.290  25.213  25.262  1.00  0.00     0.173 A 
ATOM     52  C   UNL A   1      42.257  24.457  26.267  1.00  0.00     0.173 A 
ATOM     53  F   UNL A   1      45.228  26.147  25.046  1.00  0.00    -0.203 F 
ATOM     54  C   UNL A   1      44.512  23.930  24.750  1.00  0.00     0.198 A 
ATOM     55  C   UNL A   1      42.478  23.178  25.753  1.00  0.00     0.198 A 
ATOM     56  F   UNL A   1      41.194  24.619  27.066  1.00  0.00    -0.203 F 
ATOM     57  F   UNL A   1      45.631  23.666  24.061  1.00  0.00    -0.200 F 
ATOM     58  C   UNL A   1      43.611  22.909  25.009  1.00  0.00     0.200 A 
ATOM     59  F   UNL A   1      41.620  22.189  26.043  1.00  0.00    -0.200 F 
ATOM     60  F   UNL A   1      43.858  21.662  24.581  1.00  0.00    -0.200 F 
ENDBRANCH  26  50
BRANCH  38  61
ATOM     61  C   UNL A   1      45.242  30.677  29.002  1.00  0.00     0.064 A 
ATOM     62  C   UNL A   1      44.281  31.412  28.286  1.00  0.00     0.173 A 
ATOM     63  C   UNL A   1      46.573  31.104  28.918  1.00  0.00     0.173 A 
ATOM     64  F   UNL A   1      42.977  31.131  28.390  1.00  0.00    -0.203 F 
ATOM     65  C   UNL A   1      44.645  32.501  27.495  1.00  0.00     0.198 A 
ATOM     66  C   UNL A   1      46.929  32.215  28.158  1.00  0.00     0.198 A 
ATOM     67  F   UNL A   1      47.526  30.475  29.623  1.00  0.00    -0.203 F 
ATOM     68  F   UNL A   1      43.709  33.185  26.818  1.00  0.00    -0.200 F 
ATOM     69  C   UNL A   1      45.967  32.907  27.438  1.00  0.00     0.200 A 
ATOM     70  F   UNL A   1      48.202  32.634  28.148  1.00  0.00    -0.200 F 
ATOM     71  F   UNL A   1      46.312  33.984  26.718  1.00  0.00    -0.200 F 
ENDBRANCH  38  61
ENDBRANCH  12  13
ENDBRANCH   5   7
ENDBRANCH   2   3
ENDBRANCH   1   2
BRANCH   1  72
ATOM     72  C   UNL A   1      31.958  28.674  26.512  1.00  0.00     0.002 C 
BRANCH  72  73
ATOM     73  C   UNL A   1      33.124  27.850  27.070  1.00  0.00     0.002 C 
BRANCH  73  74
ATOM     74  C   UNL A   1      34.081  27.258  26.030  1.00  0.00     0.021 C 
BRANCH  74  75
ATOM     75  C   UNL A   1      33.571  26.009  25.320  1.00  0.00     0.116 C 
BRANCH  75  76
ATOM     76  N   UNL A   1      33.995  25.950  23.933  1.00  0.00    -0.351 N 
ATOM     77  C   UNL A   1      33.318  26.358  22.806  1.00  0.00     0.273 C 
ATOM     78  H   UNL A   1      34.888  25.566  23.776  1.00  0.00     0.163 HD
ATOM     79  O   UNL A   1      33.819  26.134  21.701  1.00  0.00    -0.267 OA
BRANCH  77  80
ATOM     80  C   UNL A   1      32.024  27.023  22.964  1.00  0.00     0.167 A 
ATOM     81  N   UNL A   1      31.921  28.364  22.887  1.00  0.00    -0.160 NA
ATOM     82  C   UNL A   1      30.759  26.441  23.199  1.00  0.00     0.095 A 
ATOM     83  N   UNL A   1      30.604  28.628  23.046  1.00  0.00    -0.219 N 
ATOM     84  C   UNL A   1      29.844  27.462  23.170  1.00  0.00     0.170 A 
ATOM     85  Br  UNL A   1      30.395  24.623  23.480  1.00  0.00    -0.044 Br
ATOM     86  C   UNL A   1      29.996  29.877  23.081  1.00  0.00     0.132 A 
ATOM     87  N   UNL A   1      28.477  27.490  23.256  1.00  0.00    -0.235 NA
ATOM     88  C   UNL A   1      28.666  29.977  23.199  1.00  0.00     0.054 A 
ATOM     89  C   UNL A   1      27.936  28.674  23.262  1.00  0.00     0.131 A 
ATOM     90  Br  UNL A   1      27.718  31.560  23.274  1.00  0.00    -0.047 Br
ENDBRANCH  77  80
ENDBRANCH  75  76
ENDBRANCH  74  75
ENDBRANCH  73  74
ENDBRANCH  72  73
ENDBRANCH   1  72
TORSDOF 13
ENDMDL
MODEL 3
REMARK VINA RESULT:     -12.6      2.213      3.793
REMARK SMILES O=C(NCCCCCCNC(=O)c1nn2cc(Br)cnc2c1Br)c1ccc(-c2c3nc(c(-c4c(F)c(F)c(F)c(F)c4F)c4ccc([nH]4)c(-c4c(F)c(F)c(F)c(F)c4F)c4nc(c(-c5c(F)c(F)c(F)c(F)c5F)c5ccc2[nH]5)C=C4)C=C3)cc1
REMARK SMILES IDX 5 1 4 2 3 3 1 4 2 5 24 7 25 8 86 9 26 10 85 11 27 12 28 13
REMARK SMILES IDX 29 14 79 15 30 16 84 17 78 18 80 19 31 20 83 21 77 22 76 23
REMARK SMILES IDX 32 25 64 26 44 27 63 28 45 29 48 30 62 31 81 32 46 33 47 34
REMARK SMILES IDX 61 36 82 37 49 38 33 39 34 40 42 41 35 42 36 43 40 44 43 45
REMARK SMILES IDX 37 46 38 47 41 48 39 49 65 50 66 51 74 52 67 53 68 54 72 55
REMARK SMILES IDX 75 56 69 57 70 58 73 59 71 60 50 61 51 62 59 63 52 64 53 65
REMARK SMILES IDX 57 66 60 67 54 68 55 69 58 70 56 71 6 72 7 73 8 74 9 75
REMARK SMILES IDX 10 76 11 77 12 79 13 80 14 81 22 82 15 83 21 84 23 85 16 86
REMARK SMILES IDX 20 87 17 88 19 89 18 90
REMARK H PARENT 3 6 80 24 48 35 10 78
REMARK Flexibility Score: inf
ROOT
ATOM      1  C   UNL A   1      38.171  21.980  25.395  1.00  0.00     0.021 C 
ENDROOT
BRANCH   1   2
ATOM      2  C   UNL A   1      39.261  21.797  26.449  1.00  0.00     0.116 C 
BRANCH   2   3
ATOM      3  N   UNL A   1      40.609  21.955  25.947  1.00  0.00    -0.352 N 
ATOM      4  O   UNL A   1      42.680  22.640  25.580  1.00  0.00    -0.269 OA
ATOM      5  C   UNL A   1      41.584  22.903  26.081  1.00  0.00     0.251 C 
ATOM      6  H   UNL A   1      40.890  21.204  25.377  1.00  0.00     0.163 HD
BRANCH   5   7
ATOM      7  C   UNL A   1      41.391  24.238  26.703  1.00  0.00     0.039 A 
ATOM      8  C   UNL A   1      40.570  25.258  26.221  1.00  0.00     0.014 A 
ATOM      9  C   UNL A   1      42.122  24.462  27.884  1.00  0.00     0.014 A 
ATOM     10  C   UNL A   1      40.566  26.506  26.840  1.00  0.00     0.010 A 
ATOM     11  C   UNL A   1      42.105  25.697  28.518  1.00  0.00     0.010 A 
ATOM     12  C   UNL A   1      41.360  26.734  27.968  1.00  0.00    -0.014 A 
BRANCH  12  13
ATOM     13  C   UNL A   1      41.278  28.029  28.639  1.00  0.00     0.031 A 
ATOM     14  C   UNL A   1      42.387  28.974  28.305  1.00  0.00     0.074 A 
ATOM     15  C   UNL A   1      40.214  28.408  29.379  1.00  0.00     0.049 A 
ATOM     16  N   UNL A   1      43.231  29.537  29.109  1.00  0.00    -0.248 NA
ATOM     17  C   UNL A   1      42.650  29.251  26.882  1.00  0.00     0.031 C 
ATOM     18  C   UNL A   1      38.941  27.709  29.569  1.00  0.00     0.029 A 
ATOM     19  N   UNL A   1      40.022  29.570  30.066  1.00  0.00    -0.354 N 
ATOM     20  C   UNL A   1      44.043  30.351  28.319  1.00  0.00     0.074 A 
ATOM     21  C   UNL A   1      43.715  30.051  26.950  1.00  0.00     0.031 C 
ATOM     22  C   UNL A   1      38.041  28.556  30.124  1.00  0.00     0.029 A 
ATOM     23  C   UNL A   1      38.709  29.802  30.458  1.00  0.00     0.049 A 
ATOM     24  H   UNL A   1      40.756  30.196  30.268  1.00  0.00     0.167 HD
ATOM     25  C   UNL A   1      44.809  31.342  28.855  1.00  0.00     0.037 A 
ATOM     26  C   UNL A   1      38.209  30.955  30.971  1.00  0.00     0.037 A 
ATOM     27  C   UNL A   1      44.993  31.159  30.268  1.00  0.00     0.049 A 
ATOM     28  C   UNL A   1      39.356  31.742  31.487  1.00  0.00     0.074 A 
ATOM     29  C   UNL A   1      45.631  30.218  31.050  1.00  0.00     0.029 A 
ATOM     30  N   UNL A   1      44.173  31.855  31.119  1.00  0.00    -0.354 N 
ATOM     31  N   UNL A   1      40.074  31.389  32.516  1.00  0.00    -0.248 NA
ATOM     32  C   UNL A   1      39.981  32.687  30.576  1.00  0.00     0.031 C 
ATOM     33  C   UNL A   1      44.801  30.072  32.200  1.00  0.00     0.029 A 
ATOM     34  C   UNL A   1      43.744  30.974  32.077  1.00  0.00     0.049 A 
ATOM     35  H   UNL A   1      43.937  32.808  31.053  1.00  0.00     0.167 HD
ATOM     36  C   UNL A   1      41.373  31.712  32.160  1.00  0.00     0.074 A 
ATOM     37  C   UNL A   1      41.247  32.574  30.986  1.00  0.00     0.031 C 
ATOM     38  C   UNL A   1      42.433  31.025  32.675  1.00  0.00     0.037 A 
BRANCH  25  39
ATOM     39  C   UNL A   1      45.129  32.648  28.173  1.00  0.00     0.064 A 
ATOM     40  C   UNL A   1      44.104  33.592  27.955  1.00  0.00     0.173 A 
ATOM     41  C   UNL A   1      46.327  32.873  27.463  1.00  0.00     0.173 A 
ATOM     42  F   UNL A   1      42.914  33.462  28.562  1.00  0.00    -0.203 F 
ATOM     43  C   UNL A   1      44.248  34.639  27.040  1.00  0.00     0.198 A 
ATOM     44  C   UNL A   1      46.483  33.948  26.589  1.00  0.00     0.198 A 
ATOM     45  F   UNL A   1      47.344  32.005  27.500  1.00  0.00    -0.203 F 
ATOM     46  F   UNL A   1      43.207  35.441  26.777  1.00  0.00    -0.200 F 
ATOM     47  C   UNL A   1      45.436  34.813  26.354  1.00  0.00     0.200 A 
ATOM     48  F   UNL A   1      47.635  34.087  25.916  1.00  0.00    -0.200 F 
ATOM     49  F   UNL A   1      45.555  35.779  25.434  1.00  0.00    -0.200 F 
ENDBRANCH  25  39
BRANCH  26  50
ATOM     50  C   UNL A   1      36.890  31.591  30.716  1.00  0.00     0.064 A 
ATOM     51  C   UNL A   1      35.987  31.835  31.767  1.00  0.00     0.173 A 
ATOM     52  C   UNL A   1      36.625  32.254  29.502  1.00  0.00     0.173 A 
ATOM     53  F   UNL A   1      36.190  31.279  32.971  1.00  0.00    -0.203 F 
ATOM     54  C   UNL A   1      34.911  32.718  31.624  1.00  0.00     0.198 A 
ATOM     55  C   UNL A   1      35.549  33.132  29.360  1.00  0.00     0.198 A 
ATOM     56  F   UNL A   1      37.466  32.146  28.463  1.00  0.00    -0.203 F 
ATOM     57  F   UNL A   1      34.115  32.981  32.671  1.00  0.00    -0.200 F 
ATOM     58  C   UNL A   1      34.702  33.378  30.424  1.00  0.00     0.200 A 
ATOM     59  F   UNL A   1      35.380  33.794  28.206  1.00  0.00    -0.200 F 
ATOM     60  F   UNL A   1      33.716  34.278  30.307  1.00  0.00    -0.200 F 
ENDBRANCH  26  50
BRANCH  38  61
ATOM     61  C   UNL A   1      42.165  30.071  33.806  1.00  0.00     0.064 A 
ATOM     62  C   UNL A   1      41.758  28.736  33.630  1.00  0.00     0.173 A 
ATOM     63  C   UNL A   1      42.481  30.481  35.107  1.00  0.00     0.173 A 
ATOM     64  F   UNL A   1      41.532  28.238  32.408  1.00  0.00    -0.203 F 
ATOM     65  C   UNL A   1      41.641  27.866  34.713  1.00  0.00     0.198 A 
ATOM     66  C   UNL A   1      42.400  29.599  36.182  1.00  0.00     0.198 A 
ATOM     67  F   UNL A   1      42.927  31.726  35.329  1.00  0.00    -0.203 F 
ATOM     68  F   UNL A   1      41.249  26.598  34.518  1.00  0.00    -0.200 F 
ATOM     69  C   UNL A   1      41.971  28.296  35.987  1.00  0.00     0.200 A 
ATOM     70  F   UNL A   1      42.770  30.005  37.405  1.00  0.00    -0.200 F 
ATOM     71  F   UNL A   1      41.907  27.447  37.023  1.00  0.00    -0.200 F 
ENDBRANCH  38  61
ENDBRANCH  12  13
ENDBRANCH   5   7
ENDBRANCH   2   3
ENDBRANCH   1   2
BRANCH   1  72
ATOM     72  C   UNL A   1      37.380  23.291  25.510  1.00  0.00     0.002 C 
BRANCH  72  73
ATOM     73  C   UNL A   1      36.099  23.376  24.672  1.00  0.00     0.002 C 
BRANCH  73  74
ATOM     74  C   UNL A   1      35.110  24.475  25.074  1.00  0.00     0.021 C 
BRANCH  74  75
ATOM     75  C   UNL A   1      33.673  24.249  24.616  1.00  0.00     0.116 C 
BRANCH  75  76
ATOM     76  N   UNL A   1      32.785  23.930  25.720  1.00  0.00    -0.351 N 
ATOM     77  C   UNL A   1      31.721  24.654  26.208  1.00  0.00     0.273 C 
ATOM     78  H   UNL A   1      32.969  23.080  26.182  1.00  0.00     0.163 HD
ATOM     79  O   UNL A   1      31.147  24.250  27.223  1.00  0.00    -0.267 OA
BRANCH  77  80
ATOM     80  C   UNL A   1      31.328  25.882  25.516  1.00  0.00     0.167 A 
ATOM     81  N   UNL A   1      30.251  25.907  24.708  1.00  0.00    -0.160 NA
ATOM     82  C   UNL A   1      31.942  27.153  25.564  1.00  0.00     0.095 A 
ATOM     83  N   UNL A   1      30.167  27.183  24.269  1.00  0.00    -0.219 N 
ATOM     84  C   UNL A   1      31.151  28.000  24.832  1.00  0.00     0.170 A 
ATOM     85  Br  UNL A   1      33.523  27.603  26.468  1.00  0.00    -0.044 Br
ATOM     86  C   UNL A   1      29.238  27.705  23.376  1.00  0.00     0.132 A 
ATOM     87  N   UNL A   1      31.203  29.349  24.592  1.00  0.00    -0.235 NA
ATOM     88  C   UNL A   1      29.254  29.009  23.072  1.00  0.00     0.054 A 
ATOM     89  C   UNL A   1      30.304  29.810  23.771  1.00  0.00     0.131 A 
ATOM     90  Br  UNL A   1      28.099  29.843  21.897  1.00  0.00    -0.047 Br
ENDBRANCH  77  80
ENDBRANCH  75  76
ENDBRANCH  74  75
ENDBRANCH  73  74
ENDBRANCH  72  73
ENDBRANCH   1  72
TORSDOF 13
ENDMDL
