MODEL 1
REMARK VINA RESULT:     -12.9      0.000      0.000
REMARK SMILES Cc1cc(C)n(CC(=O)N[C@@H]2C(=O)N3C(C(=O)NCCCCCCNC(=O)c4ccc(-c5c6nc(c(-c7c(F)c(F)c(F)c(F)c7F)c7ccc([nH]7)c(-c7c(F)c(F)c(F)c(F)c7F)c7nc(c(-c8c(F)c(F)c(F)c(F)c8F)c8ccc5[nH]8)C=C7)C=C6)cc4)=C(CSc4nnc(C)s4)CS[C@H]23)n1
REMARK SMILES IDX 21 1 20 2 19 3 18 4 16 5 17 6 15 8 11 9 12 10 102 11 13 12
REMARK SMILES IDX 14 13 101 14 100 15 91 16 10 17 8 18 9 19 7 21 6 22 1 23
REMARK SMILES IDX 2 24 3 25 103 26 4 27 5 28 92 29 93 30 94 31 95 32 99 33
REMARK SMILES IDX 96 34 97 35 98 36 22 37 23 38 24 39 25 40 26 41 27 43 28 44
REMARK SMILES IDX 29 45 90 46 30 47 89 48 31 49 32 50 33 51 83 52 34 53 88 54
REMARK SMILES IDX 82 55 84 56 35 57 87 58 81 59 80 60 36 62 68 63 48 64 67 65
REMARK SMILES IDX 49 66 52 67 66 68 85 69 50 70 51 71 65 73 86 74 53 75 37 76
REMARK SMILES IDX 38 77 46 78 39 79 40 80 44 81 47 82 41 83 42 84 45 85 43 86
REMARK SMILES IDX 69 87 70 88 78 89 71 90 72 91 76 92 79 93 73 94 74 95 77 96
REMARK SMILES IDX 75 97 54 98 55 99 63 100 56 101 57 102 61 103 64 104 58 105
REMARK SMILES IDX 59 106 62 107 60 108
REMARK H PARENT 18 7 10 20 25 42 84 61 52 72
REMARK Flexibility Score: inf
ROOT
ATOM      1  C   UNL A   1      39.673  22.363  26.501  1.00  0.00     0.002 C 
ENDROOT
BRANCH   1   2
ATOM      2  C   UNL A   1      38.446  21.865  25.735  1.00  0.00     0.021 C 
BRANCH   2   3
ATOM      3  C   UNL A   1      37.325  22.850  25.437  1.00  0.00     0.116 C 
BRANCH   3   4
ATOM      4  N   UNL A   1      36.361  23.150  26.459  1.00  0.00    -0.351 N 
ATOM      5  C   UNL A   1      35.006  22.968  26.481  1.00  0.00     0.268 C 
ATOM      6  O   UNL A   1      34.477  23.028  27.600  1.00  0.00    -0.268 OA
ATOM      7  H   UNL A   1      36.737  23.551  27.275  1.00  0.00     0.163 HD
BRANCH   5   8
ATOM      8  C   UNL A   1      34.088  22.685  25.280  1.00  0.00     0.111 C 
ATOM      9  C   UNL A   1      32.095  25.282  24.318  1.00  0.00     0.205 C 
ATOM     10  C   UNL A   1      33.519  25.138  24.923  1.00  0.00     0.253 C 
ATOM     11  C   UNL A   1      31.958  23.793  24.732  1.00  0.00     0.181 C 
ATOM     12  O   UNL A   1      34.383  25.912  25.294  1.00  0.00    -0.272 OA
ATOM     13  N   UNL A   1      33.396  23.794  24.862  1.00  0.00    -0.290 N 
ATOM     14  S   UNL A   1      31.347  22.637  23.521  1.00  0.00    -0.129 SA
ATOM     15  C   UNL A   1      32.690  21.437  23.560  1.00  0.00     0.106 C 
ATOM     16  C   UNL A   1      33.757  21.523  24.649  1.00  0.00    -0.020 C 
BRANCH   9  17
ATOM     17  N   UNL A   1      31.891  25.757  22.915  1.00  0.00    -0.340 N 
ATOM     18  C   UNL A   1      31.479  26.908  22.310  1.00  0.00     0.242 C 
ATOM     19  O   UNL A   1      31.429  26.862  21.071  1.00  0.00    -0.273 OA
ATOM     20  H   UNL A   1      32.111  25.057  22.258  1.00  0.00     0.164 HD
BRANCH  18  21
ATOM     21  C   UNL A   1      31.149  28.202  23.009  1.00  0.00     0.244 C 
BRANCH  21  22
ATOM     22  N   UNL A   1      29.847  28.724  22.662  1.00  0.00    -0.260 N 
ATOM     23  C   UNL A   1      28.079  31.292  21.032  1.00  0.00     0.069 C 
ATOM     24  C   UNL A   1      28.498  30.090  21.778  1.00  0.00     0.060 A 
ATOM     25  C   UNL A   1      27.713  29.172  22.497  1.00  0.00     0.048 A 
ATOM     26  N   UNL A   1      29.789  29.761  21.814  1.00  0.00    -0.178 NA
ATOM     27  C   UNL A   1      28.608  28.258  23.016  1.00  0.00     0.036 A 
ATOM     28  C   UNL A   1      28.385  27.028  23.807  1.00  0.00     0.066 C 
ENDBRANCH  21  22
ENDBRANCH  18  21
ENDBRANCH   9  17
BRANCH  16  29
ATOM     29  C   UNL A   1      34.302  20.154  24.936  1.00  0.00     0.111 C 
BRANCH  29  30
ATOM     30  S   UNL A   1      33.695  18.754  23.953  1.00  0.00    -0.089 SA
BRANCH  30  31
ATOM     31  C   UNL A   1      33.828  17.240  24.833  1.00  0.00     0.174 A 
ATOM     32  N   UNL A   1      34.855  16.425  24.717  1.00  0.00    -0.132 NA
ATOM     33  S   UNL A   1      32.447  16.498  25.560  1.00  0.00    -0.091 S 
ATOM     34  N   UNL A   1      34.557  15.133  25.134  1.00  0.00    -0.143 NA
ATOM     35  C   UNL A   1      33.306  15.010  25.525  1.00  0.00     0.115 A 
ATOM     36  C   UNL A   1      32.630  13.715  25.820  1.00  0.00     0.081 C 
ENDBRANCH  30  31
ENDBRANCH  29  30
ENDBRANCH  16  29
ENDBRANCH   5   8
ENDBRANCH   3   4
ENDBRANCH   2   3
ENDBRANCH   1   2
BRANCH   1  37
ATOM     37  C   UNL A   1      40.546  21.345  27.250  1.00  0.00     0.002 C 
BRANCH  37  38
ATOM     38  C   UNL A   1      41.129  20.152  26.481  1.00  0.00     0.021 C 
BRANCH  38  39
ATOM     39  C   UNL A   1      42.491  19.666  26.947  1.00  0.00     0.116 C 
BRANCH  39  40
ATOM     40  N   UNL A   1      43.451  19.473  25.865  1.00  0.00    -0.352 N 
ATOM     41  C   UNL A   1      44.017  20.442  25.058  1.00  0.00     0.251 C 
ATOM     42  H   UNL A   1      43.726  18.545  25.688  1.00  0.00     0.163 HD
ATOM     43  O   UNL A   1      44.536  20.153  23.988  1.00  0.00    -0.269 OA
BRANCH  41  44
ATOM     44  C   UNL A   1      43.971  21.847  25.503  1.00  0.00     0.039 A 
ATOM     45  C   UNL A   1      43.082  22.757  24.925  1.00  0.00     0.014 A 
ATOM     46  C   UNL A   1      44.805  22.234  26.549  1.00  0.00     0.014 A 
ATOM     47  C   UNL A   1      42.975  24.034  25.472  1.00  0.00     0.010 A 
ATOM     48  C   UNL A   1      44.599  23.441  27.174  1.00  0.00     0.010 A 
ATOM     49  C   UNL A   1      43.717  24.364  26.618  1.00  0.00    -0.014 A 
BRANCH  49  50
ATOM     50  C   UNL A   1      43.506  25.644  27.292  1.00  0.00     0.031 A 
ATOM     51  C   UNL A   1      44.475  26.727  26.950  1.00  0.00     0.074 A 
ATOM     52  C   UNL A   1      42.406  25.920  28.025  1.00  0.00     0.049 A 
ATOM     53  N   UNL A   1      45.280  27.351  27.747  1.00  0.00    -0.248 NA
ATOM     54  C   UNL A   1      44.616  27.117  25.539  1.00  0.00     0.031 C 
ATOM     55  C   UNL A   1      41.212  25.095  28.236  1.00  0.00     0.029 A 
ATOM     56  N   UNL A   1      42.088  27.076  28.672  1.00  0.00    -0.354 N 
ATOM     57  C   UNL A   1      45.933  28.314  26.978  1.00  0.00     0.074 A 
ATOM     58  C   UNL A   1      45.573  28.047  25.608  1.00  0.00     0.031 C 
ATOM     59  C   UNL A   1      40.226  25.851  28.765  1.00  0.00     0.029 A 
ATOM     60  C   UNL A   1      40.765  27.159  29.086  1.00  0.00     0.049 A 
ATOM     61  H   UNL A   1      42.742  27.793  28.833  1.00  0.00     0.167 HD
ATOM     62  C   UNL A   1      46.575  29.371  27.550  1.00  0.00     0.037 A 
ATOM     63  C   UNL A   1      40.152  28.236  29.635  1.00  0.00     0.037 A 
ATOM     64  C   UNL A   1      46.828  29.137  28.948  1.00  0.00     0.049 A 
ATOM     65  C   UNL A   1      41.217  29.118  30.172  1.00  0.00     0.074 A 
ATOM     66  C   UNL A   1      47.549  28.195  29.656  1.00  0.00     0.029 A 
ATOM     67  N   UNL A   1      46.004  29.733  29.870  1.00  0.00    -0.354 N 
ATOM     68  N   UNL A   1      41.956  28.815  31.202  1.00  0.00    -0.248 NA
ATOM     69  C   UNL A   1      41.759  30.145  29.294  1.00  0.00     0.031 C 
ATOM     70  C   UNL A   1      46.762  27.925  30.814  1.00  0.00     0.029 A 
ATOM     71  C   UNL A   1      45.646  28.762  30.767  1.00  0.00     0.049 A 
ATOM     72  H   UNL A   1      45.725  30.677  29.883  1.00  0.00     0.167 HD
ATOM     73  C   UNL A   1      43.220  29.279  30.876  1.00  0.00     0.074 A 
ATOM     74  C   UNL A   1      43.018  30.175  29.740  1.00  0.00     0.031 C 
ATOM     75  C   UNL A   1      44.340  28.679  31.374  1.00  0.00     0.037 A 
BRANCH  62  76
ATOM     76  C   UNL A   1      46.687  30.747  26.943  1.00  0.00     0.064 A 
ATOM     77  C   UNL A   1      47.939  31.396  26.918  1.00  0.00     0.173 A 
ATOM     78  C   UNL A   1      45.571  31.567  26.670  1.00  0.00     0.173 A 
ATOM     79  F   UNL A   1      49.066  30.717  27.181  1.00  0.00    -0.203 F 
ATOM     80  C   UNL A   1      48.053  32.775  26.717  1.00  0.00     0.198 A 
ATOM     81  C   UNL A   1      45.695  32.933  26.418  1.00  0.00     0.198 A 
ATOM     82  F   UNL A   1      44.317  31.107  26.751  1.00  0.00    -0.203 F 
ATOM     83  F   UNL A   1      49.249  33.368  26.832  1.00  0.00    -0.200 F 
ATOM     84  C   UNL A   1      46.930  33.543  26.475  1.00  0.00     0.200 A 
ATOM     85  F   UNL A   1      44.591  33.664  26.204  1.00  0.00    -0.200 F 
ATOM     86  F   UNL A   1      47.028  34.872  26.349  1.00  0.00    -0.200 F 
ENDBRANCH  62  76
BRANCH  63  87
ATOM     87  C   UNL A   1      38.741  28.673  29.512  1.00  0.00     0.064 A 
ATOM     88  C   UNL A   1      37.949  28.889  30.650  1.00  0.00     0.173 A 
ATOM     89  C   UNL A   1      38.233  29.169  28.297  1.00  0.00     0.173 A 
ATOM     90  F   UNL A   1      38.366  28.466  31.852  1.00  0.00    -0.203 F 
ATOM     91  C   UNL A   1      36.751  29.609  30.585  1.00  0.00     0.198 A 
ATOM     92  C   UNL A   1      37.040  29.890  28.233  1.00  0.00     0.198 A 
ATOM     93  F   UNL A   1      38.930  29.049  27.159  1.00  0.00    -0.203 F 
ATOM     94  F   UNL A   1      36.060  29.856  31.708  1.00  0.00    -0.200 F 
ATOM     95  C   UNL A   1      36.309  30.127  29.380  1.00  0.00     0.200 A 
ATOM     96  F   UNL A   1      36.645  30.412  27.063  1.00  0.00    -0.200 F 
ATOM     97  F   UNL A   1      35.207  30.887  29.331  1.00  0.00    -0.200 F 
ENDBRANCH  63  87
BRANCH  75  98
ATOM     98  C   UNL A   1      44.163  27.666  32.472  1.00  0.00     0.064 A 
ATOM     99  C   UNL A   1      44.084  26.279  32.254  1.00  0.00     0.173 A 
ATOM    100  C   UNL A   1      44.216  28.106  33.800  1.00  0.00     0.173 A 
ATOM    101  F   UNL A   1      44.134  25.769  31.018  1.00  0.00    -0.203 F 
ATOM    102  C   UNL A   1      44.009  25.382  33.317  1.00  0.00     0.198 A 
ATOM    103  C   UNL A   1      44.180  27.206  34.861  1.00  0.00     0.198 A 
ATOM    104  F   UNL A   1      44.352  29.414  34.070  1.00  0.00    -0.203 F 
ATOM    105  F   UNL A   1      43.918  24.064  33.081  1.00  0.00    -0.200 F 
ATOM    106  C   UNL A   1      44.064  25.845  34.621  1.00  0.00     0.200 A 
ATOM    107  F   UNL A   1      44.286  27.655  36.119  1.00  0.00    -0.200 F 
ATOM    108  F   UNL A   1      44.033  24.981  35.645  1.00  0.00    -0.200 F 
ENDBRANCH  75  98
ENDBRANCH  49  50
ENDBRANCH  41  44
ENDBRANCH  39  40
ENDBRANCH  38  39
ENDBRANCH  37  38
ENDBRANCH   1  37
TORSDOF 19
ENDMDL
MODEL 2
REMARK VINA RESULT:     -12.5      2.569      3.457
REMARK SMILES Cc1cc(C)n(CC(=O)N[C@@H]2C(=O)N3C(C(=O)NCCCCCCNC(=O)c4ccc(-c5c6nc(c(-c7c(F)c(F)c(F)c(F)c7F)c7ccc([nH]7)c(-c7c(F)c(F)c(F)c(F)c7F)c7nc(c(-c8c(F)c(F)c(F)c(F)c8F)c8ccc5[nH]8)C=C7)C=C6)cc4)=C(CSc4nnc(C)s4)CS[C@H]23)n1
REMARK SMILES IDX 21 1 20 2 19 3 18 4 16 5 17 6 15 8 11 9 12 10 102 11 13 12
REMARK SMILES IDX 14 13 101 14 100 15 91 16 10 17 8 18 9 19 7 21 6 22 1 23
REMARK SMILES IDX 2 24 3 25 103 26 4 27 5 28 92 29 93 30 94 31 95 32 99 33
REMARK SMILES IDX 96 34 97 35 98 36 22 37 23 38 24 39 25 40 26 41 27 43 28 44
REMARK SMILES IDX 29 45 90 46 30 47 89 48 31 49 32 50 33 51 83 52 34 53 88 54
REMARK SMILES IDX 82 55 84 56 35 57 87 58 81 59 80 60 36 62 68 63 48 64 67 65
REMARK SMILES IDX 49 66 52 67 66 68 85 69 50 70 51 71 65 73 86 74 53 75 37 76
REMARK SMILES IDX 38 77 46 78 39 79 40 80 44 81 47 82 41 83 42 84 45 85 43 86
REMARK SMILES IDX 69 87 70 88 78 89 71 90 72 91 76 92 79 93 73 94 74 95 77 96
REMARK SMILES IDX 75 97 54 98 55 99 63 100 56 101 57 102 61 103 64 104 58 105
REMARK SMILES IDX 59 106 62 107 60 108
REMARK H PARENT 18 7 10 20 25 42 84 61 52 72
REMARK Flexibility Score: inf
ROOT
ATOM      1  C   UNL A   1      38.749  24.129  26.900  1.00  0.00     0.002 C 
ENDROOT
BRANCH   1   2
ATOM      2  C   UNL A   1      37.846  23.417  25.892  1.00  0.00     0.021 C 
BRANCH   2   3
ATOM      3  C   UNL A   1      36.399  23.872  25.760  1.00  0.00     0.116 C 
BRANCH   3   4
ATOM      4  N   UNL A   1      35.411  23.344  26.660  1.00  0.00    -0.351 N 
ATOM      5  C   UNL A   1      34.135  22.912  26.422  1.00  0.00     0.268 C 
ATOM      6  O   UNL A   1      33.628  22.226  27.320  1.00  0.00    -0.268 OA
ATOM      7  H   UNL A   1      35.699  23.283  27.599  1.00  0.00     0.163 HD
BRANCH   5   8
ATOM      8  C   UNL A   1      33.286  23.175  25.167  1.00  0.00     0.111 C 
ATOM      9  C   UNL A   1      31.485  26.072  25.198  1.00  0.00     0.205 C 
ATOM     10  C   UNL A   1      32.857  25.610  25.761  1.00  0.00     0.253 C 
ATOM     11  C   UNL A   1      31.251  24.551  24.999  1.00  0.00     0.181 C 
ATOM     12  O   UNL A   1      33.731  26.122  26.438  1.00  0.00    -0.272 OA
ATOM     13  N   UNL A   1      32.677  24.404  25.181  1.00  0.00    -0.290 N 
ATOM     14  S   UNL A   1      30.668  23.991  23.411  1.00  0.00    -0.129 SA
ATOM     15  C   UNL A   1      31.947  22.779  23.041  1.00  0.00     0.106 C 
ATOM     16  C   UNL A   1      32.943  22.368  24.123  1.00  0.00    -0.020 C 
BRANCH   9  17
ATOM     17  N   UNL A   1      31.395  27.061  24.080  1.00  0.00    -0.340 N 
ATOM     18  C   UNL A   1      32.082  28.171  23.684  1.00  0.00     0.242 C 
ATOM     19  O   UNL A   1      31.635  28.729  22.669  1.00  0.00    -0.273 OA
ATOM     20  H   UNL A   1      30.647  26.857  23.473  1.00  0.00     0.164 HD
BRANCH  18  21
ATOM     21  C   UNL A   1      33.330  28.713  24.330  1.00  0.00     0.244 C 
BRANCH  21  22
ATOM     22  N   UNL A   1      33.062  29.612  25.429  1.00  0.00    -0.260 N 
ATOM     23  C   UNL A   1      30.941  32.119  26.691  1.00  0.00     0.069 C 
ATOM     24  C   UNL A   1      31.995  31.111  26.468  1.00  0.00     0.060 A 
ATOM     25  C   UNL A   1      33.143  30.842  27.235  1.00  0.00     0.048 A 
ATOM     26  N   UNL A   1      31.910  30.299  25.416  1.00  0.00    -0.178 NA
ATOM     27  C   UNL A   1      33.792  29.822  26.569  1.00  0.00     0.036 A 
ATOM     28  C   UNL A   1      35.018  29.069  26.913  1.00  0.00     0.066 C 
ENDBRANCH  21  22
ENDBRANCH  18  21
ENDBRANCH   9  17
BRANCH  16  29
ATOM     29  C   UNL A   1      33.403  20.959  23.882  1.00  0.00     0.111 C 
BRANCH  29  30
ATOM     30  S   UNL A   1      32.159  19.691  23.513  1.00  0.00    -0.089 SA
BRANCH  30  31
ATOM     31  C   UNL A   1      32.635  18.117  24.131  1.00  0.00     0.174 A 
ATOM     32  N   UNL A   1      32.227  17.643  25.288  1.00  0.00    -0.132 NA
ATOM     33  S   UNL A   1      34.005  17.279  23.492  1.00  0.00    -0.091 S 
ATOM     34  N   UNL A   1      33.048  16.626  25.763  1.00  0.00    -0.143 NA
ATOM     35  C   UNL A   1      34.065  16.388  24.962  1.00  0.00     0.115 A 
ATOM     36  C   UNL A   1      35.228  15.518  25.295  1.00  0.00     0.081 C 
ENDBRANCH  30  31
ENDBRANCH  29  30
ENDBRANCH  16  29
ENDBRANCH   5   8
ENDBRANCH   3   4
ENDBRANCH   2   3
ENDBRANCH   1   2
BRANCH   1  37
ATOM     37  C   UNL A   1      39.868  23.335  27.588  1.00  0.00     0.002 C 
BRANCH  37  38
ATOM     38  C   UNL A   1      40.601  22.241  26.798  1.00  0.00     0.021 C 
BRANCH  38  39
ATOM     39  C   UNL A   1      42.075  22.066  27.123  1.00  0.00     0.116 C 
BRANCH  39  40
ATOM     40  N   UNL A   1      42.970  22.497  26.055  1.00  0.00    -0.352 N 
ATOM     41  C   UNL A   1      43.157  23.782  25.580  1.00  0.00     0.251 C 
ATOM     42  H   UNL A   1      43.502  21.792  25.622  1.00  0.00     0.163 HD
ATOM     43  O   UNL A   1      43.664  23.986  24.485  1.00  0.00    -0.269 OA
BRANCH  41  44
ATOM     44  C   UNL A   1      42.717  24.914  26.415  1.00  0.00     0.039 A 
ATOM     45  C   UNL A   1      43.224  25.099  27.703  1.00  0.00     0.014 A 
ATOM     46  C   UNL A   1      41.816  25.825  25.868  1.00  0.00     0.014 A 
ATOM     47  C   UNL A   1      42.887  26.258  28.400  1.00  0.00     0.010 A 
ATOM     48  C   UNL A   1      41.598  27.028  26.496  1.00  0.00     0.010 A 
ATOM     49  C   UNL A   1      42.094  27.237  27.779  1.00  0.00    -0.014 A 
BRANCH  49  50
ATOM     50  C   UNL A   1      41.856  28.521  28.436  1.00  0.00     0.031 A 
ATOM     51  C   UNL A   1      42.870  29.585  28.173  1.00  0.00     0.074 A 
ATOM     52  C   UNL A   1      40.706  28.820  29.078  1.00  0.00     0.049 A 
ATOM     53  N   UNL A   1      43.621  30.193  29.034  1.00  0.00    -0.248 NA
ATOM     54  C   UNL A   1      43.131  29.971  26.778  1.00  0.00     0.031 C 
ATOM     55  C   UNL A   1      39.483  28.019  29.192  1.00  0.00     0.029 A 
ATOM     56  N   UNL A   1      40.360  29.982  29.699  1.00  0.00    -0.354 N 
ATOM     57  C   UNL A   1      44.353  31.142  28.320  1.00  0.00     0.074 A 
ATOM     58  C   UNL A   1      44.098  30.881  26.925  1.00  0.00     0.031 C 
ATOM     59  C   UNL A   1      38.472  28.795  29.641  1.00  0.00     0.029 A 
ATOM     60  C   UNL A   1      39.011  30.092  30.005  1.00  0.00     0.049 A 
ATOM     61  H   UNL A   1      41.014  30.687  29.912  1.00  0.00     0.167 HD
ATOM     62  C   UNL A   1      44.967  32.187  28.943  1.00  0.00     0.037 A 
ATOM     63  C   UNL A   1      38.376  31.181  30.505  1.00  0.00     0.037 A 
ATOM     64  C   UNL A   1      45.103  31.948  30.356  1.00  0.00     0.049 A 
ATOM     65  C   UNL A   1      39.413  32.042  31.126  1.00  0.00     0.074 A 
ATOM     66  C   UNL A   1      45.746  30.992  31.119  1.00  0.00     0.029 A 
ATOM     67  N   UNL A   1      44.220  32.561  31.209  1.00  0.00    -0.354 N 
ATOM     68  N   UNL A   1      40.060  31.725  32.211  1.00  0.00    -0.248 NA
ATOM     69  C   UNL A   1      40.044  33.057  30.296  1.00  0.00     0.031 C 
ATOM     70  C   UNL A   1      44.863  30.739  32.210  1.00  0.00     0.029 A 
ATOM     71  C   UNL A   1      43.772  31.598  32.074  1.00  0.00     0.049 A 
ATOM     72  H   UNL A   1      43.960  33.511  31.201  1.00  0.00     0.167 HD
ATOM     73  C   UNL A   1      41.356  32.163  31.989  1.00  0.00     0.074 A 
ATOM     74  C   UNL A   1      41.263  33.063  30.841  1.00  0.00     0.031 C 
ATOM     75  C   UNL A   1      42.420  31.542  32.574  1.00  0.00     0.037 A 
BRANCH  62  76
ATOM     76  C   UNL A   1      45.155  33.559  28.348  1.00  0.00     0.064 A 
ATOM     77  C   UNL A   1      46.450  34.113  28.274  1.00  0.00     0.173 A 
ATOM     78  C   UNL A   1      44.094  34.464  28.137  1.00  0.00     0.173 A 
ATOM     79  F   UNL A   1      47.534  33.349  28.476  1.00  0.00    -0.203 F 
ATOM     80  C   UNL A   1      46.659  35.483  28.085  1.00  0.00     0.198 A 
ATOM     81  C   UNL A   1      44.308  35.821  27.896  1.00  0.00     0.198 A 
ATOM     82  F   UNL A   1      42.814  34.098  28.269  1.00  0.00    -0.203 F 
ATOM     83  F   UNL A   1      47.900  35.983  28.152  1.00  0.00    -0.200 F 
ATOM     84  C   UNL A   1      45.587  36.336  27.904  1.00  0.00     0.200 A 
ATOM     85  F   UNL A   1      43.254  36.636  27.742  1.00  0.00    -0.200 F 
ATOM     86  F   UNL A   1      45.779  37.657  27.790  1.00  0.00    -0.200 F 
ENDBRANCH  62  76
BRANCH  63  87
ATOM     87  C   UNL A   1      36.990  31.646  30.269  1.00  0.00     0.064 A 
ATOM     88  C   UNL A   1      36.085  31.792  31.332  1.00  0.00     0.173 A 
ATOM     89  C   UNL A   1      36.613  32.235  29.047  1.00  0.00     0.173 A 
ATOM     90  F   UNL A   1      36.373  31.279  32.537  1.00  0.00    -0.203 F 
ATOM     91  C   UNL A   1      34.906  32.533  31.197  1.00  0.00     0.198 A 
ATOM     92  C   UNL A   1      35.438  32.976  28.913  1.00  0.00     0.198 A 
ATOM     93  F   UNL A   1      37.423  32.187  27.981  1.00  0.00    -0.203 F 
ATOM     94  F   UNL A   1      34.104  32.708  32.257  1.00  0.00    -0.200 F 
ATOM     95  C   UNL A   1      34.594  33.141  29.994  1.00  0.00     0.200 A 
ATOM     96  F   UNL A   1      35.170  33.586  27.750  1.00  0.00    -0.200 F 
ATOM     97  F   UNL A   1      33.509  33.919  29.887  1.00  0.00    -0.200 F 
ENDBRANCH  63  87
BRANCH  75  98
ATOM     98  C   UNL A   1      42.135  30.533  33.653  1.00  0.00     0.064 A 
ATOM     99  C   UNL A   1      41.838  29.181  33.405  1.00  0.00     0.173 A 
ATOM    100  C   UNL A   1      42.306  30.918  34.989  1.00  0.00     0.173 A 
ATOM    101  F   UNL A   1      41.763  28.708  32.156  1.00  0.00    -0.203 F 
ATOM    102  C   UNL A   1      41.671  28.273  34.448  1.00  0.00     0.198 A 
ATOM    103  C   UNL A   1      42.176  30.001  36.027  1.00  0.00     0.198 A 
ATOM    104  F   UNL A   1      42.648  32.182  35.284  1.00  0.00    -0.203 F 
ATOM    105  F   UNL A   1      41.372  26.991  34.183  1.00  0.00    -0.200 F 
ATOM    106  C   UNL A   1      41.846  28.681  35.759  1.00  0.00     0.200 A 
ATOM    107  F   UNL A   1      42.397  30.390  37.291  1.00  0.00    -0.200 F 
ATOM    108  F   UNL A   1      41.726  27.801  36.762  1.00  0.00    -0.200 F 
ENDBRANCH  75  98
ENDBRANCH  49  50
ENDBRANCH  41  44
ENDBRANCH  39  40
ENDBRANCH  38  39
ENDBRANCH  37  38
ENDBRANCH   1  37
TORSDOF 19
ENDMDL
MODEL 3
REMARK VINA RESULT:     -11.4      6.650     11.035
REMARK SMILES Cc1cc(C)n(CC(=O)N[C@@H]2C(=O)N3C(C(=O)NCCCCCCNC(=O)c4ccc(-c5c6nc(c(-c7c(F)c(F)c(F)c(F)c7F)c7ccc([nH]7)c(-c7c(F)c(F)c(F)c(F)c7F)c7nc(c(-c8c(F)c(F)c(F)c(F)c8F)c8ccc5[nH]8)C=C7)C=C6)cc4)=C(CSc4nnc(C)s4)CS[C@H]23)n1
REMARK SMILES IDX 21 1 20 2 19 3 18 4 16 5 17 6 15 8 11 9 12 10 102 11 13 12
REMARK SMILES IDX 14 13 101 14 100 15 91 16 10 17 8 18 9 19 7 21 6 22 1 23
REMARK SMILES IDX 2 24 3 25 103 26 4 27 5 28 92 29 93 30 94 31 95 32 99 33
REMARK SMILES IDX 96 34 97 35 98 36 22 37 23 38 24 39 25 40 26 41 27 43 28 44
REMARK SMILES IDX 29 45 90 46 30 47 89 48 31 49 32 50 33 51 83 52 34 53 88 54
REMARK SMILES IDX 82 55 84 56 35 57 87 58 81 59 80 60 36 62 68 63 48 64 67 65
REMARK SMILES IDX 49 66 52 67 66 68 85 69 50 70 51 71 65 73 86 74 53 75 37 76
REMARK SMILES IDX 38 77 46 78 39 79 40 80 44 81 47 82 41 83 42 84 45 85 43 86
REMARK SMILES IDX 69 87 70 88 78 89 71 90 72 91 76 92 79 93 73 94 74 95 77 96
REMARK SMILES IDX 75 97 54 98 55 99 63 100 56 101 57 102 61 103 64 104 58 105
REMARK SMILES IDX 59 106 62 107 60 108
REMARK H PARENT 18 7 10 20 25 42 84 61 52 72
REMARK Flexibility Score: inf
ROOT
ATOM      1  C   UNL A   1      41.159  27.995  34.124  1.00  0.00     0.002 C 
ENDROOT
BRANCH   1   2
ATOM      2  C   UNL A   1      41.864  28.960  33.169  1.00  0.00     0.021 C 
BRANCH   2   3
ATOM      3  C   UNL A   1      41.076  29.536  32.002  1.00  0.00     0.116 C 
BRANCH   3   4
ATOM      4  N   UNL A   1      41.394  30.850  31.518  1.00  0.00    -0.351 N 
ATOM      5  C   UNL A   1      41.164  32.080  32.071  1.00  0.00     0.268 C 
ATOM      6  O   UNL A   1      41.817  33.014  31.586  1.00  0.00    -0.268 OA
ATOM      7  H   UNL A   1      41.854  30.869  30.647  1.00  0.00     0.163 HD
BRANCH   5   8
ATOM      8  C   UNL A   1      40.202  32.412  33.224  1.00  0.00     0.111 C 
ATOM      9  C   UNL A   1      37.322  34.000  32.317  1.00  0.00     0.205 C 
ATOM     10  C   UNL A   1      38.255  32.939  31.674  1.00  0.00     0.253 C 
ATOM     11  C   UNL A   1      38.511  34.201  33.294  1.00  0.00     0.181 C 
ATOM     12  O   UNL A   1      38.290  32.349  30.608  1.00  0.00    -0.272 OA
ATOM     13  N   UNL A   1      39.012  32.942  32.793  1.00  0.00    -0.290 N 
ATOM     14  S   UNL A   1      38.172  34.195  35.043  1.00  0.00    -0.129 SA
ATOM     15  C   UNL A   1      39.326  32.912  35.559  1.00  0.00     0.106 C 
ATOM     16  C   UNL A   1      40.370  32.386  34.576  1.00  0.00    -0.020 C 
BRANCH   9  17
ATOM     17  N   UNL A   1      35.944  33.647  32.777  1.00  0.00    -0.340 N 
ATOM     18  C   UNL A   1      34.851  33.027  32.245  1.00  0.00     0.242 C 
ATOM     19  O   UNL A   1      33.865  32.966  32.997  1.00  0.00    -0.273 OA
ATOM     20  H   UNL A   1      35.784  33.938  33.705  1.00  0.00     0.164 HD
BRANCH  18  21
ATOM     21  C   UNL A   1      34.778  32.384  30.885  1.00  0.00     0.244 C 
BRANCH  21  22
ATOM     22  N   UNL A   1      34.644  33.337  29.807  1.00  0.00    -0.260 N 
ATOM     23  C   UNL A   1      33.278  36.417  28.797  1.00  0.00     0.069 C 
ATOM     24  C   UNL A   1      33.983  35.125  28.896  1.00  0.00     0.060 A 
ATOM     25  C   UNL A   1      34.622  34.382  27.887  1.00  0.00     0.048 A 
ATOM     26  N   UNL A   1      34.076  34.520  30.079  1.00  0.00    -0.178 NA
ATOM     27  C   UNL A   1      35.094  33.249  28.517  1.00  0.00     0.036 A 
ATOM     28  C   UNL A   1      35.900  32.120  28.000  1.00  0.00     0.066 C 
ENDBRANCH  21  22
ENDBRANCH  18  21
ENDBRANCH   9  17
BRANCH  16  29
ATOM     29  C   UNL A   1      41.584  31.920  35.326  1.00  0.00     0.111 C 
BRANCH  29  30
ATOM     30  S   UNL A   1      42.535  33.137  36.281  1.00  0.00    -0.089 SA
BRANCH  30  31
ATOM     31  C   UNL A   1      42.968  32.519  37.867  1.00  0.00     0.174 A 
ATOM     32  N   UNL A   1      42.278  31.590  38.493  1.00  0.00    -0.132 NA
ATOM     33  S   UNL A   1      44.050  33.381  38.902  1.00  0.00    -0.091 S 
ATOM     34  N   UNL A   1      42.525  31.578  39.862  1.00  0.00    -0.143 NA
ATOM     35  C   UNL A   1      43.372  32.517  40.225  1.00  0.00     0.115 A 
ATOM     36  C   UNL A   1      43.669  32.898  41.635  1.00  0.00     0.081 C 
ENDBRANCH  30  31
ENDBRANCH  29  30
ENDBRANCH  16  29
ENDBRANCH   5   8
ENDBRANCH   3   4
ENDBRANCH   2   3
ENDBRANCH   1   2
BRANCH   1  37
ATOM     37  C   UNL A   1      41.921  26.764  34.635  1.00  0.00     0.002 C 
BRANCH  37  38
ATOM     38  C   UNL A   1      41.895  26.440  36.135  1.00  0.00     0.021 C 
BRANCH  38  39
ATOM     39  C   UNL A   1      42.182  24.994  36.505  1.00  0.00     0.116 C 
BRANCH  39  40
ATOM     40  N   UNL A   1      43.422  24.811  37.251  1.00  0.00    -0.352 N 
ATOM     41  C   UNL A   1      44.654  24.429  36.756  1.00  0.00     0.251 C 
ATOM     42  H   UNL A   1      43.375  24.976  38.220  1.00  0.00     0.163 HD
ATOM     43  O   UNL A   1      45.526  23.986  37.494  1.00  0.00    -0.269 OA
BRANCH  41  44
ATOM     44  C   UNL A   1      44.902  24.549  35.308  1.00  0.00     0.039 A 
ATOM     45  C   UNL A   1      44.718  23.460  34.453  1.00  0.00     0.014 A 
ATOM     46  C   UNL A   1      45.280  25.792  34.805  1.00  0.00     0.014 A 
ATOM     47  C   UNL A   1      44.827  23.656  33.078  1.00  0.00     0.010 A 
ATOM     48  C   UNL A   1      45.248  26.016  33.449  1.00  0.00     0.010 A 
ATOM     49  C   UNL A   1      45.065  24.947  32.577  1.00  0.00    -0.014 A 
BRANCH  49  50
ATOM     50  C   UNL A   1      45.033  25.198  31.137  1.00  0.00     0.031 A 
ATOM     51  C   UNL A   1      46.068  26.140  30.617  1.00  0.00     0.074 A 
ATOM     52  C   UNL A   1      44.263  24.493  30.281  1.00  0.00     0.049 A 
ATOM     53  N   UNL A   1      45.882  27.266  30.008  1.00  0.00    -0.248 NA
ATOM     54  C   UNL A   1      47.484  25.827  30.866  1.00  0.00     0.031 C 
ATOM     55  C   UNL A   1      43.403  23.338  30.558  1.00  0.00     0.029 A 
ATOM     56  N   UNL A   1      44.171  24.616  28.927  1.00  0.00    -0.354 N 
ATOM     57  C   UNL A   1      47.146  27.745  29.665  1.00  0.00     0.074 A 
ATOM     58  C   UNL A   1      48.096  26.881  30.319  1.00  0.00     0.031 C 
ATOM     59  C   UNL A   1      43.057  22.740  29.397  1.00  0.00     0.029 A 
ATOM     60  C   UNL A   1      43.526  23.560  28.296  1.00  0.00     0.049 A 
ATOM     61  H   UNL A   1      44.530  25.390  28.437  1.00  0.00     0.167 HD
ATOM     62  C   UNL A   1      47.310  28.709  28.715  1.00  0.00     0.037 A 
ATOM     63  C   UNL A   1      43.406  23.364  26.960  1.00  0.00     0.037 A 
ATOM     64  C   UNL A   1      46.077  29.405  28.456  1.00  0.00     0.049 A 
ATOM     65  C   UNL A   1      43.625  24.677  26.305  1.00  0.00     0.074 A 
ATOM     66  C   UNL A   1      45.218  30.171  29.220  1.00  0.00     0.029 A 
ATOM     67  N   UNL A   1      45.364  29.072  27.330  1.00  0.00    -0.354 N 
ATOM     68  N   UNL A   1      42.794  25.677  26.394  1.00  0.00    -0.248 NA
ATOM     69  C   UNL A   1      44.983  25.026  25.913  1.00  0.00     0.031 C 
ATOM     70  C   UNL A   1      43.912  29.818  28.769  1.00  0.00     0.029 A 
ATOM     71  C   UNL A   1      44.062  28.908  27.722  1.00  0.00     0.049 A 
ATOM     72  H   UNL A   1      45.721  28.971  26.418  1.00  0.00     0.167 HD
ATOM     73  C   UNL A   1      43.602  26.798  26.496  1.00  0.00     0.074 A 
ATOM     74  C   UNL A   1      44.933  26.349  26.094  1.00  0.00     0.031 C 
ATOM     75  C   UNL A   1      43.181  27.911  27.164  1.00  0.00     0.037 A 
BRANCH  62  76
ATOM     76  C   UNL A   1      48.493  28.815  27.786  1.00  0.00     0.064 A 
ATOM     77  C   UNL A   1      48.812  27.731  26.942  1.00  0.00     0.173 A 
ATOM     78  C   UNL A   1      49.493  29.802  27.914  1.00  0.00     0.173 A 
ATOM     79  F   UNL A   1      47.943  26.726  26.761  1.00  0.00    -0.203 F 
ATOM     80  C   UNL A   1      50.068  27.607  26.340  1.00  0.00     0.198 A 
ATOM     81  C   UNL A   1      50.726  29.701  27.269  1.00  0.00     0.198 A 
ATOM     82  F   UNL A   1      49.364  30.836  28.752  1.00  0.00    -0.203 F 
ATOM     83  F   UNL A   1      50.372  26.497  25.654  1.00  0.00    -0.200 F 
ATOM     84  C   UNL A   1      51.027  28.589  26.511  1.00  0.00     0.200 A 
ATOM     85  F   UNL A   1      51.648  30.654  27.463  1.00  0.00    -0.200 F 
ATOM     86  F   UNL A   1      52.252  28.442  25.992  1.00  0.00    -0.200 F 
ENDBRANCH  62  76
BRANCH  63  87
ATOM     87  C   UNL A   1      43.361  22.092  26.201  1.00  0.00     0.064 A 
ATOM     88  C   UNL A   1      44.540  21.477  25.751  1.00  0.00     0.173 A 
ATOM     89  C   UNL A   1      42.194  21.307  26.158  1.00  0.00     0.173 A 
ATOM     90  F   UNL A   1      45.702  22.147  25.776  1.00  0.00    -0.203 F 
ATOM     91  C   UNL A   1      44.561  20.140  25.341  1.00  0.00     0.198 A 
ATOM     92  C   UNL A   1      42.215  19.972  25.751  1.00  0.00     0.198 A 
ATOM     93  F   UNL A   1      41.025  21.787  26.601  1.00  0.00    -0.203 F 
ATOM     94  F   UNL A   1      45.721  19.569  24.987  1.00  0.00    -0.200 F 
ATOM     95  C   UNL A   1      43.402  19.383  25.361  1.00  0.00     0.200 A 
ATOM     96  F   UNL A   1      41.091  19.245  25.809  1.00  0.00    -0.200 F 
ATOM     97  F   UNL A   1      43.436  18.081  25.048  1.00  0.00    -0.200 F 
ENDBRANCH  63  87
BRANCH  75  98
ATOM     98  C   UNL A   1      41.734  27.979  27.569  1.00  0.00     0.064 A 
ATOM     99  C   UNL A   1      41.228  27.446  28.768  1.00  0.00     0.173 A 
ATOM    100  C   UNL A   1      40.855  28.732  26.780  1.00  0.00     0.173 A 
ATOM    101  F   UNL A   1      42.026  26.804  29.630  1.00  0.00    -0.203 F 
ATOM    102  C   UNL A   1      39.894  27.617  29.131  1.00  0.00     0.198 A 
ATOM    103  C   UNL A   1      39.533  28.934  27.164  1.00  0.00     0.198 A 
ATOM    104  F   UNL A   1      41.296  29.315  25.654  1.00  0.00    -0.203 F 
ATOM    105  F   UNL A   1      39.434  27.084  30.274  1.00  0.00    -0.200 F 
ATOM    106  C   UNL A   1      39.048  28.367  28.332  1.00  0.00     0.200 A 
ATOM    107  F   UNL A   1      38.732  29.703  26.413  1.00  0.00    -0.200 F 
ATOM    108  F   UNL A   1      37.775  28.567  28.699  1.00  0.00    -0.200 F 
ENDBRANCH  75  98
ENDBRANCH  49  50
ENDBRANCH  41  44
ENDBRANCH  39  40
ENDBRANCH  38  39
ENDBRANCH  37  38
ENDBRANCH   1  37
TORSDOF 19
ENDMDL
