MODEL 1
REMARK VINA RESULT:     -11.6      0.000      0.000
REMARK SMILES O=C(NCCCCCCNC(=O)[C@H]1CC[C@H](CNS(=O)(=O)C[C@H]2CCCO2)O1)c1ccc(-c2c3nc(c(-c4c(F)c(F)c(F)c(F)c4F)c4ccc([nH]4)c(-c4c(F)c(F)c(F)c(F)c4F)c4nc(c(-c5c(F)c(F)c(F)c(F)c5F)c5ccc2[nH]5)C=C4)C=C3)cc1
REMARK SMILES IDX 8 1 7 2 6 3 5 4 4 5 3 6 1 7 2 8 29 10 30 11 91 12 31 13
REMARK SMILES IDX 90 14 32 15 33 16 34 17 84 18 35 19 89 20 83 21 85 22 36 23
REMARK SMILES IDX 88 24 82 25 81 26 37 28 69 29 49 30 68 31 50 32 53 33 67 34
REMARK SMILES IDX 86 35 51 36 52 37 66 39 87 40 54 41 38 42 39 43 47 44 40 45
REMARK SMILES IDX 41 46 45 47 48 48 42 49 43 50 46 51 44 52 70 53 71 54 79 55
REMARK SMILES IDX 72 56 73 57 77 58 80 59 74 60 75 61 78 62 76 63 55 64 56 65
REMARK SMILES IDX 64 66 57 67 58 68 62 69 65 70 59 71 60 72 63 73 61 74 9 75
REMARK SMILES IDX 10 76 11 77 12 79 13 80 14 81 28 82 15 83 16 84 17 85 18 86
REMARK SMILES IDX 19 88 20 89 21 90 22 91 23 92 24 93 27 94 25 95 26 96
REMARK H PARENT 3 9 85 27 53 38 10 78 18 87
REMARK Flexibility Score: inf
ROOT
ATOM      1  C   UNL A   1      32.759  28.822  26.832  1.00  0.00     0.021 C 
ENDROOT
BRANCH   1   2
ATOM      2  C   UNL A   1      32.526  30.285  27.221  1.00  0.00     0.002 C 
BRANCH   2   3
ATOM      3  C   UNL A   1      31.495  31.016  26.352  1.00  0.00     0.002 C 
BRANCH   3   4
ATOM      4  C   UNL A   1      31.473  32.533  26.533  1.00  0.00     0.021 C 
BRANCH   4   5
ATOM      5  C   UNL A   1      32.659  33.065  27.322  1.00  0.00     0.116 C 
BRANCH   5   6
ATOM      6  N   UNL A   1      32.453  34.445  27.744  1.00  0.00    -0.352 N 
ATOM      7  O   UNL A   1      32.585  36.205  29.160  1.00  0.00    -0.269 OA
ATOM      8  C   UNL A   1      33.025  35.120  28.795  1.00  0.00     0.251 C 
ATOM      9  H   UNL A   1      31.818  34.965  27.201  1.00  0.00     0.163 HD
BRANCH   8  10
ATOM     10  C   UNL A   1      34.176  34.511  29.488  1.00  0.00     0.039 A 
ATOM     11  C   UNL A   1      35.450  34.629  28.933  1.00  0.00     0.014 A 
ATOM     12  C   UNL A   1      33.984  33.801  30.676  1.00  0.00     0.014 A 
ATOM     13  C   UNL A   1      36.495  33.891  29.461  1.00  0.00     0.010 A 
ATOM     14  C   UNL A   1      35.072  33.166  31.282  1.00  0.00     0.010 A 
ATOM     15  C   UNL A   1      36.332  33.183  30.664  1.00  0.00    -0.014 A 
BRANCH  15  16
ATOM     16  C   UNL A   1      37.535  32.567  31.277  1.00  0.00     0.031 A 
ATOM     17  C   UNL A   1      38.008  32.946  32.649  1.00  0.00     0.074 A 
ATOM     18  C   UNL A   1      38.157  31.592  30.585  1.00  0.00     0.049 A 
ATOM     19  N   UNL A   1      38.998  32.442  33.344  1.00  0.00    -0.248 NA
ATOM     20  C   UNL A   1      37.290  34.032  33.334  1.00  0.00     0.031 C 
ATOM     21  C   UNL A   1      37.794  31.161  29.232  1.00  0.00     0.029 A 
ATOM     22  N   UNL A   1      39.191  30.761  30.927  1.00  0.00    -0.354 N 
ATOM     23  C   UNL A   1      39.025  33.147  34.539  1.00  0.00     0.074 A 
ATOM     24  C   UNL A   1      37.979  34.144  34.462  1.00  0.00     0.031 C 
ATOM     25  C   UNL A   1      38.542  30.106  28.887  1.00  0.00     0.029 A 
ATOM     26  C   UNL A   1      39.496  29.841  29.954  1.00  0.00     0.049 A 
ATOM     27  H   UNL A   1      39.669  30.818  31.787  1.00  0.00     0.167 HD
ATOM     28  C   UNL A   1      39.843  32.964  35.605  1.00  0.00     0.037 A 
ATOM     29  C   UNL A   1      40.456  28.901  29.911  1.00  0.00     0.037 A 
ATOM     30  C   UNL A   1      40.886  31.970  35.667  1.00  0.00     0.049 A 
ATOM     31  C   UNL A   1      41.365  28.749  31.095  1.00  0.00     0.074 A 
ATOM     32  C   UNL A   1      41.766  31.704  36.701  1.00  0.00     0.029 A 
ATOM     33  N   UNL A   1      41.192  31.079  34.646  1.00  0.00    -0.354 N 
ATOM     34  N   UNL A   1      41.361  29.405  32.230  1.00  0.00    -0.248 NA
ATOM     35  C   UNL A   1      42.410  27.724  30.994  1.00  0.00     0.031 C 
ATOM     36  C   UNL A   1      42.637  30.689  36.288  1.00  0.00     0.029 A 
ATOM     37  C   UNL A   1      42.259  30.275  35.021  1.00  0.00     0.049 A 
ATOM     38  H   UNL A   1      40.721  31.025  33.784  1.00  0.00     0.167 HD
ATOM     39  C   UNL A   1      42.393  28.864  32.983  1.00  0.00     0.074 A 
ATOM     40  C   UNL A   1      42.973  27.801  32.190  1.00  0.00     0.031 C 
ATOM     41  C   UNL A   1      42.829  29.224  34.216  1.00  0.00     0.037 A 
BRANCH  28  42
ATOM     42  C   UNL A   1      39.653  33.862  36.796  1.00  0.00     0.064 A 
ATOM     43  C   UNL A   1      38.872  33.470  37.896  1.00  0.00     0.173 A 
ATOM     44  C   UNL A   1      40.308  35.101  36.870  1.00  0.00     0.173 A 
ATOM     45  F   UNL A   1      38.215  32.301  37.876  1.00  0.00    -0.203 F 
ATOM     46  C   UNL A   1      38.741  34.292  39.013  1.00  0.00     0.198 A 
ATOM     47  C   UNL A   1      40.200  35.907  38.001  1.00  0.00     0.198 A 
ATOM     48  F   UNL A   1      41.073  35.523  35.851  1.00  0.00    -0.203 F 
ATOM     49  F   UNL A   1      37.960  33.914  40.033  1.00  0.00    -0.200 F 
ATOM     50  C   UNL A   1      39.413  35.504  39.069  1.00  0.00     0.200 A 
ATOM     51  F   UNL A   1      40.862  37.070  38.060  1.00  0.00    -0.200 F 
ATOM     52  F   UNL A   1      39.297  36.287  40.151  1.00  0.00    -0.200 F 
ENDBRANCH  28  42
BRANCH  29  53
ATOM     53  C   UNL A   1      40.622  28.065  28.693  1.00  0.00     0.064 A 
ATOM     54  C   UNL A   1      41.410  28.489  27.616  1.00  0.00     0.173 A 
ATOM     55  C   UNL A   1      39.984  26.819  28.581  1.00  0.00     0.173 A 
ATOM     56  F   UNL A   1      42.031  29.678  27.667  1.00  0.00    -0.203 F 
ATOM     57  C   UNL A   1      41.526  27.718  26.462  1.00  0.00     0.198 A 
ATOM     58  C   UNL A   1      40.134  26.030  27.445  1.00  0.00     0.198 A 
ATOM     59  F   UNL A   1      39.226  26.358  29.588  1.00  0.00    -0.203 F 
ATOM     60  F   UNL A   1      42.235  28.177  25.421  1.00  0.00    -0.200 F 
ATOM     61  C   UNL A   1      40.894  26.487  26.380  1.00  0.00     0.200 A 
ATOM     62  F   UNL A   1      39.542  24.830  27.382  1.00  0.00    -0.200 F 
ATOM     63  F   UNL A   1      41.009  25.744  25.271  1.00  0.00    -0.200 F 
ENDBRANCH  29  53
BRANCH  41  64
ATOM     64  C   UNL A   1      43.973  28.433  34.783  1.00  0.00     0.064 A 
ATOM     65  C   UNL A   1      45.307  28.829  34.600  1.00  0.00     0.173 A 
ATOM     66  C   UNL A   1      43.732  27.259  35.513  1.00  0.00     0.173 A 
ATOM     67  F   UNL A   1      45.592  29.935  33.894  1.00  0.00    -0.203 F 
ATOM     68  C   UNL A   1      46.357  28.054  35.085  1.00  0.00     0.198 A 
ATOM     69  C   UNL A   1      44.783  26.509  36.031  1.00  0.00     0.198 A 
ATOM     70  F   UNL A   1      42.475  26.840  35.726  1.00  0.00    -0.203 F 
ATOM     71  F   UNL A   1      47.623  28.413  34.832  1.00  0.00    -0.200 F 
ATOM     72  C   UNL A   1      46.095  26.899  35.804  1.00  0.00     0.200 A 
ATOM     73  F   UNL A   1      44.528  25.400  36.740  1.00  0.00    -0.200 F 
ATOM     74  F   UNL A   1      47.107  26.153  36.269  1.00  0.00    -0.200 F 
ENDBRANCH  41  64
ENDBRANCH  15  16
ENDBRANCH   8  10
ENDBRANCH   5   6
ENDBRANCH   4   5
ENDBRANCH   3   4
ENDBRANCH   2   3
ENDBRANCH   1   2
BRANCH   1  75
ATOM     75  C   UNL A   1      34.146  28.582  26.236  1.00  0.00     0.116 C 
BRANCH  75  76
ATOM     76  N   UNL A   1      34.131  28.778  24.806  1.00  0.00    -0.354 N 
ATOM     77  C   UNL A   1      33.750  27.925  23.815  1.00  0.00     0.249 C 
ATOM     78  H   UNL A   1      34.442  29.662  24.502  1.00  0.00     0.163 HD
ATOM     79  O   UNL A   1      33.909  28.301  22.649  1.00  0.00    -0.272 OA
BRANCH  77  80
ATOM     80  C   UNL A   1      33.159  26.531  24.123  1.00  0.00     0.207 C 
ATOM     81  C   UNL A   1      32.425  25.884  22.962  1.00  0.00     0.045 C 
ATOM     82  O   UNL A   1      34.125  25.603  24.622  1.00  0.00    -0.364 OA
ATOM     83  C   UNL A   1      33.162  24.597  22.684  1.00  0.00     0.037 C 
ATOM     84  C   UNL A   1      34.017  24.360  23.920  1.00  0.00     0.134 C 
BRANCH  84  85
ATOM     85  C   UNL A   1      33.451  23.272  24.839  1.00  0.00     0.130 C 
BRANCH  85  86
ATOM     86  N   UNL A   1      33.704  21.964  24.247  1.00  0.00    -0.213 NA
ATOM     87  H   UNL A   1      34.495  21.568  24.753  1.00  0.00     0.141 HD
BRANCH  86  88
ATOM     88  S   UNL A   1      32.544  20.790  24.208  1.00  0.00     0.214 S 
ATOM     89  O   UNL A   1      31.589  21.103  25.244  1.00  0.00    -0.212 OA
ATOM     90  O   UNL A   1      32.122  20.688  22.824  1.00  0.00    -0.212 OA
BRANCH  88  91
ATOM     91  C   UNL A   1      33.368  19.279  24.664  1.00  0.00     0.185 C 
BRANCH  91  92
ATOM     92  C   UNL A   1      32.604  17.974  24.451  1.00  0.00     0.134 C 
ATOM     93  C   UNL A   1      33.158  17.201  23.256  1.00  0.00     0.035 C 
ATOM     94  O   UNL A   1      32.701  17.063  25.553  1.00  0.00    -0.377 OA
ATOM     95  C   UNL A   1      34.253  16.379  23.895  1.00  0.00     0.031 C 
ATOM     96  C   UNL A   1      33.644  16.028  25.234  1.00  0.00     0.160 C 
ENDBRANCH  91  92
ENDBRANCH  88  91
ENDBRANCH  86  88
ENDBRANCH  85  86
ENDBRANCH  84  85
ENDBRANCH  77  80
ENDBRANCH  75  76
ENDBRANCH   1  75
TORSDOF 18
ENDMDL
MODEL 2
REMARK VINA RESULT:     -11.5      1.340      2.071
REMARK SMILES O=C(NCCCCCCNC(=O)[C@H]1CC[C@H](CNS(=O)(=O)C[C@H]2CCCO2)O1)c1ccc(-c2c3nc(c(-c4c(F)c(F)c(F)c(F)c4F)c4ccc([nH]4)c(-c4c(F)c(F)c(F)c(F)c4F)c4nc(c(-c5c(F)c(F)c(F)c(F)c5F)c5ccc2[nH]5)C=C4)C=C3)cc1
REMARK SMILES IDX 8 1 7 2 6 3 5 4 4 5 3 6 1 7 2 8 29 10 30 11 91 12 31 13
REMARK SMILES IDX 90 14 32 15 33 16 34 17 84 18 35 19 89 20 83 21 85 22 36 23
REMARK SMILES IDX 88 24 82 25 81 26 37 28 69 29 49 30 68 31 50 32 53 33 67 34
REMARK SMILES IDX 86 35 51 36 52 37 66 39 87 40 54 41 38 42 39 43 47 44 40 45
REMARK SMILES IDX 41 46 45 47 48 48 42 49 43 50 46 51 44 52 70 53 71 54 79 55
REMARK SMILES IDX 72 56 73 57 77 58 80 59 74 60 75 61 78 62 76 63 55 64 56 65
REMARK SMILES IDX 64 66 57 67 58 68 62 69 65 70 59 71 60 72 63 73 61 74 9 75
REMARK SMILES IDX 10 76 11 77 12 79 13 80 14 81 28 82 15 83 16 84 17 85 18 86
REMARK SMILES IDX 19 88 20 89 21 90 22 91 23 92 24 93 27 94 25 95 26 96
REMARK H PARENT 3 9 85 27 53 38 10 78 18 87
REMARK Flexibility Score: inf
ROOT
ATOM      1  C   UNL A   1      32.677  28.655  27.052  1.00  0.00     0.021 C 
ENDROOT
BRANCH   1   2
ATOM      2  C   UNL A   1      32.726  30.185  27.023  1.00  0.00     0.002 C 
BRANCH   2   3
ATOM      3  C   UNL A   1      31.482  30.848  26.418  1.00  0.00     0.002 C 
BRANCH   3   4
ATOM      4  C   UNL A   1      31.402  32.359  26.629  1.00  0.00     0.021 C 
BRANCH   4   5
ATOM      5  C   UNL A   1      32.663  32.953  27.237  1.00  0.00     0.116 C 
BRANCH   5   6
ATOM      6  N   UNL A   1      32.460  34.331  27.667  1.00  0.00    -0.352 N 
ATOM      7  O   UNL A   1      32.601  36.085  29.088  1.00  0.00    -0.269 OA
ATOM      8  C   UNL A   1      33.039  35.002  28.716  1.00  0.00     0.251 C 
ATOM      9  H   UNL A   1      31.821  34.853  27.130  1.00  0.00     0.163 HD
BRANCH   8  10
ATOM     10  C   UNL A   1      34.195  34.391  29.398  1.00  0.00     0.039 A 
ATOM     11  C   UNL A   1      35.479  34.605  28.895  1.00  0.00     0.014 A 
ATOM     12  C   UNL A   1      34.002  33.584  30.522  1.00  0.00     0.014 A 
ATOM     13  C   UNL A   1      36.540  33.874  29.399  1.00  0.00     0.010 A 
ATOM     14  C   UNL A   1      35.098  32.950  31.113  1.00  0.00     0.010 A 
ATOM     15  C   UNL A   1      36.374  33.069  30.538  1.00  0.00    -0.014 A 
BRANCH  15  16
ATOM     16  C   UNL A   1      37.585  32.458  31.142  1.00  0.00     0.031 A 
ATOM     17  C   UNL A   1      38.063  32.835  32.513  1.00  0.00     0.074 A 
ATOM     18  C   UNL A   1      38.210  31.490  30.442  1.00  0.00     0.049 A 
ATOM     19  N   UNL A   1      39.061  32.335  33.200  1.00  0.00    -0.248 NA
ATOM     20  C   UNL A   1      37.342  33.913  33.206  1.00  0.00     0.031 C 
ATOM     21  C   UNL A   1      37.841  31.063  29.089  1.00  0.00     0.029 A 
ATOM     22  N   UNL A   1      39.252  30.665  30.775  1.00  0.00    -0.354 N 
ATOM     23  C   UNL A   1      39.091  33.035  34.398  1.00  0.00     0.074 A 
ATOM     24  C   UNL A   1      38.037  34.025  34.331  1.00  0.00     0.031 C 
ATOM     25  C   UNL A   1      38.595  30.015  28.735  1.00  0.00     0.029 A 
ATOM     26  C   UNL A   1      39.558  29.752  29.796  1.00  0.00     0.049 A 
ATOM     27  H   UNL A   1      39.734  30.722  31.631  1.00  0.00     0.167 HD
ATOM     28  C   UNL A   1      39.916  32.853  35.458  1.00  0.00     0.037 A 
ATOM     29  C   UNL A   1      40.524  28.819  29.743  1.00  0.00     0.037 A 
ATOM     30  C   UNL A   1      40.967  31.867  35.509  1.00  0.00     0.049 A 
ATOM     31  C   UNL A   1      41.441  28.668  30.921  1.00  0.00     0.074 A 
ATOM     32  C   UNL A   1      41.855  31.602  36.537  1.00  0.00     0.029 A 
ATOM     33  N   UNL A   1      41.273  30.982  34.483  1.00  0.00    -0.354 N 
ATOM     34  N   UNL A   1      41.439  29.319  32.059  1.00  0.00    -0.248 NA
ATOM     35  C   UNL A   1      42.492  27.651  30.810  1.00  0.00     0.031 C 
ATOM     36  C   UNL A   1      42.730  30.595  36.115  1.00  0.00     0.029 A 
ATOM     37  C   UNL A   1      42.348  30.184  34.848  1.00  0.00     0.049 A 
ATOM     38  H   UNL A   1      40.796  30.928  33.623  1.00  0.00     0.167 HD
ATOM     39  C   UNL A   1      42.479  28.783  32.803  1.00  0.00     0.074 A 
ATOM     40  C   UNL A   1      43.062  27.727  32.002  1.00  0.00     0.031 C 
ATOM     41  C   UNL A   1      42.920  29.141  34.035  1.00  0.00     0.037 A 
BRANCH  28  42
ATOM     42  C   UNL A   1      39.727  33.745  36.654  1.00  0.00     0.064 A 
ATOM     43  C   UNL A   1      40.328  35.011  36.731  1.00  0.00     0.173 A 
ATOM     44  C   UNL A   1      38.883  33.359  37.708  1.00  0.00     0.173 A 
ATOM     45  F   UNL A   1      41.151  35.428  35.757  1.00  0.00    -0.203 F 
ATOM     46  C   UNL A   1      40.107  35.847  37.824  1.00  0.00     0.198 A 
ATOM     47  C   UNL A   1      38.640  34.208  38.785  1.00  0.00     0.198 A 
ATOM     48  F   UNL A   1      38.277  32.162  37.684  1.00  0.00    -0.203 F 
ATOM     49  F   UNL A   1      40.723  37.034  37.892  1.00  0.00    -0.200 F 
ATOM     50  C   UNL A   1      39.256  35.449  38.844  1.00  0.00     0.200 A 
ATOM     51  F   UNL A   1      37.806  33.829  39.761  1.00  0.00    -0.200 F 
ATOM     52  F   UNL A   1      39.034  36.261  39.887  1.00  0.00    -0.200 F 
ENDBRANCH  28  42
BRANCH  29  53
ATOM     53  C   UNL A   1      40.688  27.989  28.520  1.00  0.00     0.064 A 
ATOM     54  C   UNL A   1      41.461  28.426  27.438  1.00  0.00     0.173 A 
ATOM     55  C   UNL A   1      40.063  26.737  28.409  1.00  0.00     0.173 A 
ATOM     56  F   UNL A   1      42.070  29.622  27.488  1.00  0.00    -0.203 F 
ATOM     57  C   UNL A   1      41.576  27.660  26.280  1.00  0.00     0.198 A 
ATOM     58  C   UNL A   1      40.212  25.953  27.269  1.00  0.00     0.198 A 
ATOM     59  F   UNL A   1      39.319  26.264  29.421  1.00  0.00    -0.203 F 
ATOM     60  F   UNL A   1      42.271  28.131  25.235  1.00  0.00    -0.200 F 
ATOM     61  C   UNL A   1      40.957  26.422  26.199  1.00  0.00     0.200 A 
ATOM     62  F   UNL A   1      39.633  24.747  27.207  1.00  0.00    -0.200 F 
ATOM     63  F   UNL A   1      41.071  25.685  25.086  1.00  0.00    -0.200 F 
ENDBRANCH  29  53
BRANCH  41  64
ATOM     64  C   UNL A   1      44.073  28.356  34.592  1.00  0.00     0.064 A 
ATOM     65  C   UNL A   1      45.403  28.765  34.407  1.00  0.00     0.173 A 
ATOM     66  C   UNL A   1      43.845  27.174  35.314  1.00  0.00     0.173 A 
ATOM     67  F   UNL A   1      45.676  29.878  33.709  1.00  0.00    -0.203 F 
ATOM     68  C   UNL A   1      46.461  27.996  34.883  1.00  0.00     0.198 A 
ATOM     69  C   UNL A   1      44.904  26.429  35.821  1.00  0.00     0.198 A 
ATOM     70  F   UNL A   1      42.593  26.741  35.527  1.00  0.00    -0.203 F 
ATOM     71  F   UNL A   1      47.723  28.368  34.628  1.00  0.00    -0.200 F 
ATOM     72  C   UNL A   1      46.212  26.832  35.593  1.00  0.00     0.200 A 
ATOM     73  F   UNL A   1      44.662  25.313  36.523  1.00  0.00    -0.200 F 
ATOM     74  F   UNL A   1      47.232  26.092  36.049  1.00  0.00    -0.200 F 
ENDBRANCH  41  64
ENDBRANCH  15  16
ENDBRANCH   8  10
ENDBRANCH   5   6
ENDBRANCH   4   5
ENDBRANCH   3   4
ENDBRANCH   2   3
ENDBRANCH   1   2
BRANCH   1  75
ATOM     75  C   UNL A   1      33.851  28.011  26.315  1.00  0.00     0.116 C 
BRANCH  75  76
ATOM     76  N   UNL A   1      34.038  28.618  25.018  1.00  0.00    -0.354 N 
ATOM     77  C   UNL A   1      33.481  28.293  23.818  1.00  0.00     0.249 C 
ATOM     78  H   UNL A   1      34.661  29.380  24.999  1.00  0.00     0.163 HD
ATOM     79  O   UNL A   1      33.868  28.917  22.825  1.00  0.00    -0.272 OA
BRANCH  77  80
ATOM     80  C   UNL A   1      32.423  27.176  23.688  1.00  0.00     0.207 C 
ATOM     81  C   UNL A   1      31.530  27.289  22.464  1.00  0.00     0.045 C 
ATOM     82  O   UNL A   1      32.979  25.859  23.723  1.00  0.00    -0.364 OA
ATOM     83  C   UNL A   1      31.762  26.022  21.676  1.00  0.00     0.037 C 
ATOM     84  C   UNL A   1      32.447  25.075  22.649  1.00  0.00     0.134 C 
BRANCH  84  85
ATOM     85  C   UNL A   1      31.508  23.992  23.191  1.00  0.00     0.130 C 
BRANCH  85  86
ATOM     86  N   UNL A   1      32.289  22.816  23.554  1.00  0.00    -0.213 NA
ATOM     87  H   UNL A   1      33.233  22.979  23.205  1.00  0.00     0.141 HD
BRANCH  86  88
ATOM     88  S   UNL A   1      32.453  22.332  25.123  1.00  0.00     0.214 S 
ATOM     89  O   UNL A   1      32.288  23.505  25.948  1.00  0.00    -0.212 OA
ATOM     90  O   UNL A   1      31.573  21.189  25.286  1.00  0.00    -0.212 OA
BRANCH  88  91
ATOM     91  C   UNL A   1      34.137  21.782  25.288  1.00  0.00     0.185 C 
BRANCH  91  92
ATOM     92  C   UNL A   1      35.227  22.852  25.284  1.00  0.00     0.134 C 
ATOM     93  C   UNL A   1      36.591  22.251  25.614  1.00  0.00     0.035 C 
ATOM     94  O   UNL A   1      35.405  23.490  24.013  1.00  0.00    -0.377 OA
ATOM     95  C   UNL A   1      37.088  21.835  24.248  1.00  0.00     0.031 C 
ATOM     96  C   UNL A   1      36.571  22.953  23.370  1.00  0.00     0.160 C 
ENDBRANCH  91  92
ENDBRANCH  88  91
ENDBRANCH  86  88
ENDBRANCH  85  86
ENDBRANCH  84  85
ENDBRANCH  77  80
ENDBRANCH  75  76
ENDBRANCH   1  75
TORSDOF 18
ENDMDL
MODEL 3
REMARK VINA RESULT:     -11.4      2.157      3.137
REMARK SMILES O=C(NCCCCCCNC(=O)[C@H]1CC[C@H](CNS(=O)(=O)C[C@H]2CCCO2)O1)c1ccc(-c2c3nc(c(-c4c(F)c(F)c(F)c(F)c4F)c4ccc([nH]4)c(-c4c(F)c(F)c(F)c(F)c4F)c4nc(c(-c5c(F)c(F)c(F)c(F)c5F)c5ccc2[nH]5)C=C4)C=C3)cc1
REMARK SMILES IDX 8 1 7 2 6 3 5 4 4 5 3 6 1 7 2 8 29 10 30 11 91 12 31 13
REMARK SMILES IDX 90 14 32 15 33 16 34 17 84 18 35 19 89 20 83 21 85 22 36 23
REMARK SMILES IDX 88 24 82 25 81 26 37 28 69 29 49 30 68 31 50 32 53 33 67 34
REMARK SMILES IDX 86 35 51 36 52 37 66 39 87 40 54 41 38 42 39 43 47 44 40 45
REMARK SMILES IDX 41 46 45 47 48 48 42 49 43 50 46 51 44 52 70 53 71 54 79 55
REMARK SMILES IDX 72 56 73 57 77 58 80 59 74 60 75 61 78 62 76 63 55 64 56 65
REMARK SMILES IDX 64 66 57 67 58 68 62 69 65 70 59 71 60 72 63 73 61 74 9 75
REMARK SMILES IDX 10 76 11 77 12 79 13 80 14 81 28 82 15 83 16 84 17 85 18 86
REMARK SMILES IDX 19 88 20 89 21 90 22 91 23 92 24 93 27 94 25 95 26 96
REMARK H PARENT 3 9 85 27 53 38 10 78 18 87
REMARK Flexibility Score: inf
ROOT
ATOM      1  C   UNL A   1      34.839  31.403  27.901  1.00  0.00     0.021 C 
ENDROOT
BRANCH   1   2
ATOM      2  C   UNL A   1      34.477  32.304  29.086  1.00  0.00     0.002 C 
BRANCH   2   3
ATOM      3  C   UNL A   1      34.579  33.806  28.795  1.00  0.00     0.002 C 
BRANCH   3   4
ATOM      4  C   UNL A   1      33.261  34.568  28.920  1.00  0.00     0.021 C 
BRANCH   4   5
ATOM      5  C   UNL A   1      33.412  35.937  29.564  1.00  0.00     0.116 C 
BRANCH   5   6
ATOM      6  N   UNL A   1      32.498  36.111  30.686  1.00  0.00    -0.352 N 
ATOM      7  O   UNL A   1      31.591  35.613  32.699  1.00  0.00    -0.269 OA
ATOM      8  C   UNL A   1      32.552  35.550  31.939  1.00  0.00     0.251 C 
ATOM      9  H   UNL A   1      31.737  36.715  30.524  1.00  0.00     0.163 HD
BRANCH   8  10
ATOM     10  C   UNL A   1      33.786  34.858  32.354  1.00  0.00     0.039 A 
ATOM     11  C   UNL A   1      34.990  35.562  32.380  1.00  0.00     0.014 A 
ATOM     12  C   UNL A   1      33.752  33.503  32.692  1.00  0.00     0.014 A 
ATOM     13  C   UNL A   1      36.178  34.876  32.565  1.00  0.00     0.010 A 
ATOM     14  C   UNL A   1      34.941  32.841  33.011  1.00  0.00     0.010 A 
ATOM     15  C   UNL A   1      36.168  33.517  32.923  1.00  0.00    -0.014 A 
BRANCH  15  16
ATOM     16  C   UNL A   1      37.460  32.885  33.290  1.00  0.00     0.031 A 
ATOM     17  C   UNL A   1      38.145  33.179  34.592  1.00  0.00     0.074 A 
ATOM     18  C   UNL A   1      37.971  31.972  32.440  1.00  0.00     0.049 A 
ATOM     19  N   UNL A   1      39.239  32.649  35.081  1.00  0.00    -0.248 NA
ATOM     20  C   UNL A   1      37.538  34.201  35.457  1.00  0.00     0.031 C 
ATOM     21  C   UNL A   1      37.397  31.627  31.136  1.00  0.00     0.029 A 
ATOM     22  N   UNL A   1      39.054  31.141  32.552  1.00  0.00    -0.354 N 
ATOM     23  C   UNL A   1      39.453  33.272  36.303  1.00  0.00     0.074 A 
ATOM     24  C   UNL A   1      38.399  34.251  36.465  1.00  0.00     0.031 C 
ATOM     25  C   UNL A   1      38.090  30.614  30.602  1.00  0.00     0.029 A 
ATOM     26  C   UNL A   1      39.207  30.296  31.481  1.00  0.00     0.049 A 
ATOM     27  H   UNL A   1      39.664  31.149  33.325  1.00  0.00     0.167 HD
ATOM     28  C   UNL A   1      40.434  33.034  37.208  1.00  0.00     0.037 A 
ATOM     29  C   UNL A   1      40.156  29.381  31.217  1.00  0.00     0.037 A 
ATOM     30  C   UNL A   1      41.482  32.059  37.031  1.00  0.00     0.049 A 
ATOM     31  C   UNL A   1      41.245  29.167  32.226  1.00  0.00     0.074 A 
ATOM     32  C   UNL A   1      42.521  31.741  37.889  1.00  0.00     0.029 A 
ATOM     33  N   UNL A   1      41.627  31.246  35.914  1.00  0.00    -0.354 N 
ATOM     34  N   UNL A   1      41.419  29.744  33.391  1.00  0.00    -0.248 NA
ATOM     35  C   UNL A   1      42.269  28.173  31.887  1.00  0.00     0.031 C 
ATOM     36  C   UNL A   1      43.322  30.775  37.272  1.00  0.00     0.029 A 
ATOM     37  C   UNL A   1      42.748  30.441  36.055  1.00  0.00     0.049 A 
ATOM     38  H   UNL A   1      41.023  31.241  35.137  1.00  0.00     0.167 HD
ATOM     39  C   UNL A   1      42.564  29.175  33.928  1.00  0.00     0.074 A 
ATOM     40  C   UNL A   1      43.017  28.180  32.979  1.00  0.00     0.031 C 
ATOM     41  C   UNL A   1      43.190  29.458  35.098  1.00  0.00     0.037 A 
BRANCH  28  42
ATOM     42  C   UNL A   1      40.430  33.844  38.475  1.00  0.00     0.064 A 
ATOM     43  C   UNL A   1      41.206  35.007  38.606  1.00  0.00     0.173 A 
ATOM     44  C   UNL A   1      39.594  33.493  39.546  1.00  0.00     0.173 A 
ATOM     45  F   UNL A   1      42.031  35.384  37.618  1.00  0.00    -0.203 F 
ATOM     46  C   UNL A   1      41.159  35.774  39.768  1.00  0.00     0.198 A 
ATOM     47  C   UNL A   1      39.526  34.280  40.694  1.00  0.00     0.198 A 
ATOM     48  F   UNL A   1      38.826  32.396  39.473  1.00  0.00    -0.203 F 
ATOM     49  F   UNL A   1      41.938  36.858  39.885  1.00  0.00    -0.200 F 
ATOM     50  C   UNL A   1      40.312  35.416  40.806  1.00  0.00     0.200 A 
ATOM     51  F   UNL A   1      38.696  33.941  41.689  1.00  0.00    -0.200 F 
ATOM     52  F   UNL A   1      40.257  36.165  41.917  1.00  0.00    -0.200 F 
ENDBRANCH  28  42
BRANCH  29  53
ATOM     53  C   UNL A   1      40.130  28.633  29.933  1.00  0.00     0.064 A 
ATOM     54  C   UNL A   1      39.460  27.409  29.813  1.00  0.00     0.173 A 
ATOM     55  C   UNL A   1      40.787  29.130  28.796  1.00  0.00     0.173 A 
ATOM     56  F   UNL A   1      38.827  26.884  30.873  1.00  0.00    -0.203 F 
ATOM     57  C   UNL A   1      39.476  26.695  28.616  1.00  0.00     0.198 A 
ATOM     58  C   UNL A   1      40.767  28.437  27.589  1.00  0.00     0.198 A 
ATOM     59  F   UNL A   1      41.435  30.303  28.852  1.00  0.00    -0.203 F 
ATOM     60  F   UNL A   1      38.880  25.496  28.547  1.00  0.00    -0.200 F 
ATOM     61  C   UNL A   1      40.124  27.212  27.505  1.00  0.00     0.200 A 
ATOM     62  F   UNL A   1      41.373  28.953  26.512  1.00  0.00    -0.200 F 
ATOM     63  F   UNL A   1      40.136  26.526  26.354  1.00  0.00    -0.200 F 
ENDBRANCH  29  53
BRANCH  41  64
ATOM     64  C   UNL A   1      44.418  28.655  35.416  1.00  0.00     0.064 A 
ATOM     65  C   UNL A   1      45.698  29.073  35.020  1.00  0.00     0.173 A 
ATOM     66  C   UNL A   1      44.312  27.445  36.120  1.00  0.00     0.173 A 
ATOM     67  F   UNL A   1      45.852  30.213  34.329  1.00  0.00    -0.203 F 
ATOM     68  C   UNL A   1      46.819  28.287  35.276  1.00  0.00     0.198 A 
ATOM     69  C   UNL A   1      45.439  26.682  36.409  1.00  0.00     0.198 A 
ATOM     70  F   UNL A   1      43.113  27.002  36.530  1.00  0.00    -0.203 F 
ATOM     71  F   UNL A   1      48.020  28.671  34.822  1.00  0.00    -0.200 F 
ATOM     72  C   UNL A   1      46.690  27.097  35.974  1.00  0.00     0.200 A 
ATOM     73  F   UNL A   1      45.315  25.539  37.098  1.00  0.00    -0.200 F 
ATOM     74  F   UNL A   1      47.769  26.341  36.217  1.00  0.00    -0.200 F 
ENDBRANCH  41  64
ENDBRANCH  15  16
ENDBRANCH   8  10
ENDBRANCH   5   6
ENDBRANCH   4   5
ENDBRANCH   3   4
ENDBRANCH   2   3
ENDBRANCH   1   2
BRANCH   1  75
ATOM     75  C   UNL A   1      33.717  30.433  27.531  1.00  0.00     0.116 C 
BRANCH  75  76
ATOM     76  N   UNL A   1      33.797  30.063  26.138  1.00  0.00    -0.354 N 
ATOM     77  C   UNL A   1      33.483  28.884  25.532  1.00  0.00     0.249 C 
ATOM     78  H   UNL A   1      34.129  30.769  25.537  1.00  0.00     0.163 HD
ATOM     79  O   UNL A   1      33.719  28.786  24.324  1.00  0.00    -0.272 OA
BRANCH  77  80
ATOM     80  C   UNL A   1      32.873  27.703  26.317  1.00  0.00     0.207 C 
ATOM     81  C   UNL A   1      31.386  27.830  26.599  1.00  0.00     0.045 C 
ATOM     82  O   UNL A   1      33.110  26.432  25.707  1.00  0.00    -0.364 OA
ATOM     83  C   UNL A   1      30.743  26.640  25.930  1.00  0.00     0.037 C 
ATOM     84  C   UNL A   1      31.891  25.683  25.645  1.00  0.00     0.134 C 
BRANCH  84  85
ATOM     85  C   UNL A   1      31.939  24.500  26.617  1.00  0.00     0.130 C 
BRANCH  85  86
ATOM     86  N   UNL A   1      32.543  23.353  25.949  1.00  0.00    -0.213 NA
ATOM     87  H   UNL A   1      33.270  23.726  25.339  1.00  0.00     0.141 HD
BRANCH  86  88
ATOM     88  S   UNL A   1      33.237  22.120  26.797  1.00  0.00     0.214 S 
ATOM     89  O   UNL A   1      32.899  22.318  28.187  1.00  0.00    -0.212 OA
ATOM     90  O   UNL A   1      32.855  20.897  26.115  1.00  0.00    -0.212 OA
BRANCH  88  91
ATOM     91  C   UNL A   1      34.995  22.342  26.626  1.00  0.00     0.185 C 
BRANCH  91  92
ATOM     92  C   UNL A   1      35.472  23.509  25.764  1.00  0.00     0.134 C 
ATOM     93  C   UNL A   1      36.981  23.447  25.540  1.00  0.00     0.035 C 
ATOM     94  O   UNL A   1      34.906  23.522  24.447  1.00  0.00    -0.377 OA
ATOM     95  C   UNL A   1      37.078  22.581  24.305  1.00  0.00     0.031 C 
ATOM     96  C   UNL A   1      35.874  23.031  23.507  1.00  0.00     0.160 C 
ENDBRANCH  91  92
ENDBRANCH  88  91
ENDBRANCH  86  88
ENDBRANCH  85  86
ENDBRANCH  84  85
ENDBRANCH  77  80
ENDBRANCH  75  76
ENDBRANCH   1  75
TORSDOF 18
ENDMDL
