MODEL 1
REMARK VINA RESULT:     -11.6      0.000      0.000
REMARK SMILES CC(C)(C)C(=O)C[N@H+]1CCCC[C@H]1C(=O)NCCCCCCNC(=O)c1ccc(-c2c3nc(c(-c4c(F)c(F)c(F)c(F)c4F)c4ccc([nH]4)c(-c4c(F)c(F)c(F)c(F)c4F)c4nc(c(-c5c(F)c(F)c(F)c(F)c5F)c5ccc2[nH]5)C=C4)C=C3)cc1
REMARK SMILES IDX 19 1 18 2 17 3 16 4 14 5 15 6 13 8 8 9 9 10 10 12 12 13
REMARK SMILES IDX 11 14 7 15 5 16 6 17 2 18 1 19 3 20 4 21 20 22 21 23 22 24
REMARK SMILES IDX 23 25 24 26 25 28 26 29 27 30 88 31 28 32 87 33 29 34 30 35
REMARK SMILES IDX 31 36 81 37 32 38 86 39 80 40 82 41 33 42 85 43 79 44 78 45
REMARK SMILES IDX 34 47 66 48 46 49 65 50 47 51 50 52 64 53 83 54 48 55 49 56
REMARK SMILES IDX 63 58 84 59 51 60 35 61 36 62 44 63 37 64 38 65 42 66 45 67
REMARK SMILES IDX 39 68 40 69 43 70 41 71 67 72 68 73 76 74 69 75 70 76 74 77
REMARK SMILES IDX 77 78 71 79 72 80 75 81 73 82 52 83 53 84 61 85 54 86 55 87
REMARK SMILES IDX 59 88 62 89 56 90 57 91 60 92 58 93
REMARK H PARENT 16 7 8 11 23 27 82 46 50 57
REMARK Flexibility Score: inf
ROOT
ATOM      1  C   UNL A   1      32.081  29.727  27.021  1.00  0.00     0.002 C 
ENDROOT
BRANCH   1   2
ATOM      2  C   UNL A   1      33.588  29.637  27.284  1.00  0.00     0.021 C 
BRANCH   2   3
ATOM      3  C   UNL A   1      34.292  28.503  26.547  1.00  0.00     0.116 C 
BRANCH   3   4
ATOM      4  N   UNL A   1      34.426  28.794  25.134  1.00  0.00    -0.351 N 
ATOM      5  C   UNL A   1      33.784  28.260  24.055  1.00  0.00     0.278 C 
ATOM      6  O   UNL A   1      34.047  28.750  22.954  1.00  0.00    -0.268 OA
ATOM      7  H   UNL A   1      35.088  29.489  24.917  1.00  0.00     0.163 HD
BRANCH   5   8
ATOM      8  C   UNL A   1      32.722  27.149  24.254  1.00  0.00     0.274 C 
ATOM      9  N   UNL A   1      31.575  27.284  23.307  1.00  0.00    -0.319 N 
ATOM     10  C   UNL A   1      31.913  26.829  21.959  1.00  0.00     0.263 C 
ATOM     11  H   UNL A   1      30.843  26.657  23.642  1.00  0.00     0.349 HD
ATOM     12  C   UNL A   1      32.519  25.433  21.893  1.00  0.00     0.062 C 
ATOM     13  C   UNL A   1      33.399  25.764  24.191  1.00  0.00     0.076 C 
ATOM     14  C   UNL A   1      33.742  25.314  22.777  1.00  0.00     0.012 C 
BRANCH   9  15
ATOM     15  C   UNL A   1      30.991  28.649  23.321  1.00  0.00     0.340 C 
BRANCH  15  16
ATOM     16  C   UNL A   1      29.456  28.698  23.253  1.00  0.00     0.192 C 
ATOM     17  O   UNL A   1      28.805  27.661  23.432  1.00  0.00    -0.293 OA
BRANCH  16  18
ATOM     18  C   UNL A   1      28.722  30.041  22.941  1.00  0.00     0.026 C 
ATOM     19  C   UNL A   1      27.208  29.812  23.130  1.00  0.00     0.019 C 
ATOM     20  C   UNL A   1      28.938  30.447  21.474  1.00  0.00     0.019 C 
ATOM     21  C   UNL A   1      29.136  31.204  23.854  1.00  0.00     0.019 C 
ENDBRANCH  16  18
ENDBRANCH  15  16
ENDBRANCH   9  15
ENDBRANCH   5   8
ENDBRANCH   3   4
ENDBRANCH   2   3
ENDBRANCH   1   2
BRANCH   1  22
ATOM     22  C   UNL A   1      31.645  30.871  26.103  1.00  0.00     0.002 C 
BRANCH  22  23
ATOM     23  C   UNL A   1      31.420  32.215  26.800  1.00  0.00     0.021 C 
BRANCH  23  24
ATOM     24  C   UNL A   1      32.693  32.948  27.209  1.00  0.00     0.116 C 
BRANCH  24  25
ATOM     25  N   UNL A   1      32.431  34.305  27.656  1.00  0.00    -0.352 N 
ATOM     26  C   UNL A   1      33.000  35.012  28.685  1.00  0.00     0.251 C 
ATOM     27  H   UNL A   1      31.743  34.789  27.146  1.00  0.00     0.163 HD
ATOM     28  O   UNL A   1      32.533  36.094  29.018  1.00  0.00    -0.269 OA
BRANCH  26  29
ATOM     29  C   UNL A   1      34.161  34.456  29.414  1.00  0.00     0.039 A 
ATOM     30  C   UNL A   1      33.938  33.840  30.648  1.00  0.00     0.014 A 
ATOM     31  C   UNL A   1      35.458  34.548  28.901  1.00  0.00     0.014 A 
ATOM     32  C   UNL A   1      35.007  33.265  31.337  1.00  0.00     0.010 A 
ATOM     33  C   UNL A   1      36.511  33.909  29.553  1.00  0.00     0.010 A 
ATOM     34  C   UNL A   1      36.296  33.261  30.778  1.00  0.00    -0.014 A 
BRANCH  34  35
ATOM     35  C   UNL A   1      37.413  32.563  31.464  1.00  0.00     0.031 A 
ATOM     36  C   UNL A   1      38.099  31.392  30.817  1.00  0.00     0.074 A 
ATOM     37  C   UNL A   1      37.788  32.973  32.692  1.00  0.00     0.049 A 
ATOM     38  N   UNL A   1      39.086  30.660  31.270  1.00  0.00    -0.248 NA
ATOM     39  C   UNL A   1      37.600  30.974  29.498  1.00  0.00     0.031 C 
ATOM     40  C   UNL A   1      37.162  34.059  33.447  1.00  0.00     0.029 A 
ATOM     41  N   UNL A   1      38.784  32.524  33.522  1.00  0.00    -0.354 N 
ATOM     42  C   UNL A   1      39.328  29.704  30.293  1.00  0.00     0.074 A 
ATOM     43  C   UNL A   1      38.344  29.905  29.252  1.00  0.00     0.031 C 
ATOM     44  C   UNL A   1      37.804  34.211  34.616  1.00  0.00     0.029 A 
ATOM     45  C   UNL A   1      38.861  33.209  34.711  1.00  0.00     0.049 A 
ATOM     46  H   UNL A   1      39.386  31.780  33.290  1.00  0.00     0.167 HD
ATOM     47  C   UNL A   1      40.302  28.762  30.254  1.00  0.00     0.037 A 
ATOM     48  C   UNL A   1      39.685  33.044  35.762  1.00  0.00     0.037 A 
ATOM     49  C   UNL A   1      41.284  28.567  31.290  1.00  0.00     0.049 A 
ATOM     50  C   UNL A   1      40.746  31.978  35.697  1.00  0.00     0.074 A 
ATOM     51  C   UNL A   1      42.333  27.665  31.327  1.00  0.00     0.029 A 
ATOM     52  N   UNL A   1      41.336  29.286  32.476  1.00  0.00    -0.354 N 
ATOM     53  N   UNL A   1      41.010  31.127  34.735  1.00  0.00    -0.248 NA
ATOM     54  C   UNL A   1      41.634  31.859  36.862  1.00  0.00     0.031 C 
ATOM     55  C   UNL A   1      42.988  27.803  32.555  1.00  0.00     0.029 A 
ATOM     56  C   UNL A   1      42.385  28.831  33.259  1.00  0.00     0.049 A 
ATOM     57  H   UNL A   1      40.719  30.012  32.724  1.00  0.00     0.167 HD
ATOM     58  C   UNL A   1      42.103  30.389  35.168  1.00  0.00     0.074 A 
ATOM     59  C   UNL A   1      42.473  30.914  36.465  1.00  0.00     0.031 C 
ATOM     60  C   UNL A   1      42.741  29.364  34.550  1.00  0.00     0.037 A 
BRANCH  47  61
ATOM     61  C   UNL A   1      40.365  27.873  29.045  1.00  0.00     0.064 A 
ATOM     62  C   UNL A   1      39.632  26.679  28.975  1.00  0.00     0.173 A 
ATOM     63  C   UNL A   1      41.117  28.246  27.920  1.00  0.00     0.173 A 
ATOM     64  F   UNL A   1      38.905  26.270  30.026  1.00  0.00    -0.203 F 
ATOM     65  C   UNL A   1      39.666  25.881  27.834  1.00  0.00     0.198 A 
ATOM     66  C   UNL A   1      41.123  27.462  26.769  1.00  0.00     0.198 A 
ATOM     67  F   UNL A   1      41.832  29.381  27.930  1.00  0.00    -0.203 F 
ATOM     68  F   UNL A   1      38.989  24.724  27.807  1.00  0.00    -0.200 F 
ATOM     69  C   UNL A   1      40.403  26.278  26.729  1.00  0.00     0.200 A 
ATOM     70  F   UNL A   1      41.824  27.854  25.696  1.00  0.00    -0.200 F 
ATOM     71  F   UNL A   1      40.422  25.516  25.626  1.00  0.00    -0.200 F 
ENDBRANCH  47  61
BRANCH  48  72
ATOM     72  C   UNL A   1      39.549  33.910  36.963  1.00  0.00     0.064 A 
ATOM     73  C   UNL A   1      38.787  33.506  38.068  1.00  0.00     0.173 A 
ATOM     74  C   UNL A   1      40.156  35.173  37.020  1.00  0.00     0.173 A 
ATOM     75  F   UNL A   1      38.170  32.313  38.055  1.00  0.00    -0.203 F 
ATOM     76  C   UNL A   1      38.609  34.343  39.168  1.00  0.00     0.198 A 
ATOM     77  C   UNL A   1      40.008  35.996  38.135  1.00  0.00     0.198 A 
ATOM     78  F   UNL A   1      40.904  35.607  35.993  1.00  0.00    -0.203 F 
ATOM     79  F   UNL A   1      37.824  33.955  40.181  1.00  0.00    -0.200 F 
ATOM     80  C   UNL A   1      39.223  35.585  39.202  1.00  0.00     0.200 A 
ATOM     81  F   UNL A   1      40.618  37.188  38.170  1.00  0.00    -0.200 F 
ATOM     82  F   UNL A   1      39.051  36.392  40.258  1.00  0.00    -0.200 F 
ENDBRANCH  48  72
BRANCH  60  83
ATOM     83  C   UNL A   1      43.919  28.763  35.262  1.00  0.00     0.064 A 
ATOM     84  C   UNL A   1      45.224  29.235  35.055  1.00  0.00     0.173 A 
ATOM     85  C   UNL A   1      43.740  27.711  36.174  1.00  0.00     0.173 A 
ATOM     86  F   UNL A   1      45.452  30.229  34.183  1.00  0.00    -0.203 F 
ATOM     87  C   UNL A   1      46.309  28.650  35.702  1.00  0.00     0.198 A 
ATOM     88  C   UNL A   1      44.823  27.152  36.847  1.00  0.00     0.198 A 
ATOM     89  F   UNL A   1      42.512  27.228  36.417  1.00  0.00    -0.203 F 
ATOM     90  F   UNL A   1      47.553  29.074  35.438  1.00  0.00    -0.200 F 
ATOM     91  C   UNL A   1      46.107  27.614  36.602  1.00  0.00     0.200 A 
ATOM     92  F   UNL A   1      44.623  26.163  37.728  1.00  0.00    -0.200 F 
ATOM     93  F   UNL A   1      47.152  27.052  37.224  1.00  0.00    -0.200 F 
ENDBRANCH  60  83
ENDBRANCH  34  35
ENDBRANCH  26  29
ENDBRANCH  24  25
ENDBRANCH  23  24
ENDBRANCH  22  23
ENDBRANCH   1  22
TORSDOF 16
ENDMDL
MODEL 2
REMARK VINA RESULT:     -11.6      1.382      8.040
REMARK SMILES CC(C)(C)C(=O)C[N@H+]1CCCC[C@H]1C(=O)NCCCCCCNC(=O)c1ccc(-c2c3nc(c(-c4c(F)c(F)c(F)c(F)c4F)c4ccc([nH]4)c(-c4c(F)c(F)c(F)c(F)c4F)c4nc(c(-c5c(F)c(F)c(F)c(F)c5F)c5ccc2[nH]5)C=C4)C=C3)cc1
REMARK SMILES IDX 19 1 18 2 17 3 16 4 14 5 15 6 13 8 8 9 9 10 10 12 12 13
REMARK SMILES IDX 11 14 7 15 5 16 6 17 2 18 1 19 3 20 4 21 20 22 21 23 22 24
REMARK SMILES IDX 23 25 24 26 25 28 26 29 27 30 88 31 28 32 87 33 29 34 30 35
REMARK SMILES IDX 31 36 81 37 32 38 86 39 80 40 82 41 33 42 85 43 79 44 78 45
REMARK SMILES IDX 34 47 66 48 46 49 65 50 47 51 50 52 64 53 83 54 48 55 49 56
REMARK SMILES IDX 63 58 84 59 51 60 35 61 36 62 44 63 37 64 38 65 42 66 45 67
REMARK SMILES IDX 39 68 40 69 43 70 41 71 67 72 68 73 76 74 69 75 70 76 74 77
REMARK SMILES IDX 77 78 71 79 72 80 75 81 73 82 52 83 53 84 61 85 54 86 55 87
REMARK SMILES IDX 59 88 62 89 56 90 57 91 60 92 58 93
REMARK H PARENT 16 7 8 11 23 27 82 46 50 57
REMARK Flexibility Score: inf
ROOT
ATOM      1  C   UNL A   1      32.471  30.054  27.247  1.00  0.00     0.002 C 
ENDROOT
BRANCH   1   2
ATOM      2  C   UNL A   1      33.845  29.676  26.684  1.00  0.00     0.021 C 
BRANCH   2   3
ATOM      3  C   UNL A   1      34.047  28.182  26.461  1.00  0.00     0.116 C 
BRANCH   3   4
ATOM      4  N   UNL A   1      32.887  27.422  26.881  1.00  0.00    -0.351 N 
ATOM      5  C   UNL A   1      31.941  26.769  26.145  1.00  0.00     0.278 C 
ATOM      6  O   UNL A   1      31.090  26.135  26.772  1.00  0.00    -0.268 OA
ATOM      7  H   UNL A   1      32.760  27.369  27.856  1.00  0.00     0.163 HD
BRANCH   5   8
ATOM      8  C   UNL A   1      32.018  26.780  24.597  1.00  0.00     0.274 C 
ATOM      9  N   UNL A   1      32.412  25.451  24.039  1.00  0.00    -0.319 N 
ATOM     10  C   UNL A   1      31.308  24.493  24.058  1.00  0.00     0.263 C 
ATOM     11  H   UNL A   1      32.640  25.602  23.056  1.00  0.00     0.349 HD
ATOM     12  C   UNL A   1      30.019  24.996  23.421  1.00  0.00     0.062 C 
ATOM     13  C   UNL A   1      30.692  27.311  24.015  1.00  0.00     0.076 C 
ATOM     14  C   UNL A   1      29.558  26.295  24.046  1.00  0.00     0.012 C 
BRANCH   9  15
ATOM     15  C   UNL A   1      33.644  24.918  24.673  1.00  0.00     0.340 C 
BRANCH  15  16
ATOM     16  C   UNL A   1      34.574  24.139  23.729  1.00  0.00     0.192 C 
ATOM     17  O   UNL A   1      34.483  24.311  22.506  1.00  0.00    -0.293 OA
BRANCH  16  18
ATOM     18  C   UNL A   1      35.613  23.125  24.304  1.00  0.00     0.026 C 
ATOM     19  C   UNL A   1      36.678  22.865  23.217  1.00  0.00     0.019 C 
ATOM     20  C   UNL A   1      34.941  21.777  24.609  1.00  0.00     0.019 C 
ATOM     21  C   UNL A   1      36.342  23.623  25.560  1.00  0.00     0.019 C 
ENDBRANCH  16  18
ENDBRANCH  15  16
ENDBRANCH   9  15
ENDBRANCH   5   8
ENDBRANCH   3   4
ENDBRANCH   2   3
ENDBRANCH   1   2
BRANCH   1  22
ATOM     22  C   UNL A   1      31.567  30.838  26.293  1.00  0.00     0.002 C 
BRANCH  22  23
ATOM     23  C   UNL A   1      31.414  32.326  26.617  1.00  0.00     0.021 C 
BRANCH  23  24
ATOM     24  C   UNL A   1      32.671  32.998  27.160  1.00  0.00     0.116 C 
BRANCH  24  25
ATOM     25  N   UNL A   1      32.406  34.325  27.687  1.00  0.00    -0.352 N 
ATOM     26  C   UNL A   1      33.002  34.987  28.730  1.00  0.00     0.251 C 
ATOM     27  H   UNL A   1      31.693  34.824  27.227  1.00  0.00     0.163 HD
ATOM     28  O   UNL A   1      32.531  36.043  29.135  1.00  0.00    -0.269 OA
BRANCH  26  29
ATOM     29  C   UNL A   1      34.197  34.413  29.387  1.00  0.00     0.039 A 
ATOM     30  C   UNL A   1      34.020  33.676  30.560  1.00  0.00     0.014 A 
ATOM     31  C   UNL A   1      35.480  34.606  28.867  1.00  0.00     0.014 A 
ATOM     32  C   UNL A   1      35.123  33.084  31.177  1.00  0.00     0.010 A 
ATOM     33  C   UNL A   1      36.569  33.953  29.441  1.00  0.00     0.010 A 
ATOM     34  C   UNL A   1      36.401  33.185  30.602  1.00  0.00    -0.014 A 
BRANCH  34  35
ATOM     35  C   UNL A   1      37.557  32.471  31.203  1.00  0.00     0.031 A 
ATOM     36  C   UNL A   1      38.067  32.849  32.566  1.00  0.00     0.074 A 
ATOM     37  C   UNL A   1      38.164  31.495  30.499  1.00  0.00     0.049 A 
ATOM     38  N   UNL A   1      39.066  32.340  33.243  1.00  0.00    -0.248 NA
ATOM     39  C   UNL A   1      37.383  33.956  33.251  1.00  0.00     0.031 C 
ATOM     40  C   UNL A   1      37.796  31.078  29.146  1.00  0.00     0.029 A 
ATOM     41  N   UNL A   1      39.219  30.680  30.822  1.00  0.00    -0.354 N 
ATOM     42  C   UNL A   1      39.125  33.058  34.430  1.00  0.00     0.074 A 
ATOM     43  C   UNL A   1      38.105  34.081  34.355  1.00  0.00     0.031 C 
ATOM     44  C   UNL A   1      38.593  30.067  28.764  1.00  0.00     0.029 A 
ATOM     45  C   UNL A   1      39.553  29.792  29.829  1.00  0.00     0.049 A 
ATOM     46  H   UNL A   1      39.694  30.728  31.684  1.00  0.00     0.167 HD
ATOM     47  C   UNL A   1      39.936  32.862  35.498  1.00  0.00     0.037 A 
ATOM     48  C   UNL A   1      40.527  28.863  29.778  1.00  0.00     0.037 A 
ATOM     49  C   UNL A   1      40.948  31.839  35.571  1.00  0.00     0.049 A 
ATOM     50  C   UNL A   1      41.423  28.681  30.973  1.00  0.00     0.074 A 
ATOM     51  C   UNL A   1      41.795  31.537  36.623  1.00  0.00     0.029 A 
ATOM     52  N   UNL A   1      41.251  30.952  34.549  1.00  0.00    -0.354 N 
ATOM     53  N   UNL A   1      41.421  29.320  32.118  1.00  0.00    -0.248 NA
ATOM     54  C   UNL A   1      42.453  27.637  30.872  1.00  0.00     0.031 C 
ATOM     55  C   UNL A   1      42.644  30.502  36.220  1.00  0.00     0.029 A 
ATOM     56  C   UNL A   1      42.288  30.118  34.938  1.00  0.00     0.049 A 
ATOM     57  H   UNL A   1      40.797  30.919  33.676  1.00  0.00     0.167 HD
ATOM     58  C   UNL A   1      42.428  28.742  32.879  1.00  0.00     0.074 A 
ATOM     59  C   UNL A   1      43.000  27.681  32.078  1.00  0.00     0.031 C 
ATOM     60  C   UNL A   1      42.848  29.066  34.128  1.00  0.00     0.037 A 
BRANCH  47  61
ATOM     61  C   UNL A   1      39.758  33.766  36.684  1.00  0.00     0.064 A 
ATOM     62  C   UNL A   1      40.381  35.021  36.748  1.00  0.00     0.173 A 
ATOM     63  C   UNL A   1      38.909  33.402  37.741  1.00  0.00     0.173 A 
ATOM     64  F   UNL A   1      41.210  35.415  35.770  1.00  0.00    -0.203 F 
ATOM     65  C   UNL A   1      40.178  35.869  37.834  1.00  0.00     0.198 A 
ATOM     66  C   UNL A   1      38.683  34.265  38.811  1.00  0.00     0.198 A 
ATOM     67  F   UNL A   1      38.284  32.215  37.729  1.00  0.00    -0.203 F 
ATOM     68  F   UNL A   1      40.816  37.046  37.892  1.00  0.00    -0.200 F 
ATOM     69  C   UNL A   1      39.322  35.495  38.859  1.00  0.00     0.200 A 
ATOM     70  F   UNL A   1      37.845  33.908  39.793  1.00  0.00    -0.200 F 
ATOM     71  F   UNL A   1      39.116  36.319  39.896  1.00  0.00    -0.200 F 
ENDBRANCH  47  61
BRANCH  48  72
ATOM     72  C   UNL A   1      40.703  28.030  28.559  1.00  0.00     0.064 A 
ATOM     73  C   UNL A   1      41.489  28.470  27.485  1.00  0.00     0.173 A 
ATOM     74  C   UNL A   1      40.067  26.786  28.432  1.00  0.00     0.173 A 
ATOM     75  F   UNL A   1      42.103  29.662  27.550  1.00  0.00    -0.203 F 
ATOM     76  C   UNL A   1      41.604  27.717  26.318  1.00  0.00     0.198 A 
ATOM     77  C   UNL A   1      40.212  26.016  27.280  1.00  0.00     0.198 A 
ATOM     78  F   UNL A   1      39.310  26.312  29.434  1.00  0.00    -0.203 F 
ATOM     79  F   UNL A   1      42.310  28.192  25.285  1.00  0.00    -0.200 F 
ATOM     80  C   UNL A   1      40.970  26.489  26.220  1.00  0.00     0.200 A 
ATOM     81  F   UNL A   1      39.611  24.822  27.195  1.00  0.00    -0.200 F 
ATOM     82  F   UNL A   1      41.079  25.764  25.097  1.00  0.00    -0.200 F 
ENDBRANCH  48  72
BRANCH  60  83
ATOM     83  C   UNL A   1      43.962  28.243  34.709  1.00  0.00     0.064 A 
ATOM     84  C   UNL A   1      43.711  27.049  35.403  1.00  0.00     0.173 A 
ATOM     85  C   UNL A   1      45.298  28.646  34.558  1.00  0.00     0.173 A 
ATOM     86  F   UNL A   1      42.452  26.627  35.588  1.00  0.00    -0.203 F 
ATOM     87  C   UNL A   1      44.754  26.311  35.959  1.00  0.00     0.198 A 
ATOM     88  C   UNL A   1      46.340  27.887  35.085  1.00  0.00     0.198 A 
ATOM     89  F   UNL A   1      45.594  29.774  33.896  1.00  0.00    -0.203 F 
ATOM     90  F   UNL A   1      44.485  25.210  36.674  1.00  0.00    -0.200 F 
ATOM     91  C   UNL A   1      46.066  26.727  35.794  1.00  0.00     0.200 A 
ATOM     92  F   UNL A   1      47.608  28.282  34.910  1.00  0.00    -0.200 F 
ATOM     93  F   UNL A   1      47.067  26.016  36.330  1.00  0.00    -0.200 F 
ENDBRANCH  60  83
ENDBRANCH  34  35
ENDBRANCH  26  29
ENDBRANCH  24  25
ENDBRANCH  23  24
ENDBRANCH  22  23
ENDBRANCH   1  22
TORSDOF 16
ENDMDL
MODEL 3
REMARK VINA RESULT:     -11.5      6.246     10.558
REMARK SMILES CC(C)(C)C(=O)C[N@H+]1CCCC[C@H]1C(=O)NCCCCCCNC(=O)c1ccc(-c2c3nc(c(-c4c(F)c(F)c(F)c(F)c4F)c4ccc([nH]4)c(-c4c(F)c(F)c(F)c(F)c4F)c4nc(c(-c5c(F)c(F)c(F)c(F)c5F)c5ccc2[nH]5)C=C4)C=C3)cc1
REMARK SMILES IDX 19 1 18 2 17 3 16 4 14 5 15 6 13 8 8 9 9 10 10 12 12 13
REMARK SMILES IDX 11 14 7 15 5 16 6 17 2 18 1 19 3 20 4 21 20 22 21 23 22 24
REMARK SMILES IDX 23 25 24 26 25 28 26 29 27 30 88 31 28 32 87 33 29 34 30 35
REMARK SMILES IDX 31 36 81 37 32 38 86 39 80 40 82 41 33 42 85 43 79 44 78 45
REMARK SMILES IDX 34 47 66 48 46 49 65 50 47 51 50 52 64 53 83 54 48 55 49 56
REMARK SMILES IDX 63 58 84 59 51 60 35 61 36 62 44 63 37 64 38 65 42 66 45 67
REMARK SMILES IDX 39 68 40 69 43 70 41 71 67 72 68 73 76 74 69 75 70 76 74 77
REMARK SMILES IDX 77 78 71 79 72 80 75 81 73 82 52 83 53 84 61 85 54 86 55 87
REMARK SMILES IDX 59 88 62 89 56 90 57 91 60 92 58 93
REMARK H PARENT 16 7 8 11 23 27 82 46 50 57
REMARK Flexibility Score: inf
ROOT
ATOM      1  C   UNL A   1      37.840  21.926  25.248  1.00  0.00     0.002 C 
ENDROOT
BRANCH   1   2
ATOM      2  C   UNL A   1      37.006  23.081  24.685  1.00  0.00     0.021 C 
BRANCH   2   3
ATOM      3  C   UNL A   1      36.496  24.062  25.734  1.00  0.00     0.116 C 
BRANCH   3   4
ATOM      4  N   UNL A   1      35.699  23.392  26.742  1.00  0.00    -0.351 N 
ATOM      5  C   UNL A   1      34.387  23.019  26.731  1.00  0.00     0.278 C 
ATOM      6  O   UNL A   1      33.979  22.391  27.710  1.00  0.00    -0.268 OA
ATOM      7  H   UNL A   1      36.184  23.169  27.570  1.00  0.00     0.163 HD
BRANCH   5   8
ATOM      8  C   UNL A   1      33.506  23.316  25.490  1.00  0.00     0.274 C 
ATOM      9  N   UNL A   1      32.658  22.149  25.103  1.00  0.00    -0.319 N 
ATOM     10  C   UNL A   1      31.503  21.988  25.984  1.00  0.00     0.263 C 
ATOM     11  H   UNL A   1      32.282  22.355  24.178  1.00  0.00     0.349 HD
ATOM     12  C   UNL A   1      30.659  23.243  26.165  1.00  0.00     0.062 C 
ATOM     13  C   UNL A   1      32.690  24.604  25.729  1.00  0.00     0.076 C 
ATOM     14  C   UNL A   1      31.493  24.409  26.651  1.00  0.00     0.012 C 
BRANCH   9  15
ATOM     15  C   UNL A   1      33.450  20.902  24.961  1.00  0.00     0.340 C 
BRANCH  15  16
ATOM     16  C   UNL A   1      32.882  19.884  23.958  1.00  0.00     0.192 C 
ATOM     17  O   UNL A   1      32.182  20.281  23.018  1.00  0.00    -0.293 OA
BRANCH  16  18
ATOM     18  C   UNL A   1      33.168  18.359  24.134  1.00  0.00     0.026 C 
ATOM     19  C   UNL A   1      34.678  18.185  24.403  1.00  0.00     0.019 C 
ATOM     20  C   UNL A   1      32.850  17.596  22.839  1.00  0.00     0.019 C 
ATOM     21  C   UNL A   1      32.410  17.713  25.302  1.00  0.00     0.019 C 
ENDBRANCH  16  18
ENDBRANCH  15  16
ENDBRANCH   9  15
ENDBRANCH   5   8
ENDBRANCH   3   4
ENDBRANCH   2   3
ENDBRANCH   1   2
BRANCH   1  22
ATOM     22  C   UNL A   1      37.406  20.528  24.799  1.00  0.00     0.002 C 
BRANCH  22  23
ATOM     23  C   UNL A   1      38.420  19.414  25.073  1.00  0.00     0.021 C 
BRANCH  23  24
ATOM     24  C   UNL A   1      39.568  19.802  25.999  1.00  0.00     0.116 C 
BRANCH  24  25
ATOM     25  N   UNL A   1      40.684  18.878  25.916  1.00  0.00    -0.352 N 
ATOM     26  C   UNL A   1      42.030  19.119  26.030  1.00  0.00     0.251 C 
ATOM     27  H   UNL A   1      40.439  17.938  25.752  1.00  0.00     0.163 HD
ATOM     28  O   UNL A   1      42.836  18.235  25.766  1.00  0.00    -0.269 OA
BRANCH  26  29
ATOM     29  C   UNL A   1      42.512  20.454  26.444  1.00  0.00     0.039 A 
ATOM     30  C   UNL A   1      43.043  21.301  25.468  1.00  0.00     0.014 A 
ATOM     31  C   UNL A   1      42.456  20.870  27.777  1.00  0.00     0.014 A 
ATOM     32  C   UNL A   1      43.463  22.584  25.820  1.00  0.00     0.010 A 
ATOM     33  C   UNL A   1      42.805  22.177  28.114  1.00  0.00     0.010 A 
ATOM     34  C   UNL A   1      43.313  23.047  27.138  1.00  0.00    -0.014 A 
BRANCH  34  35
ATOM     35  C   UNL A   1      43.666  24.446  27.491  1.00  0.00     0.031 A 
ATOM     36  C   UNL A   1      45.102  24.890  27.523  1.00  0.00     0.074 A 
ATOM     37  C   UNL A   1      42.683  25.310  27.811  1.00  0.00     0.049 A 
ATOM     38  N   UNL A   1      45.595  26.068  27.813  1.00  0.00    -0.248 NA
ATOM     39  C   UNL A   1      46.120  23.876  27.208  1.00  0.00     0.031 C 
ATOM     40  C   UNL A   1      41.258  24.983  27.871  1.00  0.00     0.029 A 
ATOM     41  N   UNL A   1      42.732  26.639  28.150  1.00  0.00    -0.354 N 
ATOM     42  C   UNL A   1      46.973  25.937  27.711  1.00  0.00     0.074 A 
ATOM     43  C   UNL A   1      47.244  24.553  27.396  1.00  0.00     0.031 C 
ATOM     44  C   UNL A   1      40.565  26.086  28.198  1.00  0.00     0.029 A 
ATOM     45  C   UNL A   1      41.499  27.187  28.408  1.00  0.00     0.049 A 
ATOM     46  H   UNL A   1      43.571  27.152  28.203  1.00  0.00     0.167 HD
ATOM     47  C   UNL A   1      47.926  26.894  27.839  1.00  0.00     0.037 A 
ATOM     48  C   UNL A   1      41.159  28.436  28.780  1.00  0.00     0.037 A 
ATOM     49  C   UNL A   1      47.653  28.274  28.148  1.00  0.00     0.049 A 
ATOM     50  C   UNL A   1      42.239  29.472  28.931  1.00  0.00     0.074 A 
ATOM     51  C   UNL A   1      48.545  29.326  28.262  1.00  0.00     0.029 A 
ATOM     52  N   UNL A   1      46.390  28.795  28.395  1.00  0.00    -0.354 N 
ATOM     53  N   UNL A   1      43.534  29.352  28.760  1.00  0.00    -0.248 NA
ATOM     54  C   UNL A   1      41.809  30.824  29.314  1.00  0.00     0.031 C 
ATOM     55  C   UNL A   1      47.829  30.471  28.627  1.00  0.00     0.029 A 
ATOM     56  C   UNL A   1      46.484  30.147  28.683  1.00  0.00     0.049 A 
ATOM     57  H   UNL A   1      45.552  28.279  28.369  1.00  0.00     0.167 HD
ATOM     58  C   UNL A   1      44.068  30.612  28.993  1.00  0.00     0.074 A 
ATOM     59  C   UNL A   1      42.954  31.489  29.286  1.00  0.00     0.031 C 
ATOM     60  C   UNL A   1      45.365  31.008  28.974  1.00  0.00     0.037 A 
BRANCH  47  61
ATOM     61  C   UNL A   1      49.356  26.486  27.633  1.00  0.00     0.064 A 
ATOM     62  C   UNL A   1      49.889  26.307  26.347  1.00  0.00     0.173 A 
ATOM     63  C   UNL A   1      50.222  26.329  28.727  1.00  0.00     0.173 A 
ATOM     64  F   UNL A   1      49.103  26.435  25.267  1.00  0.00    -0.203 F 
ATOM     65  C   UNL A   1      51.227  25.968  26.164  1.00  0.00     0.198 A 
ATOM     66  C   UNL A   1      51.567  26.020  28.539  1.00  0.00     0.198 A 
ATOM     67  F   UNL A   1      49.767  26.493  29.979  1.00  0.00    -0.203 F 
ATOM     68  F   UNL A   1      51.702  25.764  24.928  1.00  0.00    -0.200 F 
ATOM     69  C   UNL A   1      52.067  25.835  27.260  1.00  0.00     0.200 A 
ATOM     70  F   UNL A   1      52.381  25.906  29.598  1.00  0.00    -0.200 F 
ATOM     71  F   UNL A   1      53.358  25.523  27.081  1.00  0.00    -0.200 F 
ENDBRANCH  47  61
BRANCH  48  72
ATOM     72  C   UNL A   1      39.734  28.780  29.029  1.00  0.00     0.064 A 
ATOM     73  C   UNL A   1      39.159  28.621  30.298  1.00  0.00     0.173 A 
ATOM     74  C   UNL A   1      38.909  29.251  27.997  1.00  0.00     0.173 A 
ATOM     75  F   UNL A   1      39.901  28.156  31.315  1.00  0.00    -0.203 F 
ATOM     76  C   UNL A   1      37.808  28.885  30.516  1.00  0.00     0.198 A 
ATOM     77  C   UNL A   1      37.567  29.550  28.224  1.00  0.00     0.198 A 
ATOM     78  F   UNL A   1      39.410  29.430  26.764  1.00  0.00    -0.203 F 
ATOM     79  F   UNL A   1      37.272  28.663  31.724  1.00  0.00    -0.200 F 
ATOM     80  C   UNL A   1      37.016  29.354  29.480  1.00  0.00     0.200 A 
ATOM     81  F   UNL A   1      36.809  30.019  27.224  1.00  0.00    -0.200 F 
ATOM     82  F   UNL A   1      35.716  29.607  29.690  1.00  0.00    -0.200 F 
ENDBRANCH  48  72
BRANCH  60  83
ATOM     83  C   UNL A   1      45.642  32.458  29.252  1.00  0.00     0.064 A 
ATOM     84  C   UNL A   1      45.655  33.415  28.226  1.00  0.00     0.173 A 
ATOM     85  C   UNL A   1      45.884  32.898  30.562  1.00  0.00     0.173 A 
ATOM     86  F   UNL A   1      45.444  33.045  26.954  1.00  0.00    -0.203 F 
ATOM     87  C   UNL A   1      45.940  34.752  28.496  1.00  0.00     0.198 A 
ATOM     88  C   UNL A   1      46.133  34.241  30.833  1.00  0.00     0.198 A 
ATOM     89  F   UNL A   1      45.874  32.026  31.582  1.00  0.00    -0.203 F 
ATOM     90  F   UNL A   1      46.012  35.635  27.491  1.00  0.00    -0.200 F 
ATOM     91  C   UNL A   1      46.172  35.164  29.800  1.00  0.00     0.200 A 
ATOM     92  F   UNL A   1      46.341  34.639  32.096  1.00  0.00    -0.200 F 
ATOM     93  F   UNL A   1      46.446  36.450  30.058  1.00  0.00    -0.200 F 
ENDBRANCH  60  83
ENDBRANCH  34  35
ENDBRANCH  26  29
ENDBRANCH  24  25
ENDBRANCH  23  24
ENDBRANCH  22  23
ENDBRANCH   1  22
TORSDOF 16
ENDMDL
