MODEL 1
REMARK VINA RESULT:     -12.0      0.000      0.000
REMARK SMILES O=C(NCCCCCCNC(=O)[C@@H]1C[C@@H](O)CN1C(=O)C1(c2ccccc2)CC1)c1ccc(-c2c3nc(c(-c4c(F)c(F)c(F)c(F)c4F)c4ccc([nH]4)c(-c4c(F)c(F)c(F)c(F)c4F)c4nc(c(-c5c(F)c(F)c(F)c(F)c5F)c5ccc2[nH]5)C=C4)C=C3)cc1
REMARK SMILES IDX 7 1 6 2 5 3 4 4 3 5 1 6 2 7 30 9 31 10 92 11 32 12 91 13
REMARK SMILES IDX 33 14 34 15 35 16 85 17 36 18 90 19 84 20 86 21 37 22 89 23
REMARK SMILES IDX 83 24 82 25 38 27 70 28 50 29 69 30 51 31 54 32 68 33 87 34
REMARK SMILES IDX 52 35 53 36 67 38 88 39 55 40 39 41 40 42 48 43 41 44 42 45
REMARK SMILES IDX 46 46 49 47 43 48 44 49 47 50 45 51 71 52 72 53 80 54 73 55
REMARK SMILES IDX 74 56 78 57 81 58 75 59 76 60 79 61 77 62 56 63 57 64 65 65
REMARK SMILES IDX 58 66 59 67 63 68 66 69 60 70 61 71 64 72 62 73 8 74 9 75
REMARK SMILES IDX 10 76 11 77 12 79 13 80 14 81 18 82 15 83 17 84 19 85 20 86
REMARK SMILES IDX 21 87 28 88 29 89 22 90 23 91 27 92 24 93 26 94 25 95 16 96
REMARK H PARENT 3 8 86 26 54 37 10 78 16 97
REMARK Flexibility Score: inf
ROOT
ATOM      1  C   UNL A   1      32.225  29.933  27.023  1.00  0.00     0.002 C 
ENDROOT
BRANCH   1   2
ATOM      2  C   UNL A   1      31.414  30.829  26.082  1.00  0.00     0.002 C 
BRANCH   2   3
ATOM      3  C   UNL A   1      31.286  32.291  26.513  1.00  0.00     0.021 C 
BRANCH   3   4
ATOM      4  C   UNL A   1      32.528  32.872  27.177  1.00  0.00     0.116 C 
BRANCH   4   5
ATOM      5  N   UNL A   1      32.323  34.236  27.634  1.00  0.00    -0.352 N 
ATOM      6  O   UNL A   1      32.527  36.014  29.007  1.00  0.00    -0.269 OA
ATOM      7  C   UNL A   1      32.956  34.925  28.636  1.00  0.00     0.251 C 
ATOM      8  H   UNL A   1      31.627  34.740  27.153  1.00  0.00     0.163 HD
BRANCH   7   9
ATOM      9  C   UNL A   1      34.148  34.346  29.289  1.00  0.00     0.039 A 
ATOM     10  C   UNL A   1      35.428  34.559  28.769  1.00  0.00     0.014 A 
ATOM     11  C   UNL A   1      33.979  33.594  30.454  1.00  0.00     0.014 A 
ATOM     12  C   UNL A   1      36.524  33.920  29.339  1.00  0.00     0.010 A 
ATOM     13  C   UNL A   1      35.090  33.016  31.070  1.00  0.00     0.010 A 
ATOM     14  C   UNL A   1      36.367  33.153  30.503  1.00  0.00    -0.014 A 
BRANCH  14  15
ATOM     15  C   UNL A   1      37.545  32.530  31.155  1.00  0.00     0.031 A 
ATOM     16  C   UNL A   1      38.285  31.407  30.490  1.00  0.00     0.074 A 
ATOM     17  C   UNL A   1      37.924  32.962  32.373  1.00  0.00     0.049 A 
ATOM     18  N   UNL A   1      39.274  30.679  30.947  1.00  0.00    -0.248 NA
ATOM     19  C   UNL A   1      37.849  31.045  29.132  1.00  0.00     0.031 C 
ATOM     20  C   UNL A   1      37.283  34.046  33.116  1.00  0.00     0.029 A 
ATOM     21  N   UNL A   1      38.926  32.533  33.205  1.00  0.00    -0.354 N 
ATOM     22  C   UNL A   1      39.561  29.759  29.947  1.00  0.00     0.074 A 
ATOM     23  C   UNL A   1      38.625  30.003  28.869  1.00  0.00     0.031 C 
ATOM     24  C   UNL A   1      37.910  34.204  34.290  1.00  0.00     0.029 A 
ATOM     25  C   UNL A   1      38.952  33.189  34.410  1.00  0.00     0.049 A 
ATOM     26  H   UNL A   1      39.564  31.823  32.962  1.00  0.00     0.167 HD
ATOM     27  C   UNL A   1      40.523  28.804  29.932  1.00  0.00     0.037 A 
ATOM     28  C   UNL A   1      39.704  32.975  35.505  1.00  0.00     0.037 A 
ATOM     29  C   UNL A   1      41.445  28.571  31.014  1.00  0.00     0.049 A 
ATOM     30  C   UNL A   1      40.728  31.876  35.487  1.00  0.00     0.074 A 
ATOM     31  C   UNL A   1      42.478  27.652  31.085  1.00  0.00     0.029 A 
ATOM     32  N   UNL A   1      41.437  29.254  32.223  1.00  0.00    -0.354 N 
ATOM     33  N   UNL A   1      41.019  31.035  34.526  1.00  0.00    -0.248 NA
ATOM     34  C   UNL A   1      41.529  31.698  36.705  1.00  0.00     0.031 C 
ATOM     35  C   UNL A   1      43.050  27.733  32.358  1.00  0.00     0.029 A 
ATOM     36  C   UNL A   1      42.426  28.755  33.057  1.00  0.00     0.049 A 
ATOM     37  H   UNL A   1      40.819  29.985  32.454  1.00  0.00     0.167 HD
ATOM     38  C   UNL A   1      42.056  30.248  35.006  1.00  0.00     0.074 A 
ATOM     39  C   UNL A   1      42.345  30.716  36.346  1.00  0.00     0.031 C 
ATOM     40  C   UNL A   1      42.714  29.238  34.385  1.00  0.00     0.037 A 
BRANCH  27  41
ATOM     41  C   UNL A   1      40.596  27.912  28.723  1.00  0.00     0.064 A 
ATOM     42  C   UNL A   1      39.895  26.698  28.651  1.00  0.00     0.173 A 
ATOM     43  C   UNL A   1      41.370  28.285  27.613  1.00  0.00     0.173 A 
ATOM     44  F   UNL A   1      39.145  26.288  29.686  1.00  0.00    -0.203 F 
ATOM     45  C   UNL A   1      40.002  25.872  27.534  1.00  0.00     0.198 A 
ATOM     46  C   UNL A   1      41.447  27.473  26.484  1.00  0.00     0.198 A 
ATOM     47  F   UNL A   1      42.054  29.439  27.622  1.00  0.00    -0.203 F 
ATOM     48  F   UNL A   1      39.377  24.687  27.517  1.00  0.00    -0.200 F 
ATOM     49  C   UNL A   1      40.774  26.262  26.450  1.00  0.00     0.200 A 
ATOM     50  F   UNL A   1      42.179  27.861  25.431  1.00  0.00    -0.200 F 
ATOM     51  F   UNL A   1      40.877  25.466  25.377  1.00  0.00    -0.200 F 
ENDBRANCH  27  41
BRANCH  28  52
ATOM     52  C   UNL A   1      39.499  33.826  36.705  1.00  0.00     0.064 A 
ATOM     53  C   UNL A   1      38.694  33.394  37.766  1.00  0.00     0.173 A 
ATOM     54  C   UNL A   1      40.140  35.068  36.834  1.00  0.00     0.173 A 
ATOM     55  F   UNL A   1      38.049  32.221  37.683  1.00  0.00    -0.203 F 
ATOM     56  C   UNL A   1      38.531  34.175  38.908  1.00  0.00     0.198 A 
ATOM     57  C   UNL A   1      40.001  35.834  37.988  1.00  0.00     0.198 A 
ATOM     58  F   UNL A   1      40.930  35.521  35.848  1.00  0.00    -0.203 F 
ATOM     59  F   UNL A   1      37.732  33.753  39.896  1.00  0.00    -0.200 F 
ATOM     60  C   UNL A   1      39.192  35.390  39.022  1.00  0.00     0.200 A 
ATOM     61  F   UNL A   1      40.658  36.996  38.102  1.00  0.00    -0.200 F 
ATOM     62  F   UNL A   1      39.049  36.131  40.128  1.00  0.00    -0.200 F 
ENDBRANCH  28  52
BRANCH  40  63
ATOM     63  C   UNL A   1      43.857  28.600  35.121  1.00  0.00     0.064 A 
ATOM     64  C   UNL A   1      43.683  27.468  35.930  1.00  0.00     0.173 A 
ATOM     65  C   UNL A   1      45.161  29.094  34.956  1.00  0.00     0.173 A 
ATOM     66  F   UNL A   1      42.455  26.966  36.136  1.00  0.00    -0.203 F 
ATOM     67  C   UNL A   1      44.769  26.865  36.561  1.00  0.00     0.198 A 
ATOM     68  C   UNL A   1      46.247  28.470  35.560  1.00  0.00     0.198 A 
ATOM     69  F   UNL A   1      45.382  30.172  34.189  1.00  0.00    -0.203 F 
ATOM     70  F   UNL A   1      44.575  25.808  37.362  1.00  0.00    -0.200 F 
ATOM     71  C   UNL A   1      46.050  27.359  36.366  1.00  0.00     0.200 A 
ATOM     72  F   UNL A   1      47.485  28.939  35.358  1.00  0.00    -0.200 F 
ATOM     73  F   UNL A   1      47.097  26.766  36.958  1.00  0.00    -0.200 F 
ENDBRANCH  40  63
ENDBRANCH  14  15
ENDBRANCH   7   9
ENDBRANCH   4   5
ENDBRANCH   3   4
ENDBRANCH   2   3
ENDBRANCH   1   2
BRANCH   1  74
ATOM     74  C   UNL A   1      33.325  29.100  26.358  1.00  0.00     0.021 C 
BRANCH  74  75
ATOM     75  C   UNL A   1      33.378  27.643  26.801  1.00  0.00     0.116 C 
BRANCH  75  76
ATOM     76  N   UNL A   1      34.114  26.805  25.881  1.00  0.00    -0.354 N 
ATOM     77  C   UNL A   1      33.720  25.712  25.166  1.00  0.00     0.242 C 
ATOM     78  H   UNL A   1      35.054  27.067  25.748  1.00  0.00     0.163 HD
ATOM     79  O   UNL A   1      34.439  25.386  24.216  1.00  0.00    -0.273 OA
BRANCH  77  80
ATOM     80  C   UNL A   1      32.363  25.020  25.396  1.00  0.00     0.177 C 
ATOM     81  C   UNL A   1      32.480  23.496  25.356  1.00  0.00     0.069 C 
ATOM     82  N   UNL A   1      31.316  25.360  24.419  1.00  0.00    -0.327 N 
ATOM     83  C   UNL A   1      31.106  23.051  24.878  1.00  0.00     0.136 C 
ATOM     84  C   UNL A   1      30.650  24.163  23.927  1.00  0.00     0.152 C 
BRANCH  82  85
ATOM     85  C   UNL A   1      30.763  26.631  24.483  1.00  0.00     0.234 C 
ATOM     86  O   UNL A   1      30.175  26.989  25.502  1.00  0.00    -0.274 OA
BRANCH  85  87
ATOM     87  C   UNL A   1      30.910  27.641  23.352  1.00  0.00     0.074 C 
ATOM     88  C   UNL A   1      32.216  28.148  22.748  1.00  0.00     0.023 C 
ATOM     89  C   UNL A   1      31.463  27.066  22.044  1.00  0.00     0.023 C 
BRANCH  87  90
ATOM     90  C   UNL A   1      29.706  28.605  23.243  1.00  0.00    -0.032 A 
ATOM     91  C   UNL A   1      29.851  29.999  23.352  1.00  0.00     0.005 A 
ATOM     92  C   UNL A   1      28.396  28.106  23.109  1.00  0.00     0.005 A 
ATOM     93  C   UNL A   1      28.740  30.849  23.358  1.00  0.00     0.000 A 
ATOM     94  C   UNL A   1      27.283  28.948  23.127  1.00  0.00     0.000 A 
ATOM     95  C   UNL A   1      27.456  30.321  23.259  1.00  0.00     0.000 A 
ENDBRANCH  87  90
ENDBRANCH  85  87
ENDBRANCH  82  85
BRANCH  83  96
ATOM     96  O   UNL A   1      30.218  22.950  25.991  1.00  0.00    -0.391 OA
ATOM     97  H   UNL A   1      30.192  22.031  26.300  1.00  0.00     0.211 HD
ENDBRANCH  83  96
ENDBRANCH  77  80
ENDBRANCH  75  76
ENDBRANCH  74  75
ENDBRANCH   1  74
TORSDOF 17
ENDMDL
MODEL 2
REMARK VINA RESULT:     -12.0      1.134      2.964
REMARK SMILES O=C(NCCCCCCNC(=O)[C@@H]1C[C@@H](O)CN1C(=O)C1(c2ccccc2)CC1)c1ccc(-c2c3nc(c(-c4c(F)c(F)c(F)c(F)c4F)c4ccc([nH]4)c(-c4c(F)c(F)c(F)c(F)c4F)c4nc(c(-c5c(F)c(F)c(F)c(F)c5F)c5ccc2[nH]5)C=C4)C=C3)cc1
REMARK SMILES IDX 7 1 6 2 5 3 4 4 3 5 1 6 2 7 30 9 31 10 92 11 32 12 91 13
REMARK SMILES IDX 33 14 34 15 35 16 85 17 36 18 90 19 84 20 86 21 37 22 89 23
REMARK SMILES IDX 83 24 82 25 38 27 70 28 50 29 69 30 51 31 54 32 68 33 87 34
REMARK SMILES IDX 52 35 53 36 67 38 88 39 55 40 39 41 40 42 48 43 41 44 42 45
REMARK SMILES IDX 46 46 49 47 43 48 44 49 47 50 45 51 71 52 72 53 80 54 73 55
REMARK SMILES IDX 74 56 78 57 81 58 75 59 76 60 79 61 77 62 56 63 57 64 65 65
REMARK SMILES IDX 58 66 59 67 63 68 66 69 60 70 61 71 64 72 62 73 8 74 9 75
REMARK SMILES IDX 10 76 11 77 12 79 13 80 14 81 18 82 15 83 17 84 19 85 20 86
REMARK SMILES IDX 21 87 28 88 29 89 22 90 23 91 27 92 24 93 26 94 25 95 16 96
REMARK H PARENT 3 8 86 26 54 37 10 78 16 97
REMARK Flexibility Score: inf
ROOT
ATOM      1  C   UNL A   1      32.491  30.038  27.066  1.00  0.00     0.002 C 
ENDROOT
BRANCH   1   2
ATOM      2  C   UNL A   1      31.507  30.848  26.216  1.00  0.00     0.002 C 
BRANCH   2   3
ATOM      3  C   UNL A   1      31.378  32.326  26.590  1.00  0.00     0.021 C 
BRANCH   3   4
ATOM      4  C   UNL A   1      32.633  32.945  27.194  1.00  0.00     0.116 C 
BRANCH   4   5
ATOM      5  N   UNL A   1      32.404  34.294  27.680  1.00  0.00    -0.352 N 
ATOM      6  O   UNL A   1      32.575  36.045  29.094  1.00  0.00    -0.269 OA
ATOM      7  C   UNL A   1      33.024  34.971  28.699  1.00  0.00     0.251 C 
ATOM      8  H   UNL A   1      31.701  34.798  27.209  1.00  0.00     0.163 HD
BRANCH   7   9
ATOM      9  C   UNL A   1      34.223  34.398  29.342  1.00  0.00     0.039 A 
ATOM     10  C   UNL A   1      35.503  34.671  28.849  1.00  0.00     0.014 A 
ATOM     11  C   UNL A   1      34.063  33.589  30.469  1.00  0.00     0.014 A 
ATOM     12  C   UNL A   1      36.610  34.038  29.406  1.00  0.00     0.010 A 
ATOM     13  C   UNL A   1      35.182  33.016  31.075  1.00  0.00     0.010 A 
ATOM     14  C   UNL A   1      36.462  33.215  30.532  1.00  0.00    -0.014 A 
BRANCH  14  15
ATOM     15  C   UNL A   1      37.649  32.598  31.171  1.00  0.00     0.031 A 
ATOM     16  C   UNL A   1      38.383  31.473  30.501  1.00  0.00     0.074 A 
ATOM     17  C   UNL A   1      38.042  33.036  32.382  1.00  0.00     0.049 A 
ATOM     18  N   UNL A   1      39.379  30.750  30.948  1.00  0.00    -0.248 NA
ATOM     19  C   UNL A   1      37.931  31.105  29.151  1.00  0.00     0.031 C 
ATOM     20  C   UNL A   1      37.409  34.122  33.129  1.00  0.00     0.029 A 
ATOM     21  N   UNL A   1      39.056  32.612  33.203  1.00  0.00    -0.354 N 
ATOM     22  C   UNL A   1      39.656  29.826  29.949  1.00  0.00     0.074 A 
ATOM     23  C   UNL A   1      38.705  30.063  28.882  1.00  0.00     0.031 C 
ATOM     24  C   UNL A   1      38.050  34.286  34.295  1.00  0.00     0.029 A 
ATOM     25  C   UNL A   1      39.096  33.273  34.405  1.00  0.00     0.049 A 
ATOM     26  H   UNL A   1      39.692  31.903  32.955  1.00  0.00     0.167 HD
ATOM     27  C   UNL A   1      40.619  28.873  29.926  1.00  0.00     0.037 A 
ATOM     28  C   UNL A   1      39.863  33.066  35.492  1.00  0.00     0.037 A 
ATOM     29  C   UNL A   1      41.556  28.646  30.996  1.00  0.00     0.049 A 
ATOM     30  C   UNL A   1      40.888  31.969  35.465  1.00  0.00     0.074 A 
ATOM     31  C   UNL A   1      42.592  27.730  31.059  1.00  0.00     0.029 A 
ATOM     32  N   UNL A   1      41.561  29.335  32.203  1.00  0.00    -0.354 N 
ATOM     33  N   UNL A   1      41.169  31.124  34.503  1.00  0.00    -0.248 NA
ATOM     34  C   UNL A   1      41.705  31.797  36.673  1.00  0.00     0.031 C 
ATOM     35  C   UNL A   1      43.179  27.818  32.324  1.00  0.00     0.029 A 
ATOM     36  C   UNL A   1      42.562  28.841  33.026  1.00  0.00     0.049 A 
ATOM     37  H   UNL A   1      40.945  30.065  32.439  1.00  0.00     0.167 HD
ATOM     38  C   UNL A   1      42.214  30.342  34.974  1.00  0.00     0.074 A 
ATOM     39  C   UNL A   1      42.519  30.816  36.308  1.00  0.00     0.031 C 
ATOM     40  C   UNL A   1      42.866  29.330  34.349  1.00  0.00     0.037 A 
BRANCH  27  41
ATOM     41  C   UNL A   1      40.679  27.976  28.720  1.00  0.00     0.064 A 
ATOM     42  C   UNL A   1      39.944  26.783  28.643  1.00  0.00     0.173 A 
ATOM     43  C   UNL A   1      41.475  28.323  27.617  1.00  0.00     0.173 A 
ATOM     44  F   UNL A   1      39.172  26.397  29.671  1.00  0.00    -0.203 F 
ATOM     45  C   UNL A   1      40.039  25.951  27.529  1.00  0.00     0.198 A 
ATOM     46  C   UNL A   1      41.540  27.507  26.490  1.00  0.00     0.198 A 
ATOM     47  F   UNL A   1      42.192  29.457  27.630  1.00  0.00    -0.203 F 
ATOM     48  F   UNL A   1      39.380  24.785  27.509  1.00  0.00    -0.200 F 
ATOM     49  C   UNL A   1      40.832  26.316  26.453  1.00  0.00     0.200 A 
ATOM     50  F   UNL A   1      42.294  27.871  25.444  1.00  0.00    -0.200 F 
ATOM     51  F   UNL A   1      40.923  25.514  25.382  1.00  0.00    -0.200 F 
ENDBRANCH  27  41
BRANCH  28  52
ATOM     52  C   UNL A   1      39.671  33.921  36.691  1.00  0.00     0.064 A 
ATOM     53  C   UNL A   1      38.855  33.505  37.749  1.00  0.00     0.173 A 
ATOM     54  C   UNL A   1      40.335  35.151  36.820  1.00  0.00     0.173 A 
ATOM     55  F   UNL A   1      38.188  32.345  37.666  1.00  0.00    -0.203 F 
ATOM     56  C   UNL A   1      38.704  34.290  38.891  1.00  0.00     0.198 A 
ATOM     57  C   UNL A   1      40.208  35.919  37.974  1.00  0.00     0.198 A 
ATOM     58  F   UNL A   1      41.136  35.588  35.836  1.00  0.00    -0.203 F 
ATOM     59  F   UNL A   1      37.894  33.884  39.877  1.00  0.00    -0.200 F 
ATOM     60  C   UNL A   1      39.388  35.492  39.006  1.00  0.00     0.200 A 
ATOM     61  F   UNL A   1      40.888  37.068  38.089  1.00  0.00    -0.200 F 
ATOM     62  F   UNL A   1      39.256  36.236  40.111  1.00  0.00    -0.200 F 
ENDBRANCH  28  52
BRANCH  40  63
ATOM     63  C   UNL A   1      44.020  28.697  35.072  1.00  0.00     0.064 A 
ATOM     64  C   UNL A   1      43.857  27.574  35.895  1.00  0.00     0.173 A 
ATOM     65  C   UNL A   1      45.321  29.189  34.883  1.00  0.00     0.173 A 
ATOM     66  F   UNL A   1      42.632  27.076  36.125  1.00  0.00    -0.203 F 
ATOM     67  C   UNL A   1      44.952  26.975  36.514  1.00  0.00     0.198 A 
ATOM     68  C   UNL A   1      46.417  28.569  35.475  1.00  0.00     0.198 A 
ATOM     69  F   UNL A   1      45.532  30.259  34.101  1.00  0.00    -0.203 F 
ATOM     70  F   UNL A   1      44.769  25.926  37.328  1.00  0.00    -0.200 F 
ATOM     71  C   UNL A   1      46.231  27.466  36.295  1.00  0.00     0.200 A 
ATOM     72  F   UNL A   1      47.652  29.035  35.249  1.00  0.00    -0.200 F 
ATOM     73  F   UNL A   1      47.286  26.877  36.876  1.00  0.00    -0.200 F 
ENDBRANCH  40  63
ENDBRANCH  14  15
ENDBRANCH   7   9
ENDBRANCH   4   5
ENDBRANCH   3   4
ENDBRANCH   2   3
ENDBRANCH   1   2
BRANCH   1  74
ATOM     74  C   UNL A   1      33.679  29.437  26.308  1.00  0.00     0.021 C 
BRANCH  74  75
ATOM     75  C   UNL A   1      33.848  27.932  26.475  1.00  0.00     0.116 C 
BRANCH  75  76
ATOM     76  N   UNL A   1      32.598  27.254  26.733  1.00  0.00    -0.354 N 
ATOM     77  C   UNL A   1      31.609  26.860  25.880  1.00  0.00     0.242 C 
ATOM     78  H   UNL A   1      32.433  27.041  27.680  1.00  0.00     0.163 HD
ATOM     79  O   UNL A   1      30.814  26.017  26.309  1.00  0.00    -0.273 OA
BRANCH  77  80
ATOM     80  C   UNL A   1      31.576  27.288  24.400  1.00  0.00     0.177 C 
ATOM     81  C   UNL A   1      30.324  28.099  24.064  1.00  0.00     0.069 C 
ATOM     82  N   UNL A   1      31.598  26.181  23.431  1.00  0.00    -0.327 N 
ATOM     83  C   UNL A   1      30.099  27.802  22.589  1.00  0.00     0.136 C 
ATOM     84  C   UNL A   1      30.575  26.357  22.410  1.00  0.00     0.152 C 
BRANCH  82  85
ATOM     85  C   UNL A   1      32.787  25.481  23.279  1.00  0.00     0.234 C 
ATOM     86  O   UNL A   1      33.756  26.031  22.758  1.00  0.00    -0.274 OA
BRANCH  85  87
ATOM     87  C   UNL A   1      32.967  24.059  23.795  1.00  0.00     0.074 C 
ATOM     88  C   UNL A   1      31.898  23.181  24.440  1.00  0.00     0.023 C 
ATOM     89  C   UNL A   1      32.224  22.985  22.995  1.00  0.00     0.023 C 
BRANCH  87  90
ATOM     90  C   UNL A   1      34.424  23.746  24.206  1.00  0.00    -0.032 A 
ATOM     91  C   UNL A   1      34.945  24.119  25.458  1.00  0.00     0.005 A 
ATOM     92  C   UNL A   1      35.313  23.140  23.298  1.00  0.00     0.005 A 
ATOM     93  C   UNL A   1      36.294  23.925  25.773  1.00  0.00     0.000 A 
ATOM     94  C   UNL A   1      36.663  22.955  23.602  1.00  0.00     0.000 A 
ATOM     95  C   UNL A   1      37.155  23.355  24.839  1.00  0.00     0.000 A 
ENDBRANCH  87  90
ENDBRANCH  85  87
ENDBRANCH  82  85
BRANCH  83  96
ATOM     96  O   UNL A   1      30.885  28.689  21.793  1.00  0.00    -0.391 OA
ATOM     97  H   UNL A   1      30.771  28.468  20.856  1.00  0.00     0.211 HD
ENDBRANCH  83  96
ENDBRANCH  77  80
ENDBRANCH  75  76
ENDBRANCH  74  75
ENDBRANCH   1  74
TORSDOF 17
ENDMDL
MODEL 3
REMARK VINA RESULT:     -11.9      0.241      1.584
REMARK SMILES O=C(NCCCCCCNC(=O)[C@@H]1C[C@@H](O)CN1C(=O)C1(c2ccccc2)CC1)c1ccc(-c2c3nc(c(-c4c(F)c(F)c(F)c(F)c4F)c4ccc([nH]4)c(-c4c(F)c(F)c(F)c(F)c4F)c4nc(c(-c5c(F)c(F)c(F)c(F)c5F)c5ccc2[nH]5)C=C4)C=C3)cc1
REMARK SMILES IDX 7 1 6 2 5 3 4 4 3 5 1 6 2 7 30 9 31 10 92 11 32 12 91 13
REMARK SMILES IDX 33 14 34 15 35 16 85 17 36 18 90 19 84 20 86 21 37 22 89 23
REMARK SMILES IDX 83 24 82 25 38 27 70 28 50 29 69 30 51 31 54 32 68 33 87 34
REMARK SMILES IDX 52 35 53 36 67 38 88 39 55 40 39 41 40 42 48 43 41 44 42 45
REMARK SMILES IDX 46 46 49 47 43 48 44 49 47 50 45 51 71 52 72 53 80 54 73 55
REMARK SMILES IDX 74 56 78 57 81 58 75 59 76 60 79 61 77 62 56 63 57 64 65 65
REMARK SMILES IDX 58 66 59 67 63 68 66 69 60 70 61 71 64 72 62 73 8 74 9 75
REMARK SMILES IDX 10 76 11 77 12 79 13 80 14 81 18 82 15 83 17 84 19 85 20 86
REMARK SMILES IDX 21 87 28 88 29 89 22 90 23 91 27 92 24 93 26 94 25 95 16 96
REMARK H PARENT 3 8 86 26 54 37 10 78 16 97
REMARK Flexibility Score: inf
ROOT
ATOM      1  C   UNL A   1      31.995  29.774  26.992  1.00  0.00     0.002 C 
ENDROOT
BRANCH   1   2
ATOM      2  C   UNL A   1      31.428  30.787  25.994  1.00  0.00     0.002 C 
BRANCH   2   3
ATOM      3  C   UNL A   1      31.283  32.217  26.519  1.00  0.00     0.021 C 
BRANCH   3   4
ATOM      4  C   UNL A   1      32.530  32.782  27.188  1.00  0.00     0.116 C 
BRANCH   4   5
ATOM      5  N   UNL A   1      32.354  34.160  27.610  1.00  0.00    -0.352 N 
ATOM      6  O   UNL A   1      32.616  35.975  28.925  1.00  0.00    -0.269 OA
ATOM      7  C   UNL A   1      33.022  34.869  28.575  1.00  0.00     0.251 C 
ATOM      8  H   UNL A   1      31.652  34.660  27.133  1.00  0.00     0.163 HD
BRANCH   7   9
ATOM      9  C   UNL A   1      34.223  34.294  29.213  1.00  0.00     0.039 A 
ATOM     10  C   UNL A   1      35.505  34.628  28.765  1.00  0.00     0.014 A 
ATOM     11  C   UNL A   1      34.061  33.421  30.291  1.00  0.00     0.014 A 
ATOM     12  C   UNL A   1      36.617  33.995  29.312  1.00  0.00     0.010 A 
ATOM     13  C   UNL A   1      35.182  32.846  30.890  1.00  0.00     0.010 A 
ATOM     14  C   UNL A   1      36.468  33.108  30.388  1.00  0.00    -0.014 A 
BRANCH  14  15
ATOM     15  C   UNL A   1      37.658  32.489  31.020  1.00  0.00     0.031 A 
ATOM     16  C   UNL A   1      38.397  31.376  30.337  1.00  0.00     0.074 A 
ATOM     17  C   UNL A   1      38.048  32.914  32.237  1.00  0.00     0.049 A 
ATOM     18  N   UNL A   1      39.396  30.652  30.776  1.00  0.00    -0.248 NA
ATOM     19  C   UNL A   1      37.947  31.022  28.982  1.00  0.00     0.031 C 
ATOM     20  C   UNL A   1      37.410  33.988  32.997  1.00  0.00     0.029 A 
ATOM     21  N   UNL A   1      39.064  32.485  33.053  1.00  0.00    -0.354 N 
ATOM     22  C   UNL A   1      39.677  29.742  29.765  1.00  0.00     0.074 A 
ATOM     23  C   UNL A   1      38.726  29.987  28.701  1.00  0.00     0.031 C 
ATOM     24  C   UNL A   1      38.050  34.141  34.164  1.00  0.00     0.029 A 
ATOM     25  C   UNL A   1      39.101  33.132  34.262  1.00  0.00     0.049 A 
ATOM     26  H   UNL A   1      39.704  31.782  32.796  1.00  0.00     0.167 HD
ATOM     27  C   UNL A   1      40.645  28.793  29.731  1.00  0.00     0.037 A 
ATOM     28  C   UNL A   1      39.868  32.915  35.347  1.00  0.00     0.037 A 
ATOM     29  C   UNL A   1      41.583  28.558  30.799  1.00  0.00     0.049 A 
ATOM     30  C   UNL A   1      40.899  31.823  35.307  1.00  0.00     0.074 A 
ATOM     31  C   UNL A   1      42.623  27.646  30.850  1.00  0.00     0.029 A 
ATOM     32  N   UNL A   1      41.585  29.232  32.013  1.00  0.00    -0.354 N 
ATOM     33  N   UNL A   1      41.184  30.991  34.335  1.00  0.00    -0.248 NA
ATOM     34  C   UNL A   1      41.716  31.641  36.514  1.00  0.00     0.031 C 
ATOM     35  C   UNL A   1      43.210  27.721  32.117  1.00  0.00     0.029 A 
ATOM     36  C   UNL A   1      42.588  28.733  32.831  1.00  0.00     0.049 A 
ATOM     37  H   UNL A   1      40.965  29.957  32.258  1.00  0.00     0.167 HD
ATOM     38  C   UNL A   1      42.233  30.208  34.796  1.00  0.00     0.074 A 
ATOM     39  C   UNL A   1      42.535  30.667  36.136  1.00  0.00     0.031 C 
ATOM     40  C   UNL A   1      42.889  29.207  34.160  1.00  0.00     0.037 A 
BRANCH  27  41
ATOM     41  C   UNL A   1      40.710  27.911  28.514  1.00  0.00     0.064 A 
ATOM     42  C   UNL A   1      40.028  26.686  28.447  1.00  0.00     0.173 A 
ATOM     43  C   UNL A   1      41.455  28.305  27.391  1.00  0.00     0.173 A 
ATOM     44  F   UNL A   1      39.307  26.256  29.493  1.00  0.00    -0.203 F 
ATOM     45  C   UNL A   1      40.127  25.870  27.322  1.00  0.00     0.198 A 
ATOM     46  C   UNL A   1      41.523  27.504  26.255  1.00  0.00     0.198 A 
ATOM     47  F   UNL A   1      42.118  29.471  27.395  1.00  0.00    -0.203 F 
ATOM     48  F   UNL A   1      39.523  24.675  27.309  1.00  0.00    -0.200 F 
ATOM     49  C   UNL A   1      40.870  26.281  26.226  1.00  0.00     0.200 A 
ATOM     50  F   UNL A   1      42.227  27.912  25.190  1.00  0.00    -0.200 F 
ATOM     51  F   UNL A   1      40.965  25.495  25.145  1.00  0.00    -0.200 F 
ENDBRANCH  27  41
BRANCH  28  52
ATOM     52  C   UNL A   1      39.672  33.755  36.556  1.00  0.00     0.064 A 
ATOM     53  C   UNL A   1      40.279  35.011  36.667  1.00  0.00     0.173 A 
ATOM     54  C   UNL A   1      38.837  33.336  37.603  1.00  0.00     0.173 A 
ATOM     55  F   UNL A   1      41.097  35.448  35.698  1.00  0.00    -0.203 F 
ATOM     56  C   UNL A   1      40.065  35.816  37.784  1.00  0.00     0.198 A 
ATOM     57  C   UNL A   1      38.599  34.154  38.705  1.00  0.00     0.198 A 
ATOM     58  F   UNL A   1      38.224  32.144  37.539  1.00  0.00    -0.203 F 
ATOM     59  F   UNL A   1      40.682  37.001  37.880  1.00  0.00    -0.200 F 
ATOM     60  C   UNL A   1      39.218  35.391  38.797  1.00  0.00     0.200 A 
ATOM     61  F   UNL A   1      37.764  33.748  39.670  1.00  0.00    -0.200 F 
ATOM     62  F   UNL A   1      38.999  36.173  39.862  1.00  0.00    -0.200 F 
ENDBRANCH  28  52
BRANCH  40  63
ATOM     63  C   UNL A   1      44.046  28.571  34.876  1.00  0.00     0.064 A 
ATOM     64  C   UNL A   1      45.340  29.106  34.821  1.00  0.00     0.173 A 
ATOM     65  C   UNL A   1      43.835  27.443  35.684  1.00  0.00     0.173 A 
ATOM     66  F   UNL A   1      45.599  30.173  34.049  1.00  0.00    -0.203 F 
ATOM     67  C   UNL A   1      46.385  28.526  35.537  1.00  0.00     0.198 A 
ATOM     68  C   UNL A   1      44.873  26.885  36.424  1.00  0.00     0.198 A 
ATOM     69  F   UNL A   1      42.614  26.894  35.774  1.00  0.00    -0.203 F 
ATOM     70  F   UNL A   1      47.623  29.030  35.440  1.00  0.00    -0.200 F 
ATOM     71  C   UNL A   1      46.149  27.424  36.346  1.00  0.00     0.200 A 
ATOM     72  F   UNL A   1      44.639  25.831  37.216  1.00  0.00    -0.200 F 
ATOM     73  F   UNL A   1      47.152  26.878  37.048  1.00  0.00    -0.200 F 
ENDBRANCH  40  63
ENDBRANCH  14  15
ENDBRANCH   7   9
ENDBRANCH   4   5
ENDBRANCH   3   4
ENDBRANCH   2   3
ENDBRANCH   1   2
BRANCH   1  74
ATOM     74  C   UNL A   1      33.223  28.992  26.515  1.00  0.00     0.021 C 
BRANCH  74  75
ATOM     75  C   UNL A   1      33.195  27.502  26.830  1.00  0.00     0.116 C 
BRANCH  75  76
ATOM     76  N   UNL A   1      34.016  26.724  25.930  1.00  0.00    -0.354 N 
ATOM     77  C   UNL A   1      33.716  25.624  25.181  1.00  0.00     0.242 C 
ATOM     78  H   UNL A   1      34.945  27.039  25.844  1.00  0.00     0.163 HD
ATOM     79  O   UNL A   1      34.493  25.357  24.259  1.00  0.00    -0.273 OA
BRANCH  77  80
ATOM     80  C   UNL A   1      32.390  24.854  25.339  1.00  0.00     0.177 C 
ATOM     81  C   UNL A   1      32.589  23.341  25.235  1.00  0.00     0.069 C 
ATOM     82  N   UNL A   1      31.356  25.184  24.346  1.00  0.00    -0.327 N 
ATOM     83  C   UNL A   1      31.255  22.849  24.696  1.00  0.00     0.136 C 
ATOM     84  C   UNL A   1      30.768  23.977  23.782  1.00  0.00     0.152 C 
BRANCH  82  85
ATOM     85  C   UNL A   1      30.735  26.420  24.447  1.00  0.00     0.234 C 
ATOM     86  O   UNL A   1      30.008  26.660  25.409  1.00  0.00    -0.274 OA
BRANCH  85  87
ATOM     87  C   UNL A   1      30.970  27.536  23.437  1.00  0.00     0.074 C 
ATOM     88  C   UNL A   1      32.307  28.187  23.093  1.00  0.00     0.023 C 
ATOM     89  C   UNL A   1      31.768  27.122  22.195  1.00  0.00     0.023 C 
BRANCH  87  90
ATOM     90  C   UNL A   1      29.721  28.416  23.207  1.00  0.00    -0.032 A 
ATOM     91  C   UNL A   1      29.808  29.808  23.032  1.00  0.00     0.005 A 
ATOM     92  C   UNL A   1      28.429  27.856  23.246  1.00  0.00     0.005 A 
ATOM     93  C   UNL A   1      28.661  30.603  22.933  1.00  0.00     0.000 A 
ATOM     94  C   UNL A   1      27.281  28.645  23.160  1.00  0.00     0.000 A 
ATOM     95  C   UNL A   1      27.399  30.022  23.010  1.00  0.00     0.000 A 
ENDBRANCH  87  90
ENDBRANCH  85  87
ENDBRANCH  82  85
BRANCH  83  96
ATOM     96  O   UNL A   1      30.341  22.652  25.776  1.00  0.00    -0.391 OA
ATOM     97  H   UNL A   1      29.986  23.510  26.059  1.00  0.00     0.211 HD
ENDBRANCH  83  96
ENDBRANCH  77  80
ENDBRANCH  75  76
ENDBRANCH  74  75
ENDBRANCH   1  74
TORSDOF 17
ENDMDL
