MODEL 1
REMARK VINA RESULT:     -11.2      0.000      0.000
REMARK SMILES Cc1ncccc1C(=O)NCCOCC(=O)NCCCCCCNC(=O)c1ccc(-c2c3nc(c(-c4c(F)c(F)c(F)c(F)c4F)c4ccc([nH]4)c(-c4c(F)c(F)c(F)c(F)c4F)c4nc(c(-c5c(F)c(F)c(F)c(F)c5F)c5ccc2[nH]5)C=C4)C=C3)cc1
REMARK SMILES IDX 19 1 18 2 17 3 15 4 16 5 14 7 13 8 12 9 11 10 10 11 8 12
REMARK SMILES IDX 9 13 7 15 1 16 2 17 3 18 4 19 6 20 5 21 20 22 21 23 22 24
REMARK SMILES IDX 23 25 24 26 25 27 26 29 27 30 28 31 89 32 29 33 88 34 30 35
REMARK SMILES IDX 31 36 32 37 82 38 33 39 87 40 81 41 83 42 34 43 86 44 80 45
REMARK SMILES IDX 79 46 35 48 67 49 47 50 66 51 48 52 51 53 65 54 84 55 49 56
REMARK SMILES IDX 50 57 64 59 85 60 52 61 36 62 37 63 45 64 38 65 39 66 43 67
REMARK SMILES IDX 46 68 40 69 41 70 44 71 42 72 68 73 69 74 77 75 70 76 71 77
REMARK SMILES IDX 75 78 78 79 72 80 73 81 76 82 74 83 53 84 54 85 62 86 55 87
REMARK SMILES IDX 56 88 60 89 63 90 57 91 58 92 61 93 59 94
REMARK H PARENT 17 6 10 14 24 28 83 47 51 58
REMARK Flexibility Score: inf
ROOT
ATOM      1  C   UNL A   1      33.640  29.300  26.580  1.00  0.00     0.021 C 
ENDROOT
BRANCH   1   2
ATOM      2  C   UNL A   1      33.650  27.770  26.602  1.00  0.00     0.116 C 
BRANCH   2   3
ATOM      3  N   UNL A   1      32.335  27.220  26.869  1.00  0.00    -0.354 N 
ATOM      4  C   UNL A   1      31.496  26.588  25.997  1.00  0.00     0.245 C 
ATOM      5  O   UNL A   1      30.414  26.168  26.403  1.00  0.00    -0.272 OA
ATOM      6  H   UNL A   1      32.008  27.313  27.792  1.00  0.00     0.163 HD
BRANCH   4   7
ATOM      7  C   UNL A   1      31.926  26.441  24.529  1.00  0.00     0.260 C 
BRANCH   7   8
ATOM      8  O   UNL A   1      30.944  26.308  23.513  1.00  0.00    -0.370 OA
BRANCH   8   9
ATOM      9  C   UNL A   1      31.083  27.183  22.396  1.00  0.00     0.182 C 
BRANCH   9  10
ATOM     10  C   UNL A   1      30.339  28.507  22.521  1.00  0.00     0.144 C 
BRANCH  10  11
ATOM     11  N   UNL A   1      28.976  28.432  22.999  1.00  0.00    -0.350 N 
ATOM     12  C   UNL A   1      27.887  29.234  22.786  1.00  0.00     0.253 C 
ATOM     13  O   UNL A   1      26.805  28.851  23.234  1.00  0.00    -0.269 OA
ATOM     14  H   UNL A   1      28.798  27.661  23.586  1.00  0.00     0.163 HD
BRANCH  12  15
ATOM     15  C   UNL A   1      27.942  30.566  22.129  1.00  0.00     0.061 A 
ATOM     16  C   UNL A   1      28.705  31.994  24.123  1.00  0.00     0.067 C 
ATOM     17  C   UNL A   1      28.275  31.796  22.704  1.00  0.00     0.050 A 
ATOM     18  N   UNL A   1      28.291  32.955  21.981  1.00  0.00    -0.261 NA
ATOM     19  C   UNL A   1      28.073  32.888  20.652  1.00  0.00     0.111 A 
ATOM     20  C   UNL A   1      27.748  30.542  20.736  1.00  0.00     0.017 A 
ATOM     21  C   UNL A   1      27.824  31.709  19.983  1.00  0.00     0.021 A 
ENDBRANCH  12  15
ENDBRANCH  10  11
ENDBRANCH   9  10
ENDBRANCH   8   9
ENDBRANCH   7   8
ENDBRANCH   4   7
ENDBRANCH   2   3
ENDBRANCH   1   2
BRANCH   1  22
ATOM     22  C   UNL A   1      32.372  29.939  27.159  1.00  0.00     0.002 C 
BRANCH  22  23
ATOM     23  C   UNL A   1      31.593  30.828  26.185  1.00  0.00     0.002 C 
BRANCH  23  24
ATOM     24  C   UNL A   1      31.406  32.276  26.643  1.00  0.00     0.021 C 
BRANCH  24  25
ATOM     25  C   UNL A   1      32.624  32.882  27.328  1.00  0.00     0.116 C 
BRANCH  25  26
ATOM     26  N   UNL A   1      32.417  34.280  27.667  1.00  0.00    -0.352 N 
ATOM     27  C   UNL A   1      33.008  35.027  28.651  1.00  0.00     0.251 C 
ATOM     28  H   UNL A   1      31.760  34.758  27.111  1.00  0.00     0.163 HD
ATOM     29  O   UNL A   1      32.563  36.137  28.941  1.00  0.00    -0.269 OA
BRANCH  27  30
ATOM     30  C   UNL A   1      34.174  34.488  29.381  1.00  0.00     0.039 A 
ATOM     31  C   UNL A   1      33.971  33.858  30.610  1.00  0.00     0.014 A 
ATOM     32  C   UNL A   1      35.463  34.607  28.853  1.00  0.00     0.014 A 
ATOM     33  C   UNL A   1      35.056  33.295  31.285  1.00  0.00     0.010 A 
ATOM     34  C   UNL A   1      36.530  33.977  29.486  1.00  0.00     0.010 A 
ATOM     35  C   UNL A   1      36.339  33.320  30.712  1.00  0.00    -0.014 A 
BRANCH  35  36
ATOM     36  C   UNL A   1      37.492  32.668  31.383  1.00  0.00     0.031 A 
ATOM     37  C   UNL A   1      38.212  31.531  30.715  1.00  0.00     0.074 A 
ATOM     38  C   UNL A   1      37.851  33.064  32.619  1.00  0.00     0.049 A 
ATOM     39  N   UNL A   1      39.199  30.797  31.164  1.00  0.00    -0.248 NA
ATOM     40  C   UNL A   1      37.743  31.147  29.374  1.00  0.00     0.031 C 
ATOM     41  C   UNL A   1      37.203  34.125  33.389  1.00  0.00     0.029 A 
ATOM     42  N   UNL A   1      38.847  32.614  33.450  1.00  0.00    -0.354 N 
ATOM     43  C   UNL A   1      39.459  29.865  30.168  1.00  0.00     0.074 A 
ATOM     44  C   UNL A   1      38.489  30.084  29.117  1.00  0.00     0.031 C 
ATOM     45  C   UNL A   1      37.831  34.262  34.568  1.00  0.00     0.029 A 
ATOM     46  C   UNL A   1      38.897  33.270  34.655  1.00  0.00     0.049 A 
ATOM     47  H   UNL A   1      39.466  31.888  33.205  1.00  0.00     0.167 HD
ATOM     48  C   UNL A   1      40.436  28.926  30.124  1.00  0.00     0.037 A 
ATOM     49  C   UNL A   1      39.708  33.086  35.715  1.00  0.00     0.037 A 
ATOM     50  C   UNL A   1      41.409  28.724  31.166  1.00  0.00     0.049 A 
ATOM     51  C   UNL A   1      40.770  32.022  35.649  1.00  0.00     0.074 A 
ATOM     52  C   UNL A   1      42.472  27.838  31.192  1.00  0.00     0.029 A 
ATOM     53  N   UNL A   1      41.433  29.413  32.369  1.00  0.00    -0.354 N 
ATOM     54  N   UNL A   1      41.053  31.193  34.673  1.00  0.00    -0.248 NA
ATOM     55  C   UNL A   1      41.631  31.871  36.830  1.00  0.00     0.031 C 
ATOM     56  C   UNL A   1      43.103  27.950  32.435  1.00  0.00     0.029 A 
ATOM     57  C   UNL A   1      42.476  28.952  33.158  1.00  0.00     0.049 A 
ATOM     58  H   UNL A   1      40.804  30.125  32.625  1.00  0.00     0.167 HD
ATOM     59  C   UNL A   1      42.141  30.448  35.108  1.00  0.00     0.074 A 
ATOM     60  C   UNL A   1      42.477  30.933  36.430  1.00  0.00     0.031 C 
ATOM     61  C   UNL A   1      42.803  29.450  34.470  1.00  0.00     0.037 A 
BRANCH  48  62
ATOM     62  C   UNL A   1      40.499  28.043  28.910  1.00  0.00     0.064 A 
ATOM     63  C   UNL A   1      39.793  26.831  28.842  1.00  0.00     0.173 A 
ATOM     64  C   UNL A   1      41.243  28.430  27.786  1.00  0.00     0.173 A 
ATOM     65  F   UNL A   1      39.074  26.408  29.892  1.00  0.00    -0.203 F 
ATOM     66  C   UNL A   1      39.856  26.027  27.707  1.00  0.00     0.198 A 
ATOM     67  C   UNL A   1      41.276  27.639  26.639  1.00  0.00     0.198 A 
ATOM     68  F   UNL A   1      41.932  29.580  27.793  1.00  0.00    -0.203 F 
ATOM     69  F   UNL A   1      39.217  24.849  27.687  1.00  0.00    -0.200 F 
ATOM     70  C   UNL A   1      40.591  26.435  26.604  1.00  0.00     0.200 A 
ATOM     71  F   UNL A   1      41.973  28.044  25.568  1.00  0.00    -0.200 F 
ATOM     72  F   UNL A   1      40.643  25.664  25.509  1.00  0.00    -0.200 F 
ENDBRANCH  48  62
BRANCH  49  73
ATOM     73  C   UNL A   1      39.558  33.939  36.924  1.00  0.00     0.064 A 
ATOM     74  C   UNL A   1      38.801  33.505  38.023  1.00  0.00     0.173 A 
ATOM     75  C   UNL A   1      40.155  35.205  37.005  1.00  0.00     0.173 A 
ATOM     76  F   UNL A   1      38.194  32.310  37.987  1.00  0.00    -0.203 F 
ATOM     77  C   UNL A   1      38.627  34.316  39.143  1.00  0.00     0.198 A 
ATOM     78  C   UNL A   1      40.007  36.001  38.138  1.00  0.00     0.198 A 
ATOM     79  F   UNL A   1      40.894  35.665  35.984  1.00  0.00    -0.203 F 
ATOM     80  F   UNL A   1      37.855  33.898  40.155  1.00  0.00    -0.200 F 
ATOM     81  C   UNL A   1      39.235  35.560  39.202  1.00  0.00     0.200 A 
ATOM     82  F   UNL A   1      40.611  37.195  38.199  1.00  0.00    -0.200 F 
ATOM     83  F   UNL A   1      39.070  36.338  40.281  1.00  0.00    -0.200 F 
ENDBRANCH  49  73
BRANCH  61  84
ATOM     84  C   UNL A   1      43.984  28.845  35.174  1.00  0.00     0.064 A 
ATOM     85  C   UNL A   1      43.848  27.751  36.042  1.00  0.00     0.173 A 
ATOM     86  C   UNL A   1      45.277  29.342  34.944  1.00  0.00     0.173 A 
ATOM     87  F   UNL A   1      42.633  27.247  36.307  1.00  0.00    -0.203 F 
ATOM     88  C   UNL A   1      44.957  27.198  36.676  1.00  0.00     0.198 A 
ATOM     89  C   UNL A   1      46.387  28.764  35.552  1.00  0.00     0.198 A 
ATOM     90  F   UNL A   1      45.465  30.382  34.117  1.00  0.00    -0.203 F 
ATOM     91  F   UNL A   1      44.796  26.189  37.544  1.00  0.00    -0.200 F 
ATOM     92  C   UNL A   1      46.225  27.699  36.425  1.00  0.00     0.200 A 
ATOM     93  F   UNL A   1      47.613  29.239  35.295  1.00  0.00    -0.200 F 
ATOM     94  F   UNL A   1      47.293  27.160  37.029  1.00  0.00    -0.200 F 
ENDBRANCH  61  84
ENDBRANCH  35  36
ENDBRANCH  27  30
ENDBRANCH  25  26
ENDBRANCH  24  25
ENDBRANCH  23  24
ENDBRANCH  22  23
ENDBRANCH   1  22
TORSDOF 18
ENDMDL
MODEL 2
REMARK VINA RESULT:     -11.1      1.918      3.890
REMARK SMILES Cc1ncccc1C(=O)NCCOCC(=O)NCCCCCCNC(=O)c1ccc(-c2c3nc(c(-c4c(F)c(F)c(F)c(F)c4F)c4ccc([nH]4)c(-c4c(F)c(F)c(F)c(F)c4F)c4nc(c(-c5c(F)c(F)c(F)c(F)c5F)c5ccc2[nH]5)C=C4)C=C3)cc1
REMARK SMILES IDX 19 1 18 2 17 3 15 4 16 5 14 7 13 8 12 9 11 10 10 11 8 12
REMARK SMILES IDX 9 13 7 15 1 16 2 17 3 18 4 19 6 20 5 21 20 22 21 23 22 24
REMARK SMILES IDX 23 25 24 26 25 27 26 29 27 30 28 31 89 32 29 33 88 34 30 35
REMARK SMILES IDX 31 36 32 37 82 38 33 39 87 40 81 41 83 42 34 43 86 44 80 45
REMARK SMILES IDX 79 46 35 48 67 49 47 50 66 51 48 52 51 53 65 54 84 55 49 56
REMARK SMILES IDX 50 57 64 59 85 60 52 61 36 62 37 63 45 64 38 65 39 66 43 67
REMARK SMILES IDX 46 68 40 69 41 70 44 71 42 72 68 73 69 74 77 75 70 76 71 77
REMARK SMILES IDX 75 78 78 79 72 80 73 81 76 82 74 83 53 84 54 85 62 86 55 87
REMARK SMILES IDX 56 88 60 89 63 90 57 91 58 92 61 93 59 94
REMARK H PARENT 17 6 10 14 24 28 83 47 51 58
REMARK Flexibility Score: inf
ROOT
ATOM      1  C   UNL A   1      33.609  29.245  26.837  1.00  0.00     0.021 C 
ENDROOT
BRANCH   1   2
ATOM      2  C   UNL A   1      33.504  27.935  26.054  1.00  0.00     0.116 C 
BRANCH   2   3
ATOM      3  N   UNL A   1      32.441  27.085  26.552  1.00  0.00    -0.354 N 
ATOM      4  C   UNL A   1      31.272  26.750  25.932  1.00  0.00     0.245 C 
ATOM      5  O   UNL A   1      30.484  25.998  26.502  1.00  0.00    -0.272 OA
ATOM      6  H   UNL A   1      32.579  26.702  27.449  1.00  0.00     0.163 HD
BRANCH   4   7
ATOM      7  C   UNL A   1      30.973  27.343  24.546  1.00  0.00     0.260 C 
BRANCH   7   8
ATOM      8  O   UNL A   1      31.423  26.674  23.378  1.00  0.00    -0.370 OA
BRANCH   8   9
ATOM      9  C   UNL A   1      30.617  25.583  22.937  1.00  0.00     0.182 C 
BRANCH   9  10
ATOM     10  C   UNL A   1      31.133  24.204  23.328  1.00  0.00     0.144 C 
BRANCH  10  11
ATOM     11  N   UNL A   1      30.541  23.609  24.506  1.00  0.00    -0.350 N 
ATOM     12  C   UNL A   1      31.029  22.720  25.425  1.00  0.00     0.253 C 
ATOM     13  O   UNL A   1      30.326  22.478  26.408  1.00  0.00    -0.269 OA
ATOM     14  H   UNL A   1      29.615  23.897  24.678  1.00  0.00     0.163 HD
BRANCH  12  15
ATOM     15  C   UNL A   1      32.303  21.970  25.272  1.00  0.00     0.061 A 
ATOM     16  C   UNL A   1      33.949  23.752  26.119  1.00  0.00     0.067 C 
ATOM     17  C   UNL A   1      33.600  22.413  25.548  1.00  0.00     0.050 A 
ATOM     18  N   UNL A   1      34.694  21.615  25.366  1.00  0.00    -0.261 NA
ATOM     19  C   UNL A   1      34.501  20.331  25.002  1.00  0.00     0.111 A 
ATOM     20  C   UNL A   1      32.150  20.617  24.921  1.00  0.00     0.017 A 
ATOM     21  C   UNL A   1      33.255  19.781  24.794  1.00  0.00     0.021 A 
ENDBRANCH  12  15
ENDBRANCH  10  11
ENDBRANCH   9  10
ENDBRANCH   8   9
ENDBRANCH   7   8
ENDBRANCH   4   7
ENDBRANCH   2   3
ENDBRANCH   1   2
BRANCH   1  22
ATOM     22  C   UNL A   1      32.263  29.859  27.239  1.00  0.00     0.002 C 
BRANCH  22  23
ATOM     23  C   UNL A   1      31.604  30.731  26.167  1.00  0.00     0.002 C 
BRANCH  23  24
ATOM     24  C   UNL A   1      31.436  32.203  26.547  1.00  0.00     0.021 C 
BRANCH  24  25
ATOM     25  C   UNL A   1      32.628  32.804  27.278  1.00  0.00     0.116 C 
BRANCH  25  26
ATOM     26  N   UNL A   1      32.406  34.198  27.626  1.00  0.00    -0.352 N 
ATOM     27  C   UNL A   1      32.974  34.939  28.629  1.00  0.00     0.251 C 
ATOM     28  H   UNL A   1      31.757  34.677  27.062  1.00  0.00     0.163 HD
ATOM     29  O   UNL A   1      32.517  36.044  28.921  1.00  0.00    -0.269 OA
BRANCH  27  30
ATOM     30  C   UNL A   1      34.129  34.400  29.376  1.00  0.00     0.039 A 
ATOM     31  C   UNL A   1      33.905  33.740  30.586  1.00  0.00     0.014 A 
ATOM     32  C   UNL A   1      35.429  34.548  28.883  1.00  0.00     0.014 A 
ATOM     33  C   UNL A   1      34.981  33.178  31.275  1.00  0.00     0.010 A 
ATOM     34  C   UNL A   1      36.488  33.919  29.529  1.00  0.00     0.010 A 
ATOM     35  C   UNL A   1      36.277  33.233  30.735  1.00  0.00    -0.014 A 
BRANCH  35  36
ATOM     36  C   UNL A   1      37.422  32.583  31.421  1.00  0.00     0.031 A 
ATOM     37  C   UNL A   1      38.128  31.422  30.778  1.00  0.00     0.074 A 
ATOM     38  C   UNL A   1      37.786  33.001  32.648  1.00  0.00     0.049 A 
ATOM     39  N   UNL A   1      39.107  30.686  31.243  1.00  0.00    -0.248 NA
ATOM     40  C   UNL A   1      37.654  31.015  29.445  1.00  0.00     0.031 C 
ATOM     41  C   UNL A   1      37.150  34.087  33.395  1.00  0.00     0.029 A 
ATOM     42  N   UNL A   1      38.776  32.557  33.489  1.00  0.00    -0.354 N 
ATOM     43  C   UNL A   1      39.356  29.729  30.269  1.00  0.00     0.074 A 
ATOM     44  C   UNL A   1      38.388  29.937  29.213  1.00  0.00     0.031 C 
ATOM     45  C   UNL A   1      37.779  34.242  34.570  1.00  0.00     0.029 A 
ATOM     46  C   UNL A   1      38.834  33.239  34.679  1.00  0.00     0.049 A 
ATOM     47  H   UNL A   1      39.386  31.818  33.260  1.00  0.00     0.167 HD
ATOM     48  C   UNL A   1      40.321  28.779  30.245  1.00  0.00     0.037 A 
ATOM     49  C   UNL A   1      39.643  33.069  35.744  1.00  0.00     0.037 A 
ATOM     50  C   UNL A   1      41.292  28.588  31.291  1.00  0.00     0.049 A 
ATOM     51  C   UNL A   1      40.692  31.991  35.701  1.00  0.00     0.074 A 
ATOM     52  C   UNL A   1      42.344  27.690  31.338  1.00  0.00     0.029 A 
ATOM     53  N   UNL A   1      41.324  29.303  32.480  1.00  0.00    -0.354 N 
ATOM     54  N   UNL A   1      40.965  31.138  34.744  1.00  0.00    -0.248 NA
ATOM     55  C   UNL A   1      41.551  31.856  36.886  1.00  0.00     0.031 C 
ATOM     56  C   UNL A   1      42.976  27.822  32.578  1.00  0.00     0.029 A 
ATOM     57  C   UNL A   1      42.362  28.847  33.278  1.00  0.00     0.049 A 
ATOM     58  H   UNL A   1      40.703  30.028  32.720  1.00  0.00     0.167 HD
ATOM     59  C   UNL A   1      42.045  30.389  35.195  1.00  0.00     0.074 A 
ATOM     60  C   UNL A   1      42.386  30.900  36.506  1.00  0.00     0.031 C 
ATOM     61  C   UNL A   1      42.694  29.370  34.579  1.00  0.00     0.037 A 
BRANCH  48  62
ATOM     62  C   UNL A   1      40.373  27.868  29.051  1.00  0.00     0.064 A 
ATOM     63  C   UNL A   1      39.641  26.671  29.003  1.00  0.00     0.173 A 
ATOM     64  C   UNL A   1      41.135  28.214  27.925  1.00  0.00     0.173 A 
ATOM     65  F   UNL A   1      38.904  26.287  30.056  1.00  0.00    -0.203 F 
ATOM     66  C   UNL A   1      39.694  25.842  27.886  1.00  0.00     0.198 A 
ATOM     67  C   UNL A   1      41.159  27.398  26.796  1.00  0.00     0.198 A 
ATOM     68  F   UNL A   1      41.851  29.348  27.914  1.00  0.00    -0.203 F 
ATOM     69  F   UNL A   1      39.029  24.678  27.886  1.00  0.00    -0.200 F 
ATOM     70  C   UNL A   1      40.447  26.209  26.781  1.00  0.00     0.200 A 
ATOM     71  F   UNL A   1      41.874  27.763  25.723  1.00  0.00    -0.200 F 
ATOM     72  F   UNL A   1      40.490  25.414  25.704  1.00  0.00    -0.200 F 
ENDBRANCH  48  62
BRANCH  49  73
ATOM     73  C   UNL A   1      39.503  33.950  36.934  1.00  0.00     0.064 A 
ATOM     74  C   UNL A   1      40.117  35.210  36.973  1.00  0.00     0.173 A 
ATOM     75  C   UNL A   1      38.765  33.551  38.057  1.00  0.00     0.173 A 
ATOM     76  F   UNL A   1      40.850  35.631  35.931  1.00  0.00    -0.203 F 
ATOM     77  C   UNL A   1      40.020  36.024  38.099  1.00  0.00     0.198 A 
ATOM     78  C   UNL A   1      38.641  34.379  39.169  1.00  0.00     0.198 A 
ATOM     79  F   UNL A   1      38.152  32.357  38.068  1.00  0.00    -0.203 F 
ATOM     80  F   UNL A   1      40.661  37.200  38.130  1.00  0.00    -0.200 F 
ATOM     81  C   UNL A   1      39.277  35.610  39.194  1.00  0.00     0.200 A 
ATOM     82  F   UNL A   1      37.908  33.983  40.219  1.00  0.00    -0.200 F 
ATOM     83  F   UNL A   1      39.181  36.396  40.276  1.00  0.00    -0.200 F 
ENDBRANCH  49  73
BRANCH  61  84
ATOM     84  C   UNL A   1      43.868  28.766  35.297  1.00  0.00     0.064 A 
ATOM     85  C   UNL A   1      43.721  27.681  36.174  1.00  0.00     0.173 A 
ATOM     86  C   UNL A   1      45.164  29.256  35.071  1.00  0.00     0.173 A 
ATOM     87  F   UNL A   1      42.502  27.184  36.435  1.00  0.00    -0.203 F 
ATOM     88  C   UNL A   1      44.824  27.130  36.820  1.00  0.00     0.198 A 
ATOM     89  C   UNL A   1      46.268  28.679  35.692  1.00  0.00     0.198 A 
ATOM     90  F   UNL A   1      45.362  30.288  34.236  1.00  0.00    -0.203 F 
ATOM     91  F   UNL A   1      44.652  26.129  37.696  1.00  0.00    -0.200 F 
ATOM     92  C   UNL A   1      46.096  27.623  36.574  1.00  0.00     0.200 A 
ATOM     93  F   UNL A   1      47.498  29.146  35.439  1.00  0.00    -0.200 F 
ATOM     94  F   UNL A   1      47.157  27.085  37.190  1.00  0.00    -0.200 F 
ENDBRANCH  61  84
ENDBRANCH  35  36
ENDBRANCH  27  30
ENDBRANCH  25  26
ENDBRANCH  24  25
ENDBRANCH  23  24
ENDBRANCH  22  23
ENDBRANCH   1  22
TORSDOF 18
ENDMDL
MODEL 3
REMARK VINA RESULT:     -11.0      1.970      4.198
REMARK SMILES Cc1ncccc1C(=O)NCCOCC(=O)NCCCCCCNC(=O)c1ccc(-c2c3nc(c(-c4c(F)c(F)c(F)c(F)c4F)c4ccc([nH]4)c(-c4c(F)c(F)c(F)c(F)c4F)c4nc(c(-c5c(F)c(F)c(F)c(F)c5F)c5ccc2[nH]5)C=C4)C=C3)cc1
REMARK SMILES IDX 19 1 18 2 17 3 15 4 16 5 14 7 13 8 12 9 11 10 10 11 8 12
REMARK SMILES IDX 9 13 7 15 1 16 2 17 3 18 4 19 6 20 5 21 20 22 21 23 22 24
REMARK SMILES IDX 23 25 24 26 25 27 26 29 27 30 28 31 89 32 29 33 88 34 30 35
REMARK SMILES IDX 31 36 32 37 82 38 33 39 87 40 81 41 83 42 34 43 86 44 80 45
REMARK SMILES IDX 79 46 35 48 67 49 47 50 66 51 48 52 51 53 65 54 84 55 49 56
REMARK SMILES IDX 50 57 64 59 85 60 52 61 36 62 37 63 45 64 38 65 39 66 43 67
REMARK SMILES IDX 46 68 40 69 41 70 44 71 42 72 68 73 69 74 77 75 70 76 71 77
REMARK SMILES IDX 75 78 78 79 72 80 73 81 76 82 74 83 53 84 54 85 62 86 55 87
REMARK SMILES IDX 56 88 60 89 63 90 57 91 58 92 61 93 59 94
REMARK H PARENT 17 6 10 14 24 28 83 47 51 58
REMARK Flexibility Score: inf
ROOT
ATOM      1  C   UNL A   1      33.542  29.211  25.711  1.00  0.00     0.021 C 
ENDROOT
BRANCH   1   2
ATOM      2  C   UNL A   1      32.826  29.210  24.359  1.00  0.00     0.116 C 
BRANCH   2   3
ATOM      3  N   UNL A   1      33.542  28.436  23.363  1.00  0.00    -0.354 N 
ATOM      4  C   UNL A   1      33.048  27.469  22.536  1.00  0.00     0.245 C 
ATOM      5  O   UNL A   1      33.803  26.921  21.734  1.00  0.00    -0.272 OA
ATOM      6  H   UNL A   1      34.502  28.632  23.273  1.00  0.00     0.163 HD
BRANCH   4   7
ATOM      7  C   UNL A   1      31.564  27.085  22.649  1.00  0.00     0.260 C 
BRANCH   7   8
ATOM      8  O   UNL A   1      31.117  26.300  23.743  1.00  0.00    -0.370 OA
BRANCH   8   9
ATOM      9  C   UNL A   1      30.336  25.155  23.408  1.00  0.00     0.182 C 
BRANCH   9  10
ATOM     10  C   UNL A   1      30.857  23.837  23.968  1.00  0.00     0.144 C 
BRANCH  10  11
ATOM     11  N   UNL A   1      30.560  23.570  25.358  1.00  0.00    -0.350 N 
ATOM     12  C   UNL A   1      31.343  23.132  26.393  1.00  0.00     0.253 C 
ATOM     13  O   UNL A   1      30.837  23.111  27.516  1.00  0.00    -0.269 OA
ATOM     14  H   UNL A   1      29.621  23.734  25.607  1.00  0.00     0.163 HD
BRANCH  12  15
ATOM     15  C   UNL A   1      32.724  22.607  26.235  1.00  0.00     0.061 A 
ATOM     16  C   UNL A   1      32.209  20.429  24.974  1.00  0.00     0.067 C 
ATOM     17  C   UNL A   1      33.126  21.409  25.636  1.00  0.00     0.050 A 
ATOM     18  N   UNL A   1      34.439  21.043  25.553  1.00  0.00    -0.261 NA
ATOM     19  C   UNL A   1      35.378  21.914  25.975  1.00  0.00     0.111 A 
ATOM     20  C   UNL A   1      33.740  23.493  26.636  1.00  0.00     0.017 A 
ATOM     21  C   UNL A   1      35.081  23.155  26.497  1.00  0.00     0.021 A 
ENDBRANCH  12  15
ENDBRANCH  10  11
ENDBRANCH   9  10
ENDBRANCH   8   9
ENDBRANCH   7   8
ENDBRANCH   4   7
ENDBRANCH   2   3
ENDBRANCH   1   2
BRANCH   1  22
ATOM     22  C   UNL A   1      32.912  30.128  26.766  1.00  0.00     0.002 C 
BRANCH  22  23
ATOM     23  C   UNL A   1      31.559  30.729  26.377  1.00  0.00     0.002 C 
BRANCH  23  24
ATOM     24  C   UNL A   1      31.417  32.227  26.651  1.00  0.00     0.021 C 
BRANCH  24  25
ATOM     25  C   UNL A   1      32.669  32.887  27.212  1.00  0.00     0.116 C 
BRANCH  25  26
ATOM     26  N   UNL A   1      32.430  34.268  27.599  1.00  0.00    -0.352 N 
ATOM     27  C   UNL A   1      32.992  34.988  28.619  1.00  0.00     0.251 C 
ATOM     28  H   UNL A   1      31.771  34.753  27.051  1.00  0.00     0.163 HD
ATOM     29  O   UNL A   1      32.520  36.078  28.943  1.00  0.00    -0.269 OA
BRANCH  27  30
ATOM     30  C   UNL A   1      34.157  34.445  29.346  1.00  0.00     0.039 A 
ATOM     31  C   UNL A   1      33.948  33.756  30.543  1.00  0.00     0.014 A 
ATOM     32  C   UNL A   1      35.452  34.617  28.849  1.00  0.00     0.014 A 
ATOM     33  C   UNL A   1      35.034  33.190  31.212  1.00  0.00     0.010 A 
ATOM     34  C   UNL A   1      36.522  33.985  29.473  1.00  0.00     0.010 A 
ATOM     35  C   UNL A   1      36.326  33.270  30.665  1.00  0.00    -0.014 A 
BRANCH  35  36
ATOM     36  C   UNL A   1      37.482  32.617  31.329  1.00  0.00     0.031 A 
ATOM     37  C   UNL A   1      38.193  31.475  30.657  1.00  0.00     0.074 A 
ATOM     38  C   UNL A   1      37.852  33.014  32.561  1.00  0.00     0.049 A 
ATOM     39  N   UNL A   1      39.182  30.739  31.100  1.00  0.00    -0.248 NA
ATOM     40  C   UNL A   1      37.712  31.090  29.321  1.00  0.00     0.031 C 
ATOM     41  C   UNL A   1      37.213  34.079  33.334  1.00  0.00     0.029 A 
ATOM     42  N   UNL A   1      38.853  32.562  33.385  1.00  0.00    -0.354 N 
ATOM     43  C   UNL A   1      39.431  29.804  30.105  1.00  0.00     0.074 A 
ATOM     44  C   UNL A   1      38.454  30.024  29.061  1.00  0.00     0.031 C 
ATOM     45  C   UNL A   1      37.850  34.216  34.507  1.00  0.00     0.029 A 
ATOM     46  C   UNL A   1      38.915  33.221  34.588  1.00  0.00     0.049 A 
ATOM     47  H   UNL A   1      39.468  31.834  33.137  1.00  0.00     0.167 HD
ATOM     48  C   UNL A   1      40.405  28.863  30.055  1.00  0.00     0.037 A 
ATOM     49  C   UNL A   1      39.733  33.037  35.643  1.00  0.00     0.037 A 
ATOM     50  C   UNL A   1      41.386  28.660  31.089  1.00  0.00     0.049 A 
ATOM     51  C   UNL A   1      40.792  31.969  35.570  1.00  0.00     0.074 A 
ATOM     52  C   UNL A   1      42.446  27.771  31.109  1.00  0.00     0.029 A 
ATOM     53  N   UNL A   1      41.421  29.352  32.291  1.00  0.00    -0.354 N 
ATOM     54  N   UNL A   1      41.065  31.138  34.594  1.00  0.00    -0.248 NA
ATOM     55  C   UNL A   1      41.661  31.819  36.745  1.00  0.00     0.031 C 
ATOM     56  C   UNL A   1      43.087  27.884  32.347  1.00  0.00     0.029 A 
ATOM     57  C   UNL A   1      42.469  28.889  33.073  1.00  0.00     0.049 A 
ATOM     58  H   UNL A   1      40.796  30.066  32.550  1.00  0.00     0.167 HD
ATOM     59  C   UNL A   1      42.154  30.390  35.022  1.00  0.00     0.074 A 
ATOM     60  C   UNL A   1      42.501  30.878  36.340  1.00  0.00     0.031 C 
ATOM     61  C   UNL A   1      42.808  29.389  34.381  1.00  0.00     0.037 A 
BRANCH  48  62
ATOM     62  C   UNL A   1      40.455  27.977  28.843  1.00  0.00     0.064 A 
ATOM     63  C   UNL A   1      41.233  28.305  27.720  1.00  0.00     0.173 A 
ATOM     64  C   UNL A   1      39.748  26.766  28.815  1.00  0.00     0.173 A 
ATOM     65  F   UNL A   1      41.921  29.457  27.688  1.00  0.00    -0.203 F 
ATOM     66  C   UNL A   1      41.274  27.470  26.607  1.00  0.00     0.198 A 
ATOM     67  C   UNL A   1      39.819  25.916  27.713  1.00  0.00     0.198 A 
ATOM     68  F   UNL A   1      38.994  26.399  29.862  1.00  0.00    -0.203 F 
ATOM     69  F   UNL A   1      41.981  27.832  25.526  1.00  0.00    -0.200 F 
ATOM     70  C   UNL A   1      40.574  26.273  26.607  1.00  0.00     0.200 A 
ATOM     71  F   UNL A   1      39.155  24.752  27.723  1.00  0.00    -0.200 F 
ATOM     72  F   UNL A   1      40.622  25.467  25.538  1.00  0.00    -0.200 F 
ENDBRANCH  48  62
BRANCH  49  73
ATOM     73  C   UNL A   1      39.595  33.893  36.851  1.00  0.00     0.064 A 
ATOM     74  C   UNL A   1      38.834  33.470  37.950  1.00  0.00     0.173 A 
ATOM     75  C   UNL A   1      40.209  35.151  36.930  1.00  0.00     0.173 A 
ATOM     76  F   UNL A   1      38.210  32.283  37.916  1.00  0.00    -0.203 F 
ATOM     77  C   UNL A   1      38.670  34.284  39.069  1.00  0.00     0.198 A 
ATOM     78  C   UNL A   1      40.073  35.950  38.062  1.00  0.00     0.198 A 
ATOM     79  F   UNL A   1      40.954  35.600  35.908  1.00  0.00    -0.203 F 
ATOM     80  F   UNL A   1      37.894  33.878  40.082  1.00  0.00    -0.200 F 
ATOM     81  C   UNL A   1      39.296  35.521  39.127  1.00  0.00     0.200 A 
ATOM     82  F   UNL A   1      40.693  37.136  38.121  1.00  0.00    -0.200 F 
ATOM     83  F   UNL A   1      39.141  36.301  40.205  1.00  0.00    -0.200 F 
ENDBRANCH  49  73
BRANCH  61  84
ATOM     84  C   UNL A   1      43.992  28.782  35.077  1.00  0.00     0.064 A 
ATOM     85  C   UNL A   1      45.277  29.336  34.974  1.00  0.00     0.173 A 
ATOM     86  C   UNL A   1      43.830  27.650  35.892  1.00  0.00     0.173 A 
ATOM     87  F   UNL A   1      45.488  30.409  34.197  1.00  0.00    -0.203 F 
ATOM     88  C   UNL A   1      46.359  28.762  35.636  1.00  0.00     0.198 A 
ATOM     89  C   UNL A   1      44.907  27.101  36.581  1.00  0.00     0.198 A 
ATOM     90  F   UNL A   1      42.621  27.084  36.033  1.00  0.00    -0.203 F 
ATOM     91  F   UNL A   1      47.587  29.277  35.479  1.00  0.00    -0.200 F 
ATOM     92  C   UNL A   1      46.172  27.651  36.445  1.00  0.00     0.200 A 
ATOM     93  F   UNL A   1      44.721  26.038  37.376  1.00  0.00    -0.200 F 
ATOM     94  F   UNL A   1      47.214  27.107  37.089  1.00  0.00    -0.200 F 
ENDBRANCH  61  84
ENDBRANCH  35  36
ENDBRANCH  27  30
ENDBRANCH  25  26
ENDBRANCH  24  25
ENDBRANCH  23  24
ENDBRANCH  22  23
ENDBRANCH   1  22
TORSDOF 18
ENDMDL
