MODEL 1
REMARK VINA RESULT:     -12.5      0.000      0.000
REMARK SMILES O=C(NCCCCCCNC(=O)[C@@H]1CCC[N@@H+]1CC(=O)N1CCSc2ccccc21)c1ccc(-c2c3nc(c(-c4c(F)c(F)c(F)c(F)c4F)c4ccc([nH]4)c(-c4c(F)c(F)c(F)c(F)c4F)c4nc(c(-c5c(F)c(F)c(F)c(F)c5F)c5ccc2[nH]5)C=C4)C=C3)cc1
REMARK SMILES IDX 7 1 6 2 5 3 4 4 3 5 1 6 2 7 31 9 32 10 93 11 33 12 92 13
REMARK SMILES IDX 34 14 35 15 36 16 86 17 37 18 91 19 85 20 87 21 38 22 90 23
REMARK SMILES IDX 84 24 83 25 39 27 71 28 51 29 70 30 52 31 55 32 69 33 88 34
REMARK SMILES IDX 53 35 54 36 68 38 89 39 56 40 40 41 41 42 49 43 42 44 43 45
REMARK SMILES IDX 47 46 50 47 44 48 45 49 48 50 46 51 72 52 73 53 81 54 74 55
REMARK SMILES IDX 75 56 79 57 82 58 76 59 77 60 80 61 78 62 57 63 58 64 66 65
REMARK SMILES IDX 59 66 60 67 64 68 67 69 61 70 62 71 65 72 63 73 8 74 9 75
REMARK SMILES IDX 10 76 11 77 12 79 13 80 14 81 17 82 15 83 16 84 18 86 19 87
REMARK SMILES IDX 20 88 21 89 22 90 30 91 23 92 25 93 29 94 24 95 26 96 28 97
REMARK SMILES IDX 27 98
REMARK H PARENT 3 8 87 26 55 37 10 78 17 85
REMARK Flexibility Score: inf
ROOT
ATOM      1  C   UNL A   1      32.978  30.145  26.476  1.00  0.00     0.002 C 
ENDROOT
BRANCH   1   2
ATOM      2  C   UNL A   1      31.600  30.745  26.195  1.00  0.00     0.002 C 
BRANCH   2   3
ATOM      3  C   UNL A   1      31.424  32.193  26.643  1.00  0.00     0.021 C 
BRANCH   3   4
ATOM      4  C   UNL A   1      32.669  32.813  27.268  1.00  0.00     0.116 C 
BRANCH   4   5
ATOM      5  N   UNL A   1      32.469  34.213  27.610  1.00  0.00    -0.352 N 
ATOM      6  O   UNL A   1      32.610  36.035  28.942  1.00  0.00    -0.269 OA
ATOM      7  C   UNL A   1      33.038  34.932  28.633  1.00  0.00     0.251 C 
ATOM      8  H   UNL A   1      31.845  34.709  27.032  1.00  0.00     0.163 HD
BRANCH   7   9
ATOM      9  C   UNL A   1      34.183  34.353  29.366  1.00  0.00     0.039 A 
ATOM     10  C   UNL A   1      35.474  34.516  28.860  1.00  0.00     0.014 A 
ATOM     11  C   UNL A   1      33.972  33.639  30.550  1.00  0.00     0.014 A 
ATOM     12  C   UNL A   1      36.558  33.981  29.558  1.00  0.00     0.010 A 
ATOM     13  C   UNL A   1      35.059  33.188  31.289  1.00  0.00     0.010 A 
ATOM     14  C   UNL A   1      36.360  33.321  30.782  1.00  0.00    -0.014 A 
BRANCH  14  15
ATOM     15  C   UNL A   1      37.485  32.668  31.498  1.00  0.00     0.031 A 
ATOM     16  C   UNL A   1      38.214  31.530  30.832  1.00  0.00     0.074 A 
ATOM     17  C   UNL A   1      37.836  33.073  32.733  1.00  0.00     0.049 A 
ATOM     18  N   UNL A   1      39.173  30.773  31.301  1.00  0.00    -0.248 NA
ATOM     19  C   UNL A   1      37.793  31.180  29.464  1.00  0.00     0.031 C 
ATOM     20  C   UNL A   1      37.197  34.154  33.484  1.00  0.00     0.029 A 
ATOM     21  N   UNL A   1      38.825  32.623  33.573  1.00  0.00    -0.354 N 
ATOM     22  C   UNL A   1      39.458  29.862  30.293  1.00  0.00     0.074 A 
ATOM     23  C   UNL A   1      38.530  30.109  29.214  1.00  0.00     0.031 C 
ATOM     24  C   UNL A   1      37.832  34.307  34.658  1.00  0.00     0.029 A 
ATOM     25  C   UNL A   1      38.893  33.309  34.762  1.00  0.00     0.049 A 
ATOM     26  H   UNL A   1      39.427  31.879  33.346  1.00  0.00     0.167 HD
ATOM     27  C   UNL A   1      40.435  28.927  30.252  1.00  0.00     0.037 A 
ATOM     28  C   UNL A   1      39.720  33.146  35.814  1.00  0.00     0.037 A 
ATOM     29  C   UNL A   1      41.385  28.710  31.308  1.00  0.00     0.049 A 
ATOM     30  C   UNL A   1      40.773  32.068  35.757  1.00  0.00     0.074 A 
ATOM     31  C   UNL A   1      42.430  27.805  31.354  1.00  0.00     0.029 A 
ATOM     32  N   UNL A   1      41.413  29.419  32.501  1.00  0.00    -0.354 N 
ATOM     33  N   UNL A   1      41.052  31.233  34.786  1.00  0.00    -0.248 NA
ATOM     34  C   UNL A   1      41.627  31.913  36.943  1.00  0.00     0.031 C 
ATOM     35  C   UNL A   1      43.065  27.935  32.591  1.00  0.00     0.029 A 
ATOM     36  C   UNL A   1      42.450  28.960  33.294  1.00  0.00     0.049 A 
ATOM     37  H   UNL A   1      40.789  30.140  32.746  1.00  0.00     0.167 HD
ATOM     38  C   UNL A   1      42.132  30.481  35.226  1.00  0.00     0.074 A 
ATOM     39  C   UNL A   1      42.468  30.967  36.547  1.00  0.00     0.031 C 
ATOM     40  C   UNL A   1      42.786  29.475  34.595  1.00  0.00     0.037 A 
BRANCH  27  41
ATOM     41  C   UNL A   1      40.557  28.086  29.016  1.00  0.00     0.064 A 
ATOM     42  C   UNL A   1      39.823  26.900  28.865  1.00  0.00     0.173 A 
ATOM     43  C   UNL A   1      41.341  28.515  27.935  1.00  0.00     0.173 A 
ATOM     44  F   UNL A   1      39.070  26.439  29.876  1.00  0.00    -0.203 F 
ATOM     45  C   UNL A   1      39.873  26.172  27.680  1.00  0.00     0.198 A 
ATOM     46  C   UNL A   1      41.366  27.801  26.740  1.00  0.00     0.198 A 
ATOM     47  F   UNL A   1      42.061  29.643  28.027  1.00  0.00    -0.203 F 
ATOM     48  F   UNL A   1      39.185  25.028  27.569  1.00  0.00    -0.200 F 
ATOM     49  C   UNL A   1      40.633  26.630  26.613  1.00  0.00     0.200 A 
ATOM     50  F   UNL A   1      42.087  28.253  25.706  1.00  0.00    -0.200 F 
ATOM     51  F   UNL A   1      40.658  25.944  25.463  1.00  0.00    -0.200 F 
ENDBRANCH  27  41
BRANCH  28  52
ATOM     52  C   UNL A   1      39.610  34.039  36.999  1.00  0.00     0.064 A 
ATOM     53  C   UNL A   1      40.288  35.267  37.037  1.00  0.00     0.173 A 
ATOM     54  C   UNL A   1      38.843  33.685  38.119  1.00  0.00     0.173 A 
ATOM     55  F   UNL A   1      41.052  35.643  36.000  1.00  0.00    -0.203 F 
ATOM     56  C   UNL A   1      40.221  36.094  38.158  1.00  0.00     0.198 A 
ATOM     57  C   UNL A   1      38.750  34.527  39.225  1.00  0.00     0.198 A 
ATOM     58  F   UNL A   1      38.173  32.523  38.135  1.00  0.00    -0.203 F 
ATOM     59  F   UNL A   1      40.919  37.237  38.186  1.00  0.00    -0.200 F 
ATOM     60  C   UNL A   1      39.447  35.727  39.248  1.00  0.00     0.200 A 
ATOM     61  F   UNL A   1      37.989  34.176  40.270  1.00  0.00    -0.200 F 
ATOM     62  F   UNL A   1      39.379  36.523  40.323  1.00  0.00    -0.200 F 
ENDBRANCH  28  52
BRANCH  40  63
ATOM     63  C   UNL A   1      43.957  28.852  35.297  1.00  0.00     0.064 A 
ATOM     64  C   UNL A   1      43.798  27.773  36.177  1.00  0.00     0.173 A 
ATOM     65  C   UNL A   1      45.262  29.286  35.015  1.00  0.00     0.173 A 
ATOM     66  F   UNL A   1      42.570  27.328  36.485  1.00  0.00    -0.203 F 
ATOM     67  C   UNL A   1      44.902  27.160  36.763  1.00  0.00     0.198 A 
ATOM     68  C   UNL A   1      46.365  28.649  35.576  1.00  0.00     0.198 A 
ATOM     69  F   UNL A   1      45.469  30.307  34.170  1.00  0.00    -0.203 F 
ATOM     70  F   UNL A   1      44.725  26.153  37.629  1.00  0.00    -0.200 F 
ATOM     71  C   UNL A   1      46.184  27.590  36.453  1.00  0.00     0.200 A 
ATOM     72  F   UNL A   1      47.603  29.052  35.259  1.00  0.00    -0.200 F 
ATOM     73  F   UNL A   1      47.246  26.984  37.002  1.00  0.00    -0.200 F 
ENDBRANCH  40  63
ENDBRANCH  14  15
ENDBRANCH   7   9
ENDBRANCH   4   5
ENDBRANCH   3   4
ENDBRANCH   2   3
ENDBRANCH   1   2
BRANCH   1  74
ATOM     74  C   UNL A   1      33.005  28.836  27.283  1.00  0.00     0.021 C 
BRANCH  74  75
ATOM     75  C   UNL A   1      31.635  28.233  27.612  1.00  0.00     0.116 C 
BRANCH  75  76
ATOM     76  N   UNL A   1      31.456  26.876  27.117  1.00  0.00    -0.351 N 
ATOM     77  C   UNL A   1      31.255  26.313  25.893  1.00  0.00     0.278 C 
ATOM     78  H   UNL A   1      31.486  26.207  27.839  1.00  0.00     0.163 HD
ATOM     79  O   UNL A   1      31.257  25.074  25.900  1.00  0.00    -0.268 OA
BRANCH  77  80
ATOM     80  C   UNL A   1      31.022  27.101  24.577  1.00  0.00     0.274 C 
ATOM     81  C   UNL A   1      30.389  26.504  23.336  1.00  0.00     0.081 C 
ATOM     82  N   UNL A   1      32.238  27.759  24.006  1.00  0.00    -0.317 N 
ATOM     83  C   UNL A   1      30.604  27.593  22.284  1.00  0.00     0.068 C 
ATOM     84  C   UNL A   1      31.823  28.383  22.750  1.00  0.00     0.263 C 
ATOM     85  H   UNL A   1      32.521  28.405  24.743  1.00  0.00     0.349 HD
BRANCH  82  86
ATOM     86  C   UNL A   1      33.576  27.121  23.962  1.00  0.00     0.364 C 
BRANCH  86  87
ATOM     87  C   UNL A   1      33.796  25.788  23.150  1.00  0.00     0.282 C 
ATOM     88  O   UNL A   1      33.837  25.819  21.919  1.00  0.00    -0.268 OA
BRANCH  87  89
ATOM     89  N   UNL A   1      34.059  24.633  23.916  1.00  0.00    -0.306 N 
ATOM     90  C   UNL A   1      34.718  24.794  25.187  1.00  0.00     0.137 C 
ATOM     91  C   UNL A   1      33.560  23.291  23.705  1.00  0.00     0.057 A 
ATOM     92  C   UNL A   1      35.963  23.958  25.297  1.00  0.00     0.097 C 
ATOM     93  C   UNL A   1      33.975  22.229  24.570  1.00  0.00     0.031 A 
ATOM     94  C   UNL A   1      32.668  22.964  22.683  1.00  0.00     0.027 A 
ATOM     95  S   UNL A   1      35.377  22.306  25.712  1.00  0.00    -0.122 SA
ATOM     96  C   UNL A   1      33.351  20.977  24.533  1.00  0.00     0.017 A 
ATOM     97  C   UNL A   1      32.108  21.677  22.604  1.00  0.00     0.002 A 
ATOM     98  C   UNL A   1      32.409  20.705  23.554  1.00  0.00     0.001 A 
ENDBRANCH  87  89
ENDBRANCH  86  87
ENDBRANCH  82  86
ENDBRANCH  77  80
ENDBRANCH  75  76
ENDBRANCH  74  75
ENDBRANCH   1  74
TORSDOF 16
ENDMDL
MODEL 2
REMARK VINA RESULT:     -12.5      0.145      1.111
REMARK SMILES O=C(NCCCCCCNC(=O)[C@@H]1CCC[N@@H+]1CC(=O)N1CCSc2ccccc21)c1ccc(-c2c3nc(c(-c4c(F)c(F)c(F)c(F)c4F)c4ccc([nH]4)c(-c4c(F)c(F)c(F)c(F)c4F)c4nc(c(-c5c(F)c(F)c(F)c(F)c5F)c5ccc2[nH]5)C=C4)C=C3)cc1
REMARK SMILES IDX 7 1 6 2 5 3 4 4 3 5 1 6 2 7 31 9 32 10 93 11 33 12 92 13
REMARK SMILES IDX 34 14 35 15 36 16 86 17 37 18 91 19 85 20 87 21 38 22 90 23
REMARK SMILES IDX 84 24 83 25 39 27 71 28 51 29 70 30 52 31 55 32 69 33 88 34
REMARK SMILES IDX 53 35 54 36 68 38 89 39 56 40 40 41 41 42 49 43 42 44 43 45
REMARK SMILES IDX 47 46 50 47 44 48 45 49 48 50 46 51 72 52 73 53 81 54 74 55
REMARK SMILES IDX 75 56 79 57 82 58 76 59 77 60 80 61 78 62 57 63 58 64 66 65
REMARK SMILES IDX 59 66 60 67 64 68 67 69 61 70 62 71 65 72 63 73 8 74 9 75
REMARK SMILES IDX 10 76 11 77 12 79 13 80 14 81 17 82 15 83 16 84 18 86 19 87
REMARK SMILES IDX 20 88 21 89 22 90 30 91 23 92 25 93 29 94 24 95 26 96 28 97
REMARK SMILES IDX 27 98
REMARK H PARENT 3 8 87 26 55 37 10 78 17 85
REMARK Flexibility Score: inf
ROOT
ATOM      1  C   UNL A   1      32.989  30.143  26.490  1.00  0.00     0.002 C 
ENDROOT
BRANCH   1   2
ATOM      2  C   UNL A   1      31.608  30.734  26.204  1.00  0.00     0.002 C 
BRANCH   2   3
ATOM      3  C   UNL A   1      31.430  32.189  26.624  1.00  0.00     0.021 C 
BRANCH   3   4
ATOM      4  C   UNL A   1      32.668  32.818  27.254  1.00  0.00     0.116 C 
BRANCH   4   5
ATOM      5  N   UNL A   1      32.453  34.213  27.606  1.00  0.00    -0.352 N 
ATOM      6  O   UNL A   1      32.568  36.025  28.955  1.00  0.00    -0.269 OA
ATOM      7  C   UNL A   1      33.009  34.928  28.640  1.00  0.00     0.251 C 
ATOM      8  H   UNL A   1      31.829  34.709  27.029  1.00  0.00     0.163 HD
BRANCH   7   9
ATOM      9  C   UNL A   1      34.154  34.353  29.376  1.00  0.00     0.039 A 
ATOM     10  C   UNL A   1      35.440  34.473  28.846  1.00  0.00     0.014 A 
ATOM     11  C   UNL A   1      33.947  33.685  30.588  1.00  0.00     0.014 A 
ATOM     12  C   UNL A   1      36.524  33.942  29.547  1.00  0.00     0.010 A 
ATOM     13  C   UNL A   1      35.036  33.239  31.326  1.00  0.00     0.010 A 
ATOM     14  C   UNL A   1      36.332  33.329  30.796  1.00  0.00    -0.014 A 
BRANCH  14  15
ATOM     15  C   UNL A   1      37.454  32.679  31.518  1.00  0.00     0.031 A 
ATOM     16  C   UNL A   1      38.196  31.550  30.852  1.00  0.00     0.074 A 
ATOM     17  C   UNL A   1      37.794  33.082  32.757  1.00  0.00     0.049 A 
ATOM     18  N   UNL A   1      39.156  30.796  31.326  1.00  0.00    -0.248 NA
ATOM     19  C   UNL A   1      37.788  31.203  29.479  1.00  0.00     0.031 C 
ATOM     20  C   UNL A   1      37.142  34.155  33.508  1.00  0.00     0.029 A 
ATOM     21  N   UNL A   1      38.778  32.634  33.603  1.00  0.00    -0.354 N 
ATOM     22  C   UNL A   1      39.455  29.891  30.316  1.00  0.00     0.074 A 
ATOM     23  C   UNL A   1      38.534  30.138  29.231  1.00  0.00     0.031 C 
ATOM     24  C   UNL A   1      37.766  34.307  34.688  1.00  0.00     0.029 A 
ATOM     25  C   UNL A   1      38.833  33.315  34.796  1.00  0.00     0.049 A 
ATOM     26  H   UNL A   1      39.387  31.894  33.378  1.00  0.00     0.167 HD
ATOM     27  C   UNL A   1      40.438  28.963  30.279  1.00  0.00     0.037 A 
ATOM     28  C   UNL A   1      39.652  33.152  35.854  1.00  0.00     0.037 A 
ATOM     29  C   UNL A   1      41.380  28.747  31.342  1.00  0.00     0.049 A 
ATOM     30  C   UNL A   1      40.712  32.081  35.801  1.00  0.00     0.074 A 
ATOM     31  C   UNL A   1      42.431  27.848  31.392  1.00  0.00     0.029 A 
ATOM     32  N   UNL A   1      41.394  29.450  32.538  1.00  0.00    -0.354 N 
ATOM     33  N   UNL A   1      41.004  31.252  34.828  1.00  0.00    -0.248 NA
ATOM     34  C   UNL A   1      41.558  31.926  36.993  1.00  0.00     0.031 C 
ATOM     35  C   UNL A   1      43.055  27.977  32.634  1.00  0.00     0.029 A 
ATOM     36  C   UNL A   1      42.428  28.994  33.337  1.00  0.00     0.049 A 
ATOM     37  H   UNL A   1      40.764  30.166  32.781  1.00  0.00     0.167 HD
ATOM     38  C   UNL A   1      42.085  30.505  35.273  1.00  0.00     0.074 A 
ATOM     39  C   UNL A   1      42.408  30.987  36.599  1.00  0.00     0.031 C 
ATOM     40  C   UNL A   1      42.750  29.505  34.643  1.00  0.00     0.037 A 
BRANCH  27  41
ATOM     41  C   UNL A   1      40.575  28.128  29.040  1.00  0.00     0.064 A 
ATOM     42  C   UNL A   1      39.851  26.937  28.879  1.00  0.00     0.173 A 
ATOM     43  C   UNL A   1      41.363  28.568  27.966  1.00  0.00     0.173 A 
ATOM     44  F   UNL A   1      39.095  26.466  29.882  1.00  0.00    -0.203 F 
ATOM     45  C   UNL A   1      39.916  26.214  27.691  1.00  0.00     0.198 A 
ATOM     46  C   UNL A   1      41.402  27.859  26.769  1.00  0.00     0.198 A 
ATOM     47  F   UNL A   1      42.074  29.702  28.069  1.00  0.00    -0.203 F 
ATOM     48  F   UNL A   1      39.237  25.066  27.570  1.00  0.00    -0.200 F 
ATOM     49  C   UNL A   1      40.679  26.684  26.632  1.00  0.00     0.200 A 
ATOM     50  F   UNL A   1      42.127  28.322  25.741  1.00  0.00    -0.200 F 
ATOM     51  F   UNL A   1      40.717  26.002  25.479  1.00  0.00    -0.200 F 
ENDBRANCH  27  41
BRANCH  28  52
ATOM     52  C   UNL A   1      39.527  34.039  37.042  1.00  0.00     0.064 A 
ATOM     53  C   UNL A   1      40.166  35.288  37.075  1.00  0.00     0.173 A 
ATOM     54  C   UNL A   1      38.784  33.659  38.169  1.00  0.00     0.173 A 
ATOM     55  F   UNL A   1      40.906  35.689  36.031  1.00  0.00    -0.203 F 
ATOM     56  C   UNL A   1      40.085  36.110  38.198  1.00  0.00     0.198 A 
ATOM     57  C   UNL A   1      38.677  34.496  39.278  1.00  0.00     0.198 A 
ATOM     58  F   UNL A   1      38.152  32.476  38.190  1.00  0.00    -0.203 F 
ATOM     59  F   UNL A   1      40.747  37.275  38.222  1.00  0.00    -0.200 F 
ATOM     60  C   UNL A   1      39.335  35.717  39.296  1.00  0.00     0.200 A 
ATOM     61  F   UNL A   1      37.939  34.119  40.331  1.00  0.00    -0.200 F 
ATOM     62  F   UNL A   1      39.254  36.508  40.374  1.00  0.00    -0.200 F 
ENDBRANCH  28  52
BRANCH  40  63
ATOM     63  C   UNL A   1      43.919  28.887  35.352  1.00  0.00     0.064 A 
ATOM     64  C   UNL A   1      45.221  29.383  35.193  1.00  0.00     0.173 A 
ATOM     65  C   UNL A   1      43.719  27.843  36.270  1.00  0.00     0.173 A 
ATOM     66  F   UNL A   1      45.465  30.373  34.322  1.00  0.00    -0.203 F 
ATOM     67  C   UNL A   1      46.283  28.844  35.914  1.00  0.00     0.198 A 
ATOM     68  C   UNL A   1      44.777  27.331  37.013  1.00  0.00     0.198 A 
ATOM     69  F   UNL A   1      42.490  27.342  36.467  1.00  0.00    -0.203 F 
ATOM     70  F   UNL A   1      47.525  29.309  35.720  1.00  0.00    -0.200 F 
ATOM     71  C   UNL A   1      46.059  27.828  36.832  1.00  0.00     0.200 A 
ATOM     72  F   UNL A   1      44.555  26.364  37.915  1.00  0.00    -0.200 F 
ATOM     73  F   UNL A   1      47.080  27.327  37.541  1.00  0.00    -0.200 F 
ENDBRANCH  40  63
ENDBRANCH  14  15
ENDBRANCH   7   9
ENDBRANCH   4   5
ENDBRANCH   3   4
ENDBRANCH   2   3
ENDBRANCH   1   2
BRANCH   1  74
ATOM     74  C   UNL A   1      33.021  28.814  27.263  1.00  0.00     0.021 C 
BRANCH  74  75
ATOM     75  C   UNL A   1      31.653  28.218  27.611  1.00  0.00     0.116 C 
BRANCH  75  76
ATOM     76  N   UNL A   1      31.446  26.876  27.088  1.00  0.00    -0.351 N 
ATOM     77  C   UNL A   1      31.254  26.341  25.850  1.00  0.00     0.278 C 
ATOM     78  H   UNL A   1      31.443  26.193  27.797  1.00  0.00     0.163 HD
ATOM     79  O   UNL A   1      31.221  25.102  25.834  1.00  0.00    -0.268 OA
BRANCH  77  80
ATOM     80  C   UNL A   1      31.070  27.158  24.544  1.00  0.00     0.274 C 
ATOM     81  C   UNL A   1      30.416  26.612  23.290  1.00  0.00     0.081 C 
ATOM     82  N   UNL A   1      32.321  27.763  23.990  1.00  0.00    -0.317 N 
ATOM     83  C   UNL A   1      30.692  27.704  22.256  1.00  0.00     0.068 C 
ATOM     84  C   UNL A   1      31.946  28.424  22.741  1.00  0.00     0.263 C 
ATOM     85  H   UNL A   1      32.631  28.383  24.739  1.00  0.00     0.349 HD
BRANCH  82  86
ATOM     86  C   UNL A   1      33.626  27.058  23.945  1.00  0.00     0.364 C 
BRANCH  86  87
ATOM     87  C   UNL A   1      33.777  25.714  23.136  1.00  0.00     0.282 C 
ATOM     88  O   UNL A   1      33.765  25.734  21.903  1.00  0.00    -0.268 OA
BRANCH  87  89
ATOM     89  N   UNL A   1      34.043  24.559  23.899  1.00  0.00    -0.306 N 
ATOM     90  C   UNL A   1      34.700  24.720  25.172  1.00  0.00     0.137 C 
ATOM     91  C   UNL A   1      33.550  23.215  23.686  1.00  0.00     0.057 A 
ATOM     92  C   UNL A   1      35.948  23.889  25.282  1.00  0.00     0.097 C 
ATOM     93  C   UNL A   1      33.969  22.153  24.549  1.00  0.00     0.031 A 
ATOM     94  C   UNL A   1      32.660  22.886  22.662  1.00  0.00     0.027 A 
ATOM     95  S   UNL A   1      35.368  22.233  25.694  1.00  0.00    -0.122 SA
ATOM     96  C   UNL A   1      33.349  20.898  24.509  1.00  0.00     0.017 A 
ATOM     97  C   UNL A   1      32.106  21.597  22.580  1.00  0.00     0.002 A 
ATOM     98  C   UNL A   1      32.410  20.624  23.528  1.00  0.00     0.001 A 
ENDBRANCH  87  89
ENDBRANCH  86  87
ENDBRANCH  82  86
ENDBRANCH  77  80
ENDBRANCH  75  76
ENDBRANCH  74  75
ENDBRANCH   1  74
TORSDOF 16
ENDMDL
MODEL 3
REMARK VINA RESULT:     -12.4      0.649      7.264
REMARK SMILES O=C(NCCCCCCNC(=O)[C@@H]1CCC[N@@H+]1CC(=O)N1CCSc2ccccc21)c1ccc(-c2c3nc(c(-c4c(F)c(F)c(F)c(F)c4F)c4ccc([nH]4)c(-c4c(F)c(F)c(F)c(F)c4F)c4nc(c(-c5c(F)c(F)c(F)c(F)c5F)c5ccc2[nH]5)C=C4)C=C3)cc1
REMARK SMILES IDX 7 1 6 2 5 3 4 4 3 5 1 6 2 7 31 9 32 10 93 11 33 12 92 13
REMARK SMILES IDX 34 14 35 15 36 16 86 17 37 18 91 19 85 20 87 21 38 22 90 23
REMARK SMILES IDX 84 24 83 25 39 27 71 28 51 29 70 30 52 31 55 32 69 33 88 34
REMARK SMILES IDX 53 35 54 36 68 38 89 39 56 40 40 41 41 42 49 43 42 44 43 45
REMARK SMILES IDX 47 46 50 47 44 48 45 49 48 50 46 51 72 52 73 53 81 54 74 55
REMARK SMILES IDX 75 56 79 57 82 58 76 59 77 60 80 61 78 62 57 63 58 64 66 65
REMARK SMILES IDX 59 66 60 67 64 68 67 69 61 70 62 71 65 72 63 73 8 74 9 75
REMARK SMILES IDX 10 76 11 77 12 79 13 80 14 81 17 82 15 83 16 84 18 86 19 87
REMARK SMILES IDX 20 88 21 89 22 90 30 91 23 92 25 93 29 94 24 95 26 96 28 97
REMARK SMILES IDX 27 98
REMARK H PARENT 3 8 87 26 55 37 10 78 17 85
REMARK Flexibility Score: inf
ROOT
ATOM      1  C   UNL A   1      32.878  30.142  26.311  1.00  0.00     0.002 C 
ENDROOT
BRANCH   1   2
ATOM      2  C   UNL A   1      31.499  30.771  26.110  1.00  0.00     0.002 C 
BRANCH   2   3
ATOM      3  C   UNL A   1      31.360  32.200  26.624  1.00  0.00     0.021 C 
BRANCH   3   4
ATOM      4  C   UNL A   1      32.662  32.819  27.120  1.00  0.00     0.116 C 
BRANCH   4   5
ATOM      5  N   UNL A   1      32.466  34.162  27.641  1.00  0.00    -0.352 N 
ATOM      6  O   UNL A   1      32.653  35.809  29.181  1.00  0.00    -0.269 OA
ATOM      7  C   UNL A   1      33.077  34.759  28.718  1.00  0.00     0.251 C 
ATOM      8  H   UNL A   1      31.810  34.716  27.159  1.00  0.00     0.163 HD
BRANCH   7   9
ATOM      9  C   UNL A   1      34.262  34.113  29.319  1.00  0.00     0.039 A 
ATOM     10  C   UNL A   1      35.538  34.497  28.902  1.00  0.00     0.014 A 
ATOM     11  C   UNL A   1      34.104  33.117  30.289  1.00  0.00     0.014 A 
ATOM     12  C   UNL A   1      36.659  33.897  29.478  1.00  0.00     0.010 A 
ATOM     13  C   UNL A   1      35.221  32.588  30.924  1.00  0.00     0.010 A 
ATOM     14  C   UNL A   1      36.509  32.945  30.500  1.00  0.00    -0.014 A 
BRANCH  14  15
ATOM     15  C   UNL A   1      37.680  32.229  31.065  1.00  0.00     0.031 A 
ATOM     16  C   UNL A   1      38.158  32.585  32.449  1.00  0.00     0.074 A 
ATOM     17  C   UNL A   1      38.318  31.287  30.345  1.00  0.00     0.049 A 
ATOM     18  N   UNL A   1      39.199  32.140  33.106  1.00  0.00    -0.248 NA
ATOM     19  C   UNL A   1      37.375  33.595  33.183  1.00  0.00     0.031 C 
ATOM     20  C   UNL A   1      37.957  30.866  28.991  1.00  0.00     0.029 A 
ATOM     21  N   UNL A   1      39.407  30.510  30.656  1.00  0.00    -0.354 N 
ATOM     22  C   UNL A   1      39.195  32.819  34.318  1.00  0.00     0.074 A 
ATOM     23  C   UNL A   1      38.095  33.756  34.283  1.00  0.00     0.031 C 
ATOM     24  C   UNL A   1      38.785  29.882  28.602  1.00  0.00     0.029 A 
ATOM     25  C   UNL A   1      39.762  29.633  29.659  1.00  0.00     0.049 A 
ATOM     26  H   UNL A   1      39.889  30.575  31.512  1.00  0.00     0.167 HD
ATOM     27  C   UNL A   1      40.012  32.649  35.382  1.00  0.00     0.037 A 
ATOM     28  C   UNL A   1      40.765  28.734  29.608  1.00  0.00     0.037 A 
ATOM     29  C   UNL A   1      41.078  31.688  35.432  1.00  0.00     0.049 A 
ATOM     30  C   UNL A   1      41.685  28.596  30.794  1.00  0.00     0.074 A 
ATOM     31  C   UNL A   1      41.947  31.419  36.475  1.00  0.00     0.029 A 
ATOM     32  N   UNL A   1      41.412  30.827  34.397  1.00  0.00    -0.354 N 
ATOM     33  N   UNL A   1      41.652  29.222  31.946  1.00  0.00    -0.248 NA
ATOM     34  C   UNL A   1      42.780  27.622  30.674  1.00  0.00     0.031 C 
ATOM     35  C   UNL A   1      42.835  30.426  36.056  1.00  0.00     0.029 A 
ATOM     36  C   UNL A   1      42.484  30.036  34.773  1.00  0.00     0.049 A 
ATOM     37  H   UNL A   1      40.956  30.785  33.525  1.00  0.00     0.167 HD
ATOM     38  C   UNL A   1      42.693  28.695  32.697  1.00  0.00     0.074 A 
ATOM     39  C   UNL A   1      43.332  27.688  31.878  1.00  0.00     0.031 C 
ATOM     40  C   UNL A   1      43.089  29.020  33.953  1.00  0.00     0.037 A 
BRANCH  27  41
ATOM     41  C   UNL A   1      39.769  33.491  36.600  1.00  0.00     0.064 A 
ATOM     42  C   UNL A   1      40.399  34.734  36.765  1.00  0.00     0.173 A 
ATOM     43  C   UNL A   1      38.830  33.098  37.565  1.00  0.00     0.173 A 
ATOM     44  F   UNL A   1      41.317  35.148  35.878  1.00  0.00    -0.203 F 
ATOM     45  C   UNL A   1      40.103  35.549  37.853  1.00  0.00     0.198 A 
ATOM     46  C   UNL A   1      38.513  33.929  38.636  1.00  0.00     0.198 A 
ATOM     47  F   UNL A   1      38.198  31.920  37.453  1.00  0.00    -0.203 F 
ATOM     48  F   UNL A   1      40.737  36.720  38.004  1.00  0.00    -0.200 F 
ATOM     49  C   UNL A   1      39.149  35.153  38.779  1.00  0.00     0.200 A 
ATOM     50  F   UNL A   1      37.580  33.553  39.521  1.00  0.00    -0.200 F 
ATOM     51  F   UNL A   1      38.843  35.952  39.811  1.00  0.00    -0.200 F 
ENDBRANCH  27  41
BRANCH  28  52
ATOM     52  C   UNL A   1      40.938  27.872  28.407  1.00  0.00     0.064 A 
ATOM     53  C   UNL A   1      41.762  28.276  27.346  1.00  0.00     0.173 A 
ATOM     54  C   UNL A   1      40.278  26.640  28.285  1.00  0.00     0.173 A 
ATOM     55  F   UNL A   1      42.398  29.456  27.405  1.00  0.00    -0.203 F 
ATOM     56  C   UNL A   1      41.901  27.494  26.201  1.00  0.00     0.198 A 
ATOM     57  C   UNL A   1      40.444  25.843  27.153  1.00  0.00     0.198 A 
ATOM     58  F   UNL A   1      39.480  26.204  29.270  1.00  0.00    -0.203 F 
ATOM     59  F   UNL A   1      42.655  27.929  25.182  1.00  0.00    -0.200 F 
ATOM     60  C   UNL A   1      41.248  26.275  26.109  1.00  0.00     0.200 A 
ATOM     61  F   UNL A   1      39.823  24.659  27.074  1.00  0.00    -0.200 F 
ATOM     62  F   UNL A   1      41.385  25.520  25.010  1.00  0.00    -0.200 F 
ENDBRANCH  28  52
BRANCH  40  63
ATOM     63  C   UNL A   1      44.238  28.257  34.544  1.00  0.00     0.064 A 
ATOM     64  C   UNL A   1      45.554  28.734  34.468  1.00  0.00     0.173 A 
ATOM     65  C   UNL A   1      44.005  27.079  35.272  1.00  0.00     0.173 A 
ATOM     66  F   UNL A   1      45.829  29.850  33.776  1.00  0.00    -0.203 F 
ATOM     67  C   UNL A   1      46.599  28.051  35.084  1.00  0.00     0.198 A 
ATOM     68  C   UNL A   1      45.046  26.418  35.915  1.00  0.00     0.198 A 
ATOM     69  F   UNL A   1      42.762  26.588  35.385  1.00  0.00    -0.203 F 
ATOM     70  F   UNL A   1      47.854  28.506  34.968  1.00  0.00    -0.200 F 
ATOM     71  C   UNL A   1      46.343  26.901  35.817  1.00  0.00     0.200 A 
ATOM     72  F   UNL A   1      44.795  25.319  36.640  1.00  0.00    -0.200 F 
ATOM     73  F   UNL A   1      47.347  26.258  36.429  1.00  0.00    -0.200 F 
ENDBRANCH  40  63
ENDBRANCH  14  15
ENDBRANCH   7   9
ENDBRANCH   4   5
ENDBRANCH   3   4
ENDBRANCH   2   3
ENDBRANCH   1   2
BRANCH   1  74
ATOM     74  C   UNL A   1      32.948  28.926  27.249  1.00  0.00     0.021 C 
BRANCH  74  75
ATOM     75  C   UNL A   1      31.602  28.290  27.611  1.00  0.00     0.116 C 
BRANCH  75  76
ATOM     76  N   UNL A   1      31.448  26.925  27.130  1.00  0.00    -0.351 N 
ATOM     77  C   UNL A   1      31.296  26.343  25.908  1.00  0.00     0.278 C 
ATOM     78  H   UNL A   1      31.456  26.266  27.862  1.00  0.00     0.163 HD
ATOM     79  O   UNL A   1      31.304  25.104  25.933  1.00  0.00    -0.268 OA
BRANCH  77  80
ATOM     80  C   UNL A   1      31.107  27.110  24.572  1.00  0.00     0.274 C 
ATOM     81  C   UNL A   1      30.414  26.529  23.356  1.00  0.00     0.081 C 
ATOM     82  N   UNL A   1      32.361  27.657  23.970  1.00  0.00    -0.317 N 
ATOM     83  C   UNL A   1      30.698  27.570  22.271  1.00  0.00     0.068 C 
ATOM     84  C   UNL A   1      31.979  28.276  22.702  1.00  0.00     0.263 C 
ATOM     85  H   UNL A   1      32.702  28.300  24.686  1.00  0.00     0.349 HD
BRANCH  82  86
ATOM     86  C   UNL A   1      33.647  26.917  23.930  1.00  0.00     0.364 C 
BRANCH  86  87
ATOM     87  C   UNL A   1      33.771  25.583  23.102  1.00  0.00     0.282 C 
ATOM     88  O   UNL A   1      33.718  25.617  21.871  1.00  0.00    -0.268 OA
BRANCH  87  89
ATOM     89  N   UNL A   1      34.065  24.419  23.843  1.00  0.00    -0.306 N 
ATOM     90  C   UNL A   1      34.769  24.567  25.092  1.00  0.00     0.137 C 
ATOM     91  C   UNL A   1      33.564  23.078  23.633  1.00  0.00     0.057 A 
ATOM     92  C   UNL A   1      36.020  23.734  25.147  1.00  0.00     0.097 C 
ATOM     93  C   UNL A   1      34.013  22.006  24.469  1.00  0.00     0.031 A 
ATOM     94  C   UNL A   1      32.637  22.760  22.640  1.00  0.00     0.027 A 
ATOM     95  S   UNL A   1      35.454  22.075  25.562  1.00  0.00    -0.122 SA
ATOM     96  C   UNL A   1      33.392  20.752  24.438  1.00  0.00     0.017 A 
ATOM     97  C   UNL A   1      32.079  21.472  22.564  1.00  0.00     0.002 A 
ATOM     98  C   UNL A   1      32.417  20.489  23.491  1.00  0.00     0.001 A 
ENDBRANCH  87  89
ENDBRANCH  86  87
ENDBRANCH  82  86
ENDBRANCH  77  80
ENDBRANCH  75  76
ENDBRANCH  74  75
ENDBRANCH   1  74
TORSDOF 16
ENDMDL
