MODEL 1
REMARK VINA RESULT:     -11.8      0.000      0.000
REMARK SMILES Cc1nonc1C[C@@H](C(=O)NCCCCCCNC(=O)c1ccc(-c2c3nc(c(-c4c(F)c(F)c(F)c(F)c4F)c4ccc([nH]4)c(-c4c(F)c(F)c(F)c(F)c4F)c4nc(c(-c5c(F)c(F)c(F)c(F)c5F)c5ccc2[nH]5)C=C4)C=C3)cc1)c1ccccc1Br
REMARK SMILES IDX 14 1 13 2 12 3 11 4 9 5 10 6 8 8 7 9 6 10 1 11 2 12 3 13
REMARK SMILES IDX 4 14 5 15 84 16 85 17 89 18 86 19 88 20 90 21 87 22 15 23
REMARK SMILES IDX 16 24 17 25 18 26 19 27 20 29 21 30 22 31 83 32 23 33 82 34
REMARK SMILES IDX 24 35 25 36 26 37 76 38 27 39 81 40 75 41 77 42 28 43 80 44
REMARK SMILES IDX 74 45 73 46 29 48 61 49 41 50 60 51 42 52 45 53 59 54 78 55
REMARK SMILES IDX 43 56 44 57 58 59 79 60 46 61 30 62 31 63 39 64 32 65 33 66
REMARK SMILES IDX 37 67 40 68 34 69 35 70 38 71 36 72 62 73 63 74 71 75 64 76
REMARK SMILES IDX 65 77 69 78 72 79 66 80 67 81 70 82 68 83 47 84 48 85 56 86
REMARK SMILES IDX 49 87 50 88 54 89 57 90 51 91 52 92 55 93 53 94
REMARK H PARENT 11 7 18 28 77 47 45 58
REMARK Flexibility Score: inf
ROOT
ATOM      1  C   UNL A   1      36.093  20.790  24.971  1.00  0.00     0.002 C 
ENDROOT
BRANCH   1   2
ATOM      2  C   UNL A   1      36.763  22.078  24.483  1.00  0.00     0.021 C 
BRANCH   2   3
ATOM      3  C   UNL A   1      35.975  23.357  24.779  1.00  0.00     0.116 C 
BRANCH   3   4
ATOM      4  N   UNL A   1      35.226  23.727  23.593  1.00  0.00    -0.356 N 
ATOM      5  C   UNL A   1      34.111  23.147  23.055  1.00  0.00     0.227 C 
ATOM      6  O   UNL A   1      33.934  23.278  21.841  1.00  0.00    -0.274 OA
ATOM      7  H   UNL A   1      35.569  24.510  23.106  1.00  0.00     0.163 HD
BRANCH   5   8
ATOM      8  C   UNL A   1      33.069  22.453  23.957  1.00  0.00     0.116 C 
BRANCH   8   9
ATOM      9  C   UNL A   1      32.498  21.239  23.179  1.00  0.00     0.080 C 
BRANCH   9  10
ATOM     10  C   UNL A   1      32.310  19.965  23.925  1.00  0.00     0.109 A 
ATOM     11  C   UNL A   1      32.432  18.095  22.086  1.00  0.00     0.073 C 
ATOM     12  C   UNL A   1      32.291  18.634  23.455  1.00  0.00     0.105 A 
ATOM     13  N   UNL A   1      32.156  17.802  24.490  1.00  0.00    -0.055 NA
ATOM     14  O   UNL A   1      32.169  18.619  25.614  1.00  0.00    -0.244 OA
ATOM     15  N   UNL A   1      32.280  19.956  25.258  1.00  0.00    -0.055 NA
ENDBRANCH   9  10
ENDBRANCH   8   9
BRANCH   8  16
ATOM     16  C   UNL A   1      31.962  23.479  24.357  1.00  0.00    -0.021 A 
ATOM     17  C   UNL A   1      31.136  24.079  23.378  1.00  0.00     0.006 A 
ATOM     18  C   UNL A   1      31.749  23.900  25.690  1.00  0.00     0.021 A 
ATOM     19  C   UNL A   1      30.236  25.106  23.684  1.00  0.00     0.000 A 
ATOM     20  C   UNL A   1      30.879  24.965  25.987  1.00  0.00     0.016 A 
ATOM     21  Br  UNL A   1      32.535  23.058  27.206  1.00  0.00    -0.051 Br
ATOM     22  C   UNL A   1      30.136  25.576  24.982  1.00  0.00     0.001 A 
ENDBRANCH   8  16
ENDBRANCH   5   8
ENDBRANCH   3   4
ENDBRANCH   2   3
ENDBRANCH   1   2
BRANCH   1  23
ATOM     23  C   UNL A   1      36.985  19.546  24.947  1.00  0.00     0.002 C 
BRANCH  23  24
ATOM     24  C   UNL A   1      38.482  19.805  24.757  1.00  0.00     0.021 C 
BRANCH  24  25
ATOM     25  C   UNL A   1      39.315  19.848  26.037  1.00  0.00     0.116 C 
BRANCH  25  26
ATOM     26  N   UNL A   1      40.479  18.981  25.975  1.00  0.00    -0.352 N 
ATOM     27  C   UNL A   1      41.813  19.296  26.034  1.00  0.00     0.251 C 
ATOM     28  H   UNL A   1      40.279  18.022  25.876  1.00  0.00     0.163 HD
ATOM     29  O   UNL A   1      42.658  18.438  25.801  1.00  0.00    -0.269 OA
BRANCH  27  30
ATOM     30  C   UNL A   1      42.244  20.675  26.354  1.00  0.00     0.039 A 
ATOM     31  C   UNL A   1      42.488  21.560  25.300  1.00  0.00     0.014 A 
ATOM     32  C   UNL A   1      42.437  21.088  27.675  1.00  0.00     0.014 A 
ATOM     33  C   UNL A   1      42.870  22.876  25.572  1.00  0.00     0.010 A 
ATOM     34  C   UNL A   1      42.759  22.417  27.947  1.00  0.00     0.010 A 
ATOM     35  C   UNL A   1      42.982  23.323  26.898  1.00  0.00    -0.014 A 
BRANCH  35  36
ATOM     36  C   UNL A   1      43.332  24.732  27.203  1.00  0.00     0.031 A 
ATOM     37  C   UNL A   1      44.732  25.231  26.981  1.00  0.00     0.074 A 
ATOM     38  C   UNL A   1      42.404  25.549  27.737  1.00  0.00     0.049 A 
ATOM     39  N   UNL A   1      45.244  26.408  27.242  1.00  0.00    -0.248 NA
ATOM     40  C   UNL A   1      45.689  24.271  26.410  1.00  0.00     0.031 C 
ATOM     41  C   UNL A   1      41.024  25.173  28.041  1.00  0.00     0.029 A 
ATOM     42  N   UNL A   1      42.486  26.862  28.129  1.00  0.00    -0.354 N 
ATOM     43  C   UNL A   1      46.583  26.324  26.884  1.00  0.00     0.074 A 
ATOM     44  C   UNL A   1      46.815  24.970  26.429  1.00  0.00     0.031 C 
ATOM     45  C   UNL A   1      40.384  26.234  28.560  1.00  0.00     0.029 A 
ATOM     46  C   UNL A   1      41.316  27.354  28.652  1.00  0.00     0.049 A 
ATOM     47  H   UNL A   1      43.307  27.400  28.043  1.00  0.00     0.167 HD
ATOM     48  C   UNL A   1      47.528  27.294  26.915  1.00  0.00     0.037 A 
ATOM     49  C   UNL A   1      41.029  28.569  29.155  1.00  0.00     0.037 A 
ATOM     50  C   UNL A   1      47.290  28.647  27.343  1.00  0.00     0.049 A 
ATOM     51  C   UNL A   1      42.093  29.632  29.172  1.00  0.00     0.074 A 
ATOM     52  C   UNL A   1      48.165  29.719  27.349  1.00  0.00     0.029 A 
ATOM     53  N   UNL A   1      46.084  29.114  27.846  1.00  0.00    -0.354 N 
ATOM     54  N   UNL A   1      43.338  29.561  28.770  1.00  0.00    -0.248 NA
ATOM     55  C   UNL A   1      41.708  30.946  29.706  1.00  0.00     0.031 C 
ATOM     56  C   UNL A   1      47.502  30.825  27.891  1.00  0.00     0.029 A 
ATOM     57  C   UNL A   1      46.200  30.454  28.184  1.00  0.00     0.049 A 
ATOM     58  H   UNL A   1      45.268  28.575  27.948  1.00  0.00     0.167 HD
ATOM     59  C   UNL A   1      43.879  30.822  28.979  1.00  0.00     0.074 A 
ATOM     60  C   UNL A   1      42.822  31.643  29.533  1.00  0.00     0.031 C 
ATOM     61  C   UNL A   1      45.138  31.258  28.732  1.00  0.00     0.037 A 
BRANCH  48  62
ATOM     62  C   UNL A   1      48.913  26.922  26.471  1.00  0.00     0.064 A 
ATOM     63  C   UNL A   1      49.330  27.099  25.142  1.00  0.00     0.173 A 
ATOM     64  C   UNL A   1      49.840  26.407  27.387  1.00  0.00     0.173 A 
ATOM     65  F   UNL A   1      48.478  27.579  24.224  1.00  0.00    -0.203 F 
ATOM     66  C   UNL A   1      50.616  26.743  24.743  1.00  0.00     0.198 A 
ATOM     67  C   UNL A   1      51.134  26.079  26.989  1.00  0.00     0.198 A 
ATOM     68  F   UNL A   1      49.494  26.225  28.671  1.00  0.00    -0.203 F 
ATOM     69  F   UNL A   1      50.977  26.873  23.458  1.00  0.00    -0.200 F 
ATOM     70  C   UNL A   1      51.518  26.238  25.667  1.00  0.00     0.200 A 
ATOM     71  F   UNL A   1      52.009  25.602  27.887  1.00  0.00    -0.200 F 
ATOM     72  F   UNL A   1      52.755  25.899  25.281  1.00  0.00    -0.200 F 
ENDBRANCH  48  62
BRANCH  49  73
ATOM     73  C   UNL A   1      39.661  28.850  29.659  1.00  0.00     0.064 A 
ATOM     74  C   UNL A   1      39.322  28.595  30.995  1.00  0.00     0.173 A 
ATOM     75  C   UNL A   1      38.673  29.392  28.825  1.00  0.00     0.173 A 
ATOM     76  F   UNL A   1      40.228  28.058  31.824  1.00  0.00    -0.203 F 
ATOM     77  C   UNL A   1      38.042  28.862  31.476  1.00  0.00     0.198 A 
ATOM     78  C   UNL A   1      37.399  29.680  29.312  1.00  0.00     0.198 A 
ATOM     79  F   UNL A   1      38.950  29.657  27.540  1.00  0.00    -0.203 F 
ATOM     80  F   UNL A   1      37.734  28.578  32.748  1.00  0.00    -0.200 F 
ATOM     81  C   UNL A   1      37.084  29.410  30.636  1.00  0.00     0.200 A 
ATOM     82  F   UNL A   1      36.481  30.222  28.501  1.00  0.00    -0.200 F 
ATOM     83  F   UNL A   1      35.855  29.674  31.100  1.00  0.00    -0.200 F 
ENDBRANCH  49  73
BRANCH  61  84
ATOM     84  C   UNL A   1      45.436  32.697  29.036  1.00  0.00     0.064 A 
ATOM     85  C   UNL A   1      45.905  33.100  30.294  1.00  0.00     0.173 A 
ATOM     86  C   UNL A   1      45.290  33.677  28.042  1.00  0.00     0.173 A 
ATOM     87  F   UNL A   1      46.045  32.202  31.281  1.00  0.00    -0.203 F 
ATOM     88  C   UNL A   1      46.196  34.436  30.554  1.00  0.00     0.198 A 
ATOM     89  C   UNL A   1      45.608  35.009  28.297  1.00  0.00     0.198 A 
ATOM     90  F   UNL A   1      44.850  33.341  26.820  1.00  0.00    -0.203 F 
ATOM     91  F   UNL A   1      46.603  34.807  31.776  1.00  0.00    -0.200 F 
ATOM     92  C   UNL A   1      46.054  35.388  29.554  1.00  0.00     0.200 A 
ATOM     93  F   UNL A   1      45.479  35.924  27.328  1.00  0.00    -0.200 F 
ATOM     94  F   UNL A   1      46.341  36.672  29.804  1.00  0.00    -0.200 F 
ENDBRANCH  61  84
ENDBRANCH  35  36
ENDBRANCH  27  30
ENDBRANCH  25  26
ENDBRANCH  24  25
ENDBRANCH  23  24
ENDBRANCH   1  23
TORSDOF 16
ENDMDL
MODEL 2
REMARK VINA RESULT:     -11.8      5.320      9.329
REMARK SMILES Cc1nonc1C[C@@H](C(=O)NCCCCCCNC(=O)c1ccc(-c2c3nc(c(-c4c(F)c(F)c(F)c(F)c4F)c4ccc([nH]4)c(-c4c(F)c(F)c(F)c(F)c4F)c4nc(c(-c5c(F)c(F)c(F)c(F)c5F)c5ccc2[nH]5)C=C4)C=C3)cc1)c1ccccc1Br
REMARK SMILES IDX 14 1 13 2 12 3 11 4 9 5 10 6 8 8 7 9 6 10 1 11 2 12 3 13
REMARK SMILES IDX 4 14 5 15 84 16 85 17 89 18 86 19 88 20 90 21 87 22 15 23
REMARK SMILES IDX 16 24 17 25 18 26 19 27 20 29 21 30 22 31 83 32 23 33 82 34
REMARK SMILES IDX 24 35 25 36 26 37 76 38 27 39 81 40 75 41 77 42 28 43 80 44
REMARK SMILES IDX 74 45 73 46 29 48 61 49 41 50 60 51 42 52 45 53 59 54 78 55
REMARK SMILES IDX 43 56 44 57 58 59 79 60 46 61 30 62 31 63 39 64 32 65 33 66
REMARK SMILES IDX 37 67 40 68 34 69 35 70 38 71 36 72 62 73 63 74 71 75 64 76
REMARK SMILES IDX 65 77 69 78 72 79 66 80 67 81 70 82 68 83 47 84 48 85 56 86
REMARK SMILES IDX 49 87 50 88 54 89 57 90 51 91 52 92 55 93 53 94
REMARK H PARENT 11 7 18 28 77 47 45 58
REMARK Flexibility Score: inf
ROOT
ATOM      1  C   UNL A   1      30.816  29.741  24.354  1.00  0.00     0.002 C 
ENDROOT
BRANCH   1   2
ATOM      2  C   UNL A   1      30.492  28.258  24.157  1.00  0.00     0.021 C 
BRANCH   2   3
ATOM      3  C   UNL A   1      31.166  27.614  22.941  1.00  0.00     0.116 C 
BRANCH   3   4
ATOM      4  N   UNL A   1      32.604  27.664  23.127  1.00  0.00    -0.356 N 
ATOM      5  C   UNL A   1      33.385  27.010  24.038  1.00  0.00     0.227 C 
ATOM      6  O   UNL A   1      34.454  27.540  24.355  1.00  0.00    -0.274 OA
ATOM      7  H   UNL A   1      33.089  28.254  22.506  1.00  0.00     0.163 HD
BRANCH   5   8
ATOM      8  C   UNL A   1      32.987  25.613  24.560  1.00  0.00     0.116 C 
BRANCH   8   9
ATOM      9  C   UNL A   1      32.462  25.777  26.010  1.00  0.00     0.080 C 
BRANCH   9  10
ATOM     10  C   UNL A   1      31.395  24.848  26.470  1.00  0.00     0.109 A 
ATOM     11  C   UNL A   1      32.679  22.695  27.251  1.00  0.00     0.073 C 
ATOM     12  C   UNL A   1      31.494  23.544  27.002  1.00  0.00     0.105 A 
ATOM     13  N   UNL A   1      30.278  23.110  27.337  1.00  0.00    -0.055 NA
ATOM     14  O   UNL A   1      29.429  24.179  27.081  1.00  0.00    -0.244 OA
ATOM     15  N   UNL A   1      30.129  25.258  26.558  1.00  0.00    -0.055 NA
ENDBRANCH   9  10
ENDBRANCH   8   9
BRANCH   8  16
ATOM     16  C   UNL A   1      34.219  24.656  24.476  1.00  0.00    -0.021 A 
ATOM     17  C   UNL A   1      35.201  24.641  25.493  1.00  0.00     0.006 A 
ATOM     18  C   UNL A   1      34.449  23.795  23.379  1.00  0.00     0.021 A 
ATOM     19  C   UNL A   1      36.385  23.905  25.380  1.00  0.00     0.000 A 
ATOM     20  C   UNL A   1      35.662  23.094  23.246  1.00  0.00     0.016 A 
ATOM     21  Br  UNL A   1      33.160  23.435  22.024  1.00  0.00    -0.051 Br
ATOM     22  C   UNL A   1      36.633  23.162  24.239  1.00  0.00     0.001 A 
ENDBRANCH   8  16
ENDBRANCH   5   8
ENDBRANCH   3   4
ENDBRANCH   2   3
ENDBRANCH   1   2
BRANCH   1  23
ATOM     23  C   UNL A   1      31.598  30.071  25.628  1.00  0.00     0.002 C 
BRANCH  23  24
ATOM     24  C   UNL A   1      31.349  31.462  26.219  1.00  0.00     0.021 C 
BRANCH  24  25
ATOM     25  C   UNL A   1      32.543  32.107  26.921  1.00  0.00     0.116 C 
BRANCH  25  26
ATOM     26  N   UNL A   1      32.300  33.495  27.273  1.00  0.00    -0.352 N 
ATOM     27  C   UNL A   1      32.929  34.290  28.198  1.00  0.00     0.251 C 
ATOM     28  H   UNL A   1      31.573  33.931  26.771  1.00  0.00     0.163 HD
ATOM     29  O   UNL A   1      32.473  35.396  28.469  1.00  0.00    -0.269 OA
BRANCH  27  30
ATOM     30  C   UNL A   1      34.144  33.811  28.894  1.00  0.00     0.039 A 
ATOM     31  C   UNL A   1      34.002  32.857  29.905  1.00  0.00     0.014 A 
ATOM     32  C   UNL A   1      35.408  34.317  28.580  1.00  0.00     0.014 A 
ATOM     33  C   UNL A   1      35.134  32.367  30.562  1.00  0.00     0.010 A 
ATOM     34  C   UNL A   1      36.541  33.784  29.193  1.00  0.00     0.010 A 
ATOM     35  C   UNL A   1      36.415  32.807  30.192  1.00  0.00    -0.014 A 
BRANCH  35  36
ATOM     36  C   UNL A   1      37.629  32.254  30.841  1.00  0.00     0.031 A 
ATOM     37  C   UNL A   1      38.431  31.181  30.161  1.00  0.00     0.074 A 
ATOM     38  C   UNL A   1      37.978  32.677  32.071  1.00  0.00     0.049 A 
ATOM     39  N   UNL A   1      39.485  30.534  30.593  1.00  0.00    -0.248 NA
ATOM     40  C   UNL A   1      37.974  30.764  28.827  1.00  0.00     0.031 C 
ATOM     41  C   UNL A   1      37.258  33.680  32.855  1.00  0.00     0.029 A 
ATOM     42  N   UNL A   1      39.021  32.305  32.883  1.00  0.00    -0.354 N 
ATOM     43  C   UNL A   1      39.805  29.624  29.593  1.00  0.00     0.074 A 
ATOM     44  C   UNL A   1      38.809  29.772  28.553  1.00  0.00     0.031 C 
ATOM     45  C   UNL A   1      37.887  33.855  34.028  1.00  0.00     0.029 A 
ATOM     46  C   UNL A   1      39.036  32.955  34.092  1.00  0.00     0.049 A 
ATOM     47  H   UNL A   1      39.695  31.635  32.623  1.00  0.00     0.167 HD
ATOM     48  C   UNL A   1      40.845  28.758  29.540  1.00  0.00     0.037 A 
ATOM     49  C   UNL A   1      39.877  32.836  35.136  1.00  0.00     0.037 A 
ATOM     50  C   UNL A   1      41.848  28.629  30.563  1.00  0.00     0.049 A 
ATOM     51  C   UNL A   1      41.028  31.872  35.051  1.00  0.00     0.074 A 
ATOM     52  C   UNL A   1      42.977  27.828  30.572  1.00  0.00     0.029 A 
ATOM     53  N   UNL A   1      41.842  29.323  31.765  1.00  0.00    -0.354 N 
ATOM     54  N   UNL A   1      41.359  31.065  34.073  1.00  0.00    -0.248 NA
ATOM     55  C   UNL A   1      41.928  31.810  36.211  1.00  0.00     0.031 C 
ATOM     56  C   UNL A   1      43.633  28.007  31.795  1.00  0.00     0.029 A 
ATOM     57  C   UNL A   1      42.936  28.952  32.531  1.00  0.00     0.049 A 
ATOM     58  H   UNL A   1      41.162  29.980  32.034  1.00  0.00     0.167 HD
ATOM     59  C   UNL A   1      42.514  30.417  34.488  1.00  0.00     0.074 A 
ATOM     60  C   UNL A   1      42.835  30.934  35.802  1.00  0.00     0.031 C 
ATOM     61  C   UNL A   1      43.243  29.478  33.836  1.00  0.00     0.037 A 
BRANCH  48  62
ATOM     62  C   UNL A   1      40.947  27.877  28.329  1.00  0.00     0.064 A 
ATOM     63  C   UNL A   1      41.699  28.258  27.206  1.00  0.00     0.173 A 
ATOM     64  C   UNL A   1      40.309  26.629  28.300  1.00  0.00     0.173 A 
ATOM     65  F   UNL A   1      42.320  29.446  27.180  1.00  0.00    -0.203 F 
ATOM     66  C   UNL A   1      41.780  27.434  26.086  1.00  0.00     0.198 A 
ATOM     67  C   UNL A   1      40.416  25.796  27.189  1.00  0.00     0.198 A 
ATOM     68  F   UNL A   1      39.585  26.215  29.350  1.00  0.00    -0.203 F 
ATOM     69  F   UNL A   1      42.461  27.840  25.006  1.00  0.00    -0.200 F 
ATOM     70  C   UNL A   1      41.143  26.202  26.080  1.00  0.00     0.200 A 
ATOM     71  F   UNL A   1      39.810  24.600  27.189  1.00  0.00    -0.200 F 
ATOM     72  F   UNL A   1      41.224  25.410  25.003  1.00  0.00    -0.200 F 
ENDBRANCH  48  62
BRANCH  49  73
ATOM     73  C   UNL A   1      39.672  33.676  36.343  1.00  0.00     0.064 A 
ATOM     74  C   UNL A   1      40.263  34.943  36.444  1.00  0.00     0.173 A 
ATOM     75  C   UNL A   1      38.873  33.239  37.409  1.00  0.00     0.173 A 
ATOM     76  F   UNL A   1      41.053  35.393  35.458  1.00  0.00    -0.203 F 
ATOM     77  C   UNL A   1      40.071  35.738  37.572  1.00  0.00     0.198 A 
ATOM     78  C   UNL A   1      38.662  34.045  38.527  1.00  0.00     0.198 A 
ATOM     79  F   UNL A   1      38.283  32.036  37.358  1.00  0.00    -0.203 F 
ATOM     80  F   UNL A   1      40.674  36.932  37.658  1.00  0.00    -0.200 F 
ATOM     81  C   UNL A   1      39.266  35.291  38.608  1.00  0.00     0.200 A 
ATOM     82  F   UNL A   1      37.874  33.616  39.520  1.00  0.00    -0.200 F 
ATOM     83  F   UNL A   1      39.074  36.060  39.690  1.00  0.00    -0.200 F 
ENDBRANCH  49  73
BRANCH  61  84
ATOM     84  C   UNL A   1      44.475  28.967  34.524  1.00  0.00     0.064 A 
ATOM     85  C   UNL A   1      44.440  27.831  35.346  1.00  0.00     0.173 A 
ATOM     86  C   UNL A   1      45.712  29.599  34.325  1.00  0.00     0.173 A 
ATOM     87  F   UNL A   1      43.277  27.204  35.579  1.00  0.00    -0.203 F 
ATOM     88  C   UNL A   1      45.595  27.359  35.961  1.00  0.00     0.198 A 
ATOM     89  C   UNL A   1      46.871  29.108  34.921  1.00  0.00     0.198 A 
ATOM     90  F   UNL A   1      45.799  30.686  33.544  1.00  0.00    -0.203 F 
ATOM     91  F   UNL A   1      45.532  26.297  36.776  1.00  0.00    -0.200 F 
ATOM     92  C   UNL A   1      46.810  27.993  35.743  1.00  0.00     0.200 A 
ATOM     93  F   UNL A   1      48.045  29.714  34.701  1.00  0.00    -0.200 F 
ATOM     94  F   UNL A   1      47.922  27.532  36.331  1.00  0.00    -0.200 F 
ENDBRANCH  61  84
ENDBRANCH  35  36
ENDBRANCH  27  30
ENDBRANCH  25  26
ENDBRANCH  24  25
ENDBRANCH  23  24
ENDBRANCH   1  23
TORSDOF 16
ENDMDL
MODEL 3
REMARK VINA RESULT:     -11.8      4.744      8.154
REMARK SMILES Cc1nonc1C[C@@H](C(=O)NCCCCCCNC(=O)c1ccc(-c2c3nc(c(-c4c(F)c(F)c(F)c(F)c4F)c4ccc([nH]4)c(-c4c(F)c(F)c(F)c(F)c4F)c4nc(c(-c5c(F)c(F)c(F)c(F)c5F)c5ccc2[nH]5)C=C4)C=C3)cc1)c1ccccc1Br
REMARK SMILES IDX 14 1 13 2 12 3 11 4 9 5 10 6 8 8 7 9 6 10 1 11 2 12 3 13
REMARK SMILES IDX 4 14 5 15 84 16 85 17 89 18 86 19 88 20 90 21 87 22 15 23
REMARK SMILES IDX 16 24 17 25 18 26 19 27 20 29 21 30 22 31 83 32 23 33 82 34
REMARK SMILES IDX 24 35 25 36 26 37 76 38 27 39 81 40 75 41 77 42 28 43 80 44
REMARK SMILES IDX 74 45 73 46 29 48 61 49 41 50 60 51 42 52 45 53 59 54 78 55
REMARK SMILES IDX 43 56 44 57 58 59 79 60 46 61 30 62 31 63 39 64 32 65 33 66
REMARK SMILES IDX 37 67 40 68 34 69 35 70 38 71 36 72 62 73 63 74 71 75 64 76
REMARK SMILES IDX 65 77 69 78 72 79 66 80 67 81 70 82 68 83 47 84 48 85 56 86
REMARK SMILES IDX 49 87 50 88 54 89 57 90 51 91 52 92 55 93 53 94
REMARK H PARENT 11 7 18 28 77 47 45 58
REMARK Flexibility Score: inf
ROOT
ATOM      1  C   UNL A   1      43.740  20.348  25.726  1.00  0.00     0.002 C 
ENDROOT
BRANCH   1   2
ATOM      2  C   UNL A   1      44.921  20.945  24.957  1.00  0.00     0.021 C 
BRANCH   2   3
ATOM      3  C   UNL A   1      44.646  22.316  24.331  1.00  0.00     0.116 C 
BRANCH   3   4
ATOM      4  N   UNL A   1      45.786  23.178  24.581  1.00  0.00    -0.356 N 
ATOM      5  C   UNL A   1      45.816  24.510  24.890  1.00  0.00     0.227 C 
ATOM      6  O   UNL A   1      46.829  25.142  24.578  1.00  0.00    -0.274 OA
ATOM      7  H   UNL A   1      46.665  22.741  24.521  1.00  0.00     0.163 HD
BRANCH   5   8
ATOM      8  C   UNL A   1      44.670  25.160  25.692  1.00  0.00     0.116 C 
BRANCH   8   9
ATOM      9  C   UNL A   1      44.972  26.676  25.814  1.00  0.00     0.080 C 
BRANCH   9  10
ATOM     10  C   UNL A   1      43.837  27.624  25.647  1.00  0.00     0.109 A 
ATOM     11  C   UNL A   1      44.325  29.552  27.362  1.00  0.00     0.073 C 
ATOM     12  C   UNL A   1      43.572  28.846  26.303  1.00  0.00     0.105 A 
ATOM     13  N   UNL A   1      42.468  29.393  25.790  1.00  0.00    -0.055 NA
ATOM     14  O   UNL A   1      42.089  28.542  24.759  1.00  0.00    -0.244 OA
ATOM     15  N   UNL A   1      42.950  27.456  24.666  1.00  0.00    -0.055 NA
ENDBRANCH   9  10
ENDBRANCH   8   9
BRANCH   8  16
ATOM     16  C   UNL A   1      44.549  24.463  27.085  1.00  0.00    -0.021 A 
ATOM     17  C   UNL A   1      43.380  23.753  27.445  1.00  0.00     0.006 A 
ATOM     18  C   UNL A   1      45.559  24.534  28.071  1.00  0.00     0.021 A 
ATOM     19  C   UNL A   1      43.180  23.243  28.732  1.00  0.00     0.000 A 
ATOM     20  C   UNL A   1      45.336  24.062  29.377  1.00  0.00     0.016 A 
ATOM     21  Br  UNL A   1      47.316  25.192  27.743  1.00  0.00    -0.051 Br
ATOM     22  C   UNL A   1      44.142  23.431  29.710  1.00  0.00     0.001 A 
ENDBRANCH   8  16
ENDBRANCH   5   8
ENDBRANCH   3   4
ENDBRANCH   2   3
ENDBRANCH   1   2
BRANCH   1  23
ATOM     23  C   UNL A   1      42.456  21.181  25.692  1.00  0.00     0.002 C 
BRANCH  23  24
ATOM     24  C   UNL A   1      41.286  20.632  26.515  1.00  0.00     0.021 C 
BRANCH  24  25
ATOM     25  C   UNL A   1      40.363  21.680  27.133  1.00  0.00     0.116 C 
BRANCH  25  26
ATOM     26  N   UNL A   1      39.338  22.136  26.209  1.00  0.00    -0.352 N 
ATOM     27  C   UNL A   1      38.728  23.360  26.106  1.00  0.00     0.251 C 
ATOM     28  H   UNL A   1      39.036  21.462  25.556  1.00  0.00     0.163 HD
ATOM     29  O   UNL A   1      37.763  23.506  25.362  1.00  0.00    -0.269 OA
BRANCH  27  30
ATOM     30  C   UNL A   1      39.209  24.506  26.909  1.00  0.00     0.039 A 
ATOM     31  C   UNL A   1      40.071  25.428  26.308  1.00  0.00     0.014 A 
ATOM     32  C   UNL A   1      38.845  24.658  28.250  1.00  0.00     0.014 A 
ATOM     33  C   UNL A   1      40.522  26.533  27.033  1.00  0.00     0.010 A 
ATOM     34  C   UNL A   1      39.245  25.793  28.953  1.00  0.00     0.010 A 
ATOM     35  C   UNL A   1      40.090  26.740  28.353  1.00  0.00    -0.014 A 
BRANCH  35  36
ATOM     36  C   UNL A   1      40.514  27.939  29.118  1.00  0.00     0.031 A 
ATOM     37  C   UNL A   1      41.895  28.013  29.705  1.00  0.00     0.074 A 
ATOM     38  C   UNL A   1      39.636  28.937  29.334  1.00  0.00     0.049 A 
ATOM     39  N   UNL A   1      42.429  28.948  30.452  1.00  0.00    -0.248 NA
ATOM     40  C   UNL A   1      42.787  26.876  29.437  1.00  0.00     0.031 C 
ATOM     41  C   UNL A   1      38.255  28.964  28.855  1.00  0.00     0.029 A 
ATOM     42  N   UNL A   1      39.774  30.116  30.023  1.00  0.00    -0.354 N 
ATOM     43  C   UNL A   1      43.709  28.503  30.756  1.00  0.00     0.074 A 
ATOM     44  C   UNL A   1      43.857  27.197  30.150  1.00  0.00     0.031 C 
ATOM     45  C   UNL A   1      37.675  30.108  29.252  1.00  0.00     0.029 A 
ATOM     46  C   UNL A   1      38.633  30.879  30.039  1.00  0.00     0.049 A 
ATOM     47  H   UNL A   1      40.610  30.388  30.466  1.00  0.00     0.167 HD
ATOM     48  C   UNL A   1      44.678  29.135  31.459  1.00  0.00     0.037 A 
ATOM     49  C   UNL A   1      38.385  32.065  30.626  1.00  0.00     0.037 A 
ATOM     50  C   UNL A   1      44.539  30.445  32.040  1.00  0.00     0.049 A 
ATOM     51  C   UNL A   1      39.480  32.751  31.396  1.00  0.00     0.074 A 
ATOM     52  C   UNL A   1      45.484  31.197  32.714  1.00  0.00     0.029 A 
ATOM     53  N   UNL A   1      43.374  31.198  32.015  1.00  0.00    -0.354 N 
ATOM     54  N   UNL A   1      40.707  32.351  31.621  1.00  0.00    -0.248 NA
ATOM     55  C   UNL A   1      39.156  34.057  31.988  1.00  0.00     0.031 C 
ATOM     56  C   UNL A   1      44.881  32.389  33.132  1.00  0.00     0.029 A 
ATOM     57  C   UNL A   1      43.571  32.398  32.681  1.00  0.00     0.049 A 
ATOM     58  H   UNL A   1      42.531  30.922  31.588  1.00  0.00     0.167 HD
ATOM     59  C   UNL A   1      41.309  33.362  32.357  1.00  0.00     0.074 A 
ATOM     60  C   UNL A   1      40.315  34.401  32.532  1.00  0.00     0.031 C 
ATOM     61  C   UNL A   1      42.573  33.423  32.844  1.00  0.00     0.037 A 
BRANCH  48  62
ATOM     62  C   UNL A   1      45.981  28.412  31.641  1.00  0.00     0.064 A 
ATOM     63  C   UNL A   1      46.214  27.587  32.752  1.00  0.00     0.173 A 
ATOM     64  C   UNL A   1      46.998  28.525  30.682  1.00  0.00     0.173 A 
ATOM     65  F   UNL A   1      45.277  27.453  33.703  1.00  0.00    -0.203 F 
ATOM     66  C   UNL A   1      47.430  26.927  32.912  1.00  0.00     0.198 A 
ATOM     67  C   UNL A   1      48.202  27.842  30.832  1.00  0.00     0.198 A 
ATOM     68  F   UNL A   1      46.823  29.295  29.598  1.00  0.00    -0.203 F 
ATOM     69  F   UNL A   1      47.649  26.185  34.006  1.00  0.00    -0.200 F 
ATOM     70  C   UNL A   1      48.421  27.051  31.949  1.00  0.00     0.200 A 
ATOM     71  F   UNL A   1      49.155  27.953  29.895  1.00  0.00    -0.200 F 
ATOM     72  F   UNL A   1      49.589  26.414  32.103  1.00  0.00    -0.200 F 
ENDBRANCH  48  62
BRANCH  49  73
ATOM     73  C   UNL A   1      37.046  32.691  30.481  1.00  0.00     0.064 A 
ATOM     74  C   UNL A   1      36.094  32.591  31.504  1.00  0.00     0.173 A 
ATOM     75  C   UNL A   1      36.698  33.412  29.330  1.00  0.00     0.173 A 
ATOM     76  F   UNL A   1      36.375  31.894  32.615  1.00  0.00    -0.203 F 
ATOM     77  C   UNL A   1      34.837  33.180  31.377  1.00  0.00     0.198 A 
ATOM     78  C   UNL A   1      35.450  34.021  29.213  1.00  0.00     0.198 A 
ATOM     79  F   UNL A   1      37.577  33.538  28.325  1.00  0.00    -0.203 F 
ATOM     80  F   UNL A   1      33.933  33.043  32.356  1.00  0.00    -0.200 F 
ATOM     81  C   UNL A   1      34.520  33.900  30.235  1.00  0.00     0.200 A 
ATOM     82  F   UNL A   1      35.151  34.725  28.114  1.00  0.00    -0.200 F 
ATOM     83  F   UNL A   1      33.314  34.474  30.115  1.00  0.00    -0.200 F 
ENDBRANCH  49  73
BRANCH  61  84
ATOM     84  C   UNL A   1      42.961  34.665  33.590  1.00  0.00     0.064 A 
ATOM     85  C   UNL A   1      43.400  35.816  32.920  1.00  0.00     0.173 A 
ATOM     86  C   UNL A   1      42.851  34.717  34.988  1.00  0.00     0.173 A 
ATOM     87  F   UNL A   1      43.536  35.810  31.585  1.00  0.00    -0.203 F 
ATOM     88  C   UNL A   1      43.737  36.968  33.626  1.00  0.00     0.198 A 
ATOM     89  C   UNL A   1      43.164  35.879  35.688  1.00  0.00     0.198 A 
ATOM     90  F   UNL A   1      42.431  33.644  35.674  1.00  0.00    -0.203 F 
ATOM     91  F   UNL A   1      44.195  38.043  32.970  1.00  0.00    -0.200 F 
ATOM     92  C   UNL A   1      43.612  37.001  35.007  1.00  0.00     0.200 A 
ATOM     93  F   UNL A   1      43.034  35.912  37.021  1.00  0.00    -0.200 F 
ATOM     94  F   UNL A   1      43.932  38.112  35.683  1.00  0.00    -0.200 F 
ENDBRANCH  61  84
ENDBRANCH  35  36
ENDBRANCH  27  30
ENDBRANCH  25  26
ENDBRANCH  24  25
ENDBRANCH  23  24
ENDBRANCH   1  23
TORSDOF 16
ENDMDL
