MODEL 1
REMARK VINA RESULT:     -10.9      0.000      0.000
REMARK SMILES O=C(COc1cccc(Br)c1)Nc1ccsc1C(=O)NCCCCCCNC(=O)c1ccc(-c2c3nc(c(-c4c(F)c(F)c(F)c(F)c4F)c4ccc([nH]4)c(-c4c(F)c(F)c(F)c(F)c4F)c4nc(c(-c5c(F)c(F)c(F)c(F)c5F)c5ccc2[nH]5)C=C4)C=C3)cc1
REMARK SMILES IDX 22 1 21 2 20 3 18 4 19 5 17 7 13 8 14 9 15 10 16 11 12 12
REMARK SMILES IDX 1 13 2 14 3 16 4 17 5 18 6 19 11 20 7 21 9 22 8 23 10 24
REMARK SMILES IDX 23 25 24 26 25 27 26 28 27 29 28 30 29 32 30 33 31 34 92 35
REMARK SMILES IDX 32 36 91 37 33 38 34 39 35 40 85 41 36 42 90 43 84 44 86 45
REMARK SMILES IDX 37 46 89 47 83 48 82 49 38 51 70 52 50 53 69 54 51 55 54 56
REMARK SMILES IDX 68 57 87 58 52 59 53 60 67 62 88 63 55 64 39 65 40 66 48 67
REMARK SMILES IDX 41 68 42 69 46 70 49 71 43 72 44 73 47 74 45 75 71 76 72 77
REMARK SMILES IDX 80 78 73 79 74 80 78 81 81 82 75 83 76 84 79 85 77 86 56 87
REMARK SMILES IDX 57 88 65 89 58 90 59 91 63 92 66 93 60 94 61 95 64 96 62 97
REMARK H PARENT 20 6 12 15 27 31 86 50 54 61
REMARK Flexibility Score: inf
ROOT
ATOM      1  C   UNL A   1      32.748  24.057  22.656  1.00  0.00     0.021 C 
ENDROOT
BRANCH   1   2
ATOM      2  C   UNL A   1      32.781  25.357  21.849  1.00  0.00     0.116 C 
BRANCH   2   3
ATOM      3  N   UNL A   1      31.682  26.198  22.250  1.00  0.00    -0.351 N 
ATOM      4  C   UNL A   1      31.447  27.064  23.282  1.00  0.00     0.263 C 
ATOM      5  O   UNL A   1      30.331  27.593  23.198  1.00  0.00    -0.268 OA
ATOM      6  H   UNL A   1      30.917  26.132  21.635  1.00  0.00     0.163 HD
BRANCH   4   7
ATOM      7  C   UNL A   1      32.382  27.388  24.363  1.00  0.00     0.115 A 
ATOM      8  C   UNL A   1      32.901  26.769  25.507  1.00  0.00     0.065 A 
ATOM      9  C   UNL A   1      33.683  27.694  26.288  1.00  0.00     0.038 A 
ATOM     10  C   UNL A   1      33.717  28.965  25.781  1.00  0.00     0.068 A 
ATOM     11  S   UNL A   1      32.897  29.061  24.308  1.00  0.00    -0.137 S 
BRANCH   8  12
ATOM     12  N   UNL A   1      32.685  25.449  25.912  1.00  0.00    -0.322 N 
ATOM     13  O   UNL A   1      30.465  25.611  26.618  1.00  0.00    -0.271 OA
ATOM     14  C   UNL A   1      31.508  24.975  26.478  1.00  0.00     0.262 C 
ATOM     15  H   UNL A   1      33.421  24.807  25.787  1.00  0.00     0.170 HD
BRANCH  14  16
ATOM     16  C   UNL A   1      31.573  23.511  26.941  1.00  0.00     0.329 C 
BRANCH  16  17
ATOM     17  O   UNL A   1      32.772  22.763  26.974  1.00  0.00    -0.484 OA
BRANCH  17  18
ATOM     18  C   UNL A   1      32.945  21.711  26.121  1.00  0.00     0.121 A 
ATOM     19  C   UNL A   1      31.989  21.226  25.232  1.00  0.00     0.046 A 
ATOM     20  C   UNL A   1      34.258  21.235  26.031  1.00  0.00     0.062 A 
ATOM     21  C   UNL A   1      32.349  20.321  24.229  1.00  0.00     0.005 A 
ATOM     22  C   UNL A   1      34.611  20.324  25.035  1.00  0.00     0.021 A 
ATOM     23  C   UNL A   1      33.663  19.876  24.121  1.00  0.00     0.016 A 
ATOM     24  Br  UNL A   1      36.401  19.733  24.898  1.00  0.00    -0.051 Br
ENDBRANCH  17  18
ENDBRANCH  16  17
ENDBRANCH  14  16
ENDBRANCH   8  12
ENDBRANCH   4   7
ENDBRANCH   2   3
ENDBRANCH   1   2
BRANCH   1  25
ATOM     25  C   UNL A   1      34.101  23.371  22.838  1.00  0.00     0.002 C 
BRANCH  25  26
ATOM     26  C   UNL A   1      35.019  24.068  23.847  1.00  0.00     0.002 C 
BRANCH  26  27
ATOM     27  C   UNL A   1      36.410  23.442  24.010  1.00  0.00     0.021 C 
BRANCH  27  28
ATOM     28  C   UNL A   1      37.102  23.765  25.331  1.00  0.00     0.116 C 
BRANCH  28  29
ATOM     29  N   UNL A   1      38.144  22.803  25.647  1.00  0.00    -0.352 N 
ATOM     30  C   UNL A   1      39.378  22.995  26.215  1.00  0.00     0.251 C 
ATOM     31  H   UNL A   1      37.933  21.869  25.419  1.00  0.00     0.163 HD
ATOM     32  O   UNL A   1      40.213  22.099  26.184  1.00  0.00    -0.269 OA
BRANCH  30  33
ATOM     33  C   UNL A   1      39.709  24.285  26.855  1.00  0.00     0.039 A 
ATOM     34  C   UNL A   1      39.309  24.501  28.177  1.00  0.00     0.014 A 
ATOM     35  C   UNL A   1      40.372  25.293  26.148  1.00  0.00     0.014 A 
ATOM     36  C   UNL A   1      39.620  25.708  28.806  1.00  0.00     0.010 A 
ATOM     37  C   UNL A   1      40.741  26.468  26.798  1.00  0.00     0.010 A 
ATOM     38  C   UNL A   1      40.364  26.690  28.131  1.00  0.00    -0.014 A 
BRANCH  38  39
ATOM     39  C   UNL A   1      40.746  27.958  28.806  1.00  0.00     0.031 A 
ATOM     40  C   UNL A   1      42.147  28.150  29.317  1.00  0.00     0.074 A 
ATOM     41  C   UNL A   1      39.817  28.913  29.004  1.00  0.00     0.049 A 
ATOM     42  N   UNL A   1      42.653  29.156  29.985  1.00  0.00    -0.248 NA
ATOM     43  C   UNL A   1      43.101  27.060  29.061  1.00  0.00     0.031 C 
ATOM     44  C   UNL A   1      38.416  28.828  28.585  1.00  0.00     0.029 A 
ATOM     45  N   UNL A   1      39.908  30.139  29.614  1.00  0.00    -0.354 N 
ATOM     46  C   UNL A   1      43.976  28.815  30.236  1.00  0.00     0.074 A 
ATOM     47  C   UNL A   1      44.181  27.488  29.698  1.00  0.00     0.031 C 
ATOM     48  C   UNL A   1      37.785  29.961  28.932  1.00  0.00     0.029 A 
ATOM     49  C   UNL A   1      38.721  30.833  29.634  1.00  0.00     0.049 A 
ATOM     50  H   UNL A   1      40.743  30.488  30.001  1.00  0.00     0.167 HD
ATOM     51  C   UNL A   1      44.938  29.552  30.841  1.00  0.00     0.037 A 
ATOM     52  C   UNL A   1      38.422  32.032  30.171  1.00  0.00     0.037 A 
ATOM     53  C   UNL A   1      44.735  30.880  31.361  1.00  0.00     0.049 A 
ATOM     54  C   UNL A   1      39.505  32.817  30.861  1.00  0.00     0.074 A 
ATOM     55  C   UNL A   1      45.658  31.727  31.948  1.00  0.00     0.029 A 
ATOM     56  N   UNL A   1      43.522  31.553  31.356  1.00  0.00    -0.354 N 
ATOM     57  N   UNL A   1      40.767  32.511  31.037  1.00  0.00    -0.248 NA
ATOM     58  C   UNL A   1      39.122  34.120  31.422  1.00  0.00     0.031 C 
ATOM     59  C   UNL A   1      44.993  32.890  32.348  1.00  0.00     0.029 A 
ATOM     60  C   UNL A   1      43.668  32.794  31.955  1.00  0.00     0.049 A 
ATOM     61  H   UNL A   1      42.681  31.200  30.985  1.00  0.00     0.167 HD
ATOM     62  C   UNL A   1      41.335  33.594  31.696  1.00  0.00     0.074 A 
ATOM     63  C   UNL A   1      40.283  34.571  31.875  1.00  0.00     0.031 C 
ATOM     64  C   UNL A   1      42.613  33.763  32.114  1.00  0.00     0.037 A 
BRANCH  51  65
ATOM     65  C   UNL A   1      46.304  28.941  30.974  1.00  0.00     0.064 A 
ATOM     66  C   UNL A   1      46.665  28.184  32.099  1.00  0.00     0.173 A 
ATOM     67  C   UNL A   1      47.247  29.071  29.943  1.00  0.00     0.173 A 
ATOM     68  F   UNL A   1      45.805  28.037  33.119  1.00  0.00    -0.203 F 
ATOM     69  C   UNL A   1      47.926  27.603  32.199  1.00  0.00     0.198 A 
ATOM     70  C   UNL A   1      48.496  28.462  30.032  1.00  0.00     0.198 A 
ATOM     71  F   UNL A   1      46.952  29.777  28.841  1.00  0.00    -0.203 F 
ATOM     72  F   UNL A   1      48.265  26.925  33.305  1.00  0.00    -0.200 F 
ATOM     73  C   UNL A   1      48.838  27.736  31.162  1.00  0.00     0.200 A 
ATOM     74  F   UNL A   1      49.369  28.576  29.021  1.00  0.00    -0.200 F 
ATOM     75  F   UNL A   1      50.047  27.165  31.254  1.00  0.00    -0.200 F 
ENDBRANCH  51  65
BRANCH  52  76
ATOM     76  C   UNL A   1      37.040  32.571  30.069  1.00  0.00     0.064 A 
ATOM     77  C   UNL A   1      36.634  33.306  28.946  1.00  0.00     0.173 A 
ATOM     78  C   UNL A   1      36.106  32.386  31.098  1.00  0.00     0.173 A 
ATOM     79  F   UNL A   1      37.498  33.528  27.944  1.00  0.00    -0.203 F 
ATOM     80  C   UNL A   1      35.357  33.859  28.869  1.00  0.00     0.198 A 
ATOM     81  C   UNL A   1      34.818  32.911  31.005  1.00  0.00     0.198 A 
ATOM     82  F   UNL A   1      36.439  31.685  32.192  1.00  0.00    -0.203 F 
ATOM     83  F   UNL A   1      35.016  34.605  27.810  1.00  0.00    -0.200 F 
ATOM     84  C   UNL A   1      34.449  33.657  29.897  1.00  0.00     0.200 A 
ATOM     85  F   UNL A   1      33.938  32.698  31.993  1.00  0.00    -0.200 F 
ATOM     86  F   UNL A   1      33.222  34.188  29.822  1.00  0.00    -0.200 F 
ENDBRANCH  52  76
BRANCH  64  87
ATOM     87  C   UNL A   1      42.959  35.071  32.767  1.00  0.00     0.064 A 
ATOM     88  C   UNL A   1      43.458  36.155  32.030  1.00  0.00     0.173 A 
ATOM     89  C   UNL A   1      42.750  35.253  34.143  1.00  0.00     0.173 A 
ATOM     90  F   UNL A   1      43.691  36.029  30.715  1.00  0.00    -0.203 F 
ATOM     91  C   UNL A   1      43.762  37.364  32.653  1.00  0.00     0.198 A 
ATOM     92  C   UNL A   1      43.022  36.473  34.755  1.00  0.00     0.198 A 
ATOM     93  F   UNL A   1      42.268  34.251  34.892  1.00  0.00    -0.203 F 
ATOM     94  F   UNL A   1      44.287  38.369  31.938  1.00  0.00    -0.200 F 
ATOM     95  C   UNL A   1      43.536  37.524  34.012  1.00  0.00     0.200 A 
ATOM     96  F   UNL A   1      42.787  36.630  36.065  1.00  0.00    -0.200 F 
ATOM     97  F   UNL A   1      43.821  38.691  34.606  1.00  0.00    -0.200 F 
ENDBRANCH  64  87
ENDBRANCH  38  39
ENDBRANCH  30  33
ENDBRANCH  28  29
ENDBRANCH  27  28
ENDBRANCH  26  27
ENDBRANCH  25  26
ENDBRANCH   1  25
TORSDOF 17
ENDMDL
MODEL 2
REMARK VINA RESULT:     -10.8      1.065      2.031
REMARK SMILES O=C(COc1cccc(Br)c1)Nc1ccsc1C(=O)NCCCCCCNC(=O)c1ccc(-c2c3nc(c(-c4c(F)c(F)c(F)c(F)c4F)c4ccc([nH]4)c(-c4c(F)c(F)c(F)c(F)c4F)c4nc(c(-c5c(F)c(F)c(F)c(F)c5F)c5ccc2[nH]5)C=C4)C=C3)cc1
REMARK SMILES IDX 22 1 21 2 20 3 18 4 19 5 17 7 13 8 14 9 15 10 16 11 12 12
REMARK SMILES IDX 1 13 2 14 3 16 4 17 5 18 6 19 11 20 7 21 9 22 8 23 10 24
REMARK SMILES IDX 23 25 24 26 25 27 26 28 27 29 28 30 29 32 30 33 31 34 92 35
REMARK SMILES IDX 32 36 91 37 33 38 34 39 35 40 85 41 36 42 90 43 84 44 86 45
REMARK SMILES IDX 37 46 89 47 83 48 82 49 38 51 70 52 50 53 69 54 51 55 54 56
REMARK SMILES IDX 68 57 87 58 52 59 53 60 67 62 88 63 55 64 39 65 40 66 48 67
REMARK SMILES IDX 41 68 42 69 46 70 49 71 43 72 44 73 47 74 45 75 71 76 72 77
REMARK SMILES IDX 80 78 73 79 74 80 78 81 81 82 75 83 76 84 79 85 77 86 56 87
REMARK SMILES IDX 57 88 65 89 58 90 59 91 63 92 66 93 60 94 61 95 64 96 62 97
REMARK H PARENT 20 6 12 15 27 31 86 50 54 61
REMARK Flexibility Score: inf
ROOT
ATOM      1  C   UNL A   1      32.840  25.173  22.956  1.00  0.00     0.021 C 
ENDROOT
BRANCH   1   2
ATOM      2  C   UNL A   1      32.940  26.667  22.640  1.00  0.00     0.116 C 
BRANCH   2   3
ATOM      3  N   UNL A   1      31.638  27.271  22.765  1.00  0.00    -0.351 N 
ATOM      4  C   UNL A   1      30.946  27.887  23.770  1.00  0.00     0.263 C 
ATOM      5  O   UNL A   1      29.833  28.279  23.394  1.00  0.00    -0.268 OA
ATOM      6  H   UNL A   1      31.125  27.230  21.927  1.00  0.00     0.163 HD
BRANCH   4   7
ATOM      7  C   UNL A   1      31.428  28.111  25.136  1.00  0.00     0.115 A 
ATOM      8  C   UNL A   1      31.641  27.360  26.298  1.00  0.00     0.065 A 
ATOM      9  C   UNL A   1      31.987  28.209  27.409  1.00  0.00     0.038 A 
ATOM     10  C   UNL A   1      31.991  29.545  27.112  1.00  0.00     0.068 A 
ATOM     11  S   UNL A   1      31.678  29.811  25.474  1.00  0.00    -0.137 S 
BRANCH   8  12
ATOM     12  N   UNL A   1      31.506  25.974  26.432  1.00  0.00    -0.322 N 
ATOM     13  O   UNL A   1      29.273  25.732  25.796  1.00  0.00    -0.271 OA
ATOM     14  C   UNL A   1      30.329  25.267  26.219  1.00  0.00     0.262 C 
ATOM     15  H   UNL A   1      32.304  25.462  26.697  1.00  0.00     0.170 HD
BRANCH  14  16
ATOM     16  C   UNL A   1      30.422  23.769  26.548  1.00  0.00     0.329 C 
BRANCH  16  17
ATOM     17  O   UNL A   1      31.567  23.175  27.127  1.00  0.00    -0.484 OA
BRANCH  17  18
ATOM     18  C   UNL A   1      32.421  22.440  26.354  1.00  0.00     0.121 A 
ATOM     19  C   UNL A   1      33.539  21.751  26.817  1.00  0.00     0.046 A 
ATOM     20  C   UNL A   1      31.995  22.235  25.037  1.00  0.00     0.062 A 
ATOM     21  C   UNL A   1      34.191  20.827  25.996  1.00  0.00     0.005 A 
ATOM     22  C   UNL A   1      32.655  21.319  24.218  1.00  0.00     0.021 A 
ATOM     23  C   UNL A   1      33.745  20.600  24.698  1.00  0.00     0.016 A 
ATOM     24  Br  UNL A   1      32.034  21.018  22.458  1.00  0.00    -0.051 Br
ENDBRANCH  17  18
ENDBRANCH  16  17
ENDBRANCH  14  16
ENDBRANCH   8  12
ENDBRANCH   4   7
ENDBRANCH   2   3
ENDBRANCH   1   2
BRANCH   1  25
ATOM     25  C   UNL A   1      34.172  24.428  23.004  1.00  0.00     0.002 C 
BRANCH  25  26
ATOM     26  C   UNL A   1      34.872  24.495  24.365  1.00  0.00     0.002 C 
BRANCH  26  27
ATOM     27  C   UNL A   1      36.054  23.534  24.544  1.00  0.00     0.021 C 
BRANCH  27  28
ATOM     28  C   UNL A   1      36.772  23.650  25.885  1.00  0.00     0.116 C 
BRANCH  28  29
ATOM     29  N   UNL A   1      37.840  22.674  26.016  1.00  0.00    -0.352 N 
ATOM     30  C   UNL A   1      39.156  22.848  26.359  1.00  0.00     0.251 C 
ATOM     31  H   UNL A   1      37.578  21.743  25.831  1.00  0.00     0.163 HD
ATOM     32  O   UNL A   1      39.961  21.940  26.185  1.00  0.00    -0.269 OA
BRANCH  30  33
ATOM     33  C   UNL A   1      39.613  24.133  26.928  1.00  0.00     0.039 A 
ATOM     34  C   UNL A   1      40.182  25.082  26.076  1.00  0.00     0.014 A 
ATOM     35  C   UNL A   1      39.521  24.387  28.300  1.00  0.00     0.014 A 
ATOM     36  C   UNL A   1      40.611  26.307  26.590  1.00  0.00     0.010 A 
ATOM     37  C   UNL A   1      39.885  25.635  28.800  1.00  0.00     0.010 A 
ATOM     38  C   UNL A   1      40.439  26.605  27.952  1.00  0.00    -0.014 A 
BRANCH  38  39
ATOM     39  C   UNL A   1      40.843  27.924  28.503  1.00  0.00     0.031 A 
ATOM     40  C   UNL A   1      42.279  28.184  28.868  1.00  0.00     0.074 A 
ATOM     41  C   UNL A   1      39.909  28.869  28.721  1.00  0.00     0.049 A 
ATOM     42  N   UNL A   1      42.814  29.244  29.419  1.00  0.00    -0.248 NA
ATOM     43  C   UNL A   1      43.237  27.100  28.599  1.00  0.00     0.031 C 
ATOM     44  C   UNL A   1      38.479  28.724  28.439  1.00  0.00     0.029 A 
ATOM     45  N   UNL A   1      40.018  30.136  29.238  1.00  0.00    -0.354 N 
ATOM     46  C   UNL A   1      44.163  28.952  29.569  1.00  0.00     0.074 A 
ATOM     47  C   UNL A   1      44.357  27.596  29.104  1.00  0.00     0.031 C 
ATOM     48  C   UNL A   1      37.849  29.864  28.768  1.00  0.00     0.029 A 
ATOM     49  C   UNL A   1      38.819  30.802  29.321  1.00  0.00     0.049 A 
ATOM     50  H   UNL A   1      40.875  30.530  29.522  1.00  0.00     0.167 HD
ATOM     51  C   UNL A   1      45.154  29.751  30.032  1.00  0.00     0.037 A 
ATOM     52  C   UNL A   1      38.535  32.028  29.802  1.00  0.00     0.037 A 
ATOM     53  C   UNL A   1      44.960  31.106  30.479  1.00  0.00     0.049 A 
ATOM     54  C   UNL A   1      39.652  32.884  30.336  1.00  0.00     0.074 A 
ATOM     55  C   UNL A   1      45.907  32.013  30.922  1.00  0.00     0.029 A 
ATOM     56  N   UNL A   1      43.733  31.749  30.542  1.00  0.00    -0.354 N 
ATOM     57  N   UNL A   1      40.934  32.619  30.415  1.00  0.00    -0.248 NA
ATOM     58  C   UNL A   1      39.284  34.214  30.842  1.00  0.00     0.031 C 
ATOM     59  C   UNL A   1      45.248  33.185  31.304  1.00  0.00     0.029 A 
ATOM     60  C   UNL A   1      43.896  33.032  31.041  1.00  0.00     0.049 A 
ATOM     61  H   UNL A   1      42.872  31.352  30.274  1.00  0.00     0.167 HD
ATOM     62  C   UNL A   1      41.527  33.758  30.945  1.00  0.00     0.074 A 
ATOM     63  C   UNL A   1      40.468  34.721  31.155  1.00  0.00     0.031 C 
ATOM     64  C   UNL A   1      42.832  33.984  31.232  1.00  0.00     0.037 A 
BRANCH  51  65
ATOM     65  C   UNL A   1      46.543  29.182  30.080  1.00  0.00     0.064 A 
ATOM     66  C   UNL A   1      47.451  29.366  29.026  1.00  0.00     0.173 A 
ATOM     67  C   UNL A   1      46.991  28.487  31.214  1.00  0.00     0.173 A 
ATOM     68  F   UNL A   1      47.072  30.015  27.914  1.00  0.00    -0.203 F 
ATOM     69  C   UNL A   1      48.744  28.854  29.093  1.00  0.00     0.198 A 
ATOM     70  C   UNL A   1      48.294  28.003  31.292  1.00  0.00     0.198 A 
ATOM     71  F   UNL A   1      46.167  28.288  32.254  1.00  0.00    -0.203 F 
ATOM     72  F   UNL A   1      49.577  29.002  28.054  1.00  0.00    -0.200 F 
ATOM     73  C   UNL A   1      49.167  28.180  30.229  1.00  0.00     0.200 A 
ATOM     74  F   UNL A   1      48.707  27.367  32.397  1.00  0.00    -0.200 F 
ATOM     75  F   UNL A   1      50.416  27.698  30.298  1.00  0.00    -0.200 F 
ENDBRANCH  51  65
BRANCH  52  76
ATOM     76  C   UNL A   1      37.134  32.528  29.792  1.00  0.00     0.064 A 
ATOM     77  C   UNL A   1      36.630  33.241  28.694  1.00  0.00     0.173 A 
ATOM     78  C   UNL A   1      36.279  32.326  30.885  1.00  0.00     0.173 A 
ATOM     79  F   UNL A   1      37.416  33.477  27.633  1.00  0.00    -0.203 F 
ATOM     80  C   UNL A   1      35.336  33.756  28.702  1.00  0.00     0.198 A 
ATOM     81  C   UNL A   1      34.973  32.814  30.877  1.00  0.00     0.198 A 
ATOM     82  F   UNL A   1      36.707  31.645  31.958  1.00  0.00    -0.203 F 
ATOM     83  F   UNL A   1      34.901  34.483  27.663  1.00  0.00    -0.200 F 
ATOM     84  C   UNL A   1      34.507  33.539  29.792  1.00  0.00     0.200 A 
ATOM     85  F   UNL A   1      34.170  32.586  31.925  1.00  0.00    -0.200 F 
ATOM     86  F   UNL A   1      33.263  34.034  29.798  1.00  0.00    -0.200 F 
ENDBRANCH  52  76
BRANCH  64  87
ATOM     87  C   UNL A   1      43.198  35.342  31.761  1.00  0.00     0.064 A 
ATOM     88  C   UNL A   1      43.224  35.618  33.136  1.00  0.00     0.173 A 
ATOM     89  C   UNL A   1      43.565  36.370  30.879  1.00  0.00     0.173 A 
ATOM     90  F   UNL A   1      42.867  34.674  34.022  1.00  0.00    -0.203 F 
ATOM     91  C   UNL A   1      43.576  36.880  33.606  1.00  0.00     0.198 A 
ATOM     92  C   UNL A   1      43.949  37.621  31.354  1.00  0.00     0.198 A 
ATOM     93  F   UNL A   1      43.563  36.158  29.555  1.00  0.00    -0.203 F 
ATOM     94  F   UNL A   1      43.544  37.136  34.922  1.00  0.00    -0.200 F 
ATOM     95  C   UNL A   1      43.947  37.877  32.716  1.00  0.00     0.200 A 
ATOM     96  F   UNL A   1      44.322  38.577  30.493  1.00  0.00    -0.200 F 
ATOM     97  F   UNL A   1      44.294  39.089  33.172  1.00  0.00    -0.200 F 
ENDBRANCH  64  87
ENDBRANCH  38  39
ENDBRANCH  30  33
ENDBRANCH  28  29
ENDBRANCH  27  28
ENDBRANCH  26  27
ENDBRANCH  25  26
ENDBRANCH   1  25
TORSDOF 17
ENDMDL
MODEL 3
REMARK VINA RESULT:     -10.7      3.480      8.514
REMARK SMILES O=C(COc1cccc(Br)c1)Nc1ccsc1C(=O)NCCCCCCNC(=O)c1ccc(-c2c3nc(c(-c4c(F)c(F)c(F)c(F)c4F)c4ccc([nH]4)c(-c4c(F)c(F)c(F)c(F)c4F)c4nc(c(-c5c(F)c(F)c(F)c(F)c5F)c5ccc2[nH]5)C=C4)C=C3)cc1
REMARK SMILES IDX 22 1 21 2 20 3 18 4 19 5 17 7 13 8 14 9 15 10 16 11 12 12
REMARK SMILES IDX 1 13 2 14 3 16 4 17 5 18 6 19 11 20 7 21 9 22 8 23 10 24
REMARK SMILES IDX 23 25 24 26 25 27 26 28 27 29 28 30 29 32 30 33 31 34 92 35
REMARK SMILES IDX 32 36 91 37 33 38 34 39 35 40 85 41 36 42 90 43 84 44 86 45
REMARK SMILES IDX 37 46 89 47 83 48 82 49 38 51 70 52 50 53 69 54 51 55 54 56
REMARK SMILES IDX 68 57 87 58 52 59 53 60 67 62 88 63 55 64 39 65 40 66 48 67
REMARK SMILES IDX 41 68 42 69 46 70 49 71 43 72 44 73 47 74 45 75 71 76 72 77
REMARK SMILES IDX 80 78 73 79 74 80 78 81 81 82 75 83 76 84 79 85 77 86 56 87
REMARK SMILES IDX 57 88 65 89 58 90 59 91 63 92 66 93 60 94 61 95 64 96 62 97
REMARK H PARENT 20 6 12 15 27 31 86 50 54 61
REMARK Flexibility Score: inf
ROOT
ATOM      1  C   UNL A   1      36.218  22.959  25.163  1.00  0.00     0.021 C 
ENDROOT
BRANCH   1   2
ATOM      2  C   UNL A   1      35.620  24.078  24.307  1.00  0.00     0.116 C 
BRANCH   2   3
ATOM      3  N   UNL A   1      35.096  25.110  25.165  1.00  0.00    -0.351 N 
ATOM      4  C   UNL A   1      33.940  25.840  25.213  1.00  0.00     0.263 C 
ATOM      5  O   UNL A   1      33.925  26.622  26.173  1.00  0.00    -0.268 OA
ATOM      6  H   UNL A   1      35.719  25.348  25.888  1.00  0.00     0.163 HD
BRANCH   4   7
ATOM      7  C   UNL A   1      32.812  25.726  24.284  1.00  0.00     0.115 A 
ATOM      8  C   UNL A   1      31.846  24.774  23.935  1.00  0.00     0.065 A 
ATOM      9  C   UNL A   1      31.082  25.206  22.793  1.00  0.00     0.038 A 
ATOM     10  C   UNL A   1      31.480  26.408  22.274  1.00  0.00     0.068 A 
ATOM     11  S   UNL A   1      32.713  27.097  23.199  1.00  0.00    -0.137 S 
BRANCH   8  12
ATOM     12  N   UNL A   1      31.637  23.535  24.548  1.00  0.00    -0.322 N 
ATOM     13  O   UNL A   1      33.174  22.242  23.357  1.00  0.00    -0.271 OA
ATOM     14  C   UNL A   1      32.275  22.354  24.188  1.00  0.00     0.262 C 
ATOM     15  H   UNL A   1      30.990  23.496  25.289  1.00  0.00     0.170 HD
BRANCH  14  16
ATOM     16  C   UNL A   1      31.779  21.111  24.943  1.00  0.00     0.329 C 
BRANCH  16  17
ATOM     17  O   UNL A   1      32.646  20.115  25.448  1.00  0.00    -0.484 OA
BRANCH  17  18
ATOM     18  C   UNL A   1      32.890  18.987  24.717  1.00  0.00     0.121 A 
ATOM     19  C   UNL A   1      32.486  18.775  23.401  1.00  0.00     0.046 A 
ATOM     20  C   UNL A   1      33.778  18.083  25.309  1.00  0.00     0.062 A 
ATOM     21  C   UNL A   1      33.005  17.705  22.666  1.00  0.00     0.005 A 
ATOM     22  C   UNL A   1      34.286  17.011  24.574  1.00  0.00     0.021 A 
ATOM     23  C   UNL A   1      33.914  16.826  23.247  1.00  0.00     0.016 A 
ATOM     24  Br  UNL A   1      35.524  15.828  25.376  1.00  0.00    -0.051 Br
ENDBRANCH  17  18
ENDBRANCH  16  17
ENDBRANCH  14  16
ENDBRANCH   8  12
ENDBRANCH   4   7
ENDBRANCH   2   3
ENDBRANCH   1   2
BRANCH   1  25
ATOM     25  C   UNL A   1      36.929  21.854  24.385  1.00  0.00     0.002 C 
BRANCH  25  26
ATOM     26  C   UNL A   1      36.657  20.445  24.919  1.00  0.00     0.002 C 
BRANCH  26  27
ATOM     27  C   UNL A   1      37.882  19.525  25.001  1.00  0.00     0.021 C 
BRANCH  27  28
ATOM     28  C   UNL A   1      39.066  20.109  25.767  1.00  0.00     0.116 C 
BRANCH  28  29
ATOM     29  N   UNL A   1      40.133  19.137  25.939  1.00  0.00    -0.352 N 
ATOM     30  C   UNL A   1      41.481  19.328  26.102  1.00  0.00     0.251 C 
ATOM     31  H   UNL A   1      39.843  18.197  25.939  1.00  0.00     0.163 HD
ATOM     32  O   UNL A   1      42.252  18.383  25.993  1.00  0.00    -0.269 OA
BRANCH  30  33
ATOM     33  C   UNL A   1      42.010  20.676  26.400  1.00  0.00     0.039 A 
ATOM     34  C   UNL A   1      42.288  21.539  25.336  1.00  0.00     0.014 A 
ATOM     35  C   UNL A   1      42.272  21.074  27.714  1.00  0.00     0.014 A 
ATOM     36  C   UNL A   1      42.780  22.820  25.593  1.00  0.00     0.010 A 
ATOM     37  C   UNL A   1      42.696  22.375  27.973  1.00  0.00     0.010 A 
ATOM     38  C   UNL A   1      42.960  23.259  26.915  1.00  0.00    -0.014 A 
BRANCH  38  39
ATOM     39  C   UNL A   1      43.432  24.638  27.205  1.00  0.00     0.031 A 
ATOM     40  C   UNL A   1      42.482  25.662  27.760  1.00  0.00     0.074 A 
ATOM     41  C   UNL A   1      44.704  24.980  26.920  1.00  0.00     0.049 A 
ATOM     42  N   UNL A   1      42.689  26.929  28.018  1.00  0.00    -0.248 NA
ATOM     43  C   UNL A   1      41.112  25.209  28.044  1.00  0.00     0.031 C 
ATOM     44  C   UNL A   1      45.710  24.084  26.347  1.00  0.00     0.029 A 
ATOM     45  N   UNL A   1      45.365  26.173  27.064  1.00  0.00    -0.354 N 
ATOM     46  C   UNL A   1      41.477  27.423  28.483  1.00  0.00     0.074 A 
ATOM     47  C   UNL A   1      40.525  26.336  28.421  1.00  0.00     0.031 C 
ATOM     48  C   UNL A   1      46.866  24.754  26.207  1.00  0.00     0.029 A 
ATOM     49  C   UNL A   1      46.672  26.134  26.640  1.00  0.00     0.049 A 
ATOM     50  H   UNL A   1      44.943  26.982  27.436  1.00  0.00     0.167 HD
ATOM     51  C   UNL A   1      41.191  28.665  28.942  1.00  0.00     0.037 A 
ATOM     52  C   UNL A   1      47.603  27.107  26.594  1.00  0.00     0.037 A 
ATOM     53  C   UNL A   1      42.146  29.740  29.018  1.00  0.00     0.049 A 
ATOM     54  C   UNL A   1      47.249  28.484  27.085  1.00  0.00     0.074 A 
ATOM     55  C   UNL A   1      41.966  31.021  29.512  1.00  0.00     0.029 A 
ATOM     56  N   UNL A   1      43.462  29.661  28.586  1.00  0.00    -0.354 N 
ATOM     57  N   UNL A   1      46.117  28.923  27.581  1.00  0.00    -0.248 NA
ATOM     58  C   UNL A   1      48.306  29.503  27.016  1.00  0.00     0.031 C 
ATOM     59  C   UNL A   1      43.155  31.732  29.329  1.00  0.00     0.029 A 
ATOM     60  C   UNL A   1      44.097  30.877  28.778  1.00  0.00     0.049 A 
ATOM     61  H   UNL A   1      43.882  28.859  28.199  1.00  0.00     0.167 HD
ATOM     62  C   UNL A   1      46.336  30.253  27.914  1.00  0.00     0.074 A 
ATOM     63  C   UNL A   1      47.712  30.547  27.578  1.00  0.00     0.031 C 
ATOM     64  C   UNL A   1      45.473  31.151  28.450  1.00  0.00     0.037 A 
BRANCH  51  65
ATOM     65  C   UNL A   1      39.786  28.932  29.401  1.00  0.00     0.064 A 
ATOM     66  C   UNL A   1      38.797  29.388  28.516  1.00  0.00     0.173 A 
ATOM     67  C   UNL A   1      39.409  28.682  30.729  1.00  0.00     0.173 A 
ATOM     68  F   UNL A   1      39.105  29.652  27.237  1.00  0.00    -0.203 F 
ATOM     69  C   UNL A   1      37.492  29.609  28.949  1.00  0.00     0.198 A 
ATOM     70  C   UNL A   1      38.097  28.874  31.152  1.00  0.00     0.198 A 
ATOM     71  F   UNL A   1      40.313  28.239  31.616  1.00  0.00    -0.203 F 
ATOM     72  F   UNL A   1      36.576  30.090  28.096  1.00  0.00    -0.200 F 
ATOM     73  C   UNL A   1      37.141  29.344  30.264  1.00  0.00     0.200 A 
ATOM     74  F   UNL A   1      37.756  28.601  32.419  1.00  0.00    -0.200 F 
ATOM     75  F   UNL A   1      35.882  29.545  30.677  1.00  0.00    -0.200 F 
ENDBRANCH  51  65
BRANCH  52  76
ATOM     76  C   UNL A   1      48.965  26.811  26.074  1.00  0.00     0.064 A 
ATOM     77  C   UNL A   1      49.984  26.369  26.930  1.00  0.00     0.173 A 
ATOM     78  C   UNL A   1      49.284  26.989  24.720  1.00  0.00     0.173 A 
ATOM     79  F   UNL A   1      49.733  26.204  28.238  1.00  0.00    -0.203 F 
ATOM     80  C   UNL A   1      51.274  26.143  26.458  1.00  0.00     0.198 A 
ATOM     81  C   UNL A   1      50.567  26.729  24.243  1.00  0.00     0.198 A 
ATOM     82  F   UNL A   1      48.346  27.404  23.856  1.00  0.00    -0.203 F 
ATOM     83  F   UNL A   1      52.242  25.776  27.310  1.00  0.00    -0.200 F 
ATOM     84  C   UNL A   1      51.565  26.319  25.114  1.00  0.00     0.200 A 
ATOM     85  F   UNL A   1      50.838  26.884  22.939  1.00  0.00    -0.200 F 
ATOM     86  F   UNL A   1      52.806  26.101  24.660  1.00  0.00    -0.200 F 
ENDBRANCH  52  76
BRANCH  64  87
ATOM     87  C   UNL A   1      46.003  32.524  28.751  1.00  0.00     0.064 A 
ATOM     88  C   UNL A   1      45.920  33.569  27.820  1.00  0.00     0.173 A 
ATOM     89  C   UNL A   1      46.567  32.805  30.005  1.00  0.00     0.173 A 
ATOM     90  F   UNL A   1      45.404  33.349  26.601  1.00  0.00    -0.203 F 
ATOM     91  C   UNL A   1      46.407  34.838  28.124  1.00  0.00     0.198 A 
ATOM     92  C   UNL A   1      47.022  34.083  30.317  1.00  0.00     0.198 A 
ATOM     93  F   UNL A   1      46.664  31.843  30.935  1.00  0.00    -0.203 F 
ATOM     94  F   UNL A   1      46.365  35.808  27.199  1.00  0.00    -0.200 F 
ATOM     95  C   UNL A   1      46.950  35.096  29.374  1.00  0.00     0.200 A 
ATOM     96  F   UNL A   1      47.530  34.334  31.532  1.00  0.00    -0.200 F 
ATOM     97  F   UNL A   1      47.410  36.320  29.666  1.00  0.00    -0.200 F 
ENDBRANCH  64  87
ENDBRANCH  38  39
ENDBRANCH  30  33
ENDBRANCH  28  29
ENDBRANCH  27  28
ENDBRANCH  26  27
ENDBRANCH  25  26
ENDBRANCH   1  25
TORSDOF 17
ENDMDL
