MODEL 1
REMARK VINA RESULT:     -10.9      0.000      0.000
REMARK SMILES C=CC[N@@H+](CC(=O)NCCCCCCNC(=O)c1ccc(-c2c3nc(c(-c4c(F)c(F)c(F)c(F)c4F)c4ccc([nH]4)c(-c4c(F)c(F)c(F)c(F)c4F)c4nc(c(-c5c(F)c(F)c(F)c(F)c5F)c5ccc2[nH]5)C=C4)C=C3)cc1)C[C@H]1CCC[C@H](C)C1
REMARK SMILES IDX 11 1 10 2 9 3 8 4 6 5 7 6 5 8 4 9 3 11 2 12 1 13 81 14 82 15
REMARK SMILES IDX 83 16 88 17 84 18 86 19 85 20 87 21 12 22 13 23 14 24 15 25
REMARK SMILES IDX 16 26 17 28 18 29 19 30 80 31 20 32 79 33 21 34 22 35 23 36
REMARK SMILES IDX 73 37 24 38 78 39 72 40 74 41 25 42 77 43 71 44 70 45 26 47
REMARK SMILES IDX 58 48 38 49 57 50 39 51 42 52 56 53 75 54 40 55 41 56 55 58
REMARK SMILES IDX 76 59 43 60 27 61 28 62 36 63 29 64 30 65 34 66 37 67 31 68
REMARK SMILES IDX 32 69 35 70 33 71 59 72 60 73 68 74 61 75 62 76 66 77 69 78
REMARK SMILES IDX 63 79 64 80 67 81 65 82 44 83 45 84 53 85 46 86 47 87 51 88
REMARK SMILES IDX 54 89 48 90 49 91 52 92 50 93
REMARK H PARENT 8 7 4 10 15 27 74 46 42 57
REMARK Flexibility Score: inf
ROOT
ATOM      1  C   UNL A   1      37.208  22.334  24.480  1.00  0.00     0.002 C 
ENDROOT
BRANCH   1   2
ATOM      2  C   UNL A   1      36.300  22.806  23.342  1.00  0.00     0.021 C 
BRANCH   2   3
ATOM      3  C   UNL A   1      34.922  23.316  23.772  1.00  0.00     0.116 C 
BRANCH   3   4
ATOM      4  N   UNL A   1      33.871  22.328  23.635  1.00  0.00    -0.351 N 
ATOM      5  C   UNL A   1      32.515  22.441  23.680  1.00  0.00     0.275 C 
ATOM      6  O   UNL A   1      31.867  21.477  23.250  1.00  0.00    -0.269 OA
ATOM      7  H   UNL A   1      34.196  21.411  23.482  1.00  0.00     0.163 HD
BRANCH   5   8
ATOM      8  C   UNL A   1      31.793  23.686  24.204  1.00  0.00     0.363 C 
BRANCH   8   9
ATOM      9  N   UNL A   1      31.849  23.928  25.662  1.00  0.00    -0.324 N 
ATOM     10  H   UNL A   1      32.771  24.319  25.855  1.00  0.00     0.348 HD
BRANCH   9  11
ATOM     11  C   UNL A   1      31.921  22.709  26.443  1.00  0.00     0.290 C 
BRANCH  11  12
ATOM     12  C   UNL A   1      33.036  22.574  27.434  1.00  0.00     0.025 C 
ATOM     13  C   UNL A   1      34.069  21.731  27.278  1.00  0.00     0.010 C 
ENDBRANCH  11  12
ENDBRANCH   9  11
BRANCH   9  14
ATOM     14  C   UNL A   1      31.176  25.127  26.182  1.00  0.00     0.266 C 
BRANCH  14  15
ATOM     15  C   UNL A   1      31.853  26.516  26.067  1.00  0.00     0.044 C 
ATOM     16  C   UNL A   1      31.402  27.498  27.142  1.00  0.00     0.009 C 
ATOM     17  C   UNL A   1      33.391  26.433  26.093  1.00  0.00     0.012 C 
ATOM     18  C   UNL A   1      31.990  28.888  26.941  1.00  0.00     0.001 C 
ATOM     19  C   UNL A   1      34.044  27.819  25.887  1.00  0.00    -0.014 C 
ATOM     20  C   UNL A   1      33.512  28.834  26.910  1.00  0.00     0.003 C 
ATOM     21  C   UNL A   1      33.858  28.335  24.453  1.00  0.00     0.007 C 
ENDBRANCH  14  15
ENDBRANCH   9  14
ENDBRANCH   8   9
ENDBRANCH   5   8
ENDBRANCH   3   4
ENDBRANCH   2   3
ENDBRANCH   1   2
BRANCH   1  22
ATOM     22  C   UNL A   1      36.848  20.952  25.021  1.00  0.00     0.002 C 
BRANCH  22  23
ATOM     23  C   UNL A   1      37.992  19.935  24.987  1.00  0.00     0.021 C 
BRANCH  23  24
ATOM     24  C   UNL A   1      39.226  20.355  25.780  1.00  0.00     0.116 C 
BRANCH  24  25
ATOM     25  N   UNL A   1      40.122  19.230  25.993  1.00  0.00    -0.352 N 
ATOM     26  C   UNL A   1      41.488  19.264  26.118  1.00  0.00     0.251 C 
ATOM     27  H   UNL A   1      39.701  18.343  26.056  1.00  0.00     0.163 HD
ATOM     28  O   UNL A   1      42.168  18.248  26.008  1.00  0.00    -0.269 OA
BRANCH  26  29
ATOM     29  C   UNL A   1      42.129  20.565  26.381  1.00  0.00     0.039 A 
ATOM     30  C   UNL A   1      42.534  21.368  25.314  1.00  0.00     0.014 A 
ATOM     31  C   UNL A   1      42.262  21.006  27.701  1.00  0.00     0.014 A 
ATOM     32  C   UNL A   1      43.030  22.647  25.572  1.00  0.00     0.010 A 
ATOM     33  C   UNL A   1      42.678  22.306  27.949  1.00  0.00     0.010 A 
ATOM     34  C   UNL A   1      43.077  23.135  26.888  1.00  0.00    -0.014 A 
BRANCH  34  35
ATOM     35  C   UNL A   1      43.576  24.498  27.203  1.00  0.00     0.031 A 
ATOM     36  C   UNL A   1      42.610  25.534  27.706  1.00  0.00     0.074 A 
ATOM     37  C   UNL A   1      44.859  24.825  26.959  1.00  0.00     0.049 A 
ATOM     38  N   UNL A   1      42.795  26.815  27.907  1.00  0.00    -0.248 NA
ATOM     39  C   UNL A   1      41.241  25.073  27.990  1.00  0.00     0.031 C 
ATOM     40  C   UNL A   1      45.883  23.915  26.446  1.00  0.00     0.029 A 
ATOM     41  N   UNL A   1      45.515  26.025  27.090  1.00  0.00    -0.354 N 
ATOM     42  C   UNL A   1      41.565  27.310  28.317  1.00  0.00     0.074 A 
ATOM     43  C   UNL A   1      40.627  26.210  28.280  1.00  0.00     0.031 C 
ATOM     44  C   UNL A   1      47.042  24.583  26.323  1.00  0.00     0.029 A 
ATOM     45  C   UNL A   1      46.831  25.978  26.698  1.00  0.00     0.049 A 
ATOM     46  H   UNL A   1      45.083  26.839  27.432  1.00  0.00     0.167 HD
ATOM     47  C   UNL A   1      41.251  28.566  28.715  1.00  0.00     0.037 A 
ATOM     48  C   UNL A   1      47.755  26.957  26.634  1.00  0.00     0.037 A 
ATOM     49  C   UNL A   1      42.194  29.650  28.770  1.00  0.00     0.049 A 
ATOM     50  C   UNL A   1      47.372  28.354  27.046  1.00  0.00     0.074 A 
ATOM     51  C   UNL A   1      41.990  30.950  29.198  1.00  0.00     0.029 A 
ATOM     52  N   UNL A   1      43.523  29.560  28.378  1.00  0.00    -0.354 N 
ATOM     53  N   UNL A   1      46.220  28.803  27.482  1.00  0.00    -0.248 NA
ATOM     54  C   UNL A   1      48.420  29.382  26.959  1.00  0.00     0.031 C 
ATOM     55  C   UNL A   1      43.181  31.660  29.015  1.00  0.00     0.029 A 
ATOM     56  C   UNL A   1      44.144  30.787  28.535  1.00  0.00     0.049 A 
ATOM     57  H   UNL A   1      43.958  28.744  28.040  1.00  0.00     0.167 HD
ATOM     58  C   UNL A   1      46.414  30.150  27.762  1.00  0.00     0.074 A 
ATOM     59  C   UNL A   1      47.796  30.446  27.446  1.00  0.00     0.031 C 
ATOM     60  C   UNL A   1      45.529  31.057  28.241  1.00  0.00     0.037 A 
BRANCH  47  61
ATOM     61  C   UNL A   1      39.828  28.832  29.116  1.00  0.00     0.064 A 
ATOM     62  C   UNL A   1      38.864  29.249  28.184  1.00  0.00     0.173 A 
ATOM     63  C   UNL A   1      39.417  28.647  30.445  1.00  0.00     0.173 A 
ATOM     64  F   UNL A   1      39.206  29.452  26.904  1.00  0.00    -0.203 F 
ATOM     65  C   UNL A   1      37.552  29.507  28.576  1.00  0.00     0.198 A 
ATOM     66  C   UNL A   1      38.096  28.871  30.825  1.00  0.00     0.198 A 
ATOM     67  F   UNL A   1      40.294  28.244  31.376  1.00  0.00    -0.203 F 
ATOM     68  F   UNL A   1      36.666  29.964  27.681  1.00  0.00    -0.200 F 
ATOM     69  C   UNL A   1      37.167  29.311  29.893  1.00  0.00     0.200 A 
ATOM     70  F   UNL A   1      37.722  28.665  32.095  1.00  0.00    -0.200 F 
ATOM     71  F   UNL A   1      35.905  29.553  30.266  1.00  0.00    -0.200 F 
ENDBRANCH  47  61
BRANCH  48  72
ATOM     72  C   UNL A   1      49.137  26.649  26.180  1.00  0.00     0.064 A 
ATOM     73  C   UNL A   1      49.518  26.858  24.847  1.00  0.00     0.173 A 
ATOM     74  C   UNL A   1      50.102  26.133  27.059  1.00  0.00     0.173 A 
ATOM     75  F   UNL A   1      48.627  27.331  23.963  1.00  0.00    -0.203 F 
ATOM     76  C   UNL A   1      50.801  26.542  24.405  1.00  0.00     0.198 A 
ATOM     77  C   UNL A   1      51.394  25.846  26.623  1.00  0.00     0.198 A 
ATOM     78  F   UNL A   1      49.793  25.920  28.346  1.00  0.00    -0.203 F 
ATOM     79  F   UNL A   1      51.122  26.705  23.113  1.00  0.00    -0.200 F 
ATOM     80  C   UNL A   1      51.740  26.042  25.294  1.00  0.00     0.200 A 
ATOM     81  F   UNL A   1      52.303  25.379  27.489  1.00  0.00    -0.200 F 
ATOM     82  F   UNL A   1      52.974  25.740  24.870  1.00  0.00    -0.200 F 
ENDBRANCH  48  72
BRANCH  60  83
ATOM     83  C   UNL A   1      46.034  32.443  28.522  1.00  0.00     0.064 A 
ATOM     84  C   UNL A   1      46.004  33.455  27.552  1.00  0.00     0.173 A 
ATOM     85  C   UNL A   1      46.482  32.779  29.809  1.00  0.00     0.173 A 
ATOM     86  F   UNL A   1      45.596  33.182  26.303  1.00  0.00    -0.203 F 
ATOM     87  C   UNL A   1      46.419  34.749  27.856  1.00  0.00     0.198 A 
ATOM     88  C   UNL A   1      46.865  34.081  30.118  1.00  0.00     0.198 A 
ATOM     89  F   UNL A   1      46.524  31.850  30.775  1.00  0.00    -0.203 F 
ATOM     90  F   UNL A   1      46.418  35.691  26.904  1.00  0.00    -0.200 F 
ATOM     91  C   UNL A   1      46.838  35.063  29.141  1.00  0.00     0.200 A 
ATOM     92  F   UNL A   1      47.253  34.386  31.365  1.00  0.00    -0.200 F 
ATOM     93  F   UNL A   1      47.219  36.314  29.436  1.00  0.00    -0.200 F 
ENDBRANCH  60  83
ENDBRANCH  34  35
ENDBRANCH  26  29
ENDBRANCH  24  25
ENDBRANCH  23  24
ENDBRANCH  22  23
ENDBRANCH   1  22
TORSDOF 18
ENDMDL
MODEL 2
REMARK VINA RESULT:     -10.7      5.794     11.195
REMARK SMILES C=CC[N@@H+](CC(=O)NCCCCCCNC(=O)c1ccc(-c2c3nc(c(-c4c(F)c(F)c(F)c(F)c4F)c4ccc([nH]4)c(-c4c(F)c(F)c(F)c(F)c4F)c4nc(c(-c5c(F)c(F)c(F)c(F)c5F)c5ccc2[nH]5)C=C4)C=C3)cc1)C[C@H]1CCC[C@H](C)C1
REMARK SMILES IDX 11 1 10 2 9 3 8 4 6 5 7 6 5 8 4 9 3 11 2 12 1 13 81 14 82 15
REMARK SMILES IDX 83 16 88 17 84 18 86 19 85 20 87 21 12 22 13 23 14 24 15 25
REMARK SMILES IDX 16 26 17 28 18 29 19 30 80 31 20 32 79 33 21 34 22 35 23 36
REMARK SMILES IDX 73 37 24 38 78 39 72 40 74 41 25 42 77 43 71 44 70 45 26 47
REMARK SMILES IDX 58 48 38 49 57 50 39 51 42 52 56 53 75 54 40 55 41 56 55 58
REMARK SMILES IDX 76 59 43 60 27 61 28 62 36 63 29 64 30 65 34 66 37 67 31 68
REMARK SMILES IDX 32 69 35 70 33 71 59 72 60 73 68 74 61 75 62 76 66 77 69 78
REMARK SMILES IDX 63 79 64 80 67 81 65 82 44 83 45 84 53 85 46 86 47 87 51 88
REMARK SMILES IDX 54 89 48 90 49 91 52 92 50 93
REMARK H PARENT 8 7 4 10 15 27 74 46 42 57
REMARK Flexibility Score: inf
ROOT
ATOM      1  C   UNL A   1      31.817  29.465  26.711  1.00  0.00     0.002 C 
ENDROOT
BRANCH   1   2
ATOM      2  C   UNL A   1      33.238  28.953  26.962  1.00  0.00     0.021 C 
BRANCH   2   3
ATOM      3  C   UNL A   1      33.748  27.919  25.954  1.00  0.00     0.116 C 
BRANCH   3   4
ATOM      4  N   UNL A   1      34.150  28.496  24.687  1.00  0.00    -0.351 N 
ATOM      5  C   UNL A   1      33.687  28.305  23.421  1.00  0.00     0.275 C 
ATOM      6  O   UNL A   1      34.031  29.142  22.576  1.00  0.00    -0.269 OA
ATOM      7  H   UNL A   1      34.890  29.141  24.755  1.00  0.00     0.163 HD
BRANCH   5   8
ATOM      8  C   UNL A   1      32.768  27.144  23.029  1.00  0.00     0.363 C 
BRANCH   8   9
ATOM      9  N   UNL A   1      31.315  27.421  23.001  1.00  0.00    -0.324 N 
ATOM     10  H   UNL A   1      30.986  27.145  22.075  1.00  0.00     0.348 HD
BRANCH   9  11
ATOM     11  C   UNL A   1      31.001  28.835  22.970  1.00  0.00     0.290 C 
BRANCH  11  12
ATOM     12  C   UNL A   1      29.590  29.250  23.257  1.00  0.00     0.025 C 
ATOM     13  C   UNL A   1      29.190  30.530  23.310  1.00  0.00     0.010 C 
ENDBRANCH  11  12
ENDBRANCH   9  11
BRANCH   9  14
ATOM     14  C   UNL A   1      30.422  26.457  23.661  1.00  0.00     0.266 C 
BRANCH  14  15
ATOM     15  C   UNL A   1      31.009  25.236  24.413  1.00  0.00     0.044 C 
ATOM     16  C   UNL A   1      30.448  25.068  25.821  1.00  0.00     0.009 C 
ATOM     17  C   UNL A   1      30.814  23.914  23.647  1.00  0.00     0.012 C 
ATOM     18  C   UNL A   1      31.122  23.935  26.582  1.00  0.00     0.001 C 
ATOM     19  C   UNL A   1      31.484  22.725  24.373  1.00  0.00    -0.014 C 
ATOM     20  C   UNL A   1      30.991  22.620  25.824  1.00  0.00     0.003 C 
ATOM     21  C   UNL A   1      33.016  22.808  24.318  1.00  0.00     0.007 C 
ENDBRANCH  14  15
ENDBRANCH   9  14
ENDBRANCH   8   9
ENDBRANCH   5   8
ENDBRANCH   3   4
ENDBRANCH   2   3
ENDBRANCH   1   2
BRANCH   1  22
ATOM     22  C   UNL A   1      31.769  30.819  26.005  1.00  0.00     0.002 C 
BRANCH  22  23
ATOM     23  C   UNL A   1      31.468  32.007  26.922  1.00  0.00     0.021 C 
BRANCH  23  24
ATOM     24  C   UNL A   1      32.709  32.711  27.462  1.00  0.00     0.116 C 
BRANCH  24  25
ATOM     25  N   UNL A   1      32.477  34.138  27.618  1.00  0.00    -0.352 N 
ATOM     26  C   UNL A   1      33.008  34.969  28.573  1.00  0.00     0.251 C 
ATOM     27  H   UNL A   1      31.872  34.556  26.965  1.00  0.00     0.163 HD
ATOM     28  O   UNL A   1      32.533  36.080  28.792  1.00  0.00    -0.269 OA
BRANCH  26  29
ATOM     29  C   UNL A   1      34.168  34.489  29.344  1.00  0.00     0.039 A 
ATOM     30  C   UNL A   1      33.973  33.877  30.583  1.00  0.00     0.014 A 
ATOM     31  C   UNL A   1      35.447  34.595  28.790  1.00  0.00     0.014 A 
ATOM     32  C   UNL A   1      35.067  33.320  31.249  1.00  0.00     0.010 A 
ATOM     33  C   UNL A   1      36.517  33.970  29.415  1.00  0.00     0.010 A 
ATOM     34  C   UNL A   1      36.340  33.337  30.656  1.00  0.00    -0.014 A 
BRANCH  34  35
ATOM     35  C   UNL A   1      37.523  32.735  31.320  1.00  0.00     0.031 A 
ATOM     36  C   UNL A   1      38.244  31.601  30.647  1.00  0.00     0.074 A 
ATOM     37  C   UNL A   1      37.893  33.143  32.548  1.00  0.00     0.049 A 
ATOM     38  N   UNL A   1      39.205  30.838  31.105  1.00  0.00    -0.248 NA
ATOM     39  C   UNL A   1      37.801  31.256  29.286  1.00  0.00     0.031 C 
ATOM     40  C   UNL A   1      37.257  34.215  33.313  1.00  0.00     0.029 A 
ATOM     41  N   UNL A   1      38.887  32.686  33.380  1.00  0.00    -0.354 N 
ATOM     42  C   UNL A   1      39.462  29.916  30.099  1.00  0.00     0.074 A 
ATOM     43  C   UNL A   1      38.519  30.172  29.034  1.00  0.00     0.031 C 
ATOM     44  C   UNL A   1      37.885  34.346  34.493  1.00  0.00     0.029 A 
ATOM     45  C   UNL A   1      38.934  33.334  34.590  1.00  0.00     0.049 A 
ATOM     46  H   UNL A   1      39.506  31.963  33.132  1.00  0.00     0.167 HD
ATOM     47  C   UNL A   1      40.416  28.956  30.058  1.00  0.00     0.037 A 
ATOM     48  C   UNL A   1      39.724  33.123  35.660  1.00  0.00     0.037 A 
ATOM     49  C   UNL A   1      41.365  28.721  31.114  1.00  0.00     0.049 A 
ATOM     50  C   UNL A   1      40.754  32.025  35.606  1.00  0.00     0.074 A 
ATOM     51  C   UNL A   1      42.399  27.803  31.155  1.00  0.00     0.029 A 
ATOM     52  N   UNL A   1      41.390  29.409  32.319  1.00  0.00    -0.354 N 
ATOM     53  N   UNL A   1      41.024  31.190  34.631  1.00  0.00    -0.248 NA
ATOM     54  C   UNL A   1      41.590  31.839  36.800  1.00  0.00     0.031 C 
ATOM     55  C   UNL A   1      43.016  27.899  32.406  1.00  0.00     0.029 A 
ATOM     56  C   UNL A   1      42.408  28.920  33.119  1.00  0.00     0.049 A 
ATOM     57  H   UNL A   1      40.774  30.136  32.568  1.00  0.00     0.167 HD
ATOM     58  C   UNL A   1      42.087  30.413  35.075  1.00  0.00     0.074 A 
ATOM     59  C   UNL A   1      42.412  30.875  36.408  1.00  0.00     0.031 C 
ATOM     60  C   UNL A   1      42.736  29.411  34.434  1.00  0.00     0.037 A 
BRANCH  47  61
ATOM     61  C   UNL A   1      40.476  28.088  28.834  1.00  0.00     0.064 A 
ATOM     62  C   UNL A   1      41.225  28.455  27.705  1.00  0.00     0.173 A 
ATOM     63  C   UNL A   1      39.792  26.863  28.795  1.00  0.00     0.173 A 
ATOM     64  F   UNL A   1      41.888  29.621  27.684  1.00  0.00    -0.203 F 
ATOM     65  C   UNL A   1      41.257  27.647  26.570  1.00  0.00     0.198 A 
ATOM     66  C   UNL A   1      39.857  26.041  27.673  1.00  0.00     0.198 A 
ATOM     67  F   UNL A   1      39.065  26.460  29.848  1.00  0.00    -0.203 F 
ATOM     68  F   UNL A   1      41.929  28.049  25.483  1.00  0.00    -0.200 F 
ATOM     69  C   UNL A   1      40.580  26.438  26.559  1.00  0.00     0.200 A 
ATOM     70  F   UNL A   1      39.215  24.865  27.669  1.00  0.00    -0.200 F 
ATOM     71  F   UNL A   1      40.617  25.659  25.470  1.00  0.00    -0.200 F 
ENDBRANCH  47  61
BRANCH  48  72
ATOM     72  C   UNL A   1      39.588  33.979  36.869  1.00  0.00     0.064 A 
ATOM     73  C   UNL A   1      40.242  35.216  36.949  1.00  0.00     0.173 A 
ATOM     74  C   UNL A   1      38.813  33.580  37.968  1.00  0.00     0.173 A 
ATOM     75  F   UNL A   1      41.011  35.634  35.933  1.00  0.00    -0.203 F 
ATOM     76  C   UNL A   1      40.146  36.010  38.091  1.00  0.00     0.198 A 
ATOM     77  C   UNL A   1      38.692  34.389  39.097  1.00  0.00     0.198 A 
ATOM     78  F   UNL A   1      38.160  32.409  37.941  1.00  0.00    -0.203 F 
ATOM     79  F   UNL A   1      40.823  37.165  38.160  1.00  0.00    -0.200 F 
ATOM     80  C   UNL A   1      39.367  35.599  39.161  1.00  0.00     0.200 A 
ATOM     81  F   UNL A   1      37.925  33.995  40.122  1.00  0.00    -0.200 F 
ATOM     82  F   UNL A   1      39.273  36.363  40.257  1.00  0.00    -0.200 F 
ENDBRANCH  48  72
BRANCH  60  83
ATOM     83  C   UNL A   1      43.910  28.784  35.130  1.00  0.00     0.064 A 
ATOM     84  C   UNL A   1      45.206  29.306  35.017  1.00  0.00     0.173 A 
ATOM     85  C   UNL A   1      43.714  27.687  35.984  1.00  0.00     0.173 A 
ATOM     86  F   UNL A   1      45.447  30.345  34.203  1.00  0.00    -0.203 F 
ATOM     87  C   UNL A   1      46.266  28.743  35.722  1.00  0.00     0.198 A 
ATOM     88  C   UNL A   1      44.770  27.148  36.712  1.00  0.00     0.198 A 
ATOM     89  F   UNL A   1      42.492  27.154  36.133  1.00  0.00    -0.203 F 
ATOM     90  F   UNL A   1      47.504  29.234  35.571  1.00  0.00    -0.200 F 
ATOM     91  C   UNL A   1      46.046  27.673  36.578  1.00  0.00     0.200 A 
ATOM     92  F   UNL A   1      44.552  26.126  37.552  1.00  0.00    -0.200 F 
ATOM     93  F   UNL A   1      47.065  27.146  37.270  1.00  0.00    -0.200 F 
ENDBRANCH  60  83
ENDBRANCH  34  35
ENDBRANCH  26  29
ENDBRANCH  24  25
ENDBRANCH  23  24
ENDBRANCH  22  23
ENDBRANCH   1  22
TORSDOF 18
ENDMDL
MODEL 3
REMARK VINA RESULT:     -10.7      3.085      8.525
REMARK SMILES C=CC[N@@H+](CC(=O)NCCCCCCNC(=O)c1ccc(-c2c3nc(c(-c4c(F)c(F)c(F)c(F)c4F)c4ccc([nH]4)c(-c4c(F)c(F)c(F)c(F)c4F)c4nc(c(-c5c(F)c(F)c(F)c(F)c5F)c5ccc2[nH]5)C=C4)C=C3)cc1)C[C@H]1CCC[C@H](C)C1
REMARK SMILES IDX 11 1 10 2 9 3 8 4 6 5 7 6 5 8 4 9 3 11 2 12 1 13 81 14 82 15
REMARK SMILES IDX 83 16 88 17 84 18 86 19 85 20 87 21 12 22 13 23 14 24 15 25
REMARK SMILES IDX 16 26 17 28 18 29 19 30 80 31 20 32 79 33 21 34 22 35 23 36
REMARK SMILES IDX 73 37 24 38 78 39 72 40 74 41 25 42 77 43 71 44 70 45 26 47
REMARK SMILES IDX 58 48 38 49 57 50 39 51 42 52 56 53 75 54 40 55 41 56 55 58
REMARK SMILES IDX 76 59 43 60 27 61 28 62 36 63 29 64 30 65 34 66 37 67 31 68
REMARK SMILES IDX 32 69 35 70 33 71 59 72 60 73 68 74 61 75 62 76 66 77 69 78
REMARK SMILES IDX 63 79 64 80 67 81 65 82 44 83 45 84 53 85 46 86 47 87 51 88
REMARK SMILES IDX 54 89 48 90 49 91 52 92 50 93
REMARK H PARENT 8 7 4 10 15 27 74 46 42 57
REMARK Flexibility Score: inf
ROOT
ATOM      1  C   UNL A   1      35.100  21.033  24.867  1.00  0.00     0.002 C 
ENDROOT
BRANCH   1   2
ATOM      2  C   UNL A   1      33.731  20.348  24.821  1.00  0.00     0.021 C 
BRANCH   2   3
ATOM      3  C   UNL A   1      32.533  21.290  24.677  1.00  0.00     0.116 C 
BRANCH   3   4
ATOM      4  N   UNL A   1      31.934  21.660  25.943  1.00  0.00    -0.351 N 
ATOM      5  C   UNL A   1      32.072  22.773  26.717  1.00  0.00     0.275 C 
ATOM      6  O   UNL A   1      31.223  22.937  27.603  1.00  0.00    -0.269 OA
ATOM      7  H   UNL A   1      31.315  20.987  26.309  1.00  0.00     0.163 HD
BRANCH   5   8
ATOM      8  C   UNL A   1      33.190  23.800  26.517  1.00  0.00     0.363 C 
BRANCH   8   9
ATOM      9  N   UNL A   1      32.835  25.044  25.799  1.00  0.00    -0.324 N 
ATOM     10  H   UNL A   1      32.416  25.667  26.490  1.00  0.00     0.348 HD
BRANCH   9  11
ATOM     11  C   UNL A   1      31.718  24.883  24.891  1.00  0.00     0.290 C 
BRANCH  11  12
ATOM     12  C   UNL A   1      30.446  25.610  25.204  1.00  0.00     0.025 C 
ATOM     13  C   UNL A   1      29.714  26.254  24.281  1.00  0.00     0.010 C 
ENDBRANCH  11  12
ENDBRANCH   9  11
BRANCH   9  14
ATOM     14  C   UNL A   1      33.914  26.002  25.517  1.00  0.00     0.266 C 
BRANCH  14  15
ATOM     15  C   UNL A   1      33.672  27.523  25.686  1.00  0.00     0.044 C 
ATOM     16  C   UNL A   1      32.999  28.165  24.478  1.00  0.00     0.009 C 
ATOM     17  C   UNL A   1      32.847  27.859  26.943  1.00  0.00     0.012 C 
ATOM     18  C   UNL A   1      32.877  29.676  24.617  1.00  0.00     0.001 C 
ATOM     19  C   UNL A   1      32.695  29.386  27.138  1.00  0.00    -0.014 C 
ATOM     20  C   UNL A   1      32.109  30.044  25.880  1.00  0.00     0.003 C 
ATOM     21  C   UNL A   1      34.020  30.049  27.539  1.00  0.00     0.007 C 
ENDBRANCH  14  15
ENDBRANCH   9  14
ENDBRANCH   8   9
ENDBRANCH   5   8
ENDBRANCH   3   4
ENDBRANCH   2   3
ENDBRANCH   1   2
BRANCH   1  22
ATOM     22  C   UNL A   1      35.188  22.289  24.003  1.00  0.00     0.002 C 
BRANCH  22  23
ATOM     23  C   UNL A   1      36.545  22.997  24.043  1.00  0.00     0.021 C 
BRANCH  23  24
ATOM     24  C   UNL A   1      37.018  23.364  25.446  1.00  0.00     0.116 C 
BRANCH  24  25
ATOM     25  N   UNL A   1      37.999  22.409  25.936  1.00  0.00    -0.352 N 
ATOM     26  C   UNL A   1      39.220  22.683  26.500  1.00  0.00     0.251 C 
ATOM     27  H   UNL A   1      37.760  21.458  25.856  1.00  0.00     0.163 HD
ATOM     28  O   UNL A   1      40.083  21.818  26.615  1.00  0.00    -0.269 OA
BRANCH  26  29
ATOM     29  C   UNL A   1      39.479  24.059  26.962  1.00  0.00     0.039 A 
ATOM     30  C   UNL A   1      39.150  24.426  28.268  1.00  0.00     0.014 A 
ATOM     31  C   UNL A   1      40.114  24.960  26.102  1.00  0.00     0.014 A 
ATOM     32  C   UNL A   1      39.508  25.694  28.730  1.00  0.00     0.010 A 
ATOM     33  C   UNL A   1      40.539  26.187  26.590  1.00  0.00     0.010 A 
ATOM     34  C   UNL A   1      40.230  26.571  27.905  1.00  0.00    -0.014 A 
BRANCH  34  35
ATOM     35  C   UNL A   1      40.649  27.918  28.367  1.00  0.00     0.031 A 
ATOM     36  C   UNL A   1      42.101  28.173  28.662  1.00  0.00     0.074 A 
ATOM     37  C   UNL A   1      39.729  28.873  28.600  1.00  0.00     0.049 A 
ATOM     38  N   UNL A   1      42.667  29.221  29.208  1.00  0.00    -0.248 NA
ATOM     39  C   UNL A   1      43.039  27.088  28.331  1.00  0.00     0.031 C 
ATOM     40  C   UNL A   1      38.291  28.737  28.377  1.00  0.00     0.029 A 
ATOM     41  N   UNL A   1      39.869  30.145  29.100  1.00  0.00    -0.354 N 
ATOM     42  C   UNL A   1      44.017  28.910  29.302  1.00  0.00     0.074 A 
ATOM     43  C   UNL A   1      44.178  27.558  28.816  1.00  0.00     0.031 C 
ATOM     44  C   UNL A   1      37.682  29.883  28.721  1.00  0.00     0.029 A 
ATOM     45  C   UNL A   1      38.679  30.817  29.236  1.00  0.00     0.049 A 
ATOM     46  H   UNL A   1      40.740  30.537  29.337  1.00  0.00     0.167 HD
ATOM     47  C   UNL A   1      45.035  29.692  29.732  1.00  0.00     0.037 A 
ATOM     48  C   UNL A   1      38.424  32.042  29.737  1.00  0.00     0.037 A 
ATOM     49  C   UNL A   1      44.868  31.044  30.193  1.00  0.00     0.049 A 
ATOM     50  C   UNL A   1      39.568  32.880  30.244  1.00  0.00     0.074 A 
ATOM     51  C   UNL A   1      45.838  31.938  30.610  1.00  0.00     0.029 A 
ATOM     52  N   UNL A   1      43.648  31.696  30.303  1.00  0.00    -0.354 N 
ATOM     53  N   UNL A   1      40.848  32.597  30.282  1.00  0.00    -0.248 NA
ATOM     54  C   UNL A   1      39.233  34.208  30.777  1.00  0.00     0.031 C 
ATOM     55  C   UNL A   1      45.200  33.112  31.024  1.00  0.00     0.029 A 
ATOM     56  C   UNL A   1      43.839  32.973  30.802  1.00  0.00     0.049 A 
ATOM     57  H   UNL A   1      42.776  31.307  30.061  1.00  0.00     0.167 HD
ATOM     58  C   UNL A   1      41.474  33.725  30.799  1.00  0.00     0.074 A 
ATOM     59  C   UNL A   1      40.433  34.696  31.061  1.00  0.00     0.031 C 
ATOM     60  C   UNL A   1      42.792  33.937  31.031  1.00  0.00     0.037 A 
BRANCH  47  61
ATOM     61  C   UNL A   1      46.415  29.101  29.725  1.00  0.00     0.064 A 
ATOM     62  C   UNL A   1      46.940  28.438  30.846  1.00  0.00     0.173 A 
ATOM     63  C   UNL A   1      47.218  29.179  28.576  1.00  0.00     0.173 A 
ATOM     64  F   UNL A   1      46.220  28.345  31.974  1.00  0.00    -0.203 F 
ATOM     65  C   UNL A   1      48.229  27.909  30.830  1.00  0.00     0.198 A 
ATOM     66  C   UNL A   1      48.491  28.616  28.552  1.00  0.00     0.198 A 
ATOM     67  F   UNL A   1      46.765  29.795  27.475  1.00  0.00    -0.203 F 
ATOM     68  F   UNL A   1      48.729  27.336  31.932  1.00  0.00    -0.200 F 
ATOM     69  C   UNL A   1      49.000  27.992  29.681  1.00  0.00     0.200 A 
ATOM     70  F   UNL A   1      49.229  28.683  27.435  1.00  0.00    -0.200 F 
ATOM     71  F   UNL A   1      50.236  27.478  29.665  1.00  0.00    -0.200 F 
ENDBRANCH  47  61
BRANCH  48  72
ATOM     72  C   UNL A   1      37.030  32.559  29.767  1.00  0.00     0.064 A 
ATOM     73  C   UNL A   1      36.497  33.251  28.670  1.00  0.00     0.173 A 
ATOM     74  C   UNL A   1      36.205  32.383  30.889  1.00  0.00     0.173 A 
ATOM     75  F   UNL A   1      37.251  33.462  27.582  1.00  0.00    -0.203 F 
ATOM     76  C   UNL A   1      35.202  33.767  28.703  1.00  0.00     0.198 A 
ATOM     77  C   UNL A   1      34.900  32.872  30.908  1.00  0.00     0.198 A 
ATOM     78  F   UNL A   1      36.663  31.723  31.962  1.00  0.00    -0.203 F 
ATOM     79  F   UNL A   1      34.737  34.468  27.659  1.00  0.00    -0.200 F 
ATOM     80  C   UNL A   1      34.404  33.573  29.819  1.00  0.00     0.200 A 
ATOM     81  F   UNL A   1      34.126  32.668  31.982  1.00  0.00    -0.200 F 
ATOM     82  F   UNL A   1      33.159  34.067  29.849  1.00  0.00    -0.200 F 
ENDBRANCH  48  72
BRANCH  60  83
ATOM     83  C   UNL A   1      43.203  35.291  31.533  1.00  0.00     0.064 A 
ATOM     84  C   UNL A   1      43.600  36.317  30.664  1.00  0.00     0.173 A 
ATOM     85  C   UNL A   1      43.121  35.585  32.904  1.00  0.00     0.173 A 
ATOM     86  F   UNL A   1      43.706  36.083  29.347  1.00  0.00    -0.203 F 
ATOM     87  C   UNL A   1      43.915  37.583  31.151  1.00  0.00     0.198 A 
ATOM     88  C   UNL A   1      43.405  36.860  33.382  1.00  0.00     0.198 A 
ATOM     89  F   UNL A   1      42.740  34.641  33.777  1.00  0.00    -0.203 F 
ATOM     90  F   UNL A   1      44.329  38.538  30.307  1.00  0.00    -0.200 F 
ATOM     91  C   UNL A   1      43.806  37.857  32.506  1.00  0.00     0.200 A 
ATOM     92  F   UNL A   1      43.283  37.128  34.690  1.00  0.00    -0.200 F 
ATOM     93  F   UNL A   1      44.092  39.082  32.968  1.00  0.00    -0.200 F 
ENDBRANCH  60  83
ENDBRANCH  34  35
ENDBRANCH  26  29
ENDBRANCH  24  25
ENDBRANCH  23  24
ENDBRANCH  22  23
ENDBRANCH   1  22
TORSDOF 18
ENDMDL
