MODEL 1
REMARK VINA RESULT:     -12.2      0.000      0.000
REMARK SMILES CC1=C(C(=O)NCCCCCCNC(=O)c2ccc(-c3c4nc(c(-c5c(F)c(F)c(F)c(F)c5F)c5ccc([nH]5)c(-c5c(F)c(F)c(F)c(F)c5F)c5nc(c(-c6c(F)c(F)c(F)c(F)c6F)c6ccc3[nH]6)C=C5)C=C4)cc2)N2C(=O)[C@H](NC(=O)c3c(Cl)c(C(F)(F)F)nn3C)[C@@H]2SC1
REMARK SMILES IDX 9 1 8 2 7 3 6 4 4 5 5 6 3 8 1 9 2 10 99 11 79 12 98 13 80 14
REMARK SMILES IDX 97 15 81 16 82 17 83 18 84 19 85 21 86 22 87 23 95 24 88 25
REMARK SMILES IDX 89 26 94 27 96 28 90 29 91 30 92 31 93 32 10 33 11 34 12 35
REMARK SMILES IDX 13 36 14 37 15 39 16 40 17 41 78 42 18 43 77 44 19 45 20 46
REMARK SMILES IDX 21 47 71 48 22 49 76 50 70 51 72 52 23 53 75 54 69 55 68 56
REMARK SMILES IDX 24 58 56 59 36 60 55 61 37 62 40 63 54 64 73 65 38 66 39 67
REMARK SMILES IDX 53 69 74 70 41 71 25 72 26 73 34 74 27 75 28 76 32 77 35 78
REMARK SMILES IDX 29 79 30 80 33 81 31 82 57 83 58 84 66 85 59 86 60 87 64 88
REMARK SMILES IDX 67 89 61 90 62 91 65 92 63 93 42 94 43 95 51 96 44 97 45 98
REMARK SMILES IDX 49 99 52 100 46 101 47 102 50 103 48 104
REMARK H PARENT 6 7 83 20 13 38 72 57 40 68
REMARK Flexibility Score: inf
ROOT
ATOM      1  C   UNL A   1      34.877  32.547  28.712  1.00  0.00     0.002 C 
ENDROOT
BRANCH   1   2
ATOM      2  C   UNL A   1      33.914  31.628  27.958  1.00  0.00     0.021 C 
BRANCH   2   3
ATOM      3  C   UNL A   1      34.559  30.340  27.424  1.00  0.00     0.116 C 
BRANCH   3   4
ATOM      4  N   UNL A   1      33.738  29.218  27.817  1.00  0.00    -0.351 N 
ATOM      5  C   UNL A   1      32.586  28.707  27.322  1.00  0.00     0.268 C 
ATOM      6  O   UNL A   1      31.922  27.991  28.080  1.00  0.00    -0.268 OA
ATOM      7  H   UNL A   1      34.084  28.730  28.599  1.00  0.00     0.163 HD
BRANCH   5   8
ATOM      8  C   UNL A   1      32.096  28.888  25.901  1.00  0.00     0.110 C 
ATOM      9  C   UNL A   1      30.976  31.173  26.052  1.00  0.00     0.043 C 
ATOM     10  C   UNL A   1      31.424  29.928  25.340  1.00  0.00    -0.034 C 
ATOM     11  C   UNL A   1      30.947  29.969  23.888  1.00  0.00     0.104 C 
ATOM     12  N   UNL A   1      32.195  27.742  25.167  1.00  0.00    -0.290 N 
ATOM     13  S   UNL A   1      31.361  28.546  22.852  1.00  0.00    -0.129 SA
ATOM     14  C   UNL A   1      32.903  26.593  25.157  1.00  0.00     0.253 C 
ATOM     15  C   UNL A   1      31.192  27.360  24.212  1.00  0.00     0.181 C 
ATOM     16  O   UNL A   1      33.913  26.242  25.716  1.00  0.00    -0.272 OA
ATOM     17  C   UNL A   1      31.928  25.993  24.082  1.00  0.00     0.206 C 
BRANCH  17  18
ATOM     18  N   UNL A   1      32.493  25.686  22.748  1.00  0.00    -0.336 N 
ATOM     19  C   UNL A   1      33.045  24.521  22.277  1.00  0.00     0.271 C 
ATOM     20  H   UNL A   1      32.470  26.430  22.104  1.00  0.00     0.164 HD
ATOM     21  O   UNL A   1      33.410  24.491  21.106  1.00  0.00    -0.267 OA
BRANCH  19  22
ATOM     22  C   UNL A   1      33.207  23.404  23.167  1.00  0.00     0.145 A 
ATOM     23  C   UNL A   1      34.393  22.817  23.571  1.00  0.00     0.104 A 
ATOM     24  N   UNL A   1      32.232  22.591  23.684  1.00  0.00    -0.261 N 
ATOM     25  Cl  UNL A   1      35.975  23.287  23.168  1.00  0.00    -0.079 Cl
ATOM     26  C   UNL A   1      34.039  21.734  24.412  1.00  0.00     0.185 A 
ATOM     27  N   UNL A   1      32.697  21.639  24.514  1.00  0.00    -0.166 NA
ATOM     28  C   UNL A   1      30.815  22.594  23.409  1.00  0.00     0.174 C 
BRANCH  26  29
ATOM     29  C   UNL A   1      34.986  20.792  25.098  1.00  0.00     0.436 C 
ATOM     30  F   UNL A   1      35.163  21.120  26.406  1.00  0.00    -0.164 F 
ATOM     31  F   UNL A   1      34.533  19.510  25.076  1.00  0.00    -0.164 F 
ATOM     32  F   UNL A   1      36.224  20.770  24.535  1.00  0.00    -0.164 F 
ENDBRANCH  26  29
ENDBRANCH  19  22
ENDBRANCH  17  18
ENDBRANCH   5   8
ENDBRANCH   3   4
ENDBRANCH   2   3
ENDBRANCH   1   2
BRANCH   1  33
ATOM     33  C   UNL A   1      34.693  34.034  28.403  1.00  0.00     0.002 C 
BRANCH  33  34
ATOM     34  C   UNL A   1      33.313  34.601  28.753  1.00  0.00     0.021 C 
BRANCH  34  35
ATOM     35  C   UNL A   1      33.330  36.027  29.295  1.00  0.00     0.116 C 
BRANCH  35  36
ATOM     36  N   UNL A   1      32.556  36.141  30.521  1.00  0.00    -0.352 N 
ATOM     37  C   UNL A   1      32.707  35.486  31.714  1.00  0.00     0.251 C 
ATOM     38  H   UNL A   1      31.811  36.784  30.487  1.00  0.00     0.163 HD
ATOM     39  O   UNL A   1      31.795  35.490  32.536  1.00  0.00    -0.269 OA
BRANCH  37  40
ATOM     40  C   UNL A   1      33.968  34.779  32.025  1.00  0.00     0.039 A 
ATOM     41  C   UNL A   1      33.923  33.411  32.303  1.00  0.00     0.014 A 
ATOM     42  C   UNL A   1      35.181  35.470  32.106  1.00  0.00     0.014 A 
ATOM     43  C   UNL A   1      35.097  32.733  32.636  1.00  0.00     0.010 A 
ATOM     44  C   UNL A   1      36.362  34.778  32.358  1.00  0.00     0.010 A 
ATOM     45  C   UNL A   1      36.329  33.407  32.650  1.00  0.00    -0.014 A 
BRANCH  45  46
ATOM     46  C   UNL A   1      37.581  32.692  33.003  1.00  0.00     0.031 A 
ATOM     47  C   UNL A   1      38.287  32.993  34.297  1.00  0.00     0.074 A 
ATOM     48  C   UNL A   1      38.096  31.792  32.144  1.00  0.00     0.049 A 
ATOM     49  N   UNL A   1      39.391  32.476  34.779  1.00  0.00    -0.248 NA
ATOM     50  C   UNL A   1      37.691  34.030  35.153  1.00  0.00     0.031 C 
ATOM     51  C   UNL A   1      37.531  31.454  30.837  1.00  0.00     0.029 A 
ATOM     52  N   UNL A   1      39.209  30.995  32.242  1.00  0.00    -0.354 N 
ATOM     53  C   UNL A   1      39.620  33.130  35.983  1.00  0.00     0.074 A 
ATOM     54  C   UNL A   1      38.581  34.125  36.128  1.00  0.00     0.031 C 
ATOM     55  C   UNL A   1      38.281  30.496  30.269  1.00  0.00     0.029 A 
ATOM     56  C   UNL A   1      39.396  30.177  31.156  1.00  0.00     0.049 A 
ATOM     57  H   UNL A   1      39.816  31.010  33.017  1.00  0.00     0.167 HD
ATOM     58  C   UNL A   1      40.593  32.900  36.899  1.00  0.00     0.037 A 
ATOM     59  C   UNL A   1      40.357  29.269  30.906  1.00  0.00     0.037 A 
ATOM     60  C   UNL A   1      41.612  31.894  36.758  1.00  0.00     0.049 A 
ATOM     61  C   UNL A   1      41.424  29.032  31.941  1.00  0.00     0.074 A 
ATOM     62  C   UNL A   1      42.611  31.544  37.650  1.00  0.00     0.029 A 
ATOM     63  N   UNL A   1      41.765  31.076  35.648  1.00  0.00    -0.354 N 
ATOM     64  N   UNL A   1      41.589  29.604  33.109  1.00  0.00    -0.248 NA
ATOM     65  C   UNL A   1      42.432  28.011  31.626  1.00  0.00     0.031 C 
ATOM     66  C   UNL A   1      43.398  30.550  37.058  1.00  0.00     0.029 A 
ATOM     67  C   UNL A   1      42.855  30.238  35.822  1.00  0.00     0.049 A 
ATOM     68  H   UNL A   1      41.184  31.087  34.853  1.00  0.00     0.167 HD
ATOM     69  C   UNL A   1      42.699  28.996  33.680  1.00  0.00     0.074 A 
ATOM     70  C   UNL A   1      43.152  27.992  32.738  1.00  0.00     0.031 C 
ATOM     71  C   UNL A   1      43.294  29.246  34.872  1.00  0.00     0.037 A 
BRANCH  58  72
ATOM     72  C   UNL A   1      40.597  33.756  38.135  1.00  0.00     0.064 A 
ATOM     73  C   UNL A   1      41.420  34.888  38.247  1.00  0.00     0.173 A 
ATOM     74  C   UNL A   1      39.747  33.457  39.210  1.00  0.00     0.173 A 
ATOM     75  F   UNL A   1      42.261  35.211  37.253  1.00  0.00    -0.203 F 
ATOM     76  C   UNL A   1      41.416  35.668  39.400  1.00  0.00     0.198 A 
ATOM     77  C   UNL A   1      39.721  34.260  40.349  1.00  0.00     0.198 A 
ATOM     78  F   UNL A   1      38.935  32.391  39.157  1.00  0.00    -0.203 F 
ATOM     79  F   UNL A   1      42.252  36.710  39.505  1.00  0.00    -0.200 F 
ATOM     80  C   UNL A   1      40.561  35.358  40.447  1.00  0.00     0.200 A 
ATOM     81  F   UNL A   1      38.884  33.966  41.354  1.00  0.00    -0.200 F 
ATOM     82  F   UNL A   1      40.553  36.113  41.554  1.00  0.00    -0.200 F 
ENDBRANCH  58  72
BRANCH  59  83
ATOM     83  C   UNL A   1      40.338  28.492  29.639  1.00  0.00     0.064 A 
ATOM     84  C   UNL A   1      39.623  27.290  29.540  1.00  0.00     0.173 A 
ATOM     85  C   UNL A   1      41.040  28.929  28.505  1.00  0.00     0.173 A 
ATOM     86  F   UNL A   1      38.951  26.822  30.601  1.00  0.00    -0.203 F 
ATOM     87  C   UNL A   1      39.633  26.541  28.364  1.00  0.00     0.198 A 
ATOM     88  C   UNL A   1      41.023  28.195  27.321  1.00  0.00     0.198 A 
ATOM     89  F   UNL A   1      41.734  30.076  28.545  1.00  0.00    -0.203 F 
ATOM     90  F   UNL A   1      38.984  25.370  28.314  1.00  0.00    -0.200 F 
ATOM     91  C   UNL A   1      40.328  26.997  27.254  1.00  0.00     0.200 A 
ATOM     92  F   UNL A   1      41.682  28.647  26.245  1.00  0.00    -0.200 F 
ATOM     93  F   UNL A   1      40.336  26.277  26.124  1.00  0.00    -0.200 F 
ENDBRANCH  59  83
BRANCH  71  94
ATOM     94  C   UNL A   1      44.481  28.398  35.235  1.00  0.00     0.064 A 
ATOM     95  C   UNL A   1      44.336  27.179  35.915  1.00  0.00     0.173 A 
ATOM     96  C   UNL A   1      45.778  28.805  34.889  1.00  0.00     0.173 A 
ATOM     97  F   UNL A   1      43.118  26.750  36.280  1.00  0.00    -0.203 F 
ATOM     98  C   UNL A   1      45.449  26.423  36.275  1.00  0.00     0.198 A 
ATOM     99  C   UNL A   1      46.886  28.029  35.217  1.00  0.00     0.198 A 
ATOM    100  F   UNL A   1      45.973  29.958  34.230  1.00  0.00    -0.203 F 
ATOM    101  F   UNL A   1      45.290  25.297  36.983  1.00  0.00    -0.200 F 
ATOM    102  C   UNL A   1      46.721  26.846  35.921  1.00  0.00     0.200 A 
ATOM    103  F   UNL A   1      48.113  28.430  34.860  1.00  0.00    -0.200 F 
ATOM    104  F   UNL A   1      47.791  26.116  36.268  1.00  0.00    -0.200 F 
ENDBRANCH  71  94
ENDBRANCH  45  46
ENDBRANCH  37  40
ENDBRANCH  35  36
ENDBRANCH  34  35
ENDBRANCH  33  34
ENDBRANCH   1  33
TORSDOF 16
ENDMDL
MODEL 2
REMARK VINA RESULT:     -12.1      6.029     11.511
REMARK SMILES CC1=C(C(=O)NCCCCCCNC(=O)c2ccc(-c3c4nc(c(-c5c(F)c(F)c(F)c(F)c5F)c5ccc([nH]5)c(-c5c(F)c(F)c(F)c(F)c5F)c5nc(c(-c6c(F)c(F)c(F)c(F)c6F)c6ccc3[nH]6)C=C5)C=C4)cc2)N2C(=O)[C@H](NC(=O)c3c(Cl)c(C(F)(F)F)nn3C)[C@@H]2SC1
REMARK SMILES IDX 9 1 8 2 7 3 6 4 4 5 5 6 3 8 1 9 2 10 99 11 79 12 98 13 80 14
REMARK SMILES IDX 97 15 81 16 82 17 83 18 84 19 85 21 86 22 87 23 95 24 88 25
REMARK SMILES IDX 89 26 94 27 96 28 90 29 91 30 92 31 93 32 10 33 11 34 12 35
REMARK SMILES IDX 13 36 14 37 15 39 16 40 17 41 78 42 18 43 77 44 19 45 20 46
REMARK SMILES IDX 21 47 71 48 22 49 76 50 70 51 72 52 23 53 75 54 69 55 68 56
REMARK SMILES IDX 24 58 56 59 36 60 55 61 37 62 40 63 54 64 73 65 38 66 39 67
REMARK SMILES IDX 53 69 74 70 41 71 25 72 26 73 34 74 27 75 28 76 32 77 35 78
REMARK SMILES IDX 29 79 30 80 33 81 31 82 57 83 58 84 66 85 59 86 60 87 64 88
REMARK SMILES IDX 67 89 61 90 62 91 65 92 63 93 42 94 43 95 51 96 44 97 45 98
REMARK SMILES IDX 49 99 52 100 46 101 47 102 50 103 48 104
REMARK H PARENT 6 7 83 20 13 38 72 57 40 68
REMARK Flexibility Score: inf
ROOT
ATOM      1  C   UNL A   1      39.371  22.257  26.130  1.00  0.00     0.002 C 
ENDROOT
BRANCH   1   2
ATOM      2  C   UNL A   1      38.179  21.499  25.542  1.00  0.00     0.021 C 
BRANCH   2   3
ATOM      3  C   UNL A   1      36.874  22.307  25.506  1.00  0.00     0.116 C 
BRANCH   3   4
ATOM      4  N   UNL A   1      35.965  21.759  26.486  1.00  0.00    -0.351 N 
ATOM      5  C   UNL A   1      34.621  21.593  26.499  1.00  0.00     0.268 C 
ATOM      6  O   UNL A   1      34.086  21.454  27.604  1.00  0.00    -0.268 OA
ATOM      7  H   UNL A   1      36.410  21.446  27.306  1.00  0.00     0.163 HD
BRANCH   5   8
ATOM      8  C   UNL A   1      33.747  21.493  25.266  1.00  0.00     0.110 C 
ATOM      9  C   UNL A   1      33.835  18.988  24.802  1.00  0.00     0.043 C 
ATOM     10  C   UNL A   1      33.392  20.399  24.540  1.00  0.00    -0.034 C 
ATOM     11  C   UNL A   1      32.528  20.440  23.279  1.00  0.00     0.104 C 
ATOM     12  N   UNL A   1      33.456  22.715  24.734  1.00  0.00    -0.290 N 
ATOM     13  S   UNL A   1      31.906  22.059  22.768  1.00  0.00    -0.129 SA
ATOM     14  C   UNL A   1      33.381  24.006  25.121  1.00  0.00     0.253 C 
ATOM     15  C   UNL A   1      33.395  22.933  23.316  1.00  0.00     0.181 C 
ATOM     16  O   UNL A   1      33.343  24.542  26.202  1.00  0.00    -0.272 OA
ATOM     17  C   UNL A   1      33.275  24.457  23.621  1.00  0.00     0.206 C 
BRANCH  17  18
ATOM     18  N   UNL A   1      32.014  25.105  23.193  1.00  0.00    -0.336 N 
ATOM     19  C   UNL A   1      31.597  26.402  23.356  1.00  0.00     0.271 C 
ATOM     20  H   UNL A   1      31.381  24.517  22.722  1.00  0.00     0.164 HD
ATOM     21  O   UNL A   1      30.516  26.723  22.870  1.00  0.00    -0.267 OA
BRANCH  19  22
ATOM     22  C   UNL A   1      32.409  27.318  24.109  1.00  0.00     0.145 A 
ATOM     23  C   UNL A   1      32.227  27.722  25.420  1.00  0.00     0.104 A 
ATOM     24  N   UNL A   1      33.440  28.098  23.654  1.00  0.00    -0.261 N 
ATOM     25  Cl  UNL A   1      31.028  27.206  26.507  1.00  0.00    -0.079 Cl
ATOM     26  C   UNL A   1      33.253  28.655  25.699  1.00  0.00     0.185 A 
ATOM     27  N   UNL A   1      34.029  28.839  24.612  1.00  0.00    -0.166 NA
ATOM     28  C   UNL A   1      33.919  28.262  22.302  1.00  0.00     0.174 C 
BRANCH  26  29
ATOM     29  C   UNL A   1      33.475  29.373  26.999  1.00  0.00     0.436 C 
ATOM     30  F   UNL A   1      34.099  28.581  27.913  1.00  0.00    -0.164 F 
ATOM     31  F   UNL A   1      34.254  30.478  26.844  1.00  0.00    -0.164 F 
ATOM     32  F   UNL A   1      32.322  29.799  27.582  1.00  0.00    -0.164 F 
ENDBRANCH  26  29
ENDBRANCH  19  22
ENDBRANCH  17  18
ENDBRANCH   5   8
ENDBRANCH   3   4
ENDBRANCH   2   3
ENDBRANCH   1   2
BRANCH   1  33
ATOM     33  C   UNL A   1      40.402  21.362  26.819  1.00  0.00     0.002 C 
BRANCH  33  34
ATOM     34  C   UNL A   1      40.652  20.015  26.132  1.00  0.00     0.021 C 
BRANCH  34  35
ATOM     35  C   UNL A   1      41.800  19.202  26.723  1.00  0.00     0.116 C 
BRANCH  35  36
ATOM     36  N   UNL A   1      42.784  18.855  25.710  1.00  0.00    -0.352 N 
ATOM     37  C   UNL A   1      43.602  19.668  24.970  1.00  0.00     0.251 C 
ATOM     38  H   UNL A   1      42.874  17.892  25.527  1.00  0.00     0.163 HD
ATOM     39  O   UNL A   1      44.154  19.230  23.965  1.00  0.00    -0.269 OA
BRANCH  37  40
ATOM     40  C   UNL A   1      43.833  21.068  25.382  1.00  0.00     0.039 A 
ATOM     41  C   UNL A   1      44.436  21.318  26.617  1.00  0.00     0.014 A 
ATOM     42  C   UNL A   1      43.399  22.134  24.587  1.00  0.00     0.014 A 
ATOM     43  C   UNL A   1      44.627  22.633  27.041  1.00  0.00     0.010 A 
ATOM     44  C   UNL A   1      43.664  23.445  24.974  1.00  0.00     0.010 A 
ATOM     45  C   UNL A   1      44.259  23.708  26.216  1.00  0.00    -0.014 A 
BRANCH  45  46
ATOM     46  C   UNL A   1      44.461  25.111  26.661  1.00  0.00     0.031 A 
ATOM     47  C   UNL A   1      45.815  25.754  26.547  1.00  0.00     0.074 A 
ATOM     48  C   UNL A   1      43.429  25.794  27.193  1.00  0.00     0.049 A 
ATOM     49  N   UNL A   1      46.189  26.965  26.884  1.00  0.00    -0.248 NA
ATOM     50  C   UNL A   1      46.903  24.923  26.009  1.00  0.00     0.031 C 
ATOM     51  C   UNL A   1      42.083  25.259  27.403  1.00  0.00     0.029 A 
ATOM     52  N   UNL A   1      43.350  27.084  27.652  1.00  0.00    -0.354 N 
ATOM     53  C   UNL A   1      47.548  27.032  26.606  1.00  0.00     0.074 A 
ATOM     54  C   UNL A   1      47.948  25.724  26.136  1.00  0.00     0.031 C 
ATOM     55  C   UNL A   1      41.303  26.224  27.918  1.00  0.00     0.029 A 
ATOM     56  C   UNL A   1      42.102  27.431  28.105  1.00  0.00     0.049 A 
ATOM     57  H   UNL A   1      44.117  27.702  27.657  1.00  0.00     0.167 HD
ATOM     58  C   UNL A   1      48.381  28.097  26.706  1.00  0.00     0.037 A 
ATOM     59  C   UNL A   1      41.653  28.594  28.611  1.00  0.00     0.037 A 
ATOM     60  C   UNL A   1      47.972  29.402  27.155  1.00  0.00     0.049 A 
ATOM     61  C   UNL A   1      42.598  29.761  28.709  1.00  0.00     0.074 A 
ATOM     62  C   UNL A   1      48.723  30.561  27.242  1.00  0.00     0.029 A 
ATOM     63  N   UNL A   1      46.696  29.719  27.597  1.00  0.00    -0.354 N 
ATOM     64  N   UNL A   1      43.863  29.835  28.373  1.00  0.00    -0.248 NA
ATOM     65  C   UNL A   1      42.045  31.013  29.243  1.00  0.00     0.031 C 
ATOM     66  C   UNL A   1      47.916  31.566  27.785  1.00  0.00     0.029 A 
ATOM     67  C   UNL A   1      46.644  31.050  27.980  1.00  0.00     0.049 A 
ATOM     68  H   UNL A   1      45.937  29.092  27.632  1.00  0.00     0.167 HD
ATOM     69  C   UNL A   1      44.251  31.143  28.630  1.00  0.00     0.074 A 
ATOM     70  C   UNL A   1      43.078  31.834  29.125  1.00  0.00     0.031 C 
ATOM     71  C   UNL A   1      45.468  31.722  28.475  1.00  0.00     0.037 A 
BRANCH  58  72
ATOM     72  C   UNL A   1      49.820  27.891  26.320  1.00  0.00     0.064 A 
ATOM     73  C   UNL A   1      50.827  27.729  27.284  1.00  0.00     0.173 A 
ATOM     74  C   UNL A   1      50.192  27.824  24.969  1.00  0.00     0.173 A 
ATOM     75  F   UNL A   1      50.528  27.797  28.590  1.00  0.00    -0.203 F 
ATOM     76  C   UNL A   1      52.156  27.544  26.912  1.00  0.00     0.198 A 
ATOM     77  C   UNL A   1      51.517  27.604  24.600  1.00  0.00     0.198 A 
ATOM     78  F   UNL A   1      49.271  27.966  24.004  1.00  0.00    -0.203 F 
ATOM     79  F   UNL A   1      53.106  27.450  27.851  1.00  0.00    -0.200 F 
ATOM     80  C   UNL A   1      52.498  27.474  25.570  1.00  0.00     0.200 A 
ATOM     81  F   UNL A   1      51.845  27.523  23.302  1.00  0.00    -0.200 F 
ATOM     82  F   UNL A   1      53.777  27.289  25.212  1.00  0.00    -0.200 F 
ENDBRANCH  58  72
BRANCH  59  83
ATOM     83  C   UNL A   1      40.233  28.725  29.033  1.00  0.00     0.064 A 
ATOM     84  C   UNL A   1      39.238  29.087  28.115  1.00  0.00     0.173 A 
ATOM     85  C   UNL A   1      39.844  28.499  30.362  1.00  0.00     0.173 A 
ATOM     86  F   UNL A   1      39.562  29.331  26.837  1.00  0.00    -0.203 F 
ATOM     87  C   UNL A   1      37.911  29.246  28.515  1.00  0.00     0.198 A 
ATOM     88  C   UNL A   1      38.513  28.628  30.753  1.00  0.00     0.198 A 
ATOM     89  F   UNL A   1      40.756  28.143  31.278  1.00  0.00    -0.203 F 
ATOM     90  F   UNL A   1      36.990  29.645  27.628  1.00  0.00    -0.200 F 
ATOM     91  C   UNL A   1      37.550  29.011  29.833  1.00  0.00     0.200 A 
ATOM     92  F   UNL A   1      38.164  28.383  32.024  1.00  0.00    -0.200 F 
ATOM     93  F   UNL A   1      36.275  29.162  30.217  1.00  0.00    -0.200 F 
ENDBRANCH  59  83
BRANCH  71  94
ATOM     94  C   UNL A   1      45.579  33.181  28.816  1.00  0.00     0.064 A 
ATOM     95  C   UNL A   1      45.956  33.612  30.097  1.00  0.00     0.173 A 
ATOM     96  C   UNL A   1      45.313  34.160  27.847  1.00  0.00     0.173 A 
ATOM     97  F   UNL A   1      46.210  32.717  31.064  1.00  0.00    -0.203 F 
ATOM     98  C   UNL A   1      46.020  34.968  30.407  1.00  0.00     0.198 A 
ATOM     99  C   UNL A   1      45.414  35.515  28.150  1.00  0.00     0.198 A 
ATOM    100  F   UNL A   1      44.957  33.803  26.604  1.00  0.00    -0.203 F 
ATOM    101  F   UNL A   1      46.317  35.355  31.655  1.00  0.00    -0.200 F 
ATOM    102  C   UNL A   1      45.754  35.917  29.432  1.00  0.00     0.200 A 
ATOM    103  F   UNL A   1      45.172  36.431  27.202  1.00  0.00    -0.200 F 
ATOM    104  F   UNL A   1      45.815  37.223  29.732  1.00  0.00    -0.200 F 
ENDBRANCH  71  94
ENDBRANCH  45  46
ENDBRANCH  37  40
ENDBRANCH  35  36
ENDBRANCH  34  35
ENDBRANCH  33  34
ENDBRANCH   1  33
TORSDOF 16
ENDMDL
MODEL 3
REMARK VINA RESULT:     -12.0     10.822     14.865
REMARK SMILES CC1=C(C(=O)NCCCCCCNC(=O)c2ccc(-c3c4nc(c(-c5c(F)c(F)c(F)c(F)c5F)c5ccc([nH]5)c(-c5c(F)c(F)c(F)c(F)c5F)c5nc(c(-c6c(F)c(F)c(F)c(F)c6F)c6ccc3[nH]6)C=C5)C=C4)cc2)N2C(=O)[C@H](NC(=O)c3c(Cl)c(C(F)(F)F)nn3C)[C@@H]2SC1
REMARK SMILES IDX 9 1 8 2 7 3 6 4 4 5 5 6 3 8 1 9 2 10 99 11 79 12 98 13 80 14
REMARK SMILES IDX 97 15 81 16 82 17 83 18 84 19 85 21 86 22 87 23 95 24 88 25
REMARK SMILES IDX 89 26 94 27 96 28 90 29 91 30 92 31 93 32 10 33 11 34 12 35
REMARK SMILES IDX 13 36 14 37 15 39 16 40 17 41 78 42 18 43 77 44 19 45 20 46
REMARK SMILES IDX 21 47 71 48 22 49 76 50 70 51 72 52 23 53 75 54 69 55 68 56
REMARK SMILES IDX 24 58 56 59 36 60 55 61 37 62 40 63 54 64 73 65 38 66 39 67
REMARK SMILES IDX 53 69 74 70 41 71 25 72 26 73 34 74 27 75 28 76 32 77 35 78
REMARK SMILES IDX 29 79 30 80 33 81 31 82 57 83 58 84 66 85 59 86 60 87 64 88
REMARK SMILES IDX 67 89 61 90 62 91 65 92 63 93 42 94 43 95 51 96 44 97 45 98
REMARK SMILES IDX 49 99 52 100 46 101 47 102 50 103 48 104
REMARK H PARENT 6 7 83 20 13 38 72 57 40 68
REMARK Flexibility Score: inf
ROOT
ATOM      1  C   UNL A   1      41.369  40.388  27.025  1.00  0.00     0.002 C 
ENDROOT
BRANCH   1   2
ATOM      2  C   UNL A   1      41.531  40.993  25.630  1.00  0.00     0.021 C 
BRANCH   2   3
ATOM      3  C   UNL A   1      42.988  41.258  25.223  1.00  0.00     0.116 C 
BRANCH   3   4
ATOM      4  N   UNL A   1      43.154  42.676  24.999  1.00  0.00    -0.351 N 
ATOM      5  C   UNL A   1      44.119  43.400  24.384  1.00  0.00     0.268 C 
ATOM      6  O   UNL A   1      44.187  44.599  24.674  1.00  0.00    -0.268 OA
ATOM      7  H   UNL A   1      42.422  43.222  25.367  1.00  0.00     0.163 HD
BRANCH   5   8
ATOM      8  C   UNL A   1      45.059  42.868  23.323  1.00  0.00     0.110 C 
ATOM      9  C   UNL A   1      46.978  41.997  24.757  1.00  0.00     0.043 C 
ATOM     10  C   UNL A   1      46.268  42.261  23.460  1.00  0.00    -0.034 C 
ATOM     11  C   UNL A   1      47.145  41.803  22.294  1.00  0.00     0.104 C 
ATOM     12  N   UNL A   1      44.692  43.247  22.064  1.00  0.00    -0.290 N 
ATOM     13  S   UNL A   1      46.484  42.052  20.629  1.00  0.00    -0.129 SA
ATOM     14  C   UNL A   1      43.584  43.636  21.397  1.00  0.00     0.253 C 
ATOM     15  C   UNL A   1      45.658  43.605  21.064  1.00  0.00     0.181 C 
ATOM     16  O   UNL A   1      42.407  43.584  21.654  1.00  0.00    -0.272 OA
ATOM     17  C   UNL A   1      44.467  44.071  20.173  1.00  0.00     0.206 C 
BRANCH  17  18
ATOM     18  N   UNL A   1      44.280  43.332  18.904  1.00  0.00    -0.336 N 
ATOM     19  C   UNL A   1      43.647  43.719  17.750  1.00  0.00     0.271 C 
ATOM     20  H   UNL A   1      44.669  42.428  18.886  1.00  0.00     0.164 HD
ATOM     21  O   UNL A   1      43.660  42.942  16.800  1.00  0.00    -0.267 OA
BRANCH  19  22
ATOM     22  C   UNL A   1      42.971  44.987  17.704  1.00  0.00     0.145 A 
ATOM     23  C   UNL A   1      43.527  46.228  17.450  1.00  0.00     0.104 A 
ATOM     24  N   UNL A   1      41.672  45.260  18.045  1.00  0.00    -0.261 N 
ATOM     25  Cl  UNL A   1      45.146  46.582  17.075  1.00  0.00    -0.079 Cl
ATOM     26  C   UNL A   1      42.475  47.168  17.550  1.00  0.00     0.185 A 
ATOM     27  N   UNL A   1      41.320  46.548  17.868  1.00  0.00    -0.166 NA
ATOM     28  C   UNL A   1      40.681  44.375  18.609  1.00  0.00     0.174 C 
BRANCH  26  29
ATOM     29  C   UNL A   1      42.584  48.653  17.355  1.00  0.00     0.436 C 
ATOM     30  F   UNL A   1      42.705  48.981  16.041  1.00  0.00    -0.164 F 
ATOM     31  F   UNL A   1      41.488  49.309  17.822  1.00  0.00    -0.164 F 
ATOM     32  F   UNL A   1      43.656  49.201  17.990  1.00  0.00    -0.164 F 
ENDBRANCH  26  29
ENDBRANCH  19  22
ENDBRANCH  17  18
ENDBRANCH   5   8
ENDBRANCH   3   4
ENDBRANCH   2   3
ENDBRANCH   1   2
BRANCH   1  33
ATOM     33  C   UNL A   1      42.499  40.739  27.994  1.00  0.00     0.002 C 
BRANCH  33  34
ATOM     34  C   UNL A   1      43.188  39.537  28.647  1.00  0.00     0.021 C 
BRANCH  34  35
ATOM     35  C   UNL A   1      44.108  38.749  27.718  1.00  0.00     0.116 C 
BRANCH  35  36
ATOM     36  N   UNL A   1      45.469  38.704  28.228  1.00  0.00    -0.352 N 
ATOM     37  C   UNL A   1      46.141  37.677  28.836  1.00  0.00     0.251 C 
ATOM     38  H   UNL A   1      45.983  39.537  28.123  1.00  0.00     0.163 HD
ATOM     39  O   UNL A   1      47.174  37.904  29.459  1.00  0.00    -0.269 OA
BRANCH  37  40
ATOM     40  C   UNL A   1      45.635  36.292  28.738  1.00  0.00     0.039 A 
ATOM     41  C   UNL A   1      45.776  35.443  29.839  1.00  0.00     0.014 A 
ATOM     42  C   UNL A   1      45.084  35.808  27.547  1.00  0.00     0.014 A 
ATOM     43  C   UNL A   1      45.340  34.120  29.753  1.00  0.00     0.010 A 
ATOM     44  C   UNL A   1      44.576  34.513  27.490  1.00  0.00     0.010 A 
ATOM     45  C   UNL A   1      44.721  33.649  28.584  1.00  0.00    -0.014 A 
BRANCH  45  46
ATOM     46  C   UNL A   1      44.254  32.242  28.487  1.00  0.00     0.031 A 
ATOM     47  C   UNL A   1      42.941  31.835  29.099  1.00  0.00     0.074 A 
ATOM     48  C   UNL A   1      45.026  31.327  27.871  1.00  0.00     0.049 A 
ATOM     49  N   UNL A   1      42.366  30.658  29.121  1.00  0.00    -0.248 NA
ATOM     50  C   UNL A   1      42.184  32.881  29.804  1.00  0.00     0.031 C 
ATOM     51  C   UNL A   1      46.342  31.590  27.286  1.00  0.00     0.029 A 
ATOM     52  N   UNL A   1      44.817  29.992  27.634  1.00  0.00    -0.354 N 
ATOM     53  C   UNL A   1      41.192  30.824  29.844  1.00  0.00     0.074 A 
ATOM     54  C   UNL A   1      41.167  32.196  30.300  1.00  0.00     0.031 C 
ATOM     55  C   UNL A   1      46.807  30.461  26.727  1.00  0.00     0.029 A 
ATOM     56  C   UNL A   1      45.840  29.390  26.944  1.00  0.00     0.049 A 
ATOM     57  H   UNL A   1      44.011  29.512  27.930  1.00  0.00     0.167 HD
ATOM     58  C   UNL A   1      40.210  29.921  30.082  1.00  0.00     0.037 A 
ATOM     59  C   UNL A   1      45.979  28.117  26.531  1.00  0.00     0.037 A 
ATOM     60  C   UNL A   1      40.230  28.562  29.608  1.00  0.00     0.049 A 
ATOM     61  C   UNL A   1      44.872  27.135  26.805  1.00  0.00     0.074 A 
ATOM     62  C   UNL A   1      39.263  27.582  29.747  1.00  0.00     0.029 A 
ATOM     63  N   UNL A   1      41.280  27.989  28.903  1.00  0.00    -0.354 N 
ATOM     64  N   UNL A   1      43.732  27.322  27.426  1.00  0.00    -0.248 NA
ATOM     65  C   UNL A   1      45.066  25.767  26.308  1.00  0.00     0.031 C 
ATOM     66  C   UNL A   1      39.748  26.402  29.172  1.00  0.00     0.029 A 
ATOM     67  C   UNL A   1      40.993  26.662  28.621  1.00  0.00     0.049 A 
ATOM     68  H   UNL A   1      42.106  28.456  28.641  1.00  0.00     0.167 HD
ATOM     69  C   UNL A   1      43.063  26.106  27.371  1.00  0.00     0.074 A 
ATOM     70  C   UNL A   1      43.916  25.196  26.633  1.00  0.00     0.031 C 
ATOM     71  C   UNL A   1      41.855  25.770  27.887  1.00  0.00     0.037 A 
BRANCH  58  72
ATOM     72  C   UNL A   1      39.028  30.378  30.891  1.00  0.00     0.064 A 
ATOM     73  C   UNL A   1      39.005  30.270  32.291  1.00  0.00     0.173 A 
ATOM     74  C   UNL A   1      37.916  30.958  30.263  1.00  0.00     0.173 A 
ATOM     75  F   UNL A   1      40.037  29.712  32.941  1.00  0.00    -0.203 F 
ATOM     76  C   UNL A   1      37.902  30.694  33.027  1.00  0.00     0.198 A 
ATOM     77  C   UNL A   1      36.828  31.413  31.005  1.00  0.00     0.198 A 
ATOM     78  F   UNL A   1      37.884  31.092  28.929  1.00  0.00    -0.203 F 
ATOM     79  F   UNL A   1      37.881  30.528  34.356  1.00  0.00    -0.200 F 
ATOM     80  C   UNL A   1      36.818  31.273  32.384  1.00  0.00     0.200 A 
ATOM     81  F   UNL A   1      35.787  31.984  30.383  1.00  0.00    -0.200 F 
ATOM     82  F   UNL A   1      35.759  31.686  33.093  1.00  0.00    -0.200 F 
ENDBRANCH  58  72
BRANCH  59  83
ATOM     83  C   UNL A   1      47.197  27.704  25.785  1.00  0.00     0.064 A 
ATOM     84  C   UNL A   1      47.234  27.744  24.384  1.00  0.00     0.173 A 
ATOM     85  C   UNL A   1      48.344  27.252  26.455  1.00  0.00     0.173 A 
ATOM     86  F   UNL A   1      46.157  28.152  23.697  1.00  0.00    -0.203 F 
ATOM     87  C   UNL A   1      48.361  27.324  23.680  1.00  0.00     0.198 A 
ATOM     88  C   UNL A   1      49.481  26.862  25.751  1.00  0.00     0.198 A 
ATOM     89  F   UNL A   1      48.363  27.201  27.795  1.00  0.00    -0.203 F 
ATOM     90  F   UNL A   1      48.350  27.323  22.341  1.00  0.00    -0.200 F 
ATOM     91  C   UNL A   1      49.486  26.888  24.365  1.00  0.00     0.200 A 
ATOM     92  F   UNL A   1      50.572  26.457  26.417  1.00  0.00    -0.200 F 
ATOM     93  F   UNL A   1      50.570  26.485  23.688  1.00  0.00    -0.200 F 
ENDBRANCH  59  83
BRANCH  71  94
ATOM     94  C   UNL A   1      41.374  24.367  27.642  1.00  0.00     0.064 A 
ATOM     95  C   UNL A   1      41.975  23.262  28.264  1.00  0.00     0.173 A 
ATOM     96  C   UNL A   1      40.294  24.126  26.780  1.00  0.00     0.173 A 
ATOM     97  F   UNL A   1      43.020  23.436  29.088  1.00  0.00    -0.203 F 
ATOM     98  C   UNL A   1      41.540  21.966  27.998  1.00  0.00     0.198 A 
ATOM     99  C   UNL A   1      39.838  22.832  26.545  1.00  0.00     0.198 A 
ATOM    100  F   UNL A   1      39.677  25.147  26.166  1.00  0.00    -0.203 F 
ATOM    101  F   UNL A   1      42.173  20.923  28.552  1.00  0.00    -0.200 F 
ATOM    102  C   UNL A   1      40.469  21.753  27.144  1.00  0.00     0.200 A 
ATOM    103  F   UNL A   1      38.792  22.630  25.731  1.00  0.00    -0.200 F 
ATOM    104  F   UNL A   1      40.053  20.505  26.889  1.00  0.00    -0.200 F 
ENDBRANCH  71  94
ENDBRANCH  45  46
ENDBRANCH  37  40
ENDBRANCH  35  36
ENDBRANCH  34  35
ENDBRANCH  33  34
ENDBRANCH   1  33
TORSDOF 16
ENDMDL
