MODEL 1
REMARK VINA RESULT:     -11.6      0.000      0.000
REMARK SMILES Cc1cc(I)ccc1[C@H]([NH3+])C(=O)NCCCCCCNC(=O)c1ccc(-c2c3nc(c(-c4c(F)c(F)c(F)c(F)c4F)c4ccc([nH]4)c(-c4c(F)c(F)c(F)c(F)c4F)c4nc(c(-c5c(F)c(F)c(F)c(F)c5F)c5ccc2[nH]5)C=C4)C=C3)cc1
REMARK SMILES IDX 17 1 16 2 15 3 14 4 13 5 11 6 12 7 9 9 8 10 1 11 2 12 3 13
REMARK SMILES IDX 4 14 7 15 5 16 6 17 10 18 18 22 19 23 20 24 21 25 22 27
REMARK SMILES IDX 23 28 24 29 85 30 25 31 84 32 26 33 27 34 28 35 78 36 29 37
REMARK SMILES IDX 83 38 77 39 79 40 30 41 82 42 76 43 75 44 31 46 63 47 43 48
REMARK SMILES IDX 62 49 44 50 47 51 61 52 80 53 45 54 46 55 60 57 81 58 48 59
REMARK SMILES IDX 32 60 33 61 41 62 34 63 35 64 39 65 42 66 36 67 37 68 40 69
REMARK SMILES IDX 38 70 64 71 65 72 73 73 66 74 67 75 71 76 74 77 68 78 69 79
REMARK SMILES IDX 72 80 70 81 49 82 50 83 58 84 51 85 52 86 56 87 59 88 53 89
REMARK SMILES IDX 54 90 57 91 55 92
REMARK H PARENT 13 8 10 19 10 20 10 21 20 26 79 45 47 56
REMARK Flexibility Score: inf
ROOT
ATOM      1  C   UNL A   1      31.508  30.481  25.768  1.00  0.00     0.002 C 
ENDROOT
BRANCH   1   2
ATOM      2  C   UNL A   1      31.778  29.260  26.652  1.00  0.00     0.002 C 
BRANCH   2   3
ATOM      3  C   UNL A   1      33.028  28.441  26.312  1.00  0.00     0.021 C 
BRANCH   3   4
ATOM      4  C   UNL A   1      32.859  26.927  26.382  1.00  0.00     0.116 C 
BRANCH   4   5
ATOM      5  N   UNL A   1      31.517  26.523  26.745  1.00  0.00    -0.351 N 
ATOM      6  C   UNL A   1      30.533  26.009  25.943  1.00  0.00     0.283 C 
ATOM      7  O   UNL A   1      29.528  25.556  26.501  1.00  0.00    -0.268 OA
ATOM      8  H   UNL A   1      31.278  26.633  27.694  1.00  0.00     0.163 HD
BRANCH   6   9
ATOM      9  C   UNL A   1      30.650  26.004  24.405  1.00  0.00     0.302 C 
BRANCH   9  10
ATOM     10  C   UNL A   1      30.278  27.244  23.582  1.00  0.00     0.022 A 
ATOM     11  C   UNL A   1      32.594  28.029  22.670  1.00  0.00     0.045 C 
ATOM     12  C   UNL A   1      31.117  28.164  22.918  1.00  0.00    -0.040 A 
ATOM     13  C   UNL A   1      30.549  29.348  22.383  1.00  0.00     0.018 A 
ATOM     14  C   UNL A   1      29.176  29.578  22.397  1.00  0.00     0.013 A 
ATOM     15  C   UNL A   1      28.875  27.479  23.502  1.00  0.00     0.012 A 
ATOM     16  I   UNL A   1      28.403  31.336  21.613  1.00  0.00    -0.044 I 
ATOM     17  C   UNL A   1      28.328  28.622  22.922  1.00  0.00     0.015 A 
ENDBRANCH   9  10
BRANCH   9  18
ATOM     18  N   UNL A   1      29.997  24.780  23.868  1.00  0.00    -0.343 N 
ATOM     19  H   UNL A   1      29.643  24.966  22.930  1.00  0.00     0.345 HD
ATOM     20  H   UNL A   1      29.223  24.512  24.475  1.00  0.00     0.345 HD
ATOM     21  H   UNL A   1      30.677  24.020  23.830  1.00  0.00     0.345 HD
ENDBRANCH   9  18
ENDBRANCH   6   9
ENDBRANCH   4   5
ENDBRANCH   3   4
ENDBRANCH   2   3
ENDBRANCH   1   2
BRANCH   1  22
ATOM     22  C   UNL A   1      31.331  31.812  26.501  1.00  0.00     0.021 C 
BRANCH  22  23
ATOM     23  C   UNL A   1      32.617  32.458  27.001  1.00  0.00     0.116 C 
BRANCH  23  24
ATOM     24  N   UNL A   1      32.428  33.828  27.444  1.00  0.00    -0.352 N 
ATOM     25  C   UNL A   1      33.089  34.529  28.422  1.00  0.00     0.251 C 
ATOM     26  H   UNL A   1      31.722  34.327  26.974  1.00  0.00     0.163 HD
ATOM     27  O   UNL A   1      32.701  35.643  28.751  1.00  0.00    -0.269 OA
BRANCH  25  28
ATOM     28  C   UNL A   1      34.255  33.925  29.104  1.00  0.00     0.039 A 
ATOM     29  C   UNL A   1      34.028  32.988  30.115  1.00  0.00     0.014 A 
ATOM     30  C   UNL A   1      35.562  34.283  28.762  1.00  0.00     0.014 A 
ATOM     31  C   UNL A   1      35.110  32.369  30.744  1.00  0.00     0.010 A 
ATOM     32  C   UNL A   1      36.638  33.607  29.332  1.00  0.00     0.010 A 
ATOM     33  C   UNL A   1      36.424  32.649  30.335  1.00  0.00    -0.014 A 
BRANCH  33  34
ATOM     34  C   UNL A   1      37.582  31.954  30.952  1.00  0.00     0.031 A 
ATOM     35  C   UNL A   1      38.047  32.334  32.331  1.00  0.00     0.074 A 
ATOM     36  C   UNL A   1      38.245  31.014  30.251  1.00  0.00     0.049 A 
ATOM     37  N   UNL A   1      39.064  31.878  33.018  1.00  0.00    -0.248 NA
ATOM     38  C   UNL A   1      37.283  33.386  33.020  1.00  0.00     0.031 C 
ATOM     39  C   UNL A   1      37.919  30.590  28.888  1.00  0.00     0.029 A 
ATOM     40  N   UNL A   1      39.336  30.250  30.583  1.00  0.00    -0.354 N 
ATOM     41  C   UNL A   1      39.066  32.591  34.210  1.00  0.00     0.074 A 
ATOM     42  C   UNL A   1      37.988  33.552  34.128  1.00  0.00     0.031 C 
ATOM     43  C   UNL A   1      38.771  29.623  28.512  1.00  0.00     0.029 A 
ATOM     44  C   UNL A   1      39.731  29.389  29.587  1.00  0.00     0.049 A 
ATOM     45  H   UNL A   1      39.793  30.313  31.453  1.00  0.00     0.167 HD
ATOM     46  C   UNL A   1      39.876  32.439  35.285  1.00  0.00     0.037 A 
ATOM     47  C   UNL A   1      40.755  28.517  29.545  1.00  0.00     0.037 A 
ATOM     48  C   UNL A   1      40.937  31.469  35.367  1.00  0.00     0.049 A 
ATOM     49  C   UNL A   1      41.653  28.384  30.746  1.00  0.00     0.074 A 
ATOM     50  C   UNL A   1      41.782  31.203  36.429  1.00  0.00     0.029 A 
ATOM     51  N   UNL A   1      41.301  30.610  34.340  1.00  0.00    -0.354 N 
ATOM     52  N   UNL A   1      41.602  29.014  31.894  1.00  0.00    -0.248 NA
ATOM     53  C   UNL A   1      42.748  27.409  30.648  1.00  0.00     0.031 C 
ATOM     54  C   UNL A   1      42.695  30.223  36.026  1.00  0.00     0.029 A 
ATOM     55  C   UNL A   1      42.377  29.829  34.736  1.00  0.00     0.049 A 
ATOM     56  H   UNL A   1      40.861  30.561  33.461  1.00  0.00     0.167 HD
ATOM     57  C   UNL A   1      42.630  28.489  32.665  1.00  0.00     0.074 A 
ATOM     58  C   UNL A   1      43.279  27.477  31.860  1.00  0.00     0.031 C 
ATOM     59  C   UNL A   1      43.004  28.817  33.927  1.00  0.00     0.037 A 
BRANCH  46  60
ATOM     60  C   UNL A   1      39.645  33.343  36.464  1.00  0.00     0.064 A 
ATOM     61  C   UNL A   1      40.271  34.594  36.569  1.00  0.00     0.173 A 
ATOM     62  C   UNL A   1      38.754  32.971  37.483  1.00  0.00     0.173 A 
ATOM     63  F   UNL A   1      41.141  34.994  35.628  1.00  0.00    -0.203 F 
ATOM     64  C   UNL A   1      40.040  35.425  37.662  1.00  0.00     0.198 A 
ATOM     65  C   UNL A   1      38.498  33.818  38.557  1.00  0.00     0.198 A 
ATOM     66  F   UNL A   1      38.123  31.789  37.433  1.00  0.00    -0.203 F 
ATOM     67  F   UNL A   1      40.690  36.591  37.765  1.00  0.00    -0.200 F 
ATOM     68  C   UNL A   1      39.147  35.040  38.651  1.00  0.00     0.200 A 
ATOM     69  F   UNL A   1      37.622  33.453  39.504  1.00  0.00    -0.200 F 
ATOM     70  F   UNL A   1      38.916  35.846  39.698  1.00  0.00    -0.200 F 
ENDBRANCH  46  60
BRANCH  47  71
ATOM     71  C   UNL A   1      40.979  27.685  28.331  1.00  0.00     0.064 A 
ATOM     72  C   UNL A   1      40.380  26.424  28.201  1.00  0.00     0.173 A 
ATOM     73  C   UNL A   1      41.809  28.122  27.288  1.00  0.00     0.173 A 
ATOM     74  F   UNL A   1      39.593  25.952  29.179  1.00  0.00    -0.203 F 
ATOM     75  C   UNL A   1      40.627  25.620  27.090  1.00  0.00     0.198 A 
ATOM     76  C   UNL A   1      42.028  27.332  26.162  1.00  0.00     0.198 A 
ATOM     77  F   UNL A   1      42.402  29.324  27.360  1.00  0.00    -0.203 F 
ATOM     78  F   UNL A   1      40.089  24.395  27.020  1.00  0.00    -0.200 F 
ATOM     79  C   UNL A   1      41.447  26.076  26.069  1.00  0.00     0.200 A 
ATOM     80  F   UNL A   1      42.807  27.785  25.171  1.00  0.00    -0.200 F 
ATOM     81  F   UNL A   1      41.684  25.303  25.000  1.00  0.00    -0.200 F 
ENDBRANCH  47  71
BRANCH  59  82
ATOM     82  C   UNL A   1      44.137  28.036  34.534  1.00  0.00     0.064 A 
ATOM     83  C   UNL A   1      45.466  28.477  34.457  1.00  0.00     0.173 A 
ATOM     84  C   UNL A   1      43.881  26.845  35.232  1.00  0.00     0.173 A 
ATOM     85  F   UNL A   1      45.768  29.603  33.791  1.00  0.00    -0.203 F 
ATOM     86  C   UNL A   1      46.500  27.737  35.026  1.00  0.00     0.198 A 
ATOM     87  C   UNL A   1      44.912  26.128  35.830  1.00  0.00     0.198 A 
ATOM     88  F   UNL A   1      42.626  26.383  35.344  1.00  0.00    -0.203 F 
ATOM     89  F   UNL A   1      47.768  28.147  34.889  1.00  0.00    -0.200 F 
ATOM     90  C   UNL A   1      46.221  26.569  35.718  1.00  0.00     0.200 A 
ATOM     91  F   UNL A   1      44.638  25.009  36.515  1.00  0.00    -0.200 F 
ATOM     92  F   UNL A   1      47.217  25.862  36.271  1.00  0.00    -0.200 F 
ENDBRANCH  59  82
ENDBRANCH  33  34
ENDBRANCH  25  28
ENDBRANCH  23  24
ENDBRANCH  22  23
ENDBRANCH   1  22
TORSDOF 15
ENDMDL
MODEL 2
REMARK VINA RESULT:     -11.6      0.847      7.615
REMARK SMILES Cc1cc(I)ccc1[C@H]([NH3+])C(=O)NCCCCCCNC(=O)c1ccc(-c2c3nc(c(-c4c(F)c(F)c(F)c(F)c4F)c4ccc([nH]4)c(-c4c(F)c(F)c(F)c(F)c4F)c4nc(c(-c5c(F)c(F)c(F)c(F)c5F)c5ccc2[nH]5)C=C4)C=C3)cc1
REMARK SMILES IDX 17 1 16 2 15 3 14 4 13 5 11 6 12 7 9 9 8 10 1 11 2 12 3 13
REMARK SMILES IDX 4 14 7 15 5 16 6 17 10 18 18 22 19 23 20 24 21 25 22 27
REMARK SMILES IDX 23 28 24 29 85 30 25 31 84 32 26 33 27 34 28 35 78 36 29 37
REMARK SMILES IDX 83 38 77 39 79 40 30 41 82 42 76 43 75 44 31 46 63 47 43 48
REMARK SMILES IDX 62 49 44 50 47 51 61 52 80 53 45 54 46 55 60 57 81 58 48 59
REMARK SMILES IDX 32 60 33 61 41 62 34 63 35 64 39 65 42 66 36 67 37 68 40 69
REMARK SMILES IDX 38 70 64 71 65 72 73 73 66 74 67 75 71 76 74 77 68 78 69 79
REMARK SMILES IDX 72 80 70 81 49 82 50 83 58 84 51 85 52 86 56 87 59 88 53 89
REMARK SMILES IDX 54 90 57 91 55 92
REMARK H PARENT 13 8 10 19 10 20 10 21 20 26 79 45 47 56
REMARK Flexibility Score: inf
ROOT
ATOM      1  C   UNL A   1      31.633  30.699  25.920  1.00  0.00     0.002 C 
ENDROOT
BRANCH   1   2
ATOM      2  C   UNL A   1      31.777  29.563  26.937  1.00  0.00     0.002 C 
BRANCH   2   3
ATOM      3  C   UNL A   1      33.038  28.701  26.817  1.00  0.00     0.021 C 
BRANCH   3   4
ATOM      4  C   UNL A   1      32.815  27.277  26.321  1.00  0.00     0.116 C 
BRANCH   4   5
ATOM      5  N   UNL A   1      31.530  26.737  26.711  1.00  0.00    -0.351 N 
ATOM      6  C   UNL A   1      30.581  26.139  25.925  1.00  0.00     0.283 C 
ATOM      7  O   UNL A   1      29.640  25.581  26.501  1.00  0.00    -0.268 OA
ATOM      8  H   UNL A   1      31.307  26.809  27.668  1.00  0.00     0.163 HD
BRANCH   6   9
ATOM      9  C   UNL A   1      30.656  26.168  24.385  1.00  0.00     0.302 C 
BRANCH   9  10
ATOM     10  C   UNL A   1      30.287  27.433  23.601  1.00  0.00     0.022 A 
ATOM     11  C   UNL A   1      32.611  28.276  22.766  1.00  0.00     0.045 C 
ATOM     12  C   UNL A   1      31.127  28.386  22.989  1.00  0.00    -0.040 A 
ATOM     13  C   UNL A   1      30.557  29.583  22.486  1.00  0.00     0.018 A 
ATOM     14  C   UNL A   1      29.182  29.797  22.481  1.00  0.00     0.013 A 
ATOM     15  C   UNL A   1      28.883  27.656  23.501  1.00  0.00     0.012 A 
ATOM     16  I   UNL A   1      28.404  31.575  21.746  1.00  0.00    -0.044 I 
ATOM     17  C   UNL A   1      28.334  28.813  22.953  1.00  0.00     0.015 A 
ENDBRANCH   9  10
BRANCH   9  18
ATOM     18  N   UNL A   1      29.965  24.969  23.838  1.00  0.00    -0.343 N 
ATOM     19  H   UNL A   1      29.001  24.950  24.170  1.00  0.00     0.345 HD
ATOM     20  H   UNL A   1      30.447  24.126  24.149  1.00  0.00     0.345 HD
ATOM     21  H   UNL A   1      29.973  25.008  22.818  1.00  0.00     0.345 HD
ENDBRANCH   9  18
ENDBRANCH   6   9
ENDBRANCH   4   5
ENDBRANCH   3   4
ENDBRANCH   2   3
ENDBRANCH   1   2
BRANCH   1  22
ATOM     22  C   UNL A   1      31.377  32.090  26.502  1.00  0.00     0.021 C 
BRANCH  22  23
ATOM     23  C   UNL A   1      32.549  32.710  27.253  1.00  0.00     0.116 C 
BRANCH  23  24
ATOM     24  N   UNL A   1      32.324  34.100  27.608  1.00  0.00    -0.352 N 
ATOM     25  C   UNL A   1      32.944  34.869  28.561  1.00  0.00     0.251 C 
ATOM     26  H   UNL A   1      31.624  34.557  27.089  1.00  0.00     0.163 HD
ATOM     27  O   UNL A   1      32.528  35.993  28.811  1.00  0.00    -0.269 OA
BRANCH  25  28
ATOM     28  C   UNL A   1      34.100  34.329  29.310  1.00  0.00     0.039 A 
ATOM     29  C   UNL A   1      33.862  33.655  30.510  1.00  0.00     0.014 A 
ATOM     30  C   UNL A   1      35.408  34.491  28.845  1.00  0.00     0.014 A 
ATOM     31  C   UNL A   1      34.930  33.095  31.215  1.00  0.00     0.010 A 
ATOM     32  C   UNL A   1      36.461  33.865  29.505  1.00  0.00     0.010 A 
ATOM     33  C   UNL A   1      36.235  33.167  30.701  1.00  0.00    -0.014 A 
BRANCH  33  34
ATOM     34  C   UNL A   1      37.372  32.524  31.408  1.00  0.00     0.031 A 
ATOM     35  C   UNL A   1      38.098  31.367  30.777  1.00  0.00     0.074 A 
ATOM     36  C   UNL A   1      37.720  32.950  32.637  1.00  0.00     0.049 A 
ATOM     37  N   UNL A   1      39.080  30.645  31.256  1.00  0.00    -0.248 NA
ATOM     38  C   UNL A   1      37.642  30.947  29.443  1.00  0.00     0.031 C 
ATOM     39  C   UNL A   1      37.064  34.033  33.371  1.00  0.00     0.029 A 
ATOM     40  N   UNL A   1      38.706  32.521  33.490  1.00  0.00    -0.354 N 
ATOM     41  C   UNL A   1      39.351  29.685  30.289  1.00  0.00     0.074 A 
ATOM     42  C   UNL A   1      38.390  29.876  29.224  1.00  0.00     0.031 C 
ATOM     43  C   UNL A   1      37.683  34.203  34.551  1.00  0.00     0.029 A 
ATOM     44  C   UNL A   1      38.749  33.214  34.676  1.00  0.00     0.049 A 
ATOM     45  H   UNL A   1      39.324  31.786  33.273  1.00  0.00     0.167 HD
ATOM     46  C   UNL A   1      40.329  28.748  30.278  1.00  0.00     0.037 A 
ATOM     47  C   UNL A   1      39.553  33.062  35.745  1.00  0.00     0.037 A 
ATOM     48  C   UNL A   1      41.293  28.574  31.333  1.00  0.00     0.049 A 
ATOM     49  C   UNL A   1      40.618  31.998  35.715  1.00  0.00     0.074 A 
ATOM     50  C   UNL A   1      42.352  27.685  31.395  1.00  0.00     0.029 A 
ATOM     51  N   UNL A   1      41.309  29.300  32.515  1.00  0.00    -0.354 N 
ATOM     52  N   UNL A   1      40.909  31.143  34.765  1.00  0.00    -0.248 NA
ATOM     53  C   UNL A   1      41.473  31.885  36.904  1.00  0.00     0.031 C 
ATOM     54  C   UNL A   1      42.975  27.835  32.639  1.00  0.00     0.029 A 
ATOM     55  C   UNL A   1      42.346  28.861  33.325  1.00  0.00     0.049 A 
ATOM     56  H   UNL A   1      40.678  30.020  32.745  1.00  0.00     0.167 HD
ATOM     57  C   UNL A   1      41.999  30.417  35.225  1.00  0.00     0.074 A 
ATOM     58  C   UNL A   1      42.328  30.943  36.533  1.00  0.00     0.031 C 
ATOM     59  C   UNL A   1      42.668  29.404  34.619  1.00  0.00     0.037 A 
BRANCH  46  60
ATOM     60  C   UNL A   1      40.408  27.837  29.084  1.00  0.00     0.064 A 
ATOM     61  C   UNL A   1      39.669  26.647  29.014  1.00  0.00     0.173 A 
ATOM     62  C   UNL A   1      41.201  28.180  27.977  1.00  0.00     0.173 A 
ATOM     63  F   UNL A   1      38.903  26.266  30.048  1.00  0.00    -0.203 F 
ATOM     64  C   UNL A   1      39.744  25.819  27.897  1.00  0.00     0.198 A 
ATOM     65  C   UNL A   1      41.247  27.368  26.848  1.00  0.00     0.198 A 
ATOM     66  F   UNL A   1      41.924  29.310  27.986  1.00  0.00    -0.203 F 
ATOM     67  F   UNL A   1      39.069  24.661  27.877  1.00  0.00    -0.200 F 
ATOM     68  C   UNL A   1      40.525  26.184  26.812  1.00  0.00     0.200 A 
ATOM     69  F   UNL A   1      41.990  27.730  25.793  1.00  0.00    -0.200 F 
ATOM     70  F   UNL A   1      40.589  25.391  25.732  1.00  0.00    -0.200 F 
ENDBRANCH  46  60
BRANCH  47  71
ATOM     71  C   UNL A   1      39.398  33.951  36.929  1.00  0.00     0.064 A 
ATOM     72  C   UNL A   1      40.008  35.213  36.968  1.00  0.00     0.173 A 
ATOM     73  C   UNL A   1      38.658  33.551  38.051  1.00  0.00     0.173 A 
ATOM     74  F   UNL A   1      40.742  35.634  35.928  1.00  0.00    -0.203 F 
ATOM     75  C   UNL A   1      39.907  36.027  38.095  1.00  0.00     0.198 A 
ATOM     76  C   UNL A   1      38.530  34.379  39.163  1.00  0.00     0.198 A 
ATOM     77  F   UNL A   1      38.049  32.355  38.063  1.00  0.00    -0.203 F 
ATOM     78  F   UNL A   1      40.550  37.203  38.127  1.00  0.00    -0.200 F 
ATOM     79  C   UNL A   1      39.165  35.612  39.190  1.00  0.00     0.200 A 
ATOM     80  F   UNL A   1      37.797  33.981  40.212  1.00  0.00    -0.200 F 
ATOM     81  F   UNL A   1      39.069  36.395  40.273  1.00  0.00    -0.200 F 
ENDBRANCH  47  71
BRANCH  59  82
ATOM     82  C   UNL A   1      43.855  28.833  35.343  1.00  0.00     0.064 A 
ATOM     83  C   UNL A   1      45.155  29.317  35.133  1.00  0.00     0.173 A 
ATOM     84  C   UNL A   1      43.683  27.806  36.285  1.00  0.00     0.173 A 
ATOM     85  F   UNL A   1      45.378  30.288  34.234  1.00  0.00    -0.203 F 
ATOM     86  C   UNL A   1      46.241  28.771  35.814  1.00  0.00     0.198 A 
ATOM     87  C   UNL A   1      44.765  27.289  36.990  1.00  0.00     0.198 A 
ATOM     88  F   UNL A   1      42.459  27.313  36.531  1.00  0.00    -0.203 F 
ATOM     89  F   UNL A   1      47.480  29.210  35.554  1.00  0.00    -0.200 F 
ATOM     90  C   UNL A   1      46.044  27.765  36.747  1.00  0.00     0.200 A 
ATOM     91  F   UNL A   1      44.569  26.330  37.906  1.00  0.00    -0.200 F 
ATOM     92  F   UNL A   1      47.090  27.246  37.407  1.00  0.00    -0.200 F 
ENDBRANCH  59  82
ENDBRANCH  33  34
ENDBRANCH  25  28
ENDBRANCH  23  24
ENDBRANCH  22  23
ENDBRANCH   1  22
TORSDOF 15
ENDMDL
MODEL 3
REMARK VINA RESULT:     -11.6      0.726      7.428
REMARK SMILES Cc1cc(I)ccc1[C@H]([NH3+])C(=O)NCCCCCCNC(=O)c1ccc(-c2c3nc(c(-c4c(F)c(F)c(F)c(F)c4F)c4ccc([nH]4)c(-c4c(F)c(F)c(F)c(F)c4F)c4nc(c(-c5c(F)c(F)c(F)c(F)c5F)c5ccc2[nH]5)C=C4)C=C3)cc1
REMARK SMILES IDX 17 1 16 2 15 3 14 4 13 5 11 6 12 7 9 9 8 10 1 11 2 12 3 13
REMARK SMILES IDX 4 14 7 15 5 16 6 17 10 18 18 22 19 23 20 24 21 25 22 27
REMARK SMILES IDX 23 28 24 29 85 30 25 31 84 32 26 33 27 34 28 35 78 36 29 37
REMARK SMILES IDX 83 38 77 39 79 40 30 41 82 42 76 43 75 44 31 46 63 47 43 48
REMARK SMILES IDX 62 49 44 50 47 51 61 52 80 53 45 54 46 55 60 57 81 58 48 59
REMARK SMILES IDX 32 60 33 61 41 62 34 63 35 64 39 65 42 66 36 67 37 68 40 69
REMARK SMILES IDX 38 70 64 71 65 72 73 73 66 74 67 75 71 76 74 77 68 78 69 79
REMARK SMILES IDX 72 80 70 81 49 82 50 83 58 84 51 85 52 86 56 87 59 88 53 89
REMARK SMILES IDX 54 90 57 91 55 92
REMARK H PARENT 13 8 10 19 10 20 10 21 20 26 79 45 47 56
REMARK Flexibility Score: inf
ROOT
ATOM      1  C   UNL A   1      31.633  30.724  26.098  1.00  0.00     0.002 C 
ENDROOT
BRANCH   1   2
ATOM      2  C   UNL A   1      31.768  29.517  27.031  1.00  0.00     0.002 C 
BRANCH   2   3
ATOM      3  C   UNL A   1      33.050  28.689  26.887  1.00  0.00     0.021 C 
BRANCH   3   4
ATOM      4  C   UNL A   1      32.852  27.245  26.439  1.00  0.00     0.116 C 
BRANCH   4   5
ATOM      5  N   UNL A   1      31.559  26.709  26.812  1.00  0.00    -0.351 N 
ATOM      6  C   UNL A   1      30.626  26.099  26.017  1.00  0.00     0.283 C 
ATOM      7  O   UNL A   1      29.675  25.548  26.584  1.00  0.00    -0.268 OA
ATOM      8  H   UNL A   1      31.319  26.795  27.763  1.00  0.00     0.163 HD
BRANCH   6   9
ATOM      9  C   UNL A   1      30.730  26.107  24.479  1.00  0.00     0.302 C 
BRANCH   9  10
ATOM     10  C   UNL A   1      30.333  27.347  23.667  1.00  0.00     0.022 A 
ATOM     11  C   UNL A   1      32.648  28.309  22.944  1.00  0.00     0.045 C 
ATOM     12  C   UNL A   1      31.152  28.340  23.091  1.00  0.00    -0.040 A 
ATOM     13  C   UNL A   1      30.545  29.503  22.552  1.00  0.00     0.018 A 
ATOM     14  C   UNL A   1      29.162  29.643  22.476  1.00  0.00     0.013 A 
ATOM     15  C   UNL A   1      28.926  27.493  23.496  1.00  0.00     0.012 A 
ATOM     16  I   UNL A   1      28.329  31.373  21.690  1.00  0.00    -0.044 I 
ATOM     17  C   UNL A   1      28.345  28.617  22.912  1.00  0.00     0.015 A 
ENDBRANCH   9  10
BRANCH   9  18
ATOM     18  N   UNL A   1      30.089  24.877  23.938  1.00  0.00    -0.343 N 
ATOM     19  H   UNL A   1      29.493  24.461  24.653  1.00  0.00     0.345 HD
ATOM     20  H   UNL A   1      30.810  24.209  23.667  1.00  0.00     0.345 HD
ATOM     21  H   UNL A   1      29.526  25.118  23.122  1.00  0.00     0.345 HD
ENDBRANCH   9  18
ENDBRANCH   6   9
ENDBRANCH   4   5
ENDBRANCH   3   4
ENDBRANCH   2   3
ENDBRANCH   1   2
BRANCH   1  22
ATOM     22  C   UNL A   1      31.400  32.073  26.778  1.00  0.00     0.021 C 
BRANCH  22  23
ATOM     23  C   UNL A   1      32.661  32.842  27.154  1.00  0.00     0.116 C 
BRANCH  23  24
ATOM     24  N   UNL A   1      32.387  34.198  27.595  1.00  0.00    -0.352 N 
ATOM     25  C   UNL A   1      32.980  34.927  28.596  1.00  0.00     0.251 C 
ATOM     26  H   UNL A   1      31.671  34.663  27.105  1.00  0.00     0.163 HD
ATOM     27  O   UNL A   1      32.525  36.018  28.916  1.00  0.00    -0.269 OA
BRANCH  25  28
ATOM     28  C   UNL A   1      34.155  34.381  29.311  1.00  0.00     0.039 A 
ATOM     29  C   UNL A   1      33.948  33.697  30.512  1.00  0.00     0.014 A 
ATOM     30  C   UNL A   1      35.450  34.548  28.815  1.00  0.00     0.014 A 
ATOM     31  C   UNL A   1      35.033  33.133  31.184  1.00  0.00     0.010 A 
ATOM     32  C   UNL A   1      36.520  33.917  29.443  1.00  0.00     0.010 A 
ATOM     33  C   UNL A   1      36.325  33.209  30.638  1.00  0.00    -0.014 A 
BRANCH  33  34
ATOM     34  C   UNL A   1      37.480  32.561  31.311  1.00  0.00     0.031 A 
ATOM     35  C   UNL A   1      38.209  31.430  30.639  1.00  0.00     0.074 A 
ATOM     36  C   UNL A   1      37.840  32.958  32.546  1.00  0.00     0.049 A 
ATOM     37  N   UNL A   1      39.207  30.707  31.083  1.00  0.00    -0.248 NA
ATOM     38  C   UNL A   1      37.739  31.041  29.300  1.00  0.00     0.031 C 
ATOM     39  C   UNL A   1      37.183  34.013  33.319  1.00  0.00     0.029 A 
ATOM     40  N   UNL A   1      38.844  32.518  33.373  1.00  0.00    -0.354 N 
ATOM     41  C   UNL A   1      39.474  29.778  30.087  1.00  0.00     0.074 A 
ATOM     42  C   UNL A   1      38.496  29.986  29.042  1.00  0.00     0.031 C 
ATOM     43  C   UNL A   1      37.817  34.158  34.494  1.00  0.00     0.029 A 
ATOM     44  C   UNL A   1      38.896  33.179  34.577  1.00  0.00     0.049 A 
ATOM     45  H   UNL A   1      39.467  31.796  33.127  1.00  0.00     0.167 HD
ATOM     46  C   UNL A   1      40.463  28.853  30.036  1.00  0.00     0.037 A 
ATOM     47  C   UNL A   1      39.717  33.007  35.629  1.00  0.00     0.037 A 
ATOM     48  C   UNL A   1      41.445  28.661  31.072  1.00  0.00     0.049 A 
ATOM     49  C   UNL A   1      40.794  31.958  35.555  1.00  0.00     0.074 A 
ATOM     50  C   UNL A   1      42.515  27.785  31.095  1.00  0.00     0.029 A 
ATOM     51  N   UNL A   1      41.469  29.355  32.273  1.00  0.00    -0.354 N 
ATOM     52  N   UNL A   1      41.081  31.132  34.578  1.00  0.00    -0.248 NA
ATOM     53  C   UNL A   1      41.668  31.822  36.729  1.00  0.00     0.031 C 
ATOM     54  C   UNL A   1      43.154  27.908  32.333  1.00  0.00     0.029 A 
ATOM     55  C   UNL A   1      42.523  28.908  33.056  1.00  0.00     0.049 A 
ATOM     56  H   UNL A   1      40.834  30.061  32.532  1.00  0.00     0.167 HD
ATOM     57  C   UNL A   1      42.186  30.407  35.003  1.00  0.00     0.074 A 
ATOM     58  C   UNL A   1      42.528  30.901  36.319  1.00  0.00     0.031 C 
ATOM     59  C   UNL A   1      42.858  29.419  34.360  1.00  0.00     0.037 A 
BRANCH  46  60
ATOM     60  C   UNL A   1      40.535  27.976  28.817  1.00  0.00     0.064 A 
ATOM     61  C   UNL A   1      41.326  28.315  27.709  1.00  0.00     0.173 A 
ATOM     62  C   UNL A   1      39.836  26.759  28.772  1.00  0.00     0.173 A 
ATOM     63  F   UNL A   1      42.007  29.472  27.694  1.00  0.00    -0.203 F 
ATOM     64  C   UNL A   1      41.391  27.487  26.591  1.00  0.00     0.198 A 
ATOM     65  C   UNL A   1      39.930  25.917  27.668  1.00  0.00     0.198 A 
ATOM     66  F   UNL A   1      39.069  26.381  29.805  1.00  0.00    -0.203 F 
ATOM     67  F   UNL A   1      42.112  27.859  25.525  1.00  0.00    -0.200 F 
ATOM     68  C   UNL A   1      40.700  26.285  26.575  1.00  0.00     0.200 A 
ATOM     69  F   UNL A   1      39.275  24.748  27.660  1.00  0.00    -0.200 F 
ATOM     70  F   UNL A   1      40.772  25.484  25.503  1.00  0.00    -0.200 F 
ENDBRANCH  46  60
BRANCH  47  71
ATOM     71  C   UNL A   1      39.570  33.861  36.839  1.00  0.00     0.064 A 
ATOM     72  C   UNL A   1      38.820  33.428  37.942  1.00  0.00     0.173 A 
ATOM     73  C   UNL A   1      40.158  35.133  36.911  1.00  0.00     0.173 A 
ATOM     74  F   UNL A   1      38.222  32.228  37.915  1.00  0.00    -0.203 F 
ATOM     75  C   UNL A   1      38.638  34.246  39.056  1.00  0.00     0.198 A 
ATOM     76  C   UNL A   1      40.003  35.936  38.039  1.00  0.00     0.198 A 
ATOM     77  F   UNL A   1      40.891  35.594  35.886  1.00  0.00    -0.203 F 
ATOM     78  F   UNL A   1      37.866  33.830  40.069  1.00  0.00    -0.200 F 
ATOM     79  C   UNL A   1      39.233  35.497  39.106  1.00  0.00     0.200 A 
ATOM     80  F   UNL A   1      40.595  37.137  38.090  1.00  0.00    -0.200 F 
ATOM     81  F   UNL A   1      39.058  36.283  40.177  1.00  0.00    -0.200 F 
ENDBRANCH  47  71
BRANCH  59  82
ATOM     82  C   UNL A   1      44.062  28.842  35.051  1.00  0.00     0.064 A 
ATOM     83  C   UNL A   1      45.347  29.374  34.867  1.00  0.00     0.173 A 
ATOM     84  C   UNL A   1      43.920  27.761  35.935  1.00  0.00     0.173 A 
ATOM     85  F   UNL A   1      45.541  30.399  34.023  1.00  0.00    -0.203 F 
ATOM     86  C   UNL A   1      46.449  28.823  35.517  1.00  0.00     0.198 A 
ATOM     87  C   UNL A   1      45.018  27.237  36.610  1.00  0.00     0.198 A 
ATOM     88  F   UNL A   1      42.712  27.221  36.154  1.00  0.00    -0.203 F 
ATOM     89  F   UNL A   1      47.675  29.309  35.281  1.00  0.00    -0.200 F 
ATOM     90  C   UNL A   1      46.283  27.761  36.393  1.00  0.00     0.200 A 
ATOM     91  F   UNL A   1      44.852  26.224  37.471  1.00  0.00    -0.200 F 
ATOM     92  F   UNL A   1      47.344  27.237  37.023  1.00  0.00    -0.200 F 
ENDBRANCH  59  82
ENDBRANCH  33  34
ENDBRANCH  25  28
ENDBRANCH  23  24
ENDBRANCH  22  23
ENDBRANCH   1  22
TORSDOF 15
ENDMDL
