MODEL 1
REMARK VINA RESULT:     -12.0      0.000      0.000
REMARK SMILES O=C(NCCCCCCNC(=O)[C@H]1CSC2(CCCCC2)[NH2+]1)c1ccc(-c2c3nc(c(-c4c(F)c(F)c(F)c(F)c4F)c4ccc([nH]4)c(-c4c(F)c(F)c(F)c(F)c4F)c4nc(c(-c5c(F)c(F)c(F)c(F)c5F)c5ccc2[nH]5)C=C4)C=C3)cc1
REMARK SMILES IDX 5 1 4 2 3 3 1 4 2 5 23 7 24 8 85 9 25 10 84 11 26 12 27 13
REMARK SMILES IDX 28 14 78 15 29 16 83 17 77 18 79 19 30 20 82 21 76 22 75 23
REMARK SMILES IDX 31 25 63 26 43 27 62 28 44 29 47 30 61 31 80 32 45 33 46 34
REMARK SMILES IDX 60 36 81 37 48 38 32 39 33 40 41 41 34 42 35 43 39 44 42 45
REMARK SMILES IDX 36 46 37 47 40 48 38 49 64 50 65 51 73 52 66 53 67 54 71 55
REMARK SMILES IDX 74 56 68 57 69 58 72 59 70 60 49 61 50 62 58 63 51 64 52 65
REMARK SMILES IDX 56 66 59 67 53 68 54 69 57 70 55 71 6 72 7 73 8 74 9 75
REMARK SMILES IDX 10 76 11 77 12 79 13 80 14 81 22 82 15 83 16 84 17 87 21 88
REMARK SMILES IDX 18 89 20 90 19 91
REMARK H PARENT 3 6 79 24 47 35 10 78 22 85 22 86
REMARK Flexibility Score: inf
ROOT
ATOM      1  C   UNL A   1      31.324  32.297  26.565  1.00  0.00     0.021 C 
ENDROOT
BRANCH   1   2
ATOM      2  C   UNL A   1      32.620  32.827  27.167  1.00  0.00     0.116 C 
BRANCH   2   3
ATOM      3  N   UNL A   1      32.484  34.198  27.626  1.00  0.00    -0.352 N 
ATOM      4  O   UNL A   1      32.708  35.919  29.069  1.00  0.00    -0.269 OA
ATOM      5  C   UNL A   1      33.099  34.827  28.680  1.00  0.00     0.251 C 
ATOM      6  H   UNL A   1      31.863  34.758  27.107  1.00  0.00     0.163 HD
BRANCH   5   7
ATOM      7  C   UNL A   1      34.239  34.167  29.350  1.00  0.00     0.039 A 
ATOM      8  C   UNL A   1      34.018  33.274  30.400  1.00  0.00     0.014 A 
ATOM      9  C   UNL A   1      35.538  34.432  28.910  1.00  0.00     0.014 A 
ATOM     10  C   UNL A   1      35.097  32.750  31.098  1.00  0.00     0.010 A 
ATOM     11  C   UNL A   1      36.621  33.828  29.551  1.00  0.00     0.010 A 
ATOM     12  C   UNL A   1      36.409  32.997  30.663  1.00  0.00    -0.014 A 
BRANCH  12  13
ATOM     13  C   UNL A   1      37.534  32.299  31.332  1.00  0.00     0.031 A 
ATOM     14  C   UNL A   1      38.254  31.163  30.670  1.00  0.00     0.074 A 
ATOM     15  C   UNL A   1      37.906  32.721  32.557  1.00  0.00     0.049 A 
ATOM     16  N   UNL A   1      39.255  30.448  31.120  1.00  0.00    -0.248 NA
ATOM     17  C   UNL A   1      37.789  30.767  29.332  1.00  0.00     0.031 C 
ATOM     18  C   UNL A   1      37.265  33.809  33.301  1.00  0.00     0.029 A 
ATOM     19  N   UNL A   1      38.913  32.302  33.387  1.00  0.00    -0.354 N 
ATOM     20  C   UNL A   1      39.528  29.509  30.134  1.00  0.00     0.074 A 
ATOM     21  C   UNL A   1      38.571  29.727  29.070  1.00  0.00     0.031 C 
ATOM     22  C   UNL A   1      37.917  33.998  34.455  1.00  0.00     0.029 A 
ATOM     23  C   UNL A   1      38.975  33.001  34.566  1.00  0.00     0.049 A 
ATOM     24  H   UNL A   1      39.531  31.570  33.158  1.00  0.00     0.167 HD
ATOM     25  C   UNL A   1      40.495  28.561  30.121  1.00  0.00     0.037 A 
ATOM     26  C   UNL A   1      39.778  32.842  35.634  1.00  0.00     0.037 A 
ATOM     27  C   UNL A   1      41.447  28.360  31.186  1.00  0.00     0.049 A 
ATOM     28  C   UNL A   1      40.817  31.760  35.603  1.00  0.00     0.074 A 
ATOM     29  C   UNL A   1      42.490  27.453  31.250  1.00  0.00     0.029 A 
ATOM     30  N   UNL A   1      41.462  29.070  32.379  1.00  0.00    -0.354 N 
ATOM     31  N   UNL A   1      41.096  30.909  34.646  1.00  0.00    -0.248 NA
ATOM     32  C   UNL A   1      41.654  31.616  36.801  1.00  0.00     0.031 C 
ATOM     33  C   UNL A   1      43.099  27.572  32.504  1.00  0.00     0.029 A 
ATOM     34  C   UNL A   1      42.479  28.600  33.197  1.00  0.00     0.049 A 
ATOM     35  H   UNL A   1      40.844  29.800  32.609  1.00  0.00     0.167 HD
ATOM     36  C   UNL A   1      42.151  30.141  35.116  1.00  0.00     0.074 A 
ATOM     37  C   UNL A   1      42.476  30.644  36.434  1.00  0.00     0.031 C 
ATOM     38  C   UNL A   1      42.790  29.110  34.509  1.00  0.00     0.037 A 
BRANCH  25  39
ATOM     39  C   UNL A   1      40.564  27.646  28.930  1.00  0.00     0.064 A 
ATOM     40  C   UNL A   1      39.772  26.493  28.834  1.00  0.00     0.173 A 
ATOM     41  C   UNL A   1      41.397  27.958  27.844  1.00  0.00     0.173 A 
ATOM     42  F   UNL A   1      38.964  26.142  29.846  1.00  0.00    -0.203 F 
ATOM     43  C   UNL A   1      39.829  25.674  27.707  1.00  0.00     0.198 A 
ATOM     44  C   UNL A   1      41.430  27.154  26.707  1.00  0.00     0.198 A 
ATOM     45  F   UNL A   1      42.172  29.053  27.878  1.00  0.00    -0.203 F 
ATOM     46  F   UNL A   1      39.095  24.554  27.659  1.00  0.00    -0.200 F 
ATOM     47  C   UNL A   1      40.651  26.009  26.643  1.00  0.00     0.200 A 
ATOM     48  F   UNL A   1      42.214  27.489  25.673  1.00  0.00    -0.200 F 
ATOM     49  F   UNL A   1      40.697  25.226  25.556  1.00  0.00    -0.200 F 
ENDBRANCH  25  39
BRANCH  26  50
ATOM     50  C   UNL A   1      39.614  33.727  36.817  1.00  0.00     0.064 A 
ATOM     51  C   UNL A   1      40.259  34.968  36.886  1.00  0.00     0.173 A 
ATOM     52  C   UNL A   1      38.795  33.354  37.893  1.00  0.00     0.173 A 
ATOM     53  F   UNL A   1      41.064  35.361  35.889  1.00  0.00    -0.203 F 
ATOM     54  C   UNL A   1      40.106  35.795  37.996  1.00  0.00     0.198 A 
ATOM     55  C   UNL A   1      38.616  34.197  38.987  1.00  0.00     0.198 A 
ATOM     56  F   UNL A   1      38.148  32.179  37.872  1.00  0.00    -0.203 F 
ATOM     57  F   UNL A   1      40.769  36.958  38.059  1.00  0.00    -0.200 F 
ATOM     58  C   UNL A   1      39.278  35.413  39.042  1.00  0.00     0.200 A 
ATOM     59  F   UNL A   1      37.798  33.832  39.985  1.00  0.00    -0.200 F 
ATOM     60  F   UNL A   1      39.124  36.214  40.105  1.00  0.00    -0.200 F 
ENDBRANCH  26  50
BRANCH  38  61
ATOM     61  C   UNL A   1      43.930  28.480  35.257  1.00  0.00     0.064 A 
ATOM     62  C   UNL A   1      45.247  28.940  35.120  1.00  0.00     0.173 A 
ATOM     63  C   UNL A   1      43.694  27.415  36.140  1.00  0.00     0.173 A 
ATOM     64  F   UNL A   1      45.528  29.944  34.274  1.00  0.00    -0.203 F 
ATOM     65  C   UNL A   1      46.291  28.339  35.818  1.00  0.00     0.198 A 
ATOM     66  C   UNL A   1      44.735  26.840  36.863  1.00  0.00     0.198 A 
ATOM     67  F   UNL A   1      42.452  26.940  36.311  1.00  0.00    -0.203 F 
ATOM     68  F   UNL A   1      47.550  28.760  35.628  1.00  0.00    -0.200 F 
ATOM     69  C   UNL A   1      46.034  27.296  36.694  1.00  0.00     0.200 A 
ATOM     70  F   UNL A   1      44.482  25.841  37.720  1.00  0.00    -0.200 F 
ATOM     71  F   UNL A   1      47.039  26.723  37.370  1.00  0.00    -0.200 F 
ENDBRANCH  38  61
ENDBRANCH  12  13
ENDBRANCH   5   7
ENDBRANCH   2   3
ENDBRANCH   1   2
BRANCH   1  72
ATOM     72  C   UNL A   1      31.403  30.857  26.058  1.00  0.00     0.002 C 
BRANCH  72  73
ATOM     73  C   UNL A   1      32.314  29.932  26.872  1.00  0.00     0.002 C 
BRANCH  73  74
ATOM     74  C   UNL A   1      31.657  28.638  27.354  1.00  0.00     0.021 C 
BRANCH  74  75
ATOM     75  C   UNL A   1      31.452  27.581  26.266  1.00  0.00     0.116 C 
BRANCH  75  76
ATOM     76  N   UNL A   1      31.411  26.263  26.855  1.00  0.00    -0.351 N 
ATOM     77  C   UNL A   1      31.351  24.998  26.374  1.00  0.00     0.279 C 
ATOM     78  H   UNL A   1      31.429  26.290  27.838  1.00  0.00     0.163 HD
ATOM     79  O   UNL A   1      31.118  24.149  27.251  1.00  0.00    -0.268 OA
BRANCH  77  80
ATOM     80  C   UNL A   1      31.708  24.519  24.951  1.00  0.00     0.283 C 
ATOM     81  C   UNL A   1      32.225  25.686  24.107  1.00  0.00     0.151 C 
ATOM     82  N   UNL A   1      32.634  23.404  24.750  1.00  0.00    -0.322 N 
ATOM     83  S   UNL A   1      34.028  25.592  24.251  1.00  0.00    -0.089 SA
ATOM     84  C   UNL A   1      34.031  23.801  24.611  1.00  0.00     0.143 C 
ATOM     85  H   UNL A   1      32.357  22.907  23.904  1.00  0.00     0.348 HD
ATOM     86  H   UNL A   1      32.578  22.823  25.587  1.00  0.00     0.348 HD
ATOM     87  C   UNL A   1      34.830  23.515  25.891  1.00  0.00     0.081 C 
ATOM     88  C   UNL A   1      34.633  23.014  23.428  1.00  0.00     0.081 C 
ATOM     89  C   UNL A   1      36.345  23.651  25.751  1.00  0.00     0.007 C 
ATOM     90  C   UNL A   1      36.149  23.182  23.287  1.00  0.00     0.007 C 
ATOM     91  C   UNL A   1      36.875  22.835  24.582  1.00  0.00     0.001 C 
ENDBRANCH  77  80
ENDBRANCH  75  76
ENDBRANCH  74  75
ENDBRANCH  73  74
ENDBRANCH  72  73
ENDBRANCH   1  72
TORSDOF 13
ENDMDL
MODEL 2
REMARK VINA RESULT:     -12.0      0.594      7.509
REMARK SMILES O=C(NCCCCCCNC(=O)[C@H]1CSC2(CCCCC2)[NH2+]1)c1ccc(-c2c3nc(c(-c4c(F)c(F)c(F)c(F)c4F)c4ccc([nH]4)c(-c4c(F)c(F)c(F)c(F)c4F)c4nc(c(-c5c(F)c(F)c(F)c(F)c5F)c5ccc2[nH]5)C=C4)C=C3)cc1
REMARK SMILES IDX 5 1 4 2 3 3 1 4 2 5 23 7 24 8 85 9 25 10 84 11 26 12 27 13
REMARK SMILES IDX 28 14 78 15 29 16 83 17 77 18 79 19 30 20 82 21 76 22 75 23
REMARK SMILES IDX 31 25 63 26 43 27 62 28 44 29 47 30 61 31 80 32 45 33 46 34
REMARK SMILES IDX 60 36 81 37 48 38 32 39 33 40 41 41 34 42 35 43 39 44 42 45
REMARK SMILES IDX 36 46 37 47 40 48 38 49 64 50 65 51 73 52 66 53 67 54 71 55
REMARK SMILES IDX 74 56 68 57 69 58 72 59 70 60 49 61 50 62 58 63 51 64 52 65
REMARK SMILES IDX 56 66 59 67 53 68 54 69 57 70 55 71 6 72 7 73 8 74 9 75
REMARK SMILES IDX 10 76 11 77 12 79 13 80 14 81 22 82 15 83 16 84 17 87 21 88
REMARK SMILES IDX 18 89 20 90 19 91
REMARK H PARENT 3 6 79 24 47 35 10 78 22 85 22 86
REMARK Flexibility Score: inf
ROOT
ATOM      1  C   UNL A   1      31.296  32.020  26.424  1.00  0.00     0.021 C 
ENDROOT
BRANCH   1   2
ATOM      2  C   UNL A   1      32.534  32.519  27.159  1.00  0.00     0.116 C 
BRANCH   2   3
ATOM      3  N   UNL A   1      32.405  33.909  27.559  1.00  0.00    -0.352 N 
ATOM      4  O   UNL A   1      32.686  35.702  28.901  1.00  0.00    -0.269 OA
ATOM      5  C   UNL A   1      33.070  34.597  28.543  1.00  0.00     0.251 C 
ATOM      6  H   UNL A   1      31.746  34.435  27.051  1.00  0.00     0.163 HD
BRANCH   5   7
ATOM      7  C   UNL A   1      34.256  33.985  29.177  1.00  0.00     0.039 A 
ATOM      8  C   UNL A   1      34.105  32.960  30.113  1.00  0.00     0.014 A 
ATOM      9  C   UNL A   1      35.531  34.430  28.816  1.00  0.00     0.014 A 
ATOM     10  C   UNL A   1      35.216  32.473  30.787  1.00  0.00     0.010 A 
ATOM     11  C   UNL A   1      36.655  33.870  29.425  1.00  0.00     0.010 A 
ATOM     12  C   UNL A   1      36.505  32.900  30.430  1.00  0.00    -0.014 A 
BRANCH  12  13
ATOM     13  C   UNL A   1      37.680  32.250  31.057  1.00  0.00     0.031 A 
ATOM     14  C   UNL A   1      38.149  32.636  32.429  1.00  0.00     0.074 A 
ATOM     15  C   UNL A   1      38.319  31.285  30.366  1.00  0.00     0.049 A 
ATOM     16  N   UNL A   1      39.158  32.165  33.118  1.00  0.00    -0.248 NA
ATOM     17  C   UNL A   1      37.394  33.693  33.119  1.00  0.00     0.031 C 
ATOM     18  C   UNL A   1      37.958  30.841  29.017  1.00  0.00     0.029 A 
ATOM     19  N   UNL A   1      39.391  30.498  30.697  1.00  0.00    -0.354 N 
ATOM     20  C   UNL A   1      39.173  32.878  34.309  1.00  0.00     0.074 A 
ATOM     21  C   UNL A   1      38.087  33.832  34.242  1.00  0.00     0.031 C 
ATOM     22  C   UNL A   1      38.765  29.836  28.653  1.00  0.00     0.029 A 
ATOM     23  C   UNL A   1      39.745  29.613  29.710  1.00  0.00     0.049 A 
ATOM     24  H   UNL A   1      39.862  30.563  31.559  1.00  0.00     0.167 HD
ATOM     25  C   UNL A   1      40.014  32.738  35.362  1.00  0.00     0.037 A 
ATOM     26  C   UNL A   1      40.761  28.734  29.647  1.00  0.00     0.037 A 
ATOM     27  C   UNL A   1      41.089  31.777  35.418  1.00  0.00     0.049 A 
ATOM     28  C   UNL A   1      41.697  28.627  30.816  1.00  0.00     0.074 A 
ATOM     29  C   UNL A   1      41.970  31.529  36.455  1.00  0.00     0.029 A 
ATOM     30  N   UNL A   1      41.434  30.914  34.387  1.00  0.00    -0.354 N 
ATOM     31  N   UNL A   1      41.673  29.274  31.956  1.00  0.00    -0.248 NA
ATOM     32  C   UNL A   1      42.801  27.668  30.690  1.00  0.00     0.031 C 
ATOM     33  C   UNL A   1      42.886  30.560  36.031  1.00  0.00     0.029 A 
ATOM     34  C   UNL A   1      42.535  30.154  34.753  1.00  0.00     0.049 A 
ATOM     35  H   UNL A   1      40.966  30.850  33.524  1.00  0.00     0.167 HD
ATOM     36  C   UNL A   1      42.744  28.788  32.691  1.00  0.00     0.074 A 
ATOM     37  C   UNL A   1      43.383  27.776  31.875  1.00  0.00     0.031 C 
ATOM     38  C   UNL A   1      43.161  29.150  33.929  1.00  0.00     0.037 A 
BRANCH  25  39
ATOM     39  C   UNL A   1      39.829  33.659  36.535  1.00  0.00     0.064 A 
ATOM     40  C   UNL A   1      40.469  34.904  36.609  1.00  0.00     0.173 A 
ATOM     41  C   UNL A   1      38.953  33.312  37.577  1.00  0.00     0.173 A 
ATOM     42  F   UNL A   1      41.323  35.283  35.646  1.00  0.00    -0.203 F 
ATOM     43  C   UNL A   1      40.260  35.756  37.692  1.00  0.00     0.198 A 
ATOM     44  C   UNL A   1      38.723  34.178  38.643  1.00  0.00     0.198 A 
ATOM     45  F   UNL A   1      38.308  32.136  37.555  1.00  0.00    -0.203 F 
ATOM     46  F   UNL A   1      40.918  36.922  37.761  1.00  0.00    -0.200 F 
ATOM     47  C   UNL A   1      39.382  35.397  38.703  1.00  0.00     0.200 A 
ATOM     48  F   UNL A   1      37.862  33.835  39.610  1.00  0.00    -0.200 F 
ATOM     49  F   UNL A   1      39.174  36.222  39.738  1.00  0.00    -0.200 F 
ENDBRANCH  25  39
BRANCH  26  50
ATOM     50  C   UNL A   1      40.943  27.903  28.430  1.00  0.00     0.064 A 
ATOM     51  C   UNL A   1      41.770  28.326  27.381  1.00  0.00     0.173 A 
ATOM     52  C   UNL A   1      40.305  26.661  28.298  1.00  0.00     0.173 A 
ATOM     53  F   UNL A   1      42.388  29.514  27.454  1.00  0.00    -0.203 F 
ATOM     54  C   UNL A   1      41.937  27.547  26.240  1.00  0.00     0.198 A 
ATOM     55  C   UNL A   1      40.500  25.866  27.170  1.00  0.00     0.198 A 
ATOM     56  F   UNL A   1      39.509  26.205  29.277  1.00  0.00    -0.203 F 
ATOM     57  F   UNL A   1      42.699  27.994  25.231  1.00  0.00    -0.200 F 
ATOM     58  C   UNL A   1      41.309  26.314  26.139  1.00  0.00     0.200 A 
ATOM     59  F   UNL A   1      39.908  24.667  27.088  1.00  0.00    -0.200 F 
ATOM     60  F   UNL A   1      41.479  25.561  25.043  1.00  0.00    -0.200 F 
ENDBRANCH  26  50
BRANCH  38  61
ATOM     61  C   UNL A   1      44.348  28.421  34.490  1.00  0.00     0.064 A 
ATOM     62  C   UNL A   1      45.654  28.906  34.333  1.00  0.00     0.173 A 
ATOM     63  C   UNL A   1      44.171  27.232  35.214  1.00  0.00     0.173 A 
ATOM     64  F   UNL A   1      45.880  30.028  33.633  1.00  0.00    -0.203 F 
ATOM     65  C   UNL A   1      46.743  28.212  34.857  1.00  0.00     0.198 A 
ATOM     66  C   UNL A   1      45.258  26.560  35.766  1.00  0.00     0.198 A 
ATOM     67  F   UNL A   1      42.941  26.728  35.397  1.00  0.00    -0.203 F 
ATOM     68  F   UNL A   1      47.987  28.664  34.646  1.00  0.00    -0.200 F 
ATOM     69  C   UNL A   1      46.543  27.045  35.578  1.00  0.00     0.200 A 
ATOM     70  F   UNL A   1      45.061  25.440  36.476  1.00  0.00    -0.200 F 
ATOM     71  F   UNL A   1      47.591  26.382  36.087  1.00  0.00    -0.200 F 
ENDBRANCH  38  61
ENDBRANCH  12  13
ENDBRANCH   5   7
ENDBRANCH   2   3
ENDBRANCH   1   2
BRANCH   1  72
ATOM     72  C   UNL A   1      31.386  30.573  25.942  1.00  0.00     0.002 C 
BRANCH  72  73
ATOM     73  C   UNL A   1      32.322  29.675  26.757  1.00  0.00     0.002 C 
BRANCH  73  74
ATOM     74  C   UNL A   1      31.673  28.414  27.331  1.00  0.00     0.021 C 
BRANCH  74  75
ATOM     75  C   UNL A   1      31.367  27.326  26.297  1.00  0.00     0.116 C 
BRANCH  75  76
ATOM     76  N   UNL A   1      31.413  26.023  26.919  1.00  0.00    -0.351 N 
ATOM     77  C   UNL A   1      31.434  24.746  26.470  1.00  0.00     0.279 C 
ATOM     78  H   UNL A   1      31.433  26.076  27.901  1.00  0.00     0.163 HD
ATOM     79  O   UNL A   1      31.260  23.906  27.369  1.00  0.00    -0.268 OA
BRANCH  77  80
ATOM     80  C   UNL A   1      31.817  24.256  25.057  1.00  0.00     0.283 C 
ATOM     81  C   UNL A   1      32.287  25.428  24.193  1.00  0.00     0.151 C 
ATOM     82  N   UNL A   1      32.791  23.178  24.880  1.00  0.00    -0.322 N 
ATOM     83  S   UNL A   1      34.091  25.414  24.343  1.00  0.00    -0.089 SA
ATOM     84  C   UNL A   1      34.170  23.632  24.737  1.00  0.00     0.143 C 
ATOM     85  H   UNL A   1      32.540  22.653  24.044  1.00  0.00     0.348 HD
ATOM     86  H   UNL A   1      32.758  22.611  25.729  1.00  0.00     0.348 HD
ATOM     87  C   UNL A   1      34.976  23.405  26.025  1.00  0.00     0.081 C 
ATOM     88  C   UNL A   1      34.810  22.849  23.572  1.00  0.00     0.081 C 
ATOM     89  C   UNL A   1      36.485  23.605  25.887  1.00  0.00     0.007 C 
ATOM     90  C   UNL A   1      36.318  23.080  23.432  1.00  0.00     0.007 C 
ATOM     91  C   UNL A   1      37.053  22.790  24.736  1.00  0.00     0.001 C 
ENDBRANCH  77  80
ENDBRANCH  75  76
ENDBRANCH  74  75
ENDBRANCH  73  74
ENDBRANCH  72  73
ENDBRANCH   1  72
TORSDOF 13
ENDMDL
MODEL 3
REMARK VINA RESULT:     -11.9      2.292      3.762
REMARK SMILES O=C(NCCCCCCNC(=O)[C@H]1CSC2(CCCCC2)[NH2+]1)c1ccc(-c2c3nc(c(-c4c(F)c(F)c(F)c(F)c4F)c4ccc([nH]4)c(-c4c(F)c(F)c(F)c(F)c4F)c4nc(c(-c5c(F)c(F)c(F)c(F)c5F)c5ccc2[nH]5)C=C4)C=C3)cc1
REMARK SMILES IDX 5 1 4 2 3 3 1 4 2 5 23 7 24 8 85 9 25 10 84 11 26 12 27 13
REMARK SMILES IDX 28 14 78 15 29 16 83 17 77 18 79 19 30 20 82 21 76 22 75 23
REMARK SMILES IDX 31 25 63 26 43 27 62 28 44 29 47 30 61 31 80 32 45 33 46 34
REMARK SMILES IDX 60 36 81 37 48 38 32 39 33 40 41 41 34 42 35 43 39 44 42 45
REMARK SMILES IDX 36 46 37 47 40 48 38 49 64 50 65 51 73 52 66 53 67 54 71 55
REMARK SMILES IDX 74 56 68 57 69 58 72 59 70 60 49 61 50 62 58 63 51 64 52 65
REMARK SMILES IDX 56 66 59 67 53 68 54 69 57 70 55 71 6 72 7 73 8 74 9 75
REMARK SMILES IDX 10 76 11 77 12 79 13 80 14 81 22 82 15 83 16 84 17 87 21 88
REMARK SMILES IDX 18 89 20 90 19 91
REMARK H PARENT 3 6 79 24 47 35 10 78 22 85 22 86
REMARK Flexibility Score: inf
ROOT
ATOM      1  C   UNL A   1      33.336  35.342  28.843  1.00  0.00     0.021 C 
ENDROOT
BRANCH   1   2
ATOM      2  C   UNL A   1      33.418  36.538  29.784  1.00  0.00     0.116 C 
BRANCH   2   3
ATOM      3  N   UNL A   1      32.440  36.453  30.855  1.00  0.00    -0.352 N 
ATOM      4  O   UNL A   1      31.448  35.557  32.673  1.00  0.00    -0.269 OA
ATOM      5  C   UNL A   1      32.453  35.674  31.985  1.00  0.00     0.251 C 
ATOM      6  H   UNL A   1      31.656  37.040  30.758  1.00  0.00     0.163 HD
BRANCH   5   7
ATOM      7  C   UNL A   1      33.694  34.966  32.361  1.00  0.00     0.039 A 
ATOM      8  C   UNL A   1      34.921  35.632  32.334  1.00  0.00     0.014 A 
ATOM      9  C   UNL A   1      33.624  33.629  32.761  1.00  0.00     0.014 A 
ATOM     10  C   UNL A   1      36.092  34.928  32.576  1.00  0.00     0.010 A 
ATOM     11  C   UNL A   1      34.795  32.948  33.098  1.00  0.00     0.010 A 
ATOM     12  C   UNL A   1      36.040  33.588  32.990  1.00  0.00    -0.014 A 
BRANCH  12  13
ATOM     13  C   UNL A   1      37.296  32.908  33.391  1.00  0.00     0.031 A 
ATOM     14  C   UNL A   1      37.961  31.903  32.498  1.00  0.00     0.074 A 
ATOM     15  C   UNL A   1      37.838  33.224  34.584  1.00  0.00     0.049 A 
ATOM     16  N   UNL A   1      39.060  31.220  32.702  1.00  0.00    -0.248 NA
ATOM     17  C   UNL A   1      37.308  31.618  31.211  1.00  0.00     0.031 C 
ATOM     18  C   UNL A   1      37.266  34.177  35.539  1.00  0.00     0.029 A 
ATOM     19  N   UNL A   1      38.988  32.794  35.193  1.00  0.00    -0.354 N 
ATOM     20  C   UNL A   1      39.221  30.413  31.583  1.00  0.00     0.074 A 
ATOM     21  C   UNL A   1      38.093  30.671  30.713  1.00  0.00     0.031 C 
ATOM     22  C   UNL A   1      38.086  34.291  36.592  1.00  0.00     0.029 A 
ATOM     23  C   UNL A   1      39.202  33.368  36.422  1.00  0.00     0.049 A 
ATOM     24  H   UNL A   1      39.600  32.138  34.788  1.00  0.00     0.167 HD
ATOM     25  C   UNL A   1      40.224  29.544  31.311  1.00  0.00     0.037 A 
ATOM     26  C   UNL A   1      40.174  33.156  37.327  1.00  0.00     0.037 A 
ATOM     27  C   UNL A   1      41.346  29.302  32.185  1.00  0.00     0.049 A 
ATOM     28  C   UNL A   1      41.253  32.162  37.010  1.00  0.00     0.074 A 
ATOM     29  C   UNL A   1      42.435  28.473  31.982  1.00  0.00     0.029 A 
ATOM     30  N   UNL A   1      41.515  29.881  33.435  1.00  0.00    -0.354 N 
ATOM     31  N   UNL A   1      41.420  31.440  35.929  1.00  0.00    -0.248 NA
ATOM     32  C   UNL A   1      42.280  31.954  38.039  1.00  0.00     0.031 C 
ATOM     33  C   UNL A   1      43.230  28.503  33.131  1.00  0.00     0.029 A 
ATOM     34  C   UNL A   1      42.675  29.403  34.027  1.00  0.00     0.049 A 
ATOM     35  H   UNL A   1      40.903  30.536  33.842  1.00  0.00     0.167 HD
ATOM     36  C   UNL A   1      42.578  30.705  36.138  1.00  0.00     0.074 A 
ATOM     37  C   UNL A   1      43.084  31.089  37.439  1.00  0.00     0.031 C 
ATOM     38  C   UNL A   1      43.166  29.794  35.325  1.00  0.00     0.037 A 
BRANCH  25  39
ATOM     39  C   UNL A   1      40.150  28.768  30.026  1.00  0.00     0.064 A 
ATOM     40  C   UNL A   1      40.747  29.230  28.845  1.00  0.00     0.173 A 
ATOM     41  C   UNL A   1      39.517  27.515  29.991  1.00  0.00     0.173 A 
ATOM     42  F   UNL A   1      41.358  30.424  28.819  1.00  0.00    -0.203 F 
ATOM     43  C   UNL A   1      40.691  28.480  27.671  1.00  0.00     0.198 A 
ATOM     44  C   UNL A   1      39.489  26.754  28.825  1.00  0.00     0.198 A 
ATOM     45  F   UNL A   1      38.935  27.020  31.094  1.00  0.00    -0.203 F 
ATOM     46  F   UNL A   1      41.231  28.964  26.543  1.00  0.00    -0.200 F 
ATOM     47  C   UNL A   1      40.070  27.241  27.664  1.00  0.00     0.200 A 
ATOM     48  F   UNL A   1      38.902  25.550  28.825  1.00  0.00    -0.200 F 
ATOM     49  F   UNL A   1      40.027  26.516  26.537  1.00  0.00    -0.200 F 
ENDBRANCH  25  39
BRANCH  26  50
ATOM     50  C   UNL A   1      40.155  33.897  38.615  1.00  0.00     0.064 A 
ATOM     51  C   UNL A   1      39.402  33.436  39.703  1.00  0.00     0.173 A 
ATOM     52  C   UNL A   1      40.903  35.071  38.787  1.00  0.00     0.173 A 
ATOM     53  F   UNL A   1      38.658  32.328  39.581  1.00  0.00    -0.203 F 
ATOM     54  C   UNL A   1      39.384  34.133  40.908  1.00  0.00     0.198 A 
ATOM     55  C   UNL A   1      40.912  35.747  40.005  1.00  0.00     0.198 A 
ATOM     56  F   UNL A   1      41.648  35.549  37.779  1.00  0.00    -0.203 F 
ATOM     57  F   UNL A   1      38.621  33.696  41.920  1.00  0.00    -0.200 F 
ATOM     58  C   UNL A   1      40.145  35.283  41.061  1.00  0.00     0.200 A 
ATOM     59  F   UNL A   1      41.665  36.846  40.154  1.00  0.00    -0.200 F 
ATOM     60  F   UNL A   1      40.134  35.946  42.226  1.00  0.00    -0.200 F 
ENDBRANCH  26  50
BRANCH  38  61
ATOM     61  C   UNL A   1      44.445  29.173  35.808  1.00  0.00     0.064 A 
ATOM     62  C   UNL A   1      44.456  27.978  36.541  1.00  0.00     0.173 A 
ATOM     63  C   UNL A   1      45.679  29.774  35.511  1.00  0.00     0.173 A 
ATOM     64  F   UNL A   1      43.302  27.375  36.866  1.00  0.00    -0.203 F 
ATOM     65  C   UNL A   1      45.653  27.421  36.984  1.00  0.00     0.198 A 
ATOM     66  C   UNL A   1      46.875  29.195  35.927  1.00  0.00     0.198 A 
ATOM     67  F   UNL A   1      45.725  30.915  34.809  1.00  0.00    -0.203 F 
ATOM     68  F   UNL A   1      45.634  26.309  37.731  1.00  0.00    -0.200 F 
ATOM     69  C   UNL A   1      46.860  28.025  36.671  1.00  0.00     0.200 A 
ATOM     70  F   UNL A   1      48.042  29.772  35.609  1.00  0.00    -0.200 F 
ATOM     71  F   UNL A   1      48.012  27.484  37.093  1.00  0.00    -0.200 F 
ENDBRANCH  38  61
ENDBRANCH  12  13
ENDBRANCH   5   7
ENDBRANCH   2   3
ENDBRANCH   1   2
BRANCH   1  72
ATOM     72  C   UNL A   1      34.661  34.966  28.180  1.00  0.00     0.002 C 
BRANCH  72  73
ATOM     73  C   UNL A   1      35.519  33.969  28.964  1.00  0.00     0.002 C 
BRANCH  73  74
ATOM     74  C   UNL A   1      34.821  32.654  29.319  1.00  0.00     0.021 C 
BRANCH  74  75
ATOM     75  C   UNL A   1      34.943  31.559  28.257  1.00  0.00     0.116 C 
BRANCH  75  76
ATOM     76  N   UNL A   1      33.655  30.950  28.021  1.00  0.00    -0.351 N 
ATOM     77  C   UNL A   1      33.130  30.156  27.058  1.00  0.00     0.279 C 
ATOM     78  H   UNL A   1      33.003  31.162  28.728  1.00  0.00     0.163 HD
ATOM     79  O   UNL A   1      31.896  30.033  27.140  1.00  0.00    -0.268 OA
BRANCH  77  80
ATOM     80  C   UNL A   1      33.898  29.291  26.035  1.00  0.00     0.283 C 
ATOM     81  C   UNL A   1      33.906  27.825  26.473  1.00  0.00     0.151 C 
ATOM     82  N   UNL A   1      33.534  29.312  24.618  1.00  0.00    -0.322 N 
ATOM     83  S   UNL A   1      32.515  27.075  25.588  1.00  0.00    -0.089 SA
ATOM     84  C   UNL A   1      32.551  28.304  24.236  1.00  0.00     0.143 C 
ATOM     85  H   UNL A   1      34.378  29.159  24.069  1.00  0.00     0.348 HD
ATOM     86  H   UNL A   1      33.104  30.220  24.440  1.00  0.00     0.348 HD
ATOM     87  C   UNL A   1      31.158  28.920  24.037  1.00  0.00     0.081 C 
ATOM     88  C   UNL A   1      33.028  27.648  22.924  1.00  0.00     0.081 C 
ATOM     89  C   UNL A   1      30.130  27.996  23.386  1.00  0.00     0.007 C 
ATOM     90  C   UNL A   1      31.995  26.706  22.297  1.00  0.00     0.007 C 
ATOM     91  C   UNL A   1      30.655  27.402  22.088  1.00  0.00     0.001 C 
ENDBRANCH  77  80
ENDBRANCH  75  76
ENDBRANCH  74  75
ENDBRANCH  73  74
ENDBRANCH  72  73
ENDBRANCH   1  72
TORSDOF 13
ENDMDL
