MODEL 1
REMARK VINA RESULT:     -12.5      0.000      0.000
REMARK SMILES COc1cc(/N=N/c2ccccc2)ccc1NC(=O)[C@H]1CC=CC[C@@H]1C(=O)NCCCCCCNC(=O)c1ccc(-c2c3nc(c(-c4c(F)c(F)c(F)c(F)c4F)c4ccc([nH]4)c(-c4c(F)c(F)c(F)c(F)c4F)c4nc(c(-c5c(F)c(F)c(F)c(F)c5F)c5ccc2[nH]5)C=C4)C=C3)cc1
REMARK SMILES IDX 30 1 29 2 28 3 26 4 27 5 25 7 20 8 21 9 22 10 24 11 23 12
REMARK SMILES IDX 18 13 17 14 19 16 16 17 3 18 4 19 5 20 15 21 14 22 2 23 1 24
REMARK SMILES IDX 6 25 7 26 8 27 9 28 13 29 10 30 12 31 11 32 31 33 32 34
REMARK SMILES IDX 33 35 34 36 35 37 36 38 37 40 38 41 39 42 100 43 40 44 99 45
REMARK SMILES IDX 41 46 42 47 43 48 93 49 44 50 98 51 92 52 94 53 45 54 97 55
REMARK SMILES IDX 91 56 90 57 46 59 78 60 58 61 77 62 59 63 62 64 76 65 95 66
REMARK SMILES IDX 60 67 61 68 75 70 96 71 63 72 47 73 48 74 56 75 49 76 50 77
REMARK SMILES IDX 54 78 57 79 51 80 52 81 55 82 53 83 79 84 80 85 88 86 81 87
REMARK SMILES IDX 82 88 86 89 89 90 83 91 84 92 87 93 85 94 64 95 65 96 73 97
REMARK SMILES IDX 66 98 67 99 71 100 74 101 68 102 69 103 72 104 70 105
REMARK H PARENT 28 6 17 15 35 39 94 58 62 69
REMARK Flexibility Score: inf
ROOT
ATOM      1  C   UNL A   1      35.946  23.615  24.559  1.00  0.00     0.021 C 
ENDROOT
BRANCH   1   2
ATOM      2  C   UNL A   1      34.572  23.767  23.924  1.00  0.00     0.116 C 
BRANCH   2   3
ATOM      3  N   UNL A   1      34.474  25.010  23.195  1.00  0.00    -0.356 N 
ATOM      4  C   UNL A   1      33.844  26.159  23.544  1.00  0.00     0.224 C 
ATOM      5  O   UNL A   1      33.656  26.985  22.649  1.00  0.00    -0.275 OA
ATOM      6  H   UNL A   1      34.928  25.026  22.322  1.00  0.00     0.163 HD
BRANCH   4   7
ATOM      7  C   UNL A   1      33.330  26.338  24.968  1.00  0.00     0.095 C 
ATOM      8  C   UNL A   1      31.913  26.996  24.959  1.00  0.00     0.095 C 
ATOM      9  C   UNL A   1      32.104  28.452  24.475  1.00  0.00     0.041 C 
ATOM     10  C   UNL A   1      33.110  29.229  25.253  1.00  0.00    -0.030 C 
ATOM     11  C   UNL A   1      34.280  27.134  25.908  1.00  0.00     0.041 C 
ATOM     12  C   UNL A   1      34.090  28.622  25.925  1.00  0.00    -0.030 C 
BRANCH   8  13
ATOM     13  C   UNL A   1      31.299  26.689  26.343  1.00  0.00     0.228 C 
ATOM     14  N   UNL A   1      30.963  25.473  26.831  1.00  0.00    -0.323 N 
ATOM     15  H   UNL A   1      30.413  25.525  27.646  1.00  0.00     0.170 HD
ATOM     16  O   UNL A   1      31.058  27.622  27.128  1.00  0.00    -0.274 OA
BRANCH  14  17
ATOM     17  C   UNL A   1      31.226  24.161  26.434  1.00  0.00     0.083 A 
ATOM     18  C   UNL A   1      30.869  23.690  25.157  1.00  0.00     0.144 A 
ATOM     19  C   UNL A   1      31.437  22.486  24.695  1.00  0.00     0.079 A 
ATOM     20  C   UNL A   1      32.287  21.723  25.502  1.00  0.00     0.090 A 
ATOM     21  C   UNL A   1      31.890  23.300  27.304  1.00  0.00     0.032 A 
ATOM     22  C   UNL A   1      32.446  22.113  26.834  1.00  0.00     0.033 A 
BRANCH  18  23
ATOM     23  O   UNL A   1      30.123  24.331  24.201  1.00  0.00    -0.494 OA
ATOM     24  C   UNL A   1      30.644  24.449  22.881  1.00  0.00     0.278 C 
ENDBRANCH  18  23
BRANCH  20  25
ATOM     25  N   UNL A   1      32.929  20.568  24.994  1.00  0.00    -0.150 NA
ATOM     26  N   UNL A   1      32.535  19.553  25.617  1.00  0.00    -0.151 NA
BRANCH  26  27
ATOM     27  C   UNL A   1      32.964  18.354  25.023  1.00  0.00     0.086 A 
ATOM     28  C   UNL A   1      32.858  17.164  25.755  1.00  0.00     0.030 A 
ATOM     29  C   UNL A   1      33.576  18.320  23.766  1.00  0.00     0.030 A 
ATOM     30  C   UNL A   1      33.339  15.959  25.237  1.00  0.00     0.002 A 
ATOM     31  C   UNL A   1      34.060  17.117  23.245  1.00  0.00     0.002 A 
ATOM     32  C   UNL A   1      33.943  15.938  23.982  1.00  0.00     0.000 A 
ENDBRANCH  26  27
ENDBRANCH  20  25
ENDBRANCH  14  17
ENDBRANCH   8  13
ENDBRANCH   4   7
ENDBRANCH   2   3
ENDBRANCH   1   2
BRANCH   1  33
ATOM     33  C   UNL A   1      36.720  22.375  24.094  1.00  0.00     0.002 C 
BRANCH  33  34
ATOM     34  C   UNL A   1      36.613  21.156  25.016  1.00  0.00     0.002 C 
BRANCH  34  35
ATOM     35  C   UNL A   1      37.774  20.166  24.915  1.00  0.00     0.021 C 
BRANCH  35  36
ATOM     36  C   UNL A   1      38.995  20.540  25.742  1.00  0.00     0.116 C 
BRANCH  36  37
ATOM     37  N   UNL A   1      39.963  19.461  25.812  1.00  0.00    -0.352 N 
ATOM     38  C   UNL A   1      41.312  19.529  26.056  1.00  0.00     0.251 C 
ATOM     39  H   UNL A   1      39.604  18.557  25.661  1.00  0.00     0.163 HD
ATOM     40  O   UNL A   1      42.024  18.547  25.910  1.00  0.00    -0.269 OA
BRANCH  38  41
ATOM     41  C   UNL A   1      41.901  20.818  26.476  1.00  0.00     0.039 A 
ATOM     42  C   UNL A   1      42.327  21.711  25.491  1.00  0.00     0.014 A 
ATOM     43  C   UNL A   1      42.014  21.149  27.829  1.00  0.00     0.014 A 
ATOM     44  C   UNL A   1      42.819  22.962  25.865  1.00  0.00     0.010 A 
ATOM     45  C   UNL A   1      42.427  22.425  28.196  1.00  0.00     0.010 A 
ATOM     46  C   UNL A   1      42.841  23.342  27.218  1.00  0.00    -0.014 A 
BRANCH  46  47
ATOM     47  C   UNL A   1      43.302  24.693  27.624  1.00  0.00     0.031 A 
ATOM     48  C   UNL A   1      42.297  25.763  27.953  1.00  0.00     0.074 A 
ATOM     49  C   UNL A   1      44.620  24.968  27.652  1.00  0.00     0.049 A 
ATOM     50  N   UNL A   1      42.497  27.018  28.265  1.00  0.00    -0.248 NA
ATOM     51  C   UNL A   1      40.876  25.379  27.898  1.00  0.00     0.031 C 
ATOM     52  C   UNL A   1      45.688  24.027  27.313  1.00  0.00     0.029 A 
ATOM     53  N   UNL A   1      45.287  26.125  27.970  1.00  0.00    -0.354 N 
ATOM     54  C   UNL A   1      41.234  27.569  28.441  1.00  0.00     0.074 A 
ATOM     55  C   UNL A   1      40.272  26.532  28.138  1.00  0.00     0.031 C 
ATOM     56  C   UNL A   1      46.875  24.636  27.461  1.00  0.00     0.029 A 
ATOM     57  C   UNL A   1      46.653  26.021  27.862  1.00  0.00     0.049 A 
ATOM     58  H   UNL A   1      44.830  26.951  28.250  1.00  0.00     0.167 HD
ATOM     59  C   UNL A   1      40.908  28.819  28.848  1.00  0.00     0.037 A 
ATOM     60  C   UNL A   1      47.615  26.944  28.052  1.00  0.00     0.037 A 
ATOM     61  C   UNL A   1      41.869  29.844  29.163  1.00  0.00     0.049 A 
ATOM     62  C   UNL A   1      47.219  28.335  28.476  1.00  0.00     0.074 A 
ATOM     63  C   UNL A   1      41.639  31.130  29.618  1.00  0.00     0.029 A 
ATOM     64  N   UNL A   1      43.244  29.696  29.055  1.00  0.00    -0.354 N 
ATOM     65  N   UNL A   1      46.024  28.826  28.701  1.00  0.00    -0.248 NA
ATOM     66  C   UNL A   1      48.309  29.299  28.681  1.00  0.00     0.031 C 
ATOM     67  C   UNL A   1      42.873  31.777  29.737  1.00  0.00     0.029 A 
ATOM     68  C   UNL A   1      43.873  30.876  29.417  1.00  0.00     0.049 A 
ATOM     69  H   UNL A   1      43.704  28.875  28.765  1.00  0.00     0.167 HD
ATOM     70  C   UNL A   1      46.220  30.139  29.105  1.00  0.00     0.074 A 
ATOM     71  C   UNL A   1      47.650  30.364  29.114  1.00  0.00     0.031 C 
ATOM     72  C   UNL A   1      45.300  31.077  29.437  1.00  0.00     0.037 A 
BRANCH  59  73
ATOM     73  C   UNL A   1      39.450  29.150  28.990  1.00  0.00     0.064 A 
ATOM     74  C   UNL A   1      38.669  29.509  27.881  1.00  0.00     0.173 A 
ATOM     75  C   UNL A   1      38.812  29.046  30.235  1.00  0.00     0.173 A 
ATOM     76  F   UNL A   1      39.233  29.634  26.669  1.00  0.00    -0.203 F 
ATOM     77  C   UNL A   1      37.308  29.771  28.015  1.00  0.00     0.198 A 
ATOM     78  C   UNL A   1      37.444  29.278  30.361  1.00  0.00     0.198 A 
ATOM     79  F   UNL A   1      39.510  28.701  31.327  1.00  0.00    -0.203 F 
ATOM     80  F   UNL A   1      36.592  30.152  26.949  1.00  0.00    -0.200 F 
ATOM     81  C   UNL A   1      36.695  29.645  29.252  1.00  0.00     0.200 A 
ATOM     82  F   UNL A   1      36.851  29.140  31.554  1.00  0.00    -0.200 F 
ATOM     83  F   UNL A   1      35.381  29.880  29.379  1.00  0.00    -0.200 F 
ENDBRANCH  59  73
BRANCH  60  84
ATOM     84  C   UNL A   1      49.045  26.593  27.846  1.00  0.00     0.064 A 
ATOM     85  C   UNL A   1      49.588  26.494  26.556  1.00  0.00     0.173 A 
ATOM     86  C   UNL A   1      49.891  26.310  28.930  1.00  0.00     0.173 A 
ATOM     87  F   UNL A   1      48.818  26.737  25.486  1.00  0.00    -0.203 F 
ATOM     88  C   UNL A   1      50.906  26.087  26.358  1.00  0.00     0.198 A 
ATOM     89  C   UNL A   1      51.219  25.938  28.731  1.00  0.00     0.198 A 
ATOM     90  F   UNL A   1      49.426  26.395  30.185  1.00  0.00    -0.203 F 
ATOM     91  F   UNL A   1      51.377  25.934  25.112  1.00  0.00    -0.200 F 
ATOM     92  C   UNL A   1      51.721  25.812  27.445  1.00  0.00     0.200 A 
ATOM     93  F   UNL A   1      52.007  25.690  29.786  1.00  0.00    -0.200 F 
ATOM     94  F   UNL A   1      52.987  25.416  27.253  1.00  0.00    -0.200 F 
ENDBRANCH  60  84
BRANCH  72  95
ATOM     95  C   UNL A   1      45.810  32.417  29.887  1.00  0.00     0.064 A 
ATOM     96  C   UNL A   1      45.997  33.477  28.988  1.00  0.00     0.173 A 
ATOM     97  C   UNL A   1      46.078  32.652  31.245  1.00  0.00     0.173 A 
ATOM     98  F   UNL A   1      45.768  33.300  27.678  1.00  0.00    -0.203 F 
ATOM     99  C   UNL A   1      46.462  34.714  29.428  1.00  0.00     0.198 A 
ATOM    100  C   UNL A   1      46.509  33.900  31.685  1.00  0.00     0.198 A 
ATOM    101  F   UNL A   1      45.908  31.674  32.148  1.00  0.00    -0.203 F 
ATOM    102  F   UNL A   1      46.685  35.696  28.543  1.00  0.00    -0.200 F 
ATOM    103  C   UNL A   1      46.710  34.926  30.775  1.00  0.00     0.200 A 
ATOM    104  F   UNL A   1      46.731  34.108  32.990  1.00  0.00    -0.200 F 
ATOM    105  F   UNL A   1      47.150  36.120  31.197  1.00  0.00    -0.200 F 
ENDBRANCH  72  95
ENDBRANCH  46  47
ENDBRANCH  38  41
ENDBRANCH  36  37
ENDBRANCH  35  36
ENDBRANCH  34  35
ENDBRANCH  33  34
ENDBRANCH   1  33
TORSDOF 18
ENDMDL
MODEL 2
REMARK VINA RESULT:     -12.5      1.135      2.082
REMARK SMILES COc1cc(/N=N/c2ccccc2)ccc1NC(=O)[C@H]1CC=CC[C@@H]1C(=O)NCCCCCCNC(=O)c1ccc(-c2c3nc(c(-c4c(F)c(F)c(F)c(F)c4F)c4ccc([nH]4)c(-c4c(F)c(F)c(F)c(F)c4F)c4nc(c(-c5c(F)c(F)c(F)c(F)c5F)c5ccc2[nH]5)C=C4)C=C3)cc1
REMARK SMILES IDX 30 1 29 2 28 3 26 4 27 5 25 7 20 8 21 9 22 10 24 11 23 12
REMARK SMILES IDX 18 13 17 14 19 16 16 17 3 18 4 19 5 20 15 21 14 22 2 23 1 24
REMARK SMILES IDX 6 25 7 26 8 27 9 28 13 29 10 30 12 31 11 32 31 33 32 34
REMARK SMILES IDX 33 35 34 36 35 37 36 38 37 40 38 41 39 42 100 43 40 44 99 45
REMARK SMILES IDX 41 46 42 47 43 48 93 49 44 50 98 51 92 52 94 53 45 54 97 55
REMARK SMILES IDX 91 56 90 57 46 59 78 60 58 61 77 62 59 63 62 64 76 65 95 66
REMARK SMILES IDX 60 67 61 68 75 70 96 71 63 72 47 73 48 74 56 75 49 76 50 77
REMARK SMILES IDX 54 78 57 79 51 80 52 81 55 82 53 83 79 84 80 85 88 86 81 87
REMARK SMILES IDX 82 88 86 89 89 90 83 91 84 92 87 93 85 94 64 95 65 96 73 97
REMARK SMILES IDX 66 98 67 99 71 100 74 101 68 102 69 103 72 104 70 105
REMARK H PARENT 28 6 17 15 35 39 94 58 62 69
REMARK Flexibility Score: inf
ROOT
ATOM      1  C   UNL A   1      35.771  23.384  24.298  1.00  0.00     0.021 C 
ENDROOT
BRANCH   1   2
ATOM      2  C   UNL A   1      34.783  24.151  25.165  1.00  0.00     0.116 C 
BRANCH   2   3
ATOM      3  N   UNL A   1      34.899  25.574  24.947  1.00  0.00    -0.356 N 
ATOM      4  C   UNL A   1      33.919  26.501  24.810  1.00  0.00     0.224 C 
ATOM      5  O   UNL A   1      34.249  27.597  24.355  1.00  0.00    -0.275 OA
ATOM      6  H   UNL A   1      35.818  25.920  24.889  1.00  0.00     0.163 HD
BRANCH   4   7
ATOM      7  C   UNL A   1      32.476  26.130  25.134  1.00  0.00     0.095 C 
ATOM      8  C   UNL A   1      31.495  26.829  24.138  1.00  0.00     0.095 C 
ATOM      9  C   UNL A   1      31.544  28.341  24.457  1.00  0.00     0.041 C 
ATOM     10  C   UNL A   1      31.272  28.675  25.884  1.00  0.00    -0.030 C 
ATOM     11  C   UNL A   1      32.042  26.421  26.599  1.00  0.00     0.041 C 
ATOM     12  C   UNL A   1      31.479  27.787  26.858  1.00  0.00    -0.030 C 
BRANCH   8  13
ATOM     13  C   UNL A   1      30.173  26.037  24.226  1.00  0.00     0.228 C 
ATOM     14  N   UNL A   1      30.022  24.695  24.142  1.00  0.00    -0.323 N 
ATOM     15  H   UNL A   1      29.084  24.420  24.028  1.00  0.00     0.170 HD
ATOM     16  O   UNL A   1      29.101  26.646  24.379  1.00  0.00    -0.274 OA
BRANCH  14  17
ATOM     17  C   UNL A   1      30.905  23.614  24.182  1.00  0.00     0.083 A 
ATOM     18  C   UNL A   1      31.126  22.884  25.365  1.00  0.00     0.144 A 
ATOM     19  C   UNL A   1      31.758  21.627  25.278  1.00  0.00     0.079 A 
ATOM     20  C   UNL A   1      32.227  21.129  24.058  1.00  0.00     0.090 A 
ATOM     21  C   UNL A   1      31.559  23.219  23.018  1.00  0.00     0.032 A 
ATOM     22  C   UNL A   1      32.181  21.974  22.946  1.00  0.00     0.033 A 
BRANCH  18  23
ATOM     23  O   UNL A   1      30.672  23.168  26.628  1.00  0.00    -0.494 OA
ATOM     24  C   UNL A   1      29.464  22.565  27.081  1.00  0.00     0.278 C 
ENDBRANCH  18  23
BRANCH  20  25
ATOM     25  N   UNL A   1      32.771  19.826  23.966  1.00  0.00    -0.150 NA
ATOM     26  N   UNL A   1      32.911  19.341  25.114  1.00  0.00    -0.151 NA
BRANCH  26  27
ATOM     27  C   UNL A   1      33.239  17.975  25.088  1.00  0.00     0.086 A 
ATOM     28  C   UNL A   1      32.341  17.055  25.646  1.00  0.00     0.030 A 
ATOM     29  C   UNL A   1      34.469  17.511  24.610  1.00  0.00     0.030 A 
ATOM     30  C   UNL A   1      32.655  15.696  25.711  1.00  0.00     0.002 A 
ATOM     31  C   UNL A   1      34.787  16.151  24.674  1.00  0.00     0.002 A 
ATOM     32  C   UNL A   1      33.881  15.245  25.227  1.00  0.00     0.000 A 
ENDBRANCH  26  27
ENDBRANCH  20  25
ENDBRANCH  14  17
ENDBRANCH   8  13
ENDBRANCH   4   7
ENDBRANCH   2   3
ENDBRANCH   1   2
BRANCH   1  33
ATOM     33  C   UNL A   1      36.742  22.497  25.085  1.00  0.00     0.002 C 
BRANCH  33  34
ATOM     34  C   UNL A   1      36.423  20.998  25.060  1.00  0.00     0.002 C 
BRANCH  34  35
ATOM     35  C   UNL A   1      37.634  20.083  24.875  1.00  0.00     0.021 C 
BRANCH  35  36
ATOM     36  C   UNL A   1      38.835  20.446  25.735  1.00  0.00     0.116 C 
BRANCH  36  37
ATOM     37  N   UNL A   1      39.784  19.353  25.842  1.00  0.00    -0.352 N 
ATOM     38  C   UNL A   1      41.138  19.407  26.063  1.00  0.00     0.251 C 
ATOM     39  H   UNL A   1      39.406  18.449  25.742  1.00  0.00     0.163 HD
ATOM     40  O   UNL A   1      41.829  18.406  25.953  1.00  0.00    -0.269 OA
BRANCH  38  41
ATOM     41  C   UNL A   1      41.758  20.704  26.410  1.00  0.00     0.039 A 
ATOM     42  C   UNL A   1      42.112  21.574  25.378  1.00  0.00     0.014 A 
ATOM     43  C   UNL A   1      41.969  21.063  27.744  1.00  0.00     0.014 A 
ATOM     44  C   UNL A   1      42.631  22.831  25.687  1.00  0.00     0.010 A 
ATOM     45  C   UNL A   1      42.409  22.347  28.052  1.00  0.00     0.010 A 
ATOM     46  C   UNL A   1      42.751  23.240  27.026  1.00  0.00    -0.014 A 
BRANCH  46  47
ATOM     47  C   UNL A   1      43.242  24.599  27.368  1.00  0.00     0.031 A 
ATOM     48  C   UNL A   1      42.294  25.620  27.935  1.00  0.00     0.074 A 
ATOM     49  C   UNL A   1      44.526  24.926  27.125  1.00  0.00     0.049 A 
ATOM     50  N   UNL A   1      42.513  26.874  28.237  1.00  0.00    -0.248 NA
ATOM     51  C   UNL A   1      40.908  25.181  28.171  1.00  0.00     0.031 C 
ATOM     52  C   UNL A   1      45.528  24.036  26.538  1.00  0.00     0.029 A 
ATOM     53  N   UNL A   1      45.205  26.100  27.331  1.00  0.00    -0.354 N 
ATOM     54  C   UNL A   1      41.299  27.370  28.694  1.00  0.00     0.074 A 
ATOM     55  C   UNL A   1      40.330  26.303  28.569  1.00  0.00     0.031 C 
ATOM     56  C   UNL A   1      46.699  24.688  26.451  1.00  0.00     0.029 A 
ATOM     57  C   UNL A   1      46.520  26.054  26.933  1.00  0.00     0.049 A 
ATOM     58  H   UNL A   1      44.791  26.901  27.727  1.00  0.00     0.167 HD
ATOM     59  C   UNL A   1      41.024  28.596  29.200  1.00  0.00     0.037 A 
ATOM     60  C   UNL A   1      47.469  27.010  26.944  1.00  0.00     0.037 A 
ATOM     61  C   UNL A   1      41.995  29.651  29.337  1.00  0.00     0.049 A 
ATOM     62  C   UNL A   1      47.124  28.373  27.486  1.00  0.00     0.074 A 
ATOM     63  C   UNL A   1      41.823  30.916  29.870  1.00  0.00     0.029 A 
ATOM     64  N   UNL A   1      43.320  29.560  28.936  1.00  0.00    -0.354 N 
ATOM     65  N   UNL A   1      45.989  28.810  27.973  1.00  0.00    -0.248 NA
ATOM     66  C   UNL A   1      48.200  29.375  27.486  1.00  0.00     0.031 C 
ATOM     67  C   UNL A   1      43.031  31.609  29.746  1.00  0.00     0.029 A 
ATOM     68  C   UNL A   1      43.971  30.756  29.193  1.00  0.00     0.049 A 
ATOM     69  H   UNL A   1      43.735  28.766  28.529  1.00  0.00     0.167 HD
ATOM     70  C   UNL A   1      46.221  30.121  28.369  1.00  0.00     0.074 A 
ATOM     71  C   UNL A   1      47.612  30.402  28.082  1.00  0.00     0.031 C 
ATOM     72  C   UNL A   1      45.362  31.013  28.917  1.00  0.00     0.037 A 
BRANCH  59  73
ATOM     73  C   UNL A   1      39.620  28.865  29.657  1.00  0.00     0.064 A 
ATOM     74  C   UNL A   1      39.217  28.609  30.977  1.00  0.00     0.173 A 
ATOM     75  C   UNL A   1      38.683  29.443  28.786  1.00  0.00     0.173 A 
ATOM     76  F   UNL A   1      40.071  28.047  31.847  1.00  0.00    -0.203 F 
ATOM     77  C   UNL A   1      37.924  28.903  31.403  1.00  0.00     0.198 A 
ATOM     78  C   UNL A   1      37.401  29.764  29.224  1.00  0.00     0.198 A 
ATOM     79  F   UNL A   1      39.017  29.712  27.516  1.00  0.00    -0.203 F 
ATOM     80  F   UNL A   1      37.551  28.613  32.657  1.00  0.00    -0.200 F 
ATOM     81  C   UNL A   1      37.021  29.490  30.530  1.00  0.00     0.200 A 
ATOM     82  F   UNL A   1      36.534  30.345  28.384  1.00  0.00    -0.200 F 
ATOM     83  F   UNL A   1      35.782  29.789  30.945  1.00  0.00    -0.200 F 
ENDBRANCH  59  73
BRANCH  60  84
ATOM     84  C   UNL A   1      48.833  26.721  26.429  1.00  0.00     0.064 A 
ATOM     85  C   UNL A   1      49.830  26.202  27.269  1.00  0.00     0.173 A 
ATOM     86  C   UNL A   1      49.184  26.994  25.098  1.00  0.00     0.173 A 
ATOM     87  F   UNL A   1      49.552  25.941  28.554  1.00  0.00    -0.203 F 
ATOM     88  C   UNL A   1      51.131  26.006  26.809  1.00  0.00     0.198 A 
ATOM     89  C   UNL A   1      50.476  26.763  24.630  1.00  0.00     0.198 A 
ATOM     90  F   UNL A   1      48.268  27.485  24.249  1.00  0.00    -0.203 F 
ATOM     91  F   UNL A   1      52.079  25.574  27.653  1.00  0.00    -0.200 F 
ATOM     92  C   UNL A   1      51.452  26.284  25.490  1.00  0.00     0.200 A 
ATOM     93  F   UNL A   1      50.777  27.018  23.349  1.00  0.00    -0.200 F 
ATOM     94  F   UNL A   1      52.704  26.101  25.049  1.00  0.00    -0.200 F 
ENDBRANCH  60  84
BRANCH  72  95
ATOM     95  C   UNL A   1      45.910  32.361  29.290  1.00  0.00     0.064 A 
ATOM     96  C   UNL A   1      45.868  33.448  28.405  1.00  0.00     0.173 A 
ATOM     97  C   UNL A   1      46.449  32.576  30.569  1.00  0.00     0.173 A 
ATOM     98  F   UNL A   1      45.375  33.292  27.167  1.00  0.00    -0.203 F 
ATOM     99  C   UNL A   1      46.375  34.692  28.775  1.00  0.00     0.198 A 
ATOM    100  C   UNL A   1      46.921  33.829  30.947  1.00  0.00     0.198 A 
ATOM    101  F   UNL A   1      46.506  31.571  31.457  1.00  0.00    -0.203 F 
ATOM    102  F   UNL A   1      46.374  35.701  27.893  1.00  0.00    -0.200 F 
ATOM    103  C   UNL A   1      46.892  34.883  30.046  1.00  0.00     0.200 A 
ATOM    104  F   UNL A   1      47.406  34.016  32.182  1.00  0.00    -0.200 F 
ATOM    105  F   UNL A   1      47.371  36.083  30.403  1.00  0.00    -0.200 F 
ENDBRANCH  72  95
ENDBRANCH  46  47
ENDBRANCH  38  41
ENDBRANCH  36  37
ENDBRANCH  35  36
ENDBRANCH  34  35
ENDBRANCH  33  34
ENDBRANCH   1  33
TORSDOF 18
ENDMDL
MODEL 3
REMARK VINA RESULT:     -12.4      1.149      1.553
REMARK SMILES COc1cc(/N=N/c2ccccc2)ccc1NC(=O)[C@H]1CC=CC[C@@H]1C(=O)NCCCCCCNC(=O)c1ccc(-c2c3nc(c(-c4c(F)c(F)c(F)c(F)c4F)c4ccc([nH]4)c(-c4c(F)c(F)c(F)c(F)c4F)c4nc(c(-c5c(F)c(F)c(F)c(F)c5F)c5ccc2[nH]5)C=C4)C=C3)cc1
REMARK SMILES IDX 30 1 29 2 28 3 26 4 27 5 25 7 20 8 21 9 22 10 24 11 23 12
REMARK SMILES IDX 18 13 17 14 19 16 16 17 3 18 4 19 5 20 15 21 14 22 2 23 1 24
REMARK SMILES IDX 6 25 7 26 8 27 9 28 13 29 10 30 12 31 11 32 31 33 32 34
REMARK SMILES IDX 33 35 34 36 35 37 36 38 37 40 38 41 39 42 100 43 40 44 99 45
REMARK SMILES IDX 41 46 42 47 43 48 93 49 44 50 98 51 92 52 94 53 45 54 97 55
REMARK SMILES IDX 91 56 90 57 46 59 78 60 58 61 77 62 59 63 62 64 76 65 95 66
REMARK SMILES IDX 60 67 61 68 75 70 96 71 63 72 47 73 48 74 56 75 49 76 50 77
REMARK SMILES IDX 54 78 57 79 51 80 52 81 55 82 53 83 79 84 80 85 88 86 81 87
REMARK SMILES IDX 82 88 86 89 89 90 83 91 84 92 87 93 85 94 64 95 65 96 73 97
REMARK SMILES IDX 66 98 67 99 71 100 74 101 68 102 69 103 72 104 70 105
REMARK H PARENT 28 6 17 15 35 39 94 58 62 69
REMARK Flexibility Score: inf
ROOT
ATOM      1  C   UNL A   1      35.651  23.448  24.548  1.00  0.00     0.021 C 
ENDROOT
BRANCH   1   2
ATOM      2  C   UNL A   1      34.637  24.302  25.294  1.00  0.00     0.116 C 
BRANCH   2   3
ATOM      3  N   UNL A   1      34.810  25.702  24.982  1.00  0.00    -0.356 N 
ATOM      4  C   UNL A   1      33.872  26.630  24.668  1.00  0.00     0.224 C 
ATOM      5  O   UNL A   1      34.276  27.681  24.168  1.00  0.00    -0.275 OA
ATOM      6  H   UNL A   1      35.738  26.028  24.998  1.00  0.00     0.163 HD
BRANCH   4   7
ATOM      7  C   UNL A   1      32.395  26.308  24.859  1.00  0.00     0.095 C 
ATOM      8  C   UNL A   1      31.604  26.562  23.536  1.00  0.00     0.095 C 
ATOM      9  C   UNL A   1      31.598  28.093  23.312  1.00  0.00     0.041 C 
ATOM     10  C   UNL A   1      31.082  28.879  24.468  1.00  0.00    -0.030 C 
ATOM     11  C   UNL A   1      31.712  27.057  26.039  1.00  0.00     0.041 C 
ATOM     12  C   UNL A   1      31.115  28.393  25.710  1.00  0.00    -0.030 C 
BRANCH   8  13
ATOM     13  C   UNL A   1      30.285  25.772  23.677  1.00  0.00     0.228 C 
ATOM     14  N   UNL A   1      30.153  24.456  23.960  1.00  0.00    -0.323 N 
ATOM     15  H   UNL A   1      29.240  24.120  23.810  1.00  0.00     0.170 HD
ATOM     16  O   UNL A   1      29.199  26.354  23.512  1.00  0.00    -0.274 OA
BRANCH  14  17
ATOM     17  C   UNL A   1      31.027  23.468  24.419  1.00  0.00     0.083 A 
ATOM     18  C   UNL A   1      31.048  23.069  25.768  1.00  0.00     0.144 A 
ATOM     19  C   UNL A   1      31.699  21.866  26.110  1.00  0.00     0.079 A 
ATOM     20  C   UNL A   1      32.378  21.106  25.151  1.00  0.00     0.090 A 
ATOM     21  C   UNL A   1      31.877  22.832  23.519  1.00  0.00     0.032 A 
ATOM     22  C   UNL A   1      32.516  21.645  23.869  1.00  0.00     0.033 A 
BRANCH  18  23
ATOM     23  O   UNL A   1      30.379  23.633  26.825  1.00  0.00    -0.494 OA
ATOM     24  C   UNL A   1      29.314  22.911  27.434  1.00  0.00     0.278 C 
ENDBRANCH  18  23
BRANCH  20  25
ATOM     25  N   UNL A   1      32.944  19.853  25.485  1.00  0.00    -0.150 NA
ATOM     26  N   UNL A   1      32.292  18.932  24.937  1.00  0.00    -0.151 NA
BRANCH  26  27
ATOM     27  C   UNL A   1      32.926  17.683  25.047  1.00  0.00     0.086 A 
ATOM     28  C   UNL A   1      34.267  17.570  24.654  1.00  0.00     0.030 A 
ATOM     29  C   UNL A   1      32.241  16.530  25.445  1.00  0.00     0.030 A 
ATOM     30  C   UNL A   1      34.917  16.334  24.673  1.00  0.00     0.002 A 
ATOM     31  C   UNL A   1      32.889  15.292  25.465  1.00  0.00     0.002 A 
ATOM     32  C   UNL A   1      34.225  15.194  25.077  1.00  0.00     0.000 A 
ENDBRANCH  26  27
ENDBRANCH  20  25
ENDBRANCH  14  17
ENDBRANCH   8  13
ENDBRANCH   4   7
ENDBRANCH   2   3
ENDBRANCH   1   2
BRANCH   1  33
ATOM     33  C   UNL A   1      36.520  22.567  25.454  1.00  0.00     0.002 C 
BRANCH  33  34
ATOM     34  C   UNL A   1      36.356  21.058  25.249  1.00  0.00     0.002 C 
BRANCH  34  35
ATOM     35  C   UNL A   1      37.639  20.311  24.885  1.00  0.00     0.021 C 
BRANCH  35  36
ATOM     36  C   UNL A   1      38.843  20.674  25.740  1.00  0.00     0.116 C 
BRANCH  36  37
ATOM     37  N   UNL A   1      39.773  19.569  25.878  1.00  0.00    -0.352 N 
ATOM     38  C   UNL A   1      41.125  19.604  26.112  1.00  0.00     0.251 C 
ATOM     39  H   UNL A   1      39.381  18.669  25.790  1.00  0.00     0.163 HD
ATOM     40  O   UNL A   1      41.801  18.590  26.028  1.00  0.00    -0.269 OA
BRANCH  38  41
ATOM     41  C   UNL A   1      41.763  20.897  26.441  1.00  0.00     0.039 A 
ATOM     42  C   UNL A   1      41.986  21.814  25.414  1.00  0.00     0.014 A 
ATOM     43  C   UNL A   1      42.119  21.206  27.757  1.00  0.00     0.014 A 
ATOM     44  C   UNL A   1      42.519  23.067  25.715  1.00  0.00     0.010 A 
ATOM     45  C   UNL A   1      42.574  22.483  28.067  1.00  0.00     0.010 A 
ATOM     46  C   UNL A   1      42.786  23.424  27.049  1.00  0.00    -0.014 A 
BRANCH  46  47
ATOM     47  C   UNL A   1      43.293  24.776  27.390  1.00  0.00     0.031 A 
ATOM     48  C   UNL A   1      42.360  25.808  27.962  1.00  0.00     0.074 A 
ATOM     49  C   UNL A   1      44.580  25.088  27.143  1.00  0.00     0.049 A 
ATOM     50  N   UNL A   1      42.595  27.059  28.264  1.00  0.00    -0.248 NA
ATOM     51  C   UNL A   1      40.970  25.385  28.201  1.00  0.00     0.031 C 
ATOM     52  C   UNL A   1      45.571  24.187  26.552  1.00  0.00     0.029 A 
ATOM     53  N   UNL A   1      45.274  26.254  27.348  1.00  0.00    -0.354 N 
ATOM     54  C   UNL A   1      41.388  27.569  28.726  1.00  0.00     0.074 A 
ATOM     55  C   UNL A   1      40.407  26.514  28.603  1.00  0.00     0.031 C 
ATOM     56  C   UNL A   1      46.748  24.825  26.462  1.00  0.00     0.029 A 
ATOM     57  C   UNL A   1      46.588  26.192  26.946  1.00  0.00     0.049 A 
ATOM     58  H   UNL A   1      44.871  27.059  27.746  1.00  0.00     0.167 HD
ATOM     59  C   UNL A   1      41.130  28.798  29.234  1.00  0.00     0.037 A 
ATOM     60  C   UNL A   1      47.547  27.137  26.955  1.00  0.00     0.037 A 
ATOM     61  C   UNL A   1      42.114  29.840  29.368  1.00  0.00     0.049 A 
ATOM     62  C   UNL A   1      47.221  28.504  27.499  1.00  0.00     0.074 A 
ATOM     63  C   UNL A   1      41.959  31.107  29.903  1.00  0.00     0.029 A 
ATOM     64  N   UNL A   1      43.436  29.734  28.963  1.00  0.00    -0.354 N 
ATOM     65  N   UNL A   1      46.093  28.954  27.991  1.00  0.00    -0.248 NA
ATOM     66  C   UNL A   1      48.309  29.493  27.497  1.00  0.00     0.031 C 
ATOM     67  C   UNL A   1      43.175  31.786  29.776  1.00  0.00     0.029 A 
ATOM     68  C   UNL A   1      44.102  30.922  29.219  1.00  0.00     0.049 A 
ATOM     69  H   UNL A   1      43.840  28.936  28.554  1.00  0.00     0.167 HD
ATOM     70  C   UNL A   1      46.342  30.261  28.387  1.00  0.00     0.074 A 
ATOM     71  C   UNL A   1      47.735  30.526  28.096  1.00  0.00     0.031 C 
ATOM     72  C   UNL A   1      45.495  31.163  28.939  1.00  0.00     0.037 A 
BRANCH  59  73
ATOM     73  C   UNL A   1      39.730  29.083  29.696  1.00  0.00     0.064 A 
ATOM     74  C   UNL A   1      38.745  29.545  28.809  1.00  0.00     0.173 A 
ATOM     75  C   UNL A   1      39.351  28.833  31.024  1.00  0.00     0.173 A 
ATOM     76  F   UNL A   1      39.058  29.811  27.531  1.00  0.00    -0.203 F 
ATOM     77  C   UNL A   1      37.439  29.764  29.238  1.00  0.00     0.198 A 
ATOM     78  C   UNL A   1      38.036  29.023  31.441  1.00  0.00     0.198 A 
ATOM     79  F   UNL A   1      40.251  28.386  31.911  1.00  0.00    -0.203 F 
ATOM     80  F   UNL A   1      36.526  30.244  28.382  1.00  0.00    -0.200 F 
ATOM     81  C   UNL A   1      37.083  29.493  30.550  1.00  0.00     0.200 A 
ATOM     82  F   UNL A   1      37.691  28.746  32.706  1.00  0.00    -0.200 F 
ATOM     83  F   UNL A   1      35.821  29.688  30.958  1.00  0.00    -0.200 F 
ENDBRANCH  59  73
BRANCH  60  84
ATOM     84  C   UNL A   1      48.907  26.832  26.435  1.00  0.00     0.064 A 
ATOM     85  C   UNL A   1      49.231  27.044  25.087  1.00  0.00     0.173 A 
ATOM     86  C   UNL A   1      49.899  26.285  27.263  1.00  0.00     0.173 A 
ATOM     87  F   UNL A   1      48.313  27.548  24.249  1.00  0.00    -0.203 F 
ATOM     88  C   UNL A   1      50.478  26.685  24.580  1.00  0.00     0.198 A 
ATOM     89  C   UNL A   1      51.158  25.960  26.762  1.00  0.00     0.198 A 
ATOM     90  F   UNL A   1      49.645  26.068  28.562  1.00  0.00    -0.203 F 
ATOM     91  F   UNL A   1      50.736  26.835  23.273  1.00  0.00    -0.200 F 
ATOM     92  C   UNL A   1      51.442  26.146  25.418  1.00  0.00     0.200 A 
ATOM     93  F   UNL A   1      52.091  25.455  27.581  1.00  0.00    -0.200 F 
ATOM     94  F   UNL A   1      52.639  25.795  24.929  1.00  0.00    -0.200 F 
ENDBRANCH  60  84
BRANCH  72  95
ATOM     95  C   UNL A   1      46.061  32.504  29.312  1.00  0.00     0.064 A 
ATOM     96  C   UNL A   1      46.035  33.590  28.425  1.00  0.00     0.173 A 
ATOM     97  C   UNL A   1      46.600  32.713  30.591  1.00  0.00     0.173 A 
ATOM     98  F   UNL A   1      45.543  33.439  27.186  1.00  0.00    -0.203 F 
ATOM     99  C   UNL A   1      46.557  34.827  28.795  1.00  0.00     0.198 A 
ATOM    100  C   UNL A   1      47.088  33.960  30.969  1.00  0.00     0.198 A 
ATOM    101  F   UNL A   1      46.641  31.709  31.481  1.00  0.00    -0.203 F 
ATOM    102  F   UNL A   1      46.572  35.836  27.912  1.00  0.00    -0.200 F 
ATOM    103  C   UNL A   1      47.075  35.013  30.067  1.00  0.00     0.200 A 
ATOM    104  F   UNL A   1      47.572  34.142  32.205  1.00  0.00    -0.200 F 
ATOM    105  F   UNL A   1      47.569  36.207  30.423  1.00  0.00    -0.200 F 
ENDBRANCH  72  95
ENDBRANCH  46  47
ENDBRANCH  38  41
ENDBRANCH  36  37
ENDBRANCH  35  36
ENDBRANCH  34  35
ENDBRANCH  33  34
ENDBRANCH   1  33
TORSDOF 18
ENDMDL
