MODEL 1
REMARK VINA RESULT:     -12.8      0.000      0.000
REMARK SMILES COc1cccc([C@@H]2CN(C(=O)CSc3nc(C)n[nH]3)C[C@H]2C(=O)NCCCCCCNC(=O)c2ccc(-c3c4nc(c(-c5c(F)c(F)c(F)c(F)c5F)c5ccc([nH]5)c(-c5c(F)c(F)c(F)c(F)c5F)c5nc(c(-c6c(F)c(F)c(F)c(F)c6F)c6ccc3[nH]6)C=C5)C=C4)cc2)c1
REMARK SMILES IDX 27 1 26 2 25 3 23 4 24 5 22 7 8 8 9 9 10 10 21 11 7 12 3 13
REMARK SMILES IDX 4 14 98 15 5 16 6 17 2 18 1 19 11 20 12 21 13 22 14 23 15 24
REMARK SMILES IDX 16 25 20 26 17 27 19 28 18 30 28 31 29 32 30 33 31 34 32 35
REMARK SMILES IDX 33 36 34 38 35 39 36 40 97 41 37 42 96 43 38 44 39 45 40 46
REMARK SMILES IDX 90 47 41 48 95 49 89 50 91 51 42 52 94 53 88 54 87 55 43 57
REMARK SMILES IDX 75 58 55 59 74 60 56 61 59 62 73 63 92 64 57 65 58 66 72 68
REMARK SMILES IDX 93 69 60 70 44 71 45 72 53 73 46 74 47 75 51 76 54 77 48 78
REMARK SMILES IDX 49 79 52 80 50 81 76 82 77 83 85 84 78 85 79 86 83 87 86 88
REMARK SMILES IDX 80 89 81 90 84 91 82 92 61 93 62 94 70 95 63 96 64 97 68 98
REMARK SMILES IDX 71 99 65 100 66 101 69 102 67 103
REMARK H PARENT 25 6 20 29 32 37 91 56 59 67
REMARK Flexibility Score: inf
ROOT
ATOM      1  C   UNL A   1      34.524  24.730  23.808  1.00  0.00     0.021 C 
ENDROOT
BRANCH   1   2
ATOM      2  C   UNL A   1      33.449  25.535  23.080  1.00  0.00     0.116 C 
BRANCH   2   3
ATOM      3  N   UNL A   1      33.609  26.960  23.302  1.00  0.00    -0.356 N 
ATOM      4  C   UNL A   1      32.892  27.840  24.049  1.00  0.00     0.225 C 
ATOM      5  O   UNL A   1      33.275  29.012  24.071  1.00  0.00    -0.275 OA
ATOM      6  H   UNL A   1      34.372  27.361  22.827  1.00  0.00     0.163 HD
BRANCH   4   7
ATOM      7  C   UNL A   1      31.677  27.420  24.852  1.00  0.00     0.107 C 
ATOM      8  C   UNL A   1      30.529  26.850  23.994  1.00  0.00     0.053 C 
ATOM      9  C   UNL A   1      29.910  25.775  24.888  1.00  0.00     0.128 C 
ATOM     10  N   UNL A   1      31.021  25.292  25.692  1.00  0.00    -0.341 N 
ATOM     11  C   UNL A   1      32.016  26.337  25.876  1.00  0.00     0.133 C 
BRANCH   8  12
ATOM     12  C   UNL A   1      29.521  27.848  23.477  1.00  0.00    -0.039 A 
ATOM     13  C   UNL A   1      28.958  30.008  22.506  1.00  0.00     0.119 A 
ATOM     14  C   UNL A   1      27.602  29.712  22.646  1.00  0.00     0.046 A 
ATOM     15  C   UNL A   1      29.912  29.081  22.929  1.00  0.00     0.050 A 
ATOM     16  C   UNL A   1      27.197  28.488  23.176  1.00  0.00     0.004 A 
ATOM     17  C   UNL A   1      28.151  27.560  23.587  1.00  0.00     0.004 A 
BRANCH  13  18
ATOM     18  O   UNL A   1      29.233  31.246  21.994  1.00  0.00    -0.497 OA
ATOM     19  C   UNL A   1      28.516  32.334  22.567  1.00  0.00     0.278 C 
ENDBRANCH  13  18
ENDBRANCH   8  12
BRANCH  10  20
ATOM     20  C   UNL A   1      31.130  24.089  26.341  1.00  0.00     0.233 C 
ATOM     21  O   UNL A   1      31.594  24.009  27.483  1.00  0.00    -0.274 OA
BRANCH  20  22
ATOM     22  C   UNL A   1      30.648  22.827  25.658  1.00  0.00     0.178 C 
BRANCH  22  23
ATOM     23  S   UNL A   1      31.822  22.202  24.447  1.00  0.00    -0.077 SA
BRANCH  23  24
ATOM     24  C   UNL A   1      32.316  20.643  24.995  1.00  0.00     0.184 A 
ATOM     25  N   UNL A   1      32.127  19.542  24.312  1.00  0.00    -0.206 NA
ATOM     26  N   UNL A   1      32.917  20.343  26.183  1.00  0.00    -0.254 N 
ATOM     27  C   UNL A   1      32.640  18.572  25.130  1.00  0.00     0.148 A 
ATOM     28  N   UNL A   1      33.134  19.018  26.291  1.00  0.00    -0.158 NA
ATOM     29  H   UNL A   1      33.160  21.006  26.868  1.00  0.00     0.192 HD
ATOM     30  C   UNL A   1      32.637  17.149  24.746  1.00  0.00     0.092 C 
ENDBRANCH  23  24
ENDBRANCH  22  23
ENDBRANCH  20  22
ENDBRANCH  10  20
ENDBRANCH   4   7
ENDBRANCH   2   3
ENDBRANCH   1   2
BRANCH   1  31
ATOM     31  C   UNL A   1      34.955  23.460  23.071  1.00  0.00     0.002 C 
BRANCH  31  32
ATOM     32  C   UNL A   1      36.264  22.820  23.562  1.00  0.00     0.002 C 
BRANCH  32  33
ATOM     33  C   UNL A   1      36.209  22.102  24.920  1.00  0.00     0.021 C 
BRANCH  33  34
ATOM     34  C   UNL A   1      37.184  22.658  25.942  1.00  0.00     0.116 C 
BRANCH  34  35
ATOM     35  N   UNL A   1      38.357  21.797  26.123  1.00  0.00    -0.352 N 
ATOM     36  C   UNL A   1      39.675  22.152  26.368  1.00  0.00     0.251 C 
ATOM     37  H   UNL A   1      38.184  20.830  26.063  1.00  0.00     0.163 HD
ATOM     38  O   UNL A   1      40.591  21.383  26.147  1.00  0.00    -0.269 OA
BRANCH  36  39
ATOM     39  C   UNL A   1      39.939  23.486  26.934  1.00  0.00     0.039 A 
ATOM     40  C   UNL A   1      39.041  24.554  26.832  1.00  0.00     0.014 A 
ATOM     41  C   UNL A   1      41.144  23.636  27.602  1.00  0.00     0.014 A 
ATOM     42  C   UNL A   1      39.374  25.764  27.441  1.00  0.00     0.010 A 
ATOM     43  C   UNL A   1      41.320  24.696  28.433  1.00  0.00     0.010 A 
ATOM     44  C   UNL A   1      40.527  25.815  28.229  1.00  0.00    -0.014 A 
BRANCH  44  45
ATOM     45  C   UNL A   1      40.996  27.007  28.912  1.00  0.00     0.031 A 
ATOM     46  C   UNL A   1      42.178  27.641  28.282  1.00  0.00     0.074 A 
ATOM     47  C   UNL A   1      40.171  27.653  29.768  1.00  0.00     0.049 A 
ATOM     48  N   UNL A   1      43.357  27.802  28.783  1.00  0.00    -0.248 NA
ATOM     49  C   UNL A   1      42.086  28.003  26.856  1.00  0.00     0.031 C 
ATOM     50  C   UNL A   1      38.790  27.304  30.139  1.00  0.00     0.029 A 
ATOM     51  N   UNL A   1      40.333  28.867  30.356  1.00  0.00    -0.354 N 
ATOM     52  C   UNL A   1      44.086  28.483  27.811  1.00  0.00     0.074 A 
ATOM     53  C   UNL A   1      43.349  28.337  26.588  1.00  0.00     0.031 C 
ATOM     54  C   UNL A   1      38.176  28.381  30.676  1.00  0.00     0.029 A 
ATOM     55  C   UNL A   1      39.151  29.442  30.822  1.00  0.00     0.049 A 
ATOM     56  H   UNL A   1      41.210  29.304  30.446  1.00  0.00     0.167 HD
ATOM     57  C   UNL A   1      45.065  29.365  28.159  1.00  0.00     0.037 A 
ATOM     58  C   UNL A   1      39.009  30.737  31.208  1.00  0.00     0.037 A 
ATOM     59  C   UNL A   1      45.453  29.176  29.539  1.00  0.00     0.049 A 
ATOM     60  C   UNL A   1      40.385  31.264  31.450  1.00  0.00     0.074 A 
ATOM     61  C   UNL A   1      45.897  28.092  30.275  1.00  0.00     0.029 A 
ATOM     62  N   UNL A   1      45.005  30.086  30.469  1.00  0.00    -0.354 N 
ATOM     63  N   UNL A   1      41.161  30.840  32.412  1.00  0.00    -0.248 NA
ATOM     64  C   UNL A   1      41.070  31.868  30.315  1.00  0.00     0.031 C 
ATOM     65  C   UNL A   1      45.200  28.186  31.518  1.00  0.00     0.029 A 
ATOM     66  C   UNL A   1      44.460  29.368  31.503  1.00  0.00     0.049 A 
ATOM     67  H   UNL A   1      45.066  31.066  30.404  1.00  0.00     0.167 HD
ATOM     68  C   UNL A   1      42.419  30.735  31.835  1.00  0.00     0.074 A 
ATOM     69  C   UNL A   1      42.311  31.431  30.553  1.00  0.00     0.031 C 
ATOM     70  C   UNL A   1      43.342  29.835  32.288  1.00  0.00     0.037 A 
BRANCH  57  71
ATOM     71  C   UNL A   1      45.380  30.643  27.405  1.00  0.00     0.064 A 
ATOM     72  C   UNL A   1      46.727  30.921  27.095  1.00  0.00     0.173 A 
ATOM     73  C   UNL A   1      44.490  31.729  27.237  1.00  0.00     0.173 A 
ATOM     74  F   UNL A   1      47.666  29.970  27.206  1.00  0.00    -0.203 F 
ATOM     75  C   UNL A   1      47.161  32.208  26.762  1.00  0.00     0.198 A 
ATOM     76  C   UNL A   1      44.920  32.997  26.849  1.00  0.00     0.198 A 
ATOM     77  F   UNL A   1      43.191  31.659  27.536  1.00  0.00    -0.203 F 
ATOM     78  F   UNL A   1      48.471  32.448  26.621  1.00  0.00    -0.200 F 
ATOM     79  C   UNL A   1      46.259  33.248  26.652  1.00  0.00     0.200 A 
ATOM     80  F   UNL A   1      44.026  33.991  26.756  1.00  0.00    -0.200 F 
ATOM     81  F   UNL A   1      46.679  34.494  26.404  1.00  0.00    -0.200 F 
ENDBRANCH  57  71
BRANCH  58  82
ATOM     82  C   UNL A   1      37.827  31.621  31.034  1.00  0.00     0.064 A 
ATOM     83  C   UNL A   1      37.429  32.067  29.764  1.00  0.00     0.173 A 
ATOM     84  C   UNL A   1      36.909  31.839  32.083  1.00  0.00     0.173 A 
ATOM     85  F   UNL A   1      38.217  31.857  28.700  1.00  0.00    -0.203 F 
ATOM     86  C   UNL A   1      36.185  32.678  29.553  1.00  0.00     0.198 A 
ATOM     87  C   UNL A   1      35.674  32.457  31.874  1.00  0.00     0.198 A 
ATOM     88  F   UNL A   1      37.149  31.374  33.318  1.00  0.00    -0.203 F 
ATOM     89  F   UNL A   1      35.817  33.039  28.315  1.00  0.00    -0.200 F 
ATOM     90  C   UNL A   1      35.306  32.865  30.607  1.00  0.00     0.200 A 
ATOM     91  F   UNL A   1      34.820  32.594  32.899  1.00  0.00    -0.200 F 
ATOM     92  F   UNL A   1      34.094  33.398  30.398  1.00  0.00    -0.200 F 
ENDBRANCH  58  82
BRANCH  70  93
ATOM     93  C   UNL A   1      43.071  29.101  33.572  1.00  0.00     0.064 A 
ATOM     94  C   UNL A   1      42.329  27.910  33.660  1.00  0.00     0.173 A 
ATOM     95  C   UNL A   1      43.744  29.522  34.727  1.00  0.00     0.173 A 
ATOM     96  F   UNL A   1      41.744  27.380  32.580  1.00  0.00    -0.203 F 
ATOM     97  C   UNL A   1      42.236  27.198  34.856  1.00  0.00     0.198 A 
ATOM     98  C   UNL A   1      43.682  28.790  35.910  1.00  0.00     0.198 A 
ATOM     99  F   UNL A   1      44.516  30.620  34.691  1.00  0.00    -0.203 F 
ATOM    100  F   UNL A   1      41.518  26.067  34.911  1.00  0.00    -0.200 F 
ATOM    101  C   UNL A   1      42.920  27.636  35.977  1.00  0.00     0.200 A 
ATOM    102  F   UNL A   1      44.389  29.189  36.976  1.00  0.00    -0.200 F 
ATOM    103  F   UNL A   1      42.870  26.927  37.115  1.00  0.00    -0.200 F 
ENDBRANCH  70  93
ENDBRANCH  44  45
ENDBRANCH  36  39
ENDBRANCH  34  35
ENDBRANCH  33  34
ENDBRANCH  32  33
ENDBRANCH  31  32
ENDBRANCH   1  31
TORSDOF 19
ENDMDL
MODEL 2
REMARK VINA RESULT:     -12.1      4.317      9.423
REMARK SMILES COc1cccc([C@@H]2CN(C(=O)CSc3nc(C)n[nH]3)C[C@H]2C(=O)NCCCCCCNC(=O)c2ccc(-c3c4nc(c(-c5c(F)c(F)c(F)c(F)c5F)c5ccc([nH]5)c(-c5c(F)c(F)c(F)c(F)c5F)c5nc(c(-c6c(F)c(F)c(F)c(F)c6F)c6ccc3[nH]6)C=C5)C=C4)cc2)c1
REMARK SMILES IDX 27 1 26 2 25 3 23 4 24 5 22 7 8 8 9 9 10 10 21 11 7 12 3 13
REMARK SMILES IDX 4 14 98 15 5 16 6 17 2 18 1 19 11 20 12 21 13 22 14 23 15 24
REMARK SMILES IDX 16 25 20 26 17 27 19 28 18 30 28 31 29 32 30 33 31 34 32 35
REMARK SMILES IDX 33 36 34 38 35 39 36 40 97 41 37 42 96 43 38 44 39 45 40 46
REMARK SMILES IDX 90 47 41 48 95 49 89 50 91 51 42 52 94 53 88 54 87 55 43 57
REMARK SMILES IDX 75 58 55 59 74 60 56 61 59 62 73 63 92 64 57 65 58 66 72 68
REMARK SMILES IDX 93 69 60 70 44 71 45 72 53 73 46 74 47 75 51 76 54 77 48 78
REMARK SMILES IDX 49 79 52 80 50 81 76 82 77 83 85 84 78 85 79 86 83 87 86 88
REMARK SMILES IDX 80 89 81 90 84 91 82 92 61 93 62 94 70 95 63 96 64 97 68 98
REMARK SMILES IDX 71 99 65 100 66 101 69 102 67 103
REMARK H PARENT 25 6 20 29 32 37 91 56 59 67
REMARK Flexibility Score: inf
ROOT
ATOM      1  C   UNL A   1      38.101  28.936  31.929  1.00  0.00     0.021 C 
ENDROOT
BRANCH   1   2
ATOM      2  C   UNL A   1      36.970  29.342  30.986  1.00  0.00     0.116 C 
BRANCH   2   3
ATOM      3  N   UNL A   1      37.473  29.691  29.670  1.00  0.00    -0.356 N 
ATOM      4  C   UNL A   1      36.829  29.991  28.512  1.00  0.00     0.225 C 
ATOM      5  O   UNL A   1      37.522  30.275  27.533  1.00  0.00    -0.275 OA
ATOM      6  H   UNL A   1      38.455  29.715  29.605  1.00  0.00     0.163 HD
BRANCH   4   7
ATOM      7  C   UNL A   1      35.317  30.003  28.404  1.00  0.00     0.107 C 
ATOM      8  C   UNL A   1      34.750  31.280  27.751  1.00  0.00     0.053 C 
ATOM      9  C   UNL A   1      33.530  30.779  26.977  1.00  0.00     0.128 C 
ATOM     10  N   UNL A   1      33.878  29.418  26.601  1.00  0.00    -0.341 N 
ATOM     11  C   UNL A   1      34.795  28.835  27.567  1.00  0.00     0.133 C 
BRANCH   8  12
ATOM     12  C   UNL A   1      34.433  32.424  28.685  1.00  0.00    -0.039 A 
ATOM     13  C   UNL A   1      33.482  34.621  29.126  1.00  0.00     0.119 A 
ATOM     14  C   UNL A   1      33.981  34.571  30.427  1.00  0.00     0.046 A 
ATOM     15  C   UNL A   1      33.717  33.554  28.257  1.00  0.00     0.050 A 
ATOM     16  C   UNL A   1      34.683  33.452  30.872  1.00  0.00     0.004 A 
ATOM     17  C   UNL A   1      34.906  32.383  30.006  1.00  0.00     0.004 A 
BRANCH  13  18
ATOM     18  O   UNL A   1      32.829  35.777  28.798  1.00  0.00    -0.497 OA
ATOM     19  C   UNL A   1      33.652  36.910  28.543  1.00  0.00     0.278 C 
ENDBRANCH  13  18
ENDBRANCH   8  12
BRANCH  10  20
ATOM     20  C   UNL A   1      33.352  28.667  25.580  1.00  0.00     0.233 C 
ATOM     21  O   UNL A   1      33.118  27.462  25.717  1.00  0.00    -0.274 OA
BRANCH  20  22
ATOM     22  C   UNL A   1      33.026  29.330  24.259  1.00  0.00     0.178 C 
BRANCH  22  23
ATOM     23  S   UNL A   1      32.266  28.200  23.085  1.00  0.00    -0.077 SA
BRANCH  23  24
ATOM     24  C   UNL A   1      30.767  28.910  22.612  1.00  0.00     0.184 A 
ATOM     25  N   UNL A   1      29.616  28.598  23.153  1.00  0.00    -0.206 NA
ATOM     26  N   UNL A   1      30.570  29.833  21.626  1.00  0.00    -0.254 N 
ATOM     27  C   UNL A   1      28.723  29.369  22.459  1.00  0.00     0.148 A 
ATOM     28  N   UNL A   1      29.264  30.142  21.510  1.00  0.00    -0.158 NA
ATOM     29  H   UNL A   1      31.287  30.220  21.074  1.00  0.00     0.192 HD
ATOM     30  C   UNL A   1      27.278  29.336  22.748  1.00  0.00     0.092 C 
ENDBRANCH  23  24
ENDBRANCH  22  23
ENDBRANCH  20  22
ENDBRANCH  10  20
ENDBRANCH   4   7
ENDBRANCH   2   3
ENDBRANCH   1   2
BRANCH   1  31
ATOM     31  C   UNL A   1      38.688  30.099  32.733  1.00  0.00     0.002 C 
BRANCH  31  32
ATOM     32  C   UNL A   1      37.679  31.169  33.183  1.00  0.00     0.002 C 
BRANCH  32  33
ATOM     33  C   UNL A   1      37.807  32.552  32.526  1.00  0.00     0.021 C 
BRANCH  33  34
ATOM     34  C   UNL A   1      39.154  33.212  32.754  1.00  0.00     0.116 C 
BRANCH  34  35
ATOM     35  N   UNL A   1      39.569  34.046  31.622  1.00  0.00    -0.352 N 
ATOM     36  C   UNL A   1      40.576  33.827  30.694  1.00  0.00     0.251 C 
ATOM     37  H   UNL A   1      39.060  34.880  31.502  1.00  0.00     0.163 HD
ATOM     38  O   UNL A   1      41.046  34.738  30.039  1.00  0.00    -0.269 OA
BRANCH  36  39
ATOM     39  C   UNL A   1      41.050  32.445  30.500  1.00  0.00     0.039 A 
ATOM     40  C   UNL A   1      40.288  31.454  29.872  1.00  0.00     0.014 A 
ATOM     41  C   UNL A   1      42.325  32.168  30.968  1.00  0.00     0.014 A 
ATOM     42  C   UNL A   1      40.851  30.189  29.704  1.00  0.00     0.010 A 
ATOM     43  C   UNL A   1      42.966  31.050  30.538  1.00  0.00     0.010 A 
ATOM     44  C   UNL A   1      42.192  30.007  30.056  1.00  0.00    -0.014 A 
BRANCH  44  45
ATOM     45  C   UNL A   1      42.900  28.745  29.942  1.00  0.00     0.031 A 
ATOM     46  C   UNL A   1      43.383  28.202  31.234  1.00  0.00     0.074 A 
ATOM     47  C   UNL A   1      42.747  27.993  28.828  1.00  0.00     0.049 A 
ATOM     48  N   UNL A   1      44.602  27.992  31.603  1.00  0.00    -0.248 NA
ATOM     49  C   UNL A   1      42.395  28.014  32.312  1.00  0.00     0.031 C 
ATOM     50  C   UNL A   1      41.929  28.283  27.639  1.00  0.00     0.029 A 
ATOM     51  N   UNL A   1      43.156  26.718  28.596  1.00  0.00    -0.354 N 
ATOM     52  C   UNL A   1      44.515  27.440  32.879  1.00  0.00     0.074 A 
ATOM     53  C   UNL A   1      43.188  27.726  33.345  1.00  0.00     0.031 C 
ATOM     54  C   UNL A   1      41.712  27.143  26.946  1.00  0.00     0.029 A 
ATOM     55  C   UNL A   1      42.488  26.080  27.551  1.00  0.00     0.049 A 
ATOM     56  H   UNL A   1      43.865  26.281  29.121  1.00  0.00     0.167 HD
ATOM     57  C   UNL A   1      45.433  26.531  33.314  1.00  0.00     0.037 A 
ATOM     58  C   UNL A   1      42.529  24.747  27.294  1.00  0.00     0.037 A 
ATOM     59  C   UNL A   1      46.609  26.555  32.474  1.00  0.00     0.049 A 
ATOM     60  C   UNL A   1      43.714  24.207  28.024  1.00  0.00     0.074 A 
ATOM     61  C   UNL A   1      47.489  27.545  32.076  1.00  0.00     0.029 A 
ATOM     62  N   UNL A   1      46.778  25.535  31.565  1.00  0.00    -0.354 N 
ATOM     63  N   UNL A   1      44.948  24.518  27.726  1.00  0.00    -0.248 NA
ATOM     64  C   UNL A   1      43.496  23.750  29.390  1.00  0.00     0.031 C 
ATOM     65  C   UNL A   1      47.716  27.296  30.689  1.00  0.00     0.029 A 
ATOM     66  C   UNL A   1      47.049  26.118  30.354  1.00  0.00     0.049 A 
ATOM     67  H   UNL A   1      46.717  24.570  31.751  1.00  0.00     0.167 HD
ATOM     68  C   UNL A   1      45.573  24.703  28.951  1.00  0.00     0.074 A 
ATOM     69  C   UNL A   1      44.640  24.167  29.942  1.00  0.00     0.031 C 
ATOM     70  C   UNL A   1      46.637  25.549  29.092  1.00  0.00     0.037 A 
BRANCH  57  71
ATOM     71  C   UNL A   1      45.118  25.357  34.220  1.00  0.00     0.064 A 
ATOM     72  C   UNL A   1      45.816  25.249  35.441  1.00  0.00     0.173 A 
ATOM     73  C   UNL A   1      44.406  24.198  33.835  1.00  0.00     0.173 A 
ATOM     74  F   UNL A   1      46.523  26.283  35.919  1.00  0.00    -0.203 F 
ATOM     75  C   UNL A   1      45.892  24.046  36.150  1.00  0.00     0.198 A 
ATOM     76  C   UNL A   1      44.437  23.017  34.575  1.00  0.00     0.198 A 
ATOM     77  F   UNL A   1      43.736  24.105  32.683  1.00  0.00    -0.203 F 
ATOM     78  F   UNL A   1      46.687  23.959  37.223  1.00  0.00    -0.200 F 
ATOM     79  C   UNL A   1      45.212  22.927  35.709  1.00  0.00     0.200 A 
ATOM     80  F   UNL A   1      43.775  21.943  34.122  1.00  0.00    -0.200 F 
ATOM     81  F   UNL A   1      45.339  21.756  36.344  1.00  0.00    -0.200 F 
ENDBRANCH  57  71
BRANCH  58  82
ATOM     82  C   UNL A   1      41.439  23.880  26.774  1.00  0.00     0.064 A 
ATOM     83  C   UNL A   1      41.692  22.566  26.348  1.00  0.00     0.173 A 
ATOM     84  C   UNL A   1      40.081  24.233  26.923  1.00  0.00     0.173 A 
ATOM     85  F   UNL A   1      42.953  22.129  26.226  1.00  0.00    -0.203 F 
ATOM     86  C   UNL A   1      40.653  21.658  26.101  1.00  0.00     0.198 A 
ATOM     87  C   UNL A   1      39.046  23.330  26.669  1.00  0.00     0.198 A 
ATOM     88  F   UNL A   1      39.730  25.432  27.411  1.00  0.00    -0.203 F 
ATOM     89  F   UNL A   1      40.936  20.396  25.751  1.00  0.00    -0.200 F 
ATOM     90  C   UNL A   1      39.331  22.039  26.270  1.00  0.00     0.200 A 
ATOM     91  F   UNL A   1      37.775  23.704  26.875  1.00  0.00    -0.200 F 
ATOM     92  F   UNL A   1      38.339  21.156  26.090  1.00  0.00    -0.200 F 
ENDBRANCH  58  82
BRANCH  70  93
ATOM     93  C   UNL A   1      47.278  26.120  27.858  1.00  0.00     0.064 A 
ATOM     94  C   UNL A   1      46.856  27.301  27.222  1.00  0.00     0.173 A 
ATOM     95  C   UNL A   1      48.478  25.548  27.413  1.00  0.00     0.173 A 
ATOM     96  F   UNL A   1      45.782  27.970  27.653  1.00  0.00    -0.203 F 
ATOM     97  C   UNL A   1      47.581  27.858  26.168  1.00  0.00     0.198 A 
ATOM     98  C   UNL A   1      49.221  26.126  26.387  1.00  0.00     0.198 A 
ATOM     99  F   UNL A   1      48.964  24.453  28.019  1.00  0.00    -0.203 F 
ATOM    100  F   UNL A   1      47.152  28.983  25.578  1.00  0.00    -0.200 F 
ATOM    101  C   UNL A   1      48.768  27.274  25.759  1.00  0.00     0.200 A 
ATOM    102  F   UNL A   1      50.395  25.587  26.032  1.00  0.00    -0.200 F 
ATOM    103  F   UNL A   1      49.491  27.835  24.778  1.00  0.00    -0.200 F 
ENDBRANCH  70  93
ENDBRANCH  44  45
ENDBRANCH  36  39
ENDBRANCH  34  35
ENDBRANCH  33  34
ENDBRANCH  32  33
ENDBRANCH  31  32
ENDBRANCH   1  31
TORSDOF 19
ENDMDL
MODEL 3
REMARK VINA RESULT:     -11.9      1.248      2.026
REMARK SMILES COc1cccc([C@@H]2CN(C(=O)CSc3nc(C)n[nH]3)C[C@H]2C(=O)NCCCCCCNC(=O)c2ccc(-c3c4nc(c(-c5c(F)c(F)c(F)c(F)c5F)c5ccc([nH]5)c(-c5c(F)c(F)c(F)c(F)c5F)c5nc(c(-c6c(F)c(F)c(F)c(F)c6F)c6ccc3[nH]6)C=C5)C=C4)cc2)c1
REMARK SMILES IDX 27 1 26 2 25 3 23 4 24 5 22 7 8 8 9 9 10 10 21 11 7 12 3 13
REMARK SMILES IDX 4 14 98 15 5 16 6 17 2 18 1 19 11 20 12 21 13 22 14 23 15 24
REMARK SMILES IDX 16 25 20 26 17 27 19 28 18 30 28 31 29 32 30 33 31 34 32 35
REMARK SMILES IDX 33 36 34 38 35 39 36 40 97 41 37 42 96 43 38 44 39 45 40 46
REMARK SMILES IDX 90 47 41 48 95 49 89 50 91 51 42 52 94 53 88 54 87 55 43 57
REMARK SMILES IDX 75 58 55 59 74 60 56 61 59 62 73 63 92 64 57 65 58 66 72 68
REMARK SMILES IDX 93 69 60 70 44 71 45 72 53 73 46 74 47 75 51 76 54 77 48 78
REMARK SMILES IDX 49 79 52 80 50 81 76 82 77 83 85 84 78 85 79 86 83 87 86 88
REMARK SMILES IDX 80 89 81 90 84 91 82 92 61 93 62 94 70 95 63 96 64 97 68 98
REMARK SMILES IDX 71 99 65 100 66 101 69 102 67 103
REMARK H PARENT 25 6 20 29 32 37 91 56 59 67
REMARK Flexibility Score: inf
ROOT
ATOM      1  C   UNL A   1      34.767  25.446  25.929  1.00  0.00     0.021 C 
ENDROOT
BRANCH   1   2
ATOM      2  C   UNL A   1      33.716  26.349  25.288  1.00  0.00     0.116 C 
BRANCH   2   3
ATOM      3  N   UNL A   1      32.513  26.423  26.096  1.00  0.00    -0.356 N 
ATOM      4  C   UNL A   1      31.199  26.318  25.765  1.00  0.00     0.225 C 
ATOM      5  O   UNL A   1      30.374  26.401  26.678  1.00  0.00    -0.275 OA
ATOM      6  H   UNL A   1      32.678  26.577  27.054  1.00  0.00     0.163 HD
BRANCH   4   7
ATOM      7  C   UNL A   1      30.738  26.086  24.340  1.00  0.00     0.107 C 
ATOM      8  C   UNL A   1      30.979  27.286  23.403  1.00  0.00     0.053 C 
ATOM      9  C   UNL A   1      31.300  26.635  22.057  1.00  0.00     0.128 C 
ATOM     10  N   UNL A   1      31.934  25.375  22.410  1.00  0.00    -0.341 N 
ATOM     11  C   UNL A   1      31.452  24.898  23.696  1.00  0.00     0.133 C 
BRANCH   8  12
ATOM     12  C   UNL A   1      29.868  28.306  23.322  1.00  0.00    -0.039 A 
ATOM     13  C   UNL A   1      29.047  30.590  23.506  1.00  0.00     0.119 A 
ATOM     14  C   UNL A   1      27.748  30.136  23.280  1.00  0.00     0.046 A 
ATOM     15  C   UNL A   1      30.100  29.674  23.537  1.00  0.00     0.050 A 
ATOM     16  C   UNL A   1      27.501  28.783  23.052  1.00  0.00     0.004 A 
ATOM     17  C   UNL A   1      28.556  27.873  23.071  1.00  0.00     0.004 A 
BRANCH  13  18
ATOM     18  O   UNL A   1      29.162  31.932  23.737  1.00  0.00    -0.497 OA
ATOM     19  C   UNL A   1      28.679  32.788  22.707  1.00  0.00     0.278 C 
ENDBRANCH  13  18
ENDBRANCH   8  12
BRANCH  10  20
ATOM     20  C   UNL A   1      32.769  24.609  21.636  1.00  0.00     0.233 C 
ATOM     21  O   UNL A   1      33.131  24.976  20.514  1.00  0.00    -0.274 OA
BRANCH  20  22
ATOM     22  C   UNL A   1      33.282  23.291  22.175  1.00  0.00     0.178 C 
BRANCH  22  23
ATOM     23  S   UNL A   1      32.159  21.924  21.853  1.00  0.00    -0.077 SA
BRANCH  23  24
ATOM     24  C   UNL A   1      32.261  20.867  23.212  1.00  0.00     0.184 A 
ATOM     25  N   UNL A   1      32.404  19.569  23.110  1.00  0.00    -0.206 NA
ATOM     26  N   UNL A   1      32.178  21.212  24.529  1.00  0.00    -0.254 N 
ATOM     27  C   UNL A   1      32.406  19.150  24.413  1.00  0.00     0.148 A 
ATOM     28  N   UNL A   1      32.268  20.125  25.319  1.00  0.00    -0.158 NA
ATOM     29  H   UNL A   1      32.067  22.134  24.858  1.00  0.00     0.192 HD
ATOM     30  C   UNL A   1      32.550  17.727  24.771  1.00  0.00     0.092 C 
ENDBRANCH  23  24
ENDBRANCH  22  23
ENDBRANCH  20  22
ENDBRANCH  10  20
ENDBRANCH   4   7
ENDBRANCH   2   3
ENDBRANCH   1   2
BRANCH   1  31
ATOM     31  C   UNL A   1      34.748  24.006  25.411  1.00  0.00     0.002 C 
BRANCH  31  32
ATOM     32  C   UNL A   1      35.958  23.593  24.557  1.00  0.00     0.002 C 
BRANCH  32  33
ATOM     33  C   UNL A   1      36.862  22.493  25.135  1.00  0.00     0.021 C 
BRANCH  33  34
ATOM     34  C   UNL A   1      38.096  23.027  25.839  1.00  0.00     0.116 C 
BRANCH  34  35
ATOM     35  N   UNL A   1      39.220  22.087  25.791  1.00  0.00    -0.352 N 
ATOM     36  C   UNL A   1      40.559  22.305  26.081  1.00  0.00     0.251 C 
ATOM     37  H   UNL A   1      38.992  21.170  25.514  1.00  0.00     0.163 HD
ATOM     38  O   UNL A   1      41.427  21.560  25.668  1.00  0.00    -0.269 OA
BRANCH  36  39
ATOM     39  C   UNL A   1      40.904  23.457  26.932  1.00  0.00     0.039 A 
ATOM     40  C   UNL A   1      42.069  23.517  27.705  1.00  0.00     0.014 A 
ATOM     41  C   UNL A   1      40.007  24.513  26.920  1.00  0.00     0.014 A 
ATOM     42  C   UNL A   1      42.317  24.674  28.443  1.00  0.00     0.010 A 
ATOM     43  C   UNL A   1      40.398  25.727  27.387  1.00  0.00     0.010 A 
ATOM     44  C   UNL A   1      41.460  25.766  28.276  1.00  0.00    -0.014 A 
BRANCH  44  45
ATOM     45  C   UNL A   1      41.595  27.025  28.985  1.00  0.00     0.031 A 
ATOM     46  C   UNL A   1      42.709  27.876  28.504  1.00  0.00     0.074 A 
ATOM     47  C   UNL A   1      40.552  27.499  29.705  1.00  0.00     0.049 A 
ATOM     48  N   UNL A   1      43.756  28.261  29.154  1.00  0.00    -0.248 NA
ATOM     49  C   UNL A   1      42.745  28.214  27.069  1.00  0.00     0.031 C 
ATOM     50  C   UNL A   1      39.226  26.890  29.897  1.00  0.00     0.029 A 
ATOM     51  N   UNL A   1      40.397  28.722  30.278  1.00  0.00    -0.354 N 
ATOM     52  C   UNL A   1      44.467  29.069  28.271  1.00  0.00     0.074 A 
ATOM     53  C   UNL A   1      43.945  28.786  26.965  1.00  0.00     0.031 C 
ATOM     54  C   UNL A   1      38.350  27.828  30.319  1.00  0.00     0.029 A 
ATOM     55  C   UNL A   1      39.075  29.058  30.567  1.00  0.00     0.049 A 
ATOM     56  H   UNL A   1      41.154  29.320  30.474  1.00  0.00     0.167 HD
ATOM     57  C   UNL A   1      45.203  30.124  28.725  1.00  0.00     0.037 A 
ATOM     58  C   UNL A   1      38.637  30.301  30.896  1.00  0.00     0.037 A 
ATOM     59  C   UNL A   1      45.427  30.012  30.148  1.00  0.00     0.049 A 
ATOM     60  C   UNL A   1      39.840  31.083  31.307  1.00  0.00     0.074 A 
ATOM     61  C   UNL A   1      45.965  29.034  30.965  1.00  0.00     0.029 A 
ATOM     62  N   UNL A   1      44.691  30.819  30.986  1.00  0.00    -0.354 N 
ATOM     63  N   UNL A   1      40.544  30.816  32.376  1.00  0.00    -0.248 NA
ATOM     64  C   UNL A   1      40.546  31.809  30.259  1.00  0.00     0.031 C 
ATOM     65  C   UNL A   1      45.100  28.991  32.100  1.00  0.00     0.029 A 
ATOM     66  C   UNL A   1      44.157  30.008  31.956  1.00  0.00     0.049 A 
ATOM     67  H   UNL A   1      44.571  31.792  30.905  1.00  0.00     0.167 HD
ATOM     68  C   UNL A   1      41.866  30.955  31.975  1.00  0.00     0.074 A 
ATOM     69  C   UNL A   1      41.803  31.618  30.673  1.00  0.00     0.031 C 
ATOM     70  C   UNL A   1      42.874  30.251  32.571  1.00  0.00     0.037 A 
BRANCH  57  71
ATOM     71  C   UNL A   1      45.367  31.439  27.987  1.00  0.00     0.064 A 
ATOM     72  C   UNL A   1      46.666  31.975  27.857  1.00  0.00     0.173 A 
ATOM     73  C   UNL A   1      44.318  32.331  27.669  1.00  0.00     0.173 A 
ATOM     74  F   UNL A   1      47.745  31.225  28.123  1.00  0.00    -0.203 F 
ATOM     75  C   UNL A   1      46.886  33.321  27.554  1.00  0.00     0.198 A 
ATOM     76  C   UNL A   1      44.545  33.659  27.310  1.00  0.00     0.198 A 
ATOM     77  F   UNL A   1      43.027  32.009  27.789  1.00  0.00    -0.203 F 
ATOM     78  F   UNL A   1      48.131  33.812  27.587  1.00  0.00    -0.200 F 
ATOM     79  C   UNL A   1      45.824  34.166  27.292  1.00  0.00     0.200 A 
ATOM     80  F   UNL A   1      43.497  34.460  27.068  1.00  0.00    -0.200 F 
ATOM     81  F   UNL A   1      46.026  35.469  27.071  1.00  0.00    -0.200 F 
ENDBRANCH  57  71
BRANCH  58  82
ATOM     82  C   UNL A   1      37.343  30.940  30.543  1.00  0.00     0.064 A 
ATOM     83  C   UNL A   1      36.424  31.325  31.533  1.00  0.00     0.173 A 
ATOM     84  C   UNL A   1      37.090  31.424  29.242  1.00  0.00     0.173 A 
ATOM     85  F   UNL A   1      36.612  30.953  32.806  1.00  0.00    -0.203 F 
ATOM     86  C   UNL A   1      35.330  32.152  31.242  1.00  0.00     0.198 A 
ATOM     87  C   UNL A   1      35.995  32.241  28.951  1.00  0.00     0.198 A 
ATOM     88  F   UNL A   1      37.952  31.192  28.240  1.00  0.00    -0.203 F 
ATOM     89  F   UNL A   1      34.507  32.544  32.225  1.00  0.00    -0.200 F 
ATOM     90  C   UNL A   1      35.122  32.616  29.953  1.00  0.00     0.200 A 
ATOM     91  F   UNL A   1      35.831  32.711  27.706  1.00  0.00    -0.200 F 
ATOM     92  F   UNL A   1      34.110  33.452  29.685  1.00  0.00    -0.200 F 
ENDBRANCH  58  82
BRANCH  70  93
ATOM     93  C   UNL A   1      42.575  29.477  33.825  1.00  0.00     0.064 A 
ATOM     94  C   UNL A   1      42.047  28.174  33.844  1.00  0.00     0.173 A 
ATOM     95  C   UNL A   1      43.012  30.007  35.048  1.00  0.00     0.173 A 
ATOM     96  F   UNL A   1      41.706  27.552  32.710  1.00  0.00    -0.203 F 
ATOM     97  C   UNL A   1      41.929  27.454  35.033  1.00  0.00     0.198 A 
ATOM     98  C   UNL A   1      42.929  29.273  36.228  1.00  0.00     0.198 A 
ATOM     99  F   UNL A   1      43.578  31.224  35.086  1.00  0.00    -0.203 F 
ATOM    100  F   UNL A   1      41.419  26.214  35.020  1.00  0.00    -0.200 F 
ATOM    101  C   UNL A   1      42.379  28.003  36.222  1.00  0.00     0.200 A 
ATOM    102  F   UNL A   1      43.415  29.788  37.365  1.00  0.00    -0.200 F 
ATOM    103  F   UNL A   1      42.310  27.294  37.358  1.00  0.00    -0.200 F 
ENDBRANCH  70  93
ENDBRANCH  44  45
ENDBRANCH  36  39
ENDBRANCH  34  35
ENDBRANCH  33  34
ENDBRANCH  32  33
ENDBRANCH  31  32
ENDBRANCH   1  31
TORSDOF 19
ENDMDL
