MODEL 1
REMARK VINA RESULT:     -11.0      0.000      0.000
REMARK SMILES CC(C)[C@H](C)N(C)C(=O)N1CC[C@@H](C(=O)NCCCCCCNC(=O)c2ccc(-c3c4nc(c(-c5c(F)c(F)c(F)c(F)c5F)c5ccc([nH]5)c(-c5c(F)c(F)c(F)c(F)c5F)c5nc(c(-c6c(F)c(F)c(F)c(F)c6F)c6ccc3[nH]6)C=C5)C=C4)cc2)[C@@H]1C
REMARK SMILES IDX 18 1 17 2 16 3 14 4 15 5 13 7 10 8 11 9 89 10 12 11 90 12
REMARK SMILES IDX 8 13 9 14 6 15 7 16 4 17 5 18 2 19 1 20 3 21 19 22 20 23
REMARK SMILES IDX 21 24 22 25 23 26 24 27 25 29 26 30 27 31 88 32 28 33 87 34
REMARK SMILES IDX 29 35 30 36 31 37 81 38 32 39 86 40 80 41 82 42 33 43 85 44
REMARK SMILES IDX 79 45 78 46 34 48 66 49 46 50 65 51 47 52 50 53 64 54 83 55
REMARK SMILES IDX 48 56 49 57 63 59 84 60 51 61 35 62 36 63 44 64 37 65 38 66
REMARK SMILES IDX 42 67 45 68 39 69 40 70 43 71 41 72 67 73 68 74 76 75 69 76
REMARK SMILES IDX 70 77 74 78 77 79 71 80 72 81 75 82 73 83 52 84 53 85 61 86
REMARK SMILES IDX 54 87 55 88 59 89 62 90 56 91 57 92 60 93 58 94
REMARK H PARENT 16 6 23 28 82 47 50 58
REMARK Flexibility Score: inf
ROOT
ATOM      1  C   UNL A   1      33.844  29.709  27.080  1.00  0.00     0.021 C 
ENDROOT
BRANCH   1   2
ATOM      2  C   UNL A   1      34.328  28.540  26.223  1.00  0.00     0.116 C 
BRANCH   2   3
ATOM      3  N   UNL A   1      34.327  28.884  24.812  1.00  0.00    -0.356 N 
ATOM      4  C   UNL A   1      33.681  28.331  23.752  1.00  0.00     0.225 C 
ATOM      5  O   UNL A   1      33.910  28.818  22.640  1.00  0.00    -0.275 OA
ATOM      6  H   UNL A   1      34.896  29.655  24.583  1.00  0.00     0.163 HD
BRANCH   4   7
ATOM      7  C   UNL A   1      32.706  27.167  23.879  1.00  0.00     0.102 C 
ATOM      8  N   UNL A   1      30.329  27.135  23.587  1.00  0.00    -0.321 N 
ATOM      9  C   UNL A   1      30.892  26.150  22.676  1.00  0.00     0.122 C 
ATOM     10  C   UNL A   1      31.367  27.547  24.547  1.00  0.00     0.096 C 
ATOM     11  C   UNL A   1      32.357  26.514  22.543  1.00  0.00     0.037 C 
ATOM     12  C   UNL A   1      31.193  26.807  25.876  1.00  0.00     0.032 C 
BRANCH   8  13
ATOM     13  C   UNL A   1      28.959  27.298  23.573  1.00  0.00     0.320 C 
ATOM     14  O   UNL A   1      28.258  26.328  23.874  1.00  0.00    -0.248 OA
BRANCH  13  15
ATOM     15  N   UNL A   1      28.380  28.502  23.199  1.00  0.00    -0.325 N 
ATOM     16  C   UNL A   1      26.953  28.735  23.103  1.00  0.00     0.149 C 
BRANCH  15  17
ATOM     17  C   UNL A   1      29.225  29.698  22.936  1.00  0.00     0.086 C 
ATOM     18  C   UNL A   1      30.134  29.582  21.702  1.00  0.00     0.031 C 
BRANCH  17  19
ATOM     19  C   UNL A   1      28.466  31.051  23.002  1.00  0.00     0.005 C 
ATOM     20  C   UNL A   1      29.117  32.107  23.893  1.00  0.00     0.009 C 
ATOM     21  C   UNL A   1      28.235  31.628  21.601  1.00  0.00     0.009 C 
ENDBRANCH  17  19
ENDBRANCH  15  17
ENDBRANCH  13  15
ENDBRANCH   8  13
ENDBRANCH   4   7
ENDBRANCH   2   3
ENDBRANCH   1   2
BRANCH   1  22
ATOM     22  C   UNL A   1      32.329  29.814  27.248  1.00  0.00     0.002 C 
BRANCH  22  23
ATOM     23  C   UNL A   1      31.633  30.804  26.311  1.00  0.00     0.002 C 
BRANCH  23  24
ATOM     24  C   UNL A   1      31.461  32.231  26.845  1.00  0.00     0.021 C 
BRANCH  24  25
ATOM     25  C   UNL A   1      32.743  33.052  26.973  1.00  0.00     0.116 C 
BRANCH  25  26
ATOM     26  N   UNL A   1      32.523  34.329  27.629  1.00  0.00    -0.352 N 
ATOM     27  C   UNL A   1      33.106  34.860  28.748  1.00  0.00     0.251 C 
ATOM     28  H   UNL A   1      31.849  34.903  27.200  1.00  0.00     0.163 HD
ATOM     29  O   UNL A   1      32.651  35.891  29.242  1.00  0.00    -0.269 OA
BRANCH  27  30
ATOM     30  C   UNL A   1      34.265  34.202  29.389  1.00  0.00     0.039 A 
ATOM     31  C   UNL A   1      34.026  33.182  30.314  1.00  0.00     0.014 A 
ATOM     32  C   UNL A   1      35.577  34.610  29.123  1.00  0.00     0.014 A 
ATOM     33  C   UNL A   1      35.099  32.535  30.932  1.00  0.00     0.010 A 
ATOM     34  C   UNL A   1      36.649  33.922  29.694  1.00  0.00     0.010 A 
ATOM     35  C   UNL A   1      36.420  32.880  30.605  1.00  0.00    -0.014 A 
BRANCH  35  36
ATOM     36  C   UNL A   1      37.567  32.147  31.202  1.00  0.00     0.031 A 
ATOM     37  C   UNL A   1      38.052  32.482  32.585  1.00  0.00     0.074 A 
ATOM     38  C   UNL A   1      38.200  31.206  30.477  1.00  0.00     0.049 A 
ATOM     39  N   UNL A   1      39.056  31.973  33.256  1.00  0.00    -0.248 NA
ATOM     40  C   UNL A   1      37.330  33.544  33.300  1.00  0.00     0.031 C 
ATOM     41  C   UNL A   1      37.855  30.822  29.107  1.00  0.00     0.029 A 
ATOM     42  N   UNL A   1      39.273  30.407  30.785  1.00  0.00    -0.354 N 
ATOM     43  C   UNL A   1      39.091  32.658  34.463  1.00  0.00     0.074 A 
ATOM     44  C   UNL A   1      38.039  33.651  34.416  1.00  0.00     0.031 C 
ATOM     45  C   UNL A   1      38.684  29.848  28.701  1.00  0.00     0.029 A 
ATOM     46  C   UNL A   1      39.640  29.561  29.767  1.00  0.00     0.049 A 
ATOM     47  H   UNL A   1      39.735  30.438  31.654  1.00  0.00     0.167 HD
ATOM     48  C   UNL A   1      39.912  32.462  35.522  1.00  0.00     0.037 A 
ATOM     49  C   UNL A   1      40.636  28.658  29.699  1.00  0.00     0.037 A 
ATOM     50  C   UNL A   1      40.944  31.458  35.577  1.00  0.00     0.049 A 
ATOM     51  C   UNL A   1      41.534  28.461  30.890  1.00  0.00     0.074 A 
ATOM     52  C   UNL A   1      41.786  31.141  36.630  1.00  0.00     0.029 A 
ATOM     53  N   UNL A   1      41.278  30.611  34.531  1.00  0.00    -0.354 N 
ATOM     54  N   UNL A   1      41.510  29.065  32.053  1.00  0.00    -0.248 NA
ATOM     55  C   UNL A   1      42.592  27.448  30.761  1.00  0.00     0.031 C 
ATOM     56  C   UNL A   1      42.657  30.131  36.206  1.00  0.00     0.029 A 
ATOM     57  C   UNL A   1      42.328  29.787  34.906  1.00  0.00     0.049 A 
ATOM     58  H   UNL A   1      40.835  30.597  33.652  1.00  0.00     0.167 HD
ATOM     59  C   UNL A   1      42.530  28.493  32.801  1.00  0.00     0.074 A 
ATOM     60  C   UNL A   1      43.142  27.479  31.966  1.00  0.00     0.031 C 
ATOM     61  C   UNL A   1      42.926  28.782  34.065  1.00  0.00     0.037 A 
BRANCH  48  62
ATOM     62  C   UNL A   1      39.726  33.350  36.719  1.00  0.00     0.064 A 
ATOM     63  C   UNL A   1      38.840  33.014  37.753  1.00  0.00     0.173 A 
ATOM     64  C   UNL A   1      40.473  34.530  36.854  1.00  0.00     0.173 A 
ATOM     65  F   UNL A   1      38.094  31.902  37.667  1.00  0.00    -0.203 F 
ATOM     66  C   UNL A   1      38.687  33.839  38.865  1.00  0.00     0.198 A 
ATOM     67  C   UNL A   1      40.340  35.339  37.981  1.00  0.00     0.198 A 
ATOM     68  F   UNL A   1      41.341  34.896  35.898  1.00  0.00    -0.203 F 
ATOM     69  F   UNL A   1      37.802  33.520  39.817  1.00  0.00    -0.200 F 
ATOM     70  C   UNL A   1      39.443  34.996  38.980  1.00  0.00     0.200 A 
ATOM     71  F   UNL A   1      41.080  36.450  38.097  1.00  0.00    -0.200 F 
ATOM     72  F   UNL A   1      39.300  35.785  40.054  1.00  0.00    -0.200 F 
ENDBRANCH  48  62
BRANCH  49  73
ATOM     73  C   UNL A   1      40.821  27.851  28.466  1.00  0.00     0.064 A 
ATOM     74  C   UNL A   1      41.626  28.316  27.417  1.00  0.00     0.173 A 
ATOM     75  C   UNL A   1      40.199  26.605  28.310  1.00  0.00     0.173 A 
ATOM     76  F   UNL A   1      42.224  29.513  27.513  1.00  0.00    -0.203 F 
ATOM     77  C   UNL A   1      41.788  27.573  26.250  1.00  0.00     0.198 A 
ATOM     78  C   UNL A   1      40.384  25.849  27.154  1.00  0.00     0.198 A 
ATOM     79  F   UNL A   1      39.422  26.114  29.286  1.00  0.00    -0.203 F 
ATOM     80  F   UNL A   1      42.530  28.059  25.246  1.00  0.00    -0.200 F 
ATOM     81  C   UNL A   1      41.172  26.337  26.122  1.00  0.00     0.200 A 
ATOM     82  F   UNL A   1      39.797  24.650  27.039  1.00  0.00    -0.200 F 
ATOM     83  F   UNL A   1      41.332  25.619  25.002  1.00  0.00    -0.200 F 
ENDBRANCH  49  73
BRANCH  61  84
ATOM     84  C   UNL A   1      44.057  27.974  34.631  1.00  0.00     0.064 A 
ATOM     85  C   UNL A   1      43.836  26.733  35.246  1.00  0.00     0.173 A 
ATOM     86  C   UNL A   1      45.379  28.431  34.529  1.00  0.00     0.173 A 
ATOM     87  F   UNL A   1      42.588  26.259  35.382  1.00  0.00    -0.203 F 
ATOM     88  C   UNL A   1      44.896  25.993  35.764  1.00  0.00     0.198 A 
ATOM     89  C   UNL A   1      46.439  27.675  35.021  1.00  0.00     0.198 A 
ATOM     90  F   UNL A   1      45.644  29.610  33.943  1.00  0.00    -0.203 F 
ATOM     91  F   UNL A   1      44.657  24.833  36.391  1.00  0.00    -0.200 F 
ATOM     92  C   UNL A   1      46.196  26.461  35.645  1.00  0.00     0.200 A 
ATOM     93  F   UNL A   1      47.695  28.124  34.895  1.00  0.00    -0.200 F 
ATOM     94  F   UNL A   1      47.215  25.745  36.139  1.00  0.00    -0.200 F 
ENDBRANCH  61  84
ENDBRANCH  35  36
ENDBRANCH  27  30
ENDBRANCH  25  26
ENDBRANCH  24  25
ENDBRANCH  23  24
ENDBRANCH  22  23
ENDBRANCH   1  22
TORSDOF 17
ENDMDL
MODEL 2
REMARK VINA RESULT:     -10.9      0.345      7.458
REMARK SMILES CC(C)[C@H](C)N(C)C(=O)N1CC[C@@H](C(=O)NCCCCCCNC(=O)c2ccc(-c3c4nc(c(-c5c(F)c(F)c(F)c(F)c5F)c5ccc([nH]5)c(-c5c(F)c(F)c(F)c(F)c5F)c5nc(c(-c6c(F)c(F)c(F)c(F)c6F)c6ccc3[nH]6)C=C5)C=C4)cc2)[C@@H]1C
REMARK SMILES IDX 18 1 17 2 16 3 14 4 15 5 13 7 10 8 11 9 89 10 12 11 90 12
REMARK SMILES IDX 8 13 9 14 6 15 7 16 4 17 5 18 2 19 1 20 3 21 19 22 20 23
REMARK SMILES IDX 21 24 22 25 23 26 24 27 25 29 26 30 27 31 88 32 28 33 87 34
REMARK SMILES IDX 29 35 30 36 31 37 81 38 32 39 86 40 80 41 82 42 33 43 85 44
REMARK SMILES IDX 79 45 78 46 34 48 66 49 46 50 65 51 47 52 50 53 64 54 83 55
REMARK SMILES IDX 48 56 49 57 63 59 84 60 51 61 35 62 36 63 44 64 37 65 38 66
REMARK SMILES IDX 42 67 45 68 39 69 40 70 43 71 41 72 67 73 68 74 76 75 69 76
REMARK SMILES IDX 70 77 74 78 77 79 71 80 72 81 75 82 73 83 52 84 53 85 61 86
REMARK SMILES IDX 54 87 55 88 59 89 62 90 56 91 57 92 60 93 58 94
REMARK H PARENT 16 6 23 28 82 47 50 58
REMARK Flexibility Score: inf
ROOT
ATOM      1  C   UNL A   1      33.838  29.825  27.060  1.00  0.00     0.021 C 
ENDROOT
BRANCH   1   2
ATOM      2  C   UNL A   1      34.312  28.631  26.234  1.00  0.00     0.116 C 
BRANCH   2   3
ATOM      3  N   UNL A   1      34.326  28.942  24.816  1.00  0.00    -0.356 N 
ATOM      4  C   UNL A   1      33.692  28.363  23.762  1.00  0.00     0.225 C 
ATOM      5  O   UNL A   1      33.933  28.825  22.641  1.00  0.00    -0.275 OA
ATOM      6  H   UNL A   1      34.897  29.707  24.575  1.00  0.00     0.163 HD
BRANCH   4   7
ATOM      7  C   UNL A   1      32.716  27.202  23.905  1.00  0.00     0.102 C 
ATOM      8  N   UNL A   1      30.345  27.158  23.576  1.00  0.00    -0.321 N 
ATOM      9  C   UNL A   1      30.923  26.149  22.701  1.00  0.00     0.122 C 
ATOM     10  C   UNL A   1      31.367  27.598  24.540  1.00  0.00     0.096 C 
ATOM     11  C   UNL A   1      32.390  26.511  22.582  1.00  0.00     0.037 C 
ATOM     12  C   UNL A   1      31.172  26.895  25.886  1.00  0.00     0.032 C 
BRANCH   8  13
ATOM     13  C   UNL A   1      28.975  27.319  23.534  1.00  0.00     0.320 C 
ATOM     14  O   UNL A   1      28.270  26.343  23.807  1.00  0.00    -0.248 OA
BRANCH  13  15
ATOM     15  N   UNL A   1      28.402  28.527  23.165  1.00  0.00    -0.325 N 
ATOM     16  C   UNL A   1      26.975  28.777  23.105  1.00  0.00     0.149 C 
BRANCH  15  17
ATOM     17  C   UNL A   1      29.254  29.710  22.869  1.00  0.00     0.086 C 
ATOM     18  C   UNL A   1      30.147  29.560  21.626  1.00  0.00     0.031 C 
BRANCH  17  19
ATOM     19  C   UNL A   1      28.508  31.071  22.917  1.00  0.00     0.005 C 
ATOM     20  C   UNL A   1      29.104  32.092  23.883  1.00  0.00     0.009 C 
ATOM     21  C   UNL A   1      28.387  31.689  21.520  1.00  0.00     0.009 C 
ENDBRANCH  17  19
ENDBRANCH  15  17
ENDBRANCH  13  15
ENDBRANCH   8  13
ENDBRANCH   4   7
ENDBRANCH   2   3
ENDBRANCH   1   2
BRANCH   1  22
ATOM     22  C   UNL A   1      32.328  29.918  27.272  1.00  0.00     0.002 C 
BRANCH  22  23
ATOM     23  C   UNL A   1      31.595  30.887  26.340  1.00  0.00     0.002 C 
BRANCH  23  24
ATOM     24  C   UNL A   1      31.420  32.319  26.859  1.00  0.00     0.021 C 
BRANCH  24  25
ATOM     25  C   UNL A   1      32.686  33.173  26.891  1.00  0.00     0.116 C 
BRANCH  25  26
ATOM     26  N   UNL A   1      32.504  34.412  27.627  1.00  0.00    -0.352 N 
ATOM     27  C   UNL A   1      33.098  34.850  28.781  1.00  0.00     0.251 C 
ATOM     28  H   UNL A   1      31.851  35.034  27.234  1.00  0.00     0.163 HD
ATOM     29  O   UNL A   1      32.673  35.861  29.339  1.00  0.00    -0.269 OA
BRANCH  27  30
ATOM     30  C   UNL A   1      34.232  34.115  29.381  1.00  0.00     0.039 A 
ATOM     31  C   UNL A   1      35.532  34.492  29.032  1.00  0.00     0.014 A 
ATOM     32  C   UNL A   1      34.028  33.031  30.242  1.00  0.00     0.014 A 
ATOM     33  C   UNL A   1      36.625  33.823  29.586  1.00  0.00     0.010 A 
ATOM     34  C   UNL A   1      35.120  32.403  30.841  1.00  0.00     0.010 A 
ATOM     35  C   UNL A   1      36.429  32.791  30.518  1.00  0.00    -0.014 A 
BRANCH  35  36
ATOM     36  C   UNL A   1      37.587  32.123  31.167  1.00  0.00     0.031 A 
ATOM     37  C   UNL A   1      38.365  31.063  30.439  1.00  0.00     0.074 A 
ATOM     38  C   UNL A   1      37.909  32.443  32.435  1.00  0.00     0.049 A 
ATOM     39  N   UNL A   1      39.381  30.349  30.856  1.00  0.00    -0.248 NA
ATOM     40  C   UNL A   1      37.930  30.745  29.071  1.00  0.00     0.031 C 
ATOM     41  C   UNL A   1      37.204  33.421  33.264  1.00  0.00     0.029 A 
ATOM     42  N   UNL A   1      38.907  31.973  33.252  1.00  0.00    -0.354 N 
ATOM     43  C   UNL A   1      39.700  29.495  29.809  1.00  0.00     0.074 A 
ATOM     44  C   UNL A   1      38.740  29.745  28.754  1.00  0.00     0.031 C 
ATOM     45  C   UNL A   1      37.802  33.495  34.463  1.00  0.00     0.029 A 
ATOM     46  C   UNL A   1      38.913  32.547  34.500  1.00  0.00     0.049 A 
ATOM     47  H   UNL A   1      39.557  31.290  32.970  1.00  0.00     0.167 HD
ATOM     48  C   UNL A   1      40.712  28.599  29.726  1.00  0.00     0.037 A 
ATOM     49  C   UNL A   1      39.720  32.332  35.556  1.00  0.00     0.037 A 
ATOM     50  C   UNL A   1      41.681  28.368  30.767  1.00  0.00     0.049 A 
ATOM     51  C   UNL A   1      40.837  31.332  35.437  1.00  0.00     0.074 A 
ATOM     52  C   UNL A   1      42.781  27.527  30.753  1.00  0.00     0.029 A 
ATOM     53  N   UNL A   1      41.661  28.978  32.013  1.00  0.00    -0.354 N 
ATOM     54  N   UNL A   1      41.172  30.583  34.415  1.00  0.00    -0.248 NA
ATOM     55  C   UNL A   1      41.694  31.154  36.618  1.00  0.00     0.031 C 
ATOM     56  C   UNL A   1      43.402  27.597  32.005  1.00  0.00     0.029 A 
ATOM     57  C   UNL A   1      42.717  28.515  32.783  1.00  0.00     0.049 A 
ATOM     58  H   UNL A   1      40.996  29.642  32.307  1.00  0.00     0.167 HD
ATOM     59  C   UNL A   1      42.289  29.863  34.819  1.00  0.00     0.074 A 
ATOM     60  C   UNL A   1      42.586  30.280  36.174  1.00  0.00     0.031 C 
ATOM     61  C   UNL A   1      43.002  28.940  34.130  1.00  0.00     0.037 A 
BRANCH  48  62
ATOM     62  C   UNL A   1      40.833  27.801  28.460  1.00  0.00     0.064 A 
ATOM     63  C   UNL A   1      41.615  28.245  27.383  1.00  0.00     0.173 A 
ATOM     64  C   UNL A   1      40.193  26.559  28.337  1.00  0.00     0.173 A 
ATOM     65  F   UNL A   1      42.239  29.430  27.446  1.00  0.00    -0.203 F 
ATOM     66  C   UNL A   1      41.730  27.487  26.220  1.00  0.00     0.198 A 
ATOM     67  C   UNL A   1      40.333  25.790  27.184  1.00  0.00     0.198 A 
ATOM     68  F   UNL A   1      39.438  26.084  29.340  1.00  0.00    -0.203 F 
ATOM     69  F   UNL A   1      42.445  27.953  25.188  1.00  0.00    -0.200 F 
ATOM     70  C   UNL A   1      41.094  26.258  26.124  1.00  0.00     0.200 A 
ATOM     71  F   UNL A   1      39.729  24.597  27.098  1.00  0.00    -0.200 F 
ATOM     72  F   UNL A   1      41.212  25.528  25.007  1.00  0.00    -0.200 F 
ENDBRANCH  48  62
BRANCH  49  73
ATOM     73  C   UNL A   1      39.516  33.100  36.811  1.00  0.00     0.064 A 
ATOM     74  C   UNL A   1      38.618  32.653  37.789  1.00  0.00     0.173 A 
ATOM     75  C   UNL A   1      40.212  34.291  37.058  1.00  0.00     0.173 A 
ATOM     76  F   UNL A   1      37.914  31.528  37.587  1.00  0.00    -0.203 F 
ATOM     77  C   UNL A   1      38.409  33.378  38.960  1.00  0.00     0.198 A 
ATOM     78  C   UNL A   1      40.023  35.002  38.241  1.00  0.00     0.198 A 
ATOM     79  F   UNL A   1      41.086  34.759  36.155  1.00  0.00    -0.203 F 
ATOM     80  F   UNL A   1      37.514  32.950  39.860  1.00  0.00    -0.200 F 
ATOM     81  C   UNL A   1      39.117  34.549  39.188  1.00  0.00     0.200 A 
ATOM     82  F   UNL A   1      40.718  36.126  38.464  1.00  0.00    -0.200 F 
ATOM     83  F   UNL A   1      38.920  35.244  40.316  1.00  0.00    -0.200 F 
ENDBRANCH  49  73
BRANCH  61  84
ATOM     84  C   UNL A   1      44.190  28.336  34.821  1.00  0.00     0.064 A 
ATOM     85  C   UNL A   1      45.455  28.939  34.767  1.00  0.00     0.173 A 
ATOM     86  C   UNL A   1      44.054  27.159  35.571  1.00  0.00     0.173 A 
ATOM     87  F   UNL A   1      45.639  30.058  34.050  1.00  0.00    -0.203 F 
ATOM     88  C   UNL A   1      46.547  28.370  35.416  1.00  0.00     0.198 A 
ATOM     89  C   UNL A   1      45.142  26.608  36.243  1.00  0.00     0.198 A 
ATOM     90  F   UNL A   1      42.863  26.546  35.659  1.00  0.00    -0.203 F 
ATOM     91  F   UNL A   1      47.757  28.937  35.311  1.00  0.00    -0.200 F 
ATOM     92  C   UNL A   1      46.389  27.209  36.158  1.00  0.00     0.200 A 
ATOM     93  F   UNL A   1      44.985  25.492  36.969  1.00  0.00    -0.200 F 
ATOM     94  F   UNL A   1      47.440  26.665  36.786  1.00  0.00    -0.200 F 
ENDBRANCH  61  84
ENDBRANCH  35  36
ENDBRANCH  27  30
ENDBRANCH  25  26
ENDBRANCH  24  25
ENDBRANCH  23  24
ENDBRANCH  22  23
ENDBRANCH   1  22
TORSDOF 17
ENDMDL
MODEL 3
REMARK VINA RESULT:     -10.9      2.149      3.667
REMARK SMILES CC(C)[C@H](C)N(C)C(=O)N1CC[C@@H](C(=O)NCCCCCCNC(=O)c2ccc(-c3c4nc(c(-c5c(F)c(F)c(F)c(F)c5F)c5ccc([nH]5)c(-c5c(F)c(F)c(F)c(F)c5F)c5nc(c(-c6c(F)c(F)c(F)c(F)c6F)c6ccc3[nH]6)C=C5)C=C4)cc2)[C@@H]1C
REMARK SMILES IDX 18 1 17 2 16 3 14 4 15 5 13 7 10 8 11 9 89 10 12 11 90 12
REMARK SMILES IDX 8 13 9 14 6 15 7 16 4 17 5 18 2 19 1 20 3 21 19 22 20 23
REMARK SMILES IDX 21 24 22 25 23 26 24 27 25 29 26 30 27 31 88 32 28 33 87 34
REMARK SMILES IDX 29 35 30 36 31 37 81 38 32 39 86 40 80 41 82 42 33 43 85 44
REMARK SMILES IDX 79 45 78 46 34 48 66 49 46 50 65 51 47 52 50 53 64 54 83 55
REMARK SMILES IDX 48 56 49 57 63 59 84 60 51 61 35 62 36 63 44 64 37 65 38 66
REMARK SMILES IDX 42 67 45 68 39 69 40 70 43 71 41 72 67 73 68 74 76 75 69 76
REMARK SMILES IDX 70 77 74 78 77 79 71 80 72 81 75 82 73 83 52 84 53 85 61 86
REMARK SMILES IDX 54 87 55 88 59 89 62 90 56 91 57 92 60 93 58 94
REMARK H PARENT 16 6 23 28 82 47 50 58
REMARK Flexibility Score: inf
ROOT
ATOM      1  C   UNL A   1      34.451  31.130  28.143  1.00  0.00     0.021 C 
ENDROOT
BRANCH   1   2
ATOM      2  C   UNL A   1      33.639  30.431  27.054  1.00  0.00     0.116 C 
BRANCH   2   3
ATOM      3  N   UNL A   1      32.806  29.379  27.611  1.00  0.00    -0.356 N 
ATOM      4  C   UNL A   1      32.107  28.376  27.017  1.00  0.00     0.225 C 
ATOM      5  O   UNL A   1      31.441  27.644  27.756  1.00  0.00    -0.275 OA
ATOM      6  H   UNL A   1      32.735  29.397  28.593  1.00  0.00     0.163 HD
BRANCH   4   7
ATOM      7  C   UNL A   1      32.117  28.123  25.515  1.00  0.00     0.102 C 
ATOM      8  N   UNL A   1      33.022  26.274  24.290  1.00  0.00    -0.321 N 
ATOM      9  C   UNL A   1      31.613  26.377  23.943  1.00  0.00     0.122 C 
ATOM     10  C   UNL A   1      33.431  27.499  24.998  1.00  0.00     0.096 C 
ATOM     11  C   UNL A   1      30.986  27.212  25.041  1.00  0.00     0.037 C 
ATOM     12  C   UNL A   1      34.149  28.456  24.043  1.00  0.00     0.032 C 
BRANCH   8  13
ATOM     13  C   UNL A   1      33.743  25.253  23.707  1.00  0.00     0.320 C 
ATOM     14  O   UNL A   1      33.855  25.254  22.477  1.00  0.00    -0.248 OA
BRANCH  13  15
ATOM     15  N   UNL A   1      34.297  24.235  24.468  1.00  0.00    -0.325 N 
ATOM     16  C   UNL A   1      35.719  24.029  24.659  1.00  0.00     0.149 C 
BRANCH  15  17
ATOM     17  C   UNL A   1      33.426  23.297  25.227  1.00  0.00     0.086 C 
ATOM     18  C   UNL A   1      33.068  23.763  26.647  1.00  0.00     0.031 C 
BRANCH  17  19
ATOM     19  C   UNL A   1      32.197  22.775  24.434  1.00  0.00     0.005 C 
ATOM     20  C   UNL A   1      32.351  21.363  23.872  1.00  0.00     0.009 C 
ATOM     21  C   UNL A   1      30.917  22.861  25.273  1.00  0.00     0.009 C 
ENDBRANCH  17  19
ENDBRANCH  15  17
ENDBRANCH  13  15
ENDBRANCH   8  13
ENDBRANCH   4   7
ENDBRANCH   2   3
ENDBRANCH   1   2
BRANCH   1  22
ATOM     22  C   UNL A   1      34.748  32.607  27.891  1.00  0.00     0.002 C 
BRANCH  22  23
ATOM     23  C   UNL A   1      34.399  33.551  29.045  1.00  0.00     0.002 C 
BRANCH  23  24
ATOM     24  C   UNL A   1      33.219  34.500  28.806  1.00  0.00     0.021 C 
BRANCH  24  25
ATOM     25  C   UNL A   1      33.362  35.900  29.400  1.00  0.00     0.116 C 
BRANCH  25  26
ATOM     26  N   UNL A   1      32.525  36.096  30.571  1.00  0.00    -0.352 N 
ATOM     27  C   UNL A   1      32.672  35.631  31.851  1.00  0.00     0.251 C 
ATOM     28  H   UNL A   1      31.727  36.652  30.421  1.00  0.00     0.163 HD
ATOM     29  O   UNL A   1      31.754  35.767  32.658  1.00  0.00    -0.269 OA
BRANCH  27  30
ATOM     30  C   UNL A   1      33.913  34.946  32.274  1.00  0.00     0.039 A 
ATOM     31  C   UNL A   1      33.817  33.649  32.788  1.00  0.00     0.014 A 
ATOM     32  C   UNL A   1      35.156  35.583  32.216  1.00  0.00     0.014 A 
ATOM     33  C   UNL A   1      34.970  32.972  33.190  1.00  0.00     0.010 A 
ATOM     34  C   UNL A   1      36.314  34.884  32.561  1.00  0.00     0.010 A 
ATOM     35  C   UNL A   1      36.232  33.573  33.053  1.00  0.00    -0.014 A 
BRANCH  35  36
ATOM     36  C   UNL A   1      37.469  32.832  33.410  1.00  0.00     0.031 A 
ATOM     37  C   UNL A   1      38.202  33.136  34.687  1.00  0.00     0.074 A 
ATOM     38  C   UNL A   1      37.959  31.912  32.558  1.00  0.00     0.049 A 
ATOM     39  N   UNL A   1      39.313  32.617  35.149  1.00  0.00    -0.248 NA
ATOM     40  C   UNL A   1      37.624  34.177  35.549  1.00  0.00     0.031 C 
ATOM     41  C   UNL A   1      37.366  31.558  31.266  1.00  0.00     0.029 A 
ATOM     42  N   UNL A   1      39.071  31.111  32.643  1.00  0.00    -0.354 N 
ATOM     43  C   UNL A   1      39.570  33.273  36.344  1.00  0.00     0.074 A 
ATOM     44  C   UNL A   1      38.526  34.262  36.517  1.00  0.00     0.031 C 
ATOM     45  C   UNL A   1      38.107  30.599  30.691  1.00  0.00     0.029 A 
ATOM     46  C   UNL A   1      39.244  30.291  31.554  1.00  0.00     0.049 A 
ATOM     47  H   UNL A   1      39.685  31.123  33.412  1.00  0.00     0.167 HD
ATOM     48  C   UNL A   1      40.573  33.056  37.229  1.00  0.00     0.037 A 
ATOM     49  C   UNL A   1      40.210  29.395  31.282  1.00  0.00     0.037 A 
ATOM     50  C   UNL A   1      41.598  32.056  37.068  1.00  0.00     0.049 A 
ATOM     51  C   UNL A   1      41.313  29.174  32.282  1.00  0.00     0.074 A 
ATOM     52  C   UNL A   1      42.620  31.719  37.939  1.00  0.00     0.029 A 
ATOM     53  N   UNL A   1      41.732  31.237  35.958  1.00  0.00    -0.354 N 
ATOM     54  N   UNL A   1      41.504  29.751  33.443  1.00  0.00    -0.248 NA
ATOM     55  C   UNL A   1      42.330  28.171  31.935  1.00  0.00     0.031 C 
ATOM     56  C   UNL A   1      43.398  30.724  37.338  1.00  0.00     0.029 A 
ATOM     57  C   UNL A   1      42.834  30.409  36.113  1.00  0.00     0.049 A 
ATOM     58  H   UNL A   1      41.135  31.241  35.176  1.00  0.00     0.167 HD
ATOM     59  C   UNL A   1      42.645  29.166  33.976  1.00  0.00     0.074 A 
ATOM     60  C   UNL A   1      43.093  28.176  33.018  1.00  0.00     0.031 C 
ATOM     61  C   UNL A   1      43.267  29.427  35.151  1.00  0.00     0.037 A 
BRANCH  48  62
ATOM     62  C   UNL A   1      40.610  33.915  38.461  1.00  0.00     0.064 A 
ATOM     63  C   UNL A   1      41.349  35.106  38.504  1.00  0.00     0.173 A 
ATOM     64  C   UNL A   1      39.865  33.565  39.597  1.00  0.00     0.173 A 
ATOM     65  F   UNL A   1      42.087  35.481  37.448  1.00  0.00    -0.203 F 
ATOM     66  C   UNL A   1      41.364  35.901  39.647  1.00  0.00     0.198 A 
ATOM     67  C   UNL A   1      39.859  34.376  40.729  1.00  0.00     0.198 A 
ATOM     68  F   UNL A   1      39.135  32.439  39.607  1.00  0.00    -0.203 F 
ATOM     69  F   UNL A   1      42.114  37.010  39.680  1.00  0.00    -0.200 F 
ATOM     70  C   UNL A   1      40.613  35.538  40.756  1.00  0.00     0.200 A 
ATOM     71  F   UNL A   1      39.123  34.031  41.795  1.00  0.00    -0.200 F 
ATOM     72  F   UNL A   1      40.623  36.308  41.853  1.00  0.00    -0.200 F 
ENDBRANCH  48  62
BRANCH  49  73
ATOM     73  C   UNL A   1      40.165  28.619  30.016  1.00  0.00     0.064 A 
ATOM     74  C   UNL A   1      40.777  29.104  28.853  1.00  0.00     0.173 A 
ATOM     75  C   UNL A   1      39.510  27.382  29.943  1.00  0.00     0.173 A 
ATOM     76  F   UNL A   1      41.397  30.295  28.870  1.00  0.00    -0.203 F 
ATOM     77  C   UNL A   1      40.722  28.390  27.658  1.00  0.00     0.198 A 
ATOM     78  C   UNL A   1      39.479  26.655  28.755  1.00  0.00     0.198 A 
ATOM     79  F   UNL A   1      38.913  26.872  31.030  1.00  0.00    -0.203 F 
ATOM     80  F   UNL A   1      41.279  28.897  26.551  1.00  0.00    -0.200 F 
ATOM     81  C   UNL A   1      40.077  27.162  27.612  1.00  0.00     0.200 A 
ATOM     82  F   UNL A   1      38.867  25.463  28.717  1.00  0.00    -0.200 F 
ATOM     83  F   UNL A   1      40.028  26.473  26.465  1.00  0.00    -0.200 F 
ENDBRANCH  49  73
BRANCH  61  84
ATOM     84  C   UNL A   1      44.484  28.612  35.478  1.00  0.00     0.064 A 
ATOM     85  C   UNL A   1      44.387  27.390  36.162  1.00  0.00     0.173 A 
ATOM     86  C   UNL A   1      45.758  29.041  35.077  1.00  0.00     0.173 A 
ATOM     87  F   UNL A   1      43.193  26.944  36.580  1.00  0.00    -0.203 F 
ATOM     88  C   UNL A   1      45.524  26.643  36.456  1.00  0.00     0.198 A 
ATOM     89  C   UNL A   1      46.889  28.277  35.347  1.00  0.00     0.198 A 
ATOM     90  F   UNL A   1      45.903  30.199  34.415  1.00  0.00    -0.203 F 
ATOM     91  F   UNL A   1      45.413  25.503  37.152  1.00  0.00    -0.200 F 
ATOM     92  C   UNL A   1      46.773  27.083  36.043  1.00  0.00     0.200 A 
ATOM     93  F   UNL A   1      48.094  28.698  34.937  1.00  0.00    -0.200 F 
ATOM     94  F   UNL A   1      47.866  26.360  36.322  1.00  0.00    -0.200 F 
ENDBRANCH  61  84
ENDBRANCH  35  36
ENDBRANCH  27  30
ENDBRANCH  25  26
ENDBRANCH  24  25
ENDBRANCH  23  24
ENDBRANCH  22  23
ENDBRANCH   1  22
TORSDOF 17
ENDMDL
