MODEL 1
REMARK VINA RESULT:     -13.5      0.000      0.000
REMARK SMILES Cc1c(Cc2nc(C(C)(C)C)cs2)cccc1C(=O)NCCCCCCNC(=O)c1ccc(-c2c3nc(c(-c4c(F)c(F)c(F)c(F)c4F)c4ccc([nH]4)c(-c4c(F)c(F)c(F)c(F)c4F)c4nc(c(-c5c(F)c(F)c(F)c(F)c5F)c5ccc2[nH]5)C=C4)C=C3)cc1
REMARK SMILES IDX 23 1 22 2 21 3 20 4 18 5 19 6 17 8 1 9 2 10 3 11 14 12 16 13
REMARK SMILES IDX 15 14 4 15 5 16 6 17 13 18 7 19 12 20 8 21 9 22 10 23 11 24
REMARK SMILES IDX 24 25 25 26 26 27 27 28 28 29 29 31 30 32 31 33 92 34 32 35
REMARK SMILES IDX 91 36 33 37 34 38 35 39 85 40 36 41 90 42 84 43 86 44 37 45
REMARK SMILES IDX 89 46 83 47 82 48 38 50 70 51 50 52 69 53 51 54 54 55 68 56
REMARK SMILES IDX 87 57 52 58 53 59 67 61 88 62 55 63 39 64 40 65 48 66 41 67
REMARK SMILES IDX 42 68 46 69 49 70 43 71 44 72 47 73 45 74 71 75 72 76 80 77
REMARK SMILES IDX 73 78 74 79 78 80 81 81 75 82 76 83 79 84 77 85 56 86 57 87
REMARK SMILES IDX 65 88 58 89 59 90 63 91 66 92 60 93 61 94 64 95 62 96
REMARK H PARENT 20 7 27 30 86 49 54 60
REMARK Flexibility Score: inf
ROOT
ATOM      1  C   UNL A   1      32.834  29.459  25.079  1.00  0.00     0.002 C 
ENDROOT
BRANCH   1   2
ATOM      2  C   UNL A   1      33.779  28.592  24.237  1.00  0.00     0.021 C 
BRANCH   2   3
ATOM      3  C   UNL A   1      33.677  28.792  22.716  1.00  0.00     0.116 C 
BRANCH   3   4
ATOM      4  N   UNL A   1      32.315  29.137  22.360  1.00  0.00    -0.352 N 
ATOM      5  C   UNL A   1      31.131  28.447  22.375  1.00  0.00     0.251 C 
ATOM      6  O   UNL A   1      30.143  29.036  21.927  1.00  0.00    -0.269 OA
ATOM      7  H   UNL A   1      32.221  30.063  22.040  1.00  0.00     0.163 HD
BRANCH   5   8
ATOM      8  C   UNL A   1      30.934  27.100  22.992  1.00  0.00     0.043 A 
ATOM      9  C   UNL A   1      31.906  25.682  21.103  1.00  0.00     0.045 C 
ATOM     10  C   UNL A   1      31.342  25.842  22.485  1.00  0.00    -0.035 A 
ATOM     11  C   UNL A   1      31.120  24.677  23.271  1.00  0.00    -0.037 A 
ATOM     12  C   UNL A   1      30.292  24.764  24.407  1.00  0.00     0.004 A 
ATOM     13  C   UNL A   1      30.147  27.139  24.163  1.00  0.00     0.014 A 
ATOM     14  C   UNL A   1      29.795  25.982  24.843  1.00  0.00     0.001 A 
BRANCH  11  15
ATOM     15  C   UNL A   1      31.722  23.313  22.934  1.00  0.00     0.103 C 
BRANCH  15  16
ATOM     16  C   UNL A   1      32.788  22.905  23.921  1.00  0.00     0.097 A 
ATOM     17  N   UNL A   1      34.065  23.195  23.778  1.00  0.00    -0.245 NA
ATOM     18  S   UNL A   1      32.416  21.932  25.286  1.00  0.00    -0.127 S 
ATOM     19  C   UNL A   1      34.833  22.515  24.709  1.00  0.00     0.057 A 
ATOM     20  C   UNL A   1      34.089  21.815  25.644  1.00  0.00     0.091 A 
BRANCH  19  21
ATOM     21  C   UNL A   1      36.351  22.592  24.605  1.00  0.00     0.005 C 
ATOM     22  C   UNL A   1      36.979  21.245  24.998  1.00  0.00     0.017 C 
ATOM     23  C   UNL A   1      36.774  22.951  23.166  1.00  0.00     0.017 C 
ATOM     24  C   UNL A   1      36.917  23.683  25.542  1.00  0.00     0.017 C 
ENDBRANCH  19  21
ENDBRANCH  15  16
ENDBRANCH  11  15
ENDBRANCH   5   8
ENDBRANCH   3   4
ENDBRANCH   2   3
ENDBRANCH   1   2
BRANCH   1  25
ATOM     25  C   UNL A   1      32.555  28.976  26.511  1.00  0.00     0.002 C 
BRANCH  25  26
ATOM     26  C   UNL A   1      32.985  29.922  27.635  1.00  0.00     0.021 C 
BRANCH  26  27
ATOM     27  C   UNL A   1      34.322  30.617  27.397  1.00  0.00     0.116 C 
BRANCH  27  28
ATOM     28  N   UNL A   1      34.801  31.386  28.540  1.00  0.00    -0.352 N 
ATOM     29  C   UNL A   1      35.841  31.117  29.405  1.00  0.00     0.251 C 
ATOM     30  H   UNL A   1      34.309  32.220  28.721  1.00  0.00     0.163 HD
ATOM     31  O   UNL A   1      36.066  31.867  30.353  1.00  0.00    -0.269 OA
BRANCH  29  32
ATOM     32  C   UNL A   1      36.762  29.991  29.124  1.00  0.00     0.039 A 
ATOM     33  C   UNL A   1      37.066  29.107  30.168  1.00  0.00     0.014 A 
ATOM     34  C   UNL A   1      37.434  29.892  27.909  1.00  0.00     0.014 A 
ATOM     35  C   UNL A   1      38.191  28.290  30.069  1.00  0.00     0.010 A 
ATOM     36  C   UNL A   1      38.596  29.149  27.840  1.00  0.00     0.010 A 
ATOM     37  C   UNL A   1      39.011  28.399  28.946  1.00  0.00    -0.014 A 
BRANCH  37  38
ATOM     38  C   UNL A   1      40.364  27.855  28.882  1.00  0.00     0.031 A 
ATOM     39  C   UNL A   1      40.600  26.446  28.506  1.00  0.00     0.074 A 
ATOM     40  C   UNL A   1      41.411  28.682  29.093  1.00  0.00     0.049 A 
ATOM     41  N   UNL A   1      41.689  25.800  28.759  1.00  0.00    -0.248 NA
ATOM     42  C   UNL A   1      39.594  25.637  27.831  1.00  0.00     0.031 C 
ATOM     43  C   UNL A   1      42.824  28.418  28.832  1.00  0.00     0.029 A 
ATOM     44  N   UNL A   1      41.412  29.884  29.822  1.00  0.00    -0.354 N 
ATOM     45  C   UNL A   1      41.631  24.593  28.104  1.00  0.00     0.074 A 
ATOM     46  C   UNL A   1      40.291  24.527  27.565  1.00  0.00     0.031 C 
ATOM     47  C   UNL A   1      43.562  29.203  29.632  1.00  0.00     0.029 A 
ATOM     48  C   UNL A   1      42.643  29.888  30.524  1.00  0.00     0.049 A 
ATOM     49  H   UNL A   1      40.710  30.573  29.842  1.00  0.00     0.167 HD
ATOM     50  C   UNL A   1      42.755  23.824  28.011  1.00  0.00     0.037 A 
ATOM     51  C   UNL A   1      42.669  29.824  31.887  1.00  0.00     0.037 A 
ATOM     52  C   UNL A   1      43.867  24.401  28.759  1.00  0.00     0.049 A 
ATOM     53  C   UNL A   1      43.393  28.621  32.453  1.00  0.00     0.074 A 
ATOM     54  C   UNL A   1      44.949  25.200  28.425  1.00  0.00     0.029 A 
ATOM     55  N   UNL A   1      43.793  24.413  30.140  1.00  0.00    -0.354 N 
ATOM     56  N   UNL A   1      43.835  27.625  31.737  1.00  0.00    -0.248 NA
ATOM     57  C   UNL A   1      43.574  28.400  33.889  1.00  0.00     0.031 C 
ATOM     58  C   UNL A   1      45.504  25.719  29.628  1.00  0.00     0.029 A 
ATOM     59  C   UNL A   1      44.761  25.232  30.688  1.00  0.00     0.049 A 
ATOM     60  H   UNL A   1      43.135  23.903  30.665  1.00  0.00     0.167 HD
ATOM     61  C   UNL A   1      44.300  26.646  32.571  1.00  0.00     0.074 A 
ATOM     62  C   UNL A   1      44.118  27.172  33.910  1.00  0.00     0.031 C 
ATOM     63  C   UNL A   1      44.768  25.451  32.119  1.00  0.00     0.037 A 
BRANCH  50  64
ATOM     64  C   UNL A   1      42.906  22.654  27.070  1.00  0.00     0.064 A 
ATOM     65  C   UNL A   1      42.168  21.468  27.273  1.00  0.00     0.173 A 
ATOM     66  C   UNL A   1      43.787  22.622  25.974  1.00  0.00     0.173 A 
ATOM     67  F   UNL A   1      41.221  21.385  28.216  1.00  0.00    -0.203 F 
ATOM     68  C   UNL A   1      42.382  20.313  26.517  1.00  0.00     0.198 A 
ATOM     69  C   UNL A   1      44.047  21.449  25.258  1.00  0.00     0.198 A 
ATOM     70  F   UNL A   1      44.382  23.737  25.530  1.00  0.00    -0.203 F 
ATOM     71  F   UNL A   1      41.651  19.215  26.759  1.00  0.00    -0.200 F 
ATOM     72  C   UNL A   1      43.352  20.291  25.537  1.00  0.00     0.200 A 
ATOM     73  F   UNL A   1      44.978  21.453  24.294  1.00  0.00    -0.200 F 
ATOM     74  F   UNL A   1      43.597  19.168  24.849  1.00  0.00    -0.200 F 
ENDBRANCH  50  64
BRANCH  51  75
ATOM     75  C   UNL A   1      41.489  30.472  32.521  1.00  0.00     0.064 A 
ATOM     76  C   UNL A   1      41.392  31.877  32.489  1.00  0.00     0.173 A 
ATOM     77  C   UNL A   1      40.328  29.750  32.821  1.00  0.00     0.173 A 
ATOM     78  F   UNL A   1      42.476  32.619  32.206  1.00  0.00    -0.203 F 
ATOM     79  C   UNL A   1      40.166  32.521  32.621  1.00  0.00     0.198 A 
ATOM     80  C   UNL A   1      39.105  30.401  32.978  1.00  0.00     0.198 A 
ATOM     81  F   UNL A   1      40.348  28.410  32.849  1.00  0.00    -0.203 F 
ATOM     82  F   UNL A   1      40.086  33.849  32.460  1.00  0.00    -0.200 F 
ATOM     83  C   UNL A   1      39.018  31.779  32.842  1.00  0.00     0.200 A 
ATOM     84  F   UNL A   1      37.991  29.680  33.169  1.00  0.00    -0.200 F 
ATOM     85  F   UNL A   1      37.823  32.385  32.882  1.00  0.00    -0.200 F 
ENDBRANCH  51  75
BRANCH  63  86
ATOM     86  C   UNL A   1      45.286  24.390  33.033  1.00  0.00     0.064 A 
ATOM     87  C   UNL A   1      44.497  23.294  33.410  1.00  0.00     0.173 A 
ATOM     88  C   UNL A   1      46.545  24.511  33.650  1.00  0.00     0.173 A 
ATOM     89  F   UNL A   1      43.273  23.123  32.889  1.00  0.00    -0.203 F 
ATOM     90  C   UNL A   1      44.954  22.358  34.338  1.00  0.00     0.198 A 
ATOM     91  C   UNL A   1      46.980  23.600  34.608  1.00  0.00     0.198 A 
ATOM     92  F   UNL A   1      47.384  25.506  33.320  1.00  0.00    -0.203 F 
ATOM     93  F   UNL A   1      44.191  21.300  34.646  1.00  0.00    -0.200 F 
ATOM     94  C   UNL A   1      46.188  22.519  34.946  1.00  0.00     0.200 A 
ATOM     95  F   UNL A   1      48.171  23.773  35.198  1.00  0.00    -0.200 F 
ATOM     96  F   UNL A   1      46.615  21.631  35.853  1.00  0.00    -0.200 F 
ENDBRANCH  63  86
ENDBRANCH  37  38
ENDBRANCH  29  32
ENDBRANCH  27  28
ENDBRANCH  26  27
ENDBRANCH  25  26
ENDBRANCH   1  25
TORSDOF 16
ENDMDL
MODEL 2
REMARK VINA RESULT:     -13.4      1.305      1.779
REMARK SMILES Cc1c(Cc2nc(C(C)(C)C)cs2)cccc1C(=O)NCCCCCCNC(=O)c1ccc(-c2c3nc(c(-c4c(F)c(F)c(F)c(F)c4F)c4ccc([nH]4)c(-c4c(F)c(F)c(F)c(F)c4F)c4nc(c(-c5c(F)c(F)c(F)c(F)c5F)c5ccc2[nH]5)C=C4)C=C3)cc1
REMARK SMILES IDX 23 1 22 2 21 3 20 4 18 5 19 6 17 8 1 9 2 10 3 11 14 12 16 13
REMARK SMILES IDX 15 14 4 15 5 16 6 17 13 18 7 19 12 20 8 21 9 22 10 23 11 24
REMARK SMILES IDX 24 25 25 26 26 27 27 28 28 29 29 31 30 32 31 33 92 34 32 35
REMARK SMILES IDX 91 36 33 37 34 38 35 39 85 40 36 41 90 42 84 43 86 44 37 45
REMARK SMILES IDX 89 46 83 47 82 48 38 50 70 51 50 52 69 53 51 54 54 55 68 56
REMARK SMILES IDX 87 57 52 58 53 59 67 61 88 62 55 63 39 64 40 65 48 66 41 67
REMARK SMILES IDX 42 68 46 69 49 70 43 71 44 72 47 73 45 74 71 75 72 76 80 77
REMARK SMILES IDX 73 78 74 79 78 80 81 81 75 82 76 83 79 84 77 85 56 86 57 87
REMARK SMILES IDX 65 88 58 89 59 90 63 91 66 92 60 93 61 94 64 95 62 96
REMARK H PARENT 20 7 27 30 86 49 54 60
REMARK Flexibility Score: inf
ROOT
ATOM      1  C   UNL A   1      33.041  28.502  25.742  1.00  0.00     0.002 C 
ENDROOT
BRANCH   1   2
ATOM      2  C   UNL A   1      33.588  28.427  24.311  1.00  0.00     0.021 C 
BRANCH   2   3
ATOM      3  C   UNL A   1      32.542  28.593  23.196  1.00  0.00     0.116 C 
BRANCH   3   4
ATOM      4  N   UNL A   1      32.899  27.761  22.065  1.00  0.00    -0.352 N 
ATOM      5  C   UNL A   1      32.977  26.405  21.876  1.00  0.00     0.251 C 
ATOM      6  O   UNL A   1      33.394  26.024  20.780  1.00  0.00    -0.269 OA
ATOM      7  H   UNL A   1      33.137  28.279  21.262  1.00  0.00     0.163 HD
BRANCH   5   8
ATOM      8  C   UNL A   1      32.490  25.378  22.847  1.00  0.00     0.043 A 
ATOM      9  C   UNL A   1      34.759  24.544  23.672  1.00  0.00     0.045 C 
ATOM     10  C   UNL A   1      33.259  24.580  23.728  1.00  0.00    -0.035 A 
ATOM     11  C   UNL A   1      32.589  23.708  24.631  1.00  0.00    -0.037 A 
ATOM     12  C   UNL A   1      31.210  23.477  24.463  1.00  0.00     0.004 A 
ATOM     13  C   UNL A   1      31.102  25.143  22.751  1.00  0.00     0.014 A 
ATOM     14  C   UNL A   1      30.473  24.176  23.522  1.00  0.00     0.001 A 
BRANCH  11  15
ATOM     15  C   UNL A   1      33.297  22.981  25.774  1.00  0.00     0.103 C 
BRANCH  15  16
ATOM     16  C   UNL A   1      33.929  21.689  25.318  1.00  0.00     0.097 A 
ATOM     17  N   UNL A   1      33.246  20.670  24.840  1.00  0.00    -0.245 NA
ATOM     18  S   UNL A   1      35.617  21.415  25.480  1.00  0.00    -0.127 S 
ATOM     19  C   UNL A   1      34.053  19.551  24.709  1.00  0.00     0.057 A 
ATOM     20  C   UNL A   1      35.390  19.794  24.969  1.00  0.00     0.091 A 
BRANCH  19  21
ATOM     21  C   UNL A   1      33.412  18.224  24.323  1.00  0.00     0.005 C 
ATOM     22  C   UNL A   1      34.494  17.205  23.931  1.00  0.00     0.017 C 
ATOM     23  C   UNL A   1      32.586  17.664  25.499  1.00  0.00     0.017 C 
ATOM     24  C   UNL A   1      32.452  18.399  23.124  1.00  0.00     0.017 C 
ENDBRANCH  19  21
ENDBRANCH  15  16
ENDBRANCH  11  15
ENDBRANCH   5   8
ENDBRANCH   3   4
ENDBRANCH   2   3
ENDBRANCH   1   2
BRANCH   1  25
ATOM     25  C   UNL A   1      32.228  29.756  26.099  1.00  0.00     0.002 C 
BRANCH  25  26
ATOM     26  C   UNL A   1      32.812  30.646  27.199  1.00  0.00     0.021 C 
BRANCH  26  27
ATOM     27  C   UNL A   1      34.247  30.306  27.589  1.00  0.00     0.116 C 
BRANCH  27  28
ATOM     28  N   UNL A   1      34.813  31.198  28.594  1.00  0.00    -0.352 N 
ATOM     29  C   UNL A   1      35.943  31.041  29.371  1.00  0.00     0.251 C 
ATOM     30  H   UNL A   1      34.317  32.036  28.740  1.00  0.00     0.163 HD
ATOM     31  O   UNL A   1      36.238  31.889  30.210  1.00  0.00    -0.269 OA
BRANCH  29  32
ATOM     32  C   UNL A   1      36.865  29.910  29.112  1.00  0.00     0.039 A 
ATOM     33  C   UNL A   1      37.169  29.047  30.173  1.00  0.00     0.014 A 
ATOM     34  C   UNL A   1      37.539  29.790  27.899  1.00  0.00     0.014 A 
ATOM     35  C   UNL A   1      38.295  28.229  30.091  1.00  0.00     0.010 A 
ATOM     36  C   UNL A   1      38.701  29.046  27.846  1.00  0.00     0.010 A 
ATOM     37  C   UNL A   1      39.115  28.317  28.967  1.00  0.00    -0.014 A 
BRANCH  37  38
ATOM     38  C   UNL A   1      40.469  27.774  28.915  1.00  0.00     0.031 A 
ATOM     39  C   UNL A   1      40.710  26.369  28.527  1.00  0.00     0.074 A 
ATOM     40  C   UNL A   1      41.514  28.598  29.148  1.00  0.00     0.049 A 
ATOM     41  N   UNL A   1      41.795  25.719  28.787  1.00  0.00    -0.248 NA
ATOM     42  C   UNL A   1      39.712  25.567  27.831  1.00  0.00     0.031 C 
ATOM     43  C   UNL A   1      42.930  28.336  28.902  1.00  0.00     0.029 A 
ATOM     44  N   UNL A   1      41.505  29.792  29.889  1.00  0.00    -0.354 N 
ATOM     45  C   UNL A   1      41.744  24.519  28.120  1.00  0.00     0.074 A 
ATOM     46  C   UNL A   1      40.411  24.459  27.562  1.00  0.00     0.031 C 
ATOM     47  C   UNL A   1      43.657  29.112  29.719  1.00  0.00     0.029 A 
ATOM     48  C   UNL A   1      42.727  29.788  30.607  1.00  0.00     0.049 A 
ATOM     49  H   UNL A   1      40.804  30.482  29.906  1.00  0.00     0.167 HD
ATOM     50  C   UNL A   1      42.870  23.751  28.034  1.00  0.00     0.037 A 
ATOM     51  C   UNL A   1      42.735  29.710  31.970  1.00  0.00     0.037 A 
ATOM     52  C   UNL A   1      43.972  24.320  28.802  1.00  0.00     0.049 A 
ATOM     53  C   UNL A   1      43.451  28.501  32.532  1.00  0.00     0.074 A 
ATOM     54  C   UNL A   1      45.058  25.121  28.490  1.00  0.00     0.029 A 
ATOM     55  N   UNL A   1      43.880  24.317  30.181  1.00  0.00    -0.354 N 
ATOM     56  N   UNL A   1      43.903  27.512  31.812  1.00  0.00    -0.248 NA
ATOM     57  C   UNL A   1      43.614  28.265  33.968  1.00  0.00     0.031 C 
ATOM     58  C   UNL A   1      45.598  25.628  29.706  1.00  0.00     0.029 A 
ATOM     59  C   UNL A   1      44.841  25.130  30.750  1.00  0.00     0.049 A 
ATOM     60  H   UNL A   1      43.215  23.802  30.693  1.00  0.00     0.167 HD
ATOM     61  C   UNL A   1      44.357  26.525  32.642  1.00  0.00     0.074 A 
ATOM     62  C   UNL A   1      44.157  27.037  33.983  1.00  0.00     0.031 C 
ATOM     63  C   UNL A   1      44.830  25.334  32.184  1.00  0.00     0.037 A 
BRANCH  50  64
ATOM     64  C   UNL A   1      43.032  22.591  27.082  1.00  0.00     0.064 A 
ATOM     65  C   UNL A   1      42.290  21.403  27.263  1.00  0.00     0.173 A 
ATOM     66  C   UNL A   1      43.928  22.569  25.998  1.00  0.00     0.173 A 
ATOM     67  F   UNL A   1      41.330  21.311  28.192  1.00  0.00    -0.203 F 
ATOM     68  C   UNL A   1      42.513  20.255  26.498  1.00  0.00     0.198 A 
ATOM     69  C   UNL A   1      44.197  21.403  25.274  1.00  0.00     0.198 A 
ATOM     70  F   UNL A   1      44.531  23.687  25.574  1.00  0.00    -0.203 F 
ATOM     71  F   UNL A   1      41.779  19.156  26.718  1.00  0.00    -0.200 F 
ATOM     72  C   UNL A   1      43.497  20.243  25.532  1.00  0.00     0.200 A 
ATOM     73  F   UNL A   1      45.141  21.416  24.322  1.00  0.00    -0.200 F 
ATOM     74  F   UNL A   1      43.751  19.127  24.835  1.00  0.00    -0.200 F 
ENDBRANCH  50  64
BRANCH  51  75
ATOM     75  C   UNL A   1      41.548  30.353  32.595  1.00  0.00     0.064 A 
ATOM     76  C   UNL A   1      41.451  31.758  32.573  1.00  0.00     0.173 A 
ATOM     77  C   UNL A   1      40.384  29.628  32.874  1.00  0.00     0.173 A 
ATOM     78  F   UNL A   1      42.537  32.503  32.310  1.00  0.00    -0.203 F 
ATOM     79  C   UNL A   1      40.222  32.400  32.696  1.00  0.00     0.198 A 
ATOM     80  C   UNL A   1      39.158  30.277  33.023  1.00  0.00     0.198 A 
ATOM     81  F   UNL A   1      40.404  28.287  32.892  1.00  0.00    -0.203 F 
ATOM     82  F   UNL A   1      40.143  33.730  32.545  1.00  0.00    -0.200 F 
ATOM     83  C   UNL A   1      39.072  31.656  32.897  1.00  0.00     0.200 A 
ATOM     84  F   UNL A   1      38.043  29.554  33.194  1.00  0.00    -0.200 F 
ATOM     85  F   UNL A   1      37.876  32.260  32.927  1.00  0.00    -0.200 F 
ENDBRANCH  51  75
BRANCH  63  86
ATOM     86  C   UNL A   1      45.335  24.264  33.094  1.00  0.00     0.064 A 
ATOM     87  C   UNL A   1      44.532  23.178  33.471  1.00  0.00     0.173 A 
ATOM     88  C   UNL A   1      46.598  24.365  33.706  1.00  0.00     0.173 A 
ATOM     89  F   UNL A   1      43.303  23.027  32.954  1.00  0.00    -0.203 F 
ATOM     90  C   UNL A   1      44.978  22.233  34.395  1.00  0.00     0.198 A 
ATOM     91  C   UNL A   1      47.023  23.445  34.660  1.00  0.00     0.198 A 
ATOM     92  F   UNL A   1      47.451  25.348  33.375  1.00  0.00    -0.203 F 
ATOM     93  F   UNL A   1      44.201  21.186  34.703  1.00  0.00    -0.200 F 
ATOM     94  C   UNL A   1      46.216  22.375  34.999  1.00  0.00     0.200 A 
ATOM     95  F   UNL A   1      48.219  23.600  35.246  1.00  0.00    -0.200 F 
ATOM     96  F   UNL A   1      46.634  21.479  35.903  1.00  0.00    -0.200 F 
ENDBRANCH  63  86
ENDBRANCH  37  38
ENDBRANCH  29  32
ENDBRANCH  27  28
ENDBRANCH  26  27
ENDBRANCH  25  26
ENDBRANCH   1  25
TORSDOF 16
ENDMDL
MODEL 3
REMARK VINA RESULT:     -13.2      1.516      2.540
REMARK SMILES Cc1c(Cc2nc(C(C)(C)C)cs2)cccc1C(=O)NCCCCCCNC(=O)c1ccc(-c2c3nc(c(-c4c(F)c(F)c(F)c(F)c4F)c4ccc([nH]4)c(-c4c(F)c(F)c(F)c(F)c4F)c4nc(c(-c5c(F)c(F)c(F)c(F)c5F)c5ccc2[nH]5)C=C4)C=C3)cc1
REMARK SMILES IDX 23 1 22 2 21 3 20 4 18 5 19 6 17 8 1 9 2 10 3 11 14 12 16 13
REMARK SMILES IDX 15 14 4 15 5 16 6 17 13 18 7 19 12 20 8 21 9 22 10 23 11 24
REMARK SMILES IDX 24 25 25 26 26 27 27 28 28 29 29 31 30 32 31 33 92 34 32 35
REMARK SMILES IDX 91 36 33 37 34 38 35 39 85 40 36 41 90 42 84 43 86 44 37 45
REMARK SMILES IDX 89 46 83 47 82 48 38 50 70 51 50 52 69 53 51 54 54 55 68 56
REMARK SMILES IDX 87 57 52 58 53 59 67 61 88 62 55 63 39 64 40 65 48 66 41 67
REMARK SMILES IDX 42 68 46 69 49 70 43 71 44 72 47 73 45 74 71 75 72 76 80 77
REMARK SMILES IDX 73 78 74 79 78 80 81 81 75 82 76 83 79 84 77 85 56 86 57 87
REMARK SMILES IDX 65 88 58 89 59 90 63 91 66 92 60 93 61 94 64 95 62 96
REMARK H PARENT 20 7 27 30 86 49 54 60
REMARK Flexibility Score: inf
ROOT
ATOM      1  C   UNL A   1      33.201  27.792  25.643  1.00  0.00     0.002 C 
ENDROOT
BRANCH   1   2
ATOM      2  C   UNL A   1      33.818  28.121  24.276  1.00  0.00     0.021 C 
BRANCH   2   3
ATOM      3  C   UNL A   1      32.813  28.485  23.171  1.00  0.00     0.116 C 
BRANCH   3   4
ATOM      4  N   UNL A   1      33.028  27.635  22.018  1.00  0.00    -0.352 N 
ATOM      5  C   UNL A   1      33.003  26.278  21.826  1.00  0.00     0.251 C 
ATOM      6  O   UNL A   1      33.309  25.874  20.701  1.00  0.00    -0.269 OA
ATOM      7  H   UNL A   1      33.237  28.139  21.198  1.00  0.00     0.163 HD
BRANCH   5   8
ATOM      8  C   UNL A   1      32.524  25.281  22.832  1.00  0.00     0.043 A 
ATOM      9  C   UNL A   1      34.798  24.389  23.578  1.00  0.00     0.045 C 
ATOM     10  C   UNL A   1      33.303  24.473  23.694  1.00  0.00    -0.035 A 
ATOM     11  C   UNL A   1      32.644  23.636  24.638  1.00  0.00    -0.037 A 
ATOM     12  C   UNL A   1      31.253  23.446  24.530  1.00  0.00     0.004 A 
ATOM     13  C   UNL A   1      31.127  25.089  22.796  1.00  0.00     0.014 A 
ATOM     14  C   UNL A   1      30.500  24.154  23.608  1.00  0.00     0.001 A 
BRANCH  11  15
ATOM     15  C   UNL A   1      33.375  22.906  25.764  1.00  0.00     0.103 C 
BRANCH  15  16
ATOM     16  C   UNL A   1      33.972  21.600  25.298  1.00  0.00     0.097 A 
ATOM     17  N   UNL A   1      33.260  20.604  24.811  1.00  0.00    -0.245 NA
ATOM     18  S   UNL A   1      35.651  21.279  25.458  1.00  0.00    -0.127 S 
ATOM     19  C   UNL A   1      34.036  19.465  24.671  1.00  0.00     0.057 A 
ATOM     20  C   UNL A   1      35.380  19.668  24.933  1.00  0.00     0.091 A 
BRANCH  19  21
ATOM     21  C   UNL A   1      33.358  18.159  24.275  1.00  0.00     0.005 C 
ATOM     22  C   UNL A   1      34.412  17.116  23.869  1.00  0.00     0.017 C 
ATOM     23  C   UNL A   1      32.522  17.610  25.448  1.00  0.00     0.017 C 
ATOM     24  C   UNL A   1      32.399  18.371  23.081  1.00  0.00     0.017 C 
ENDBRANCH  19  21
ENDBRANCH  15  16
ENDBRANCH  11  15
ENDBRANCH   5   8
ENDBRANCH   3   4
ENDBRANCH   2   3
ENDBRANCH   1   2
BRANCH   1  25
ATOM     25  C   UNL A   1      32.149  28.776  26.173  1.00  0.00     0.002 C 
BRANCH  25  26
ATOM     26  C   UNL A   1      32.674  29.911  27.057  1.00  0.00     0.021 C 
BRANCH  26  27
ATOM     27  C   UNL A   1      34.116  29.731  27.521  1.00  0.00     0.116 C 
BRANCH  27  28
ATOM     28  N   UNL A   1      34.581  30.778  28.424  1.00  0.00    -0.352 N 
ATOM     29  C   UNL A   1      35.746  30.851  29.159  1.00  0.00     0.251 C 
ATOM     30  H   UNL A   1      33.973  31.548  28.523  1.00  0.00     0.163 HD
ATOM     31  O   UNL A   1      35.943  31.801  29.912  1.00  0.00    -0.269 OA
BRANCH  29  32
ATOM     32  C   UNL A   1      36.812  29.843  28.952  1.00  0.00     0.039 A 
ATOM     33  C   UNL A   1      37.105  28.963  30.002  1.00  0.00     0.014 A 
ATOM     34  C   UNL A   1      37.613  29.862  27.813  1.00  0.00     0.014 A 
ATOM     35  C   UNL A   1      38.319  28.278  30.005  1.00  0.00     0.010 A 
ATOM     36  C   UNL A   1      38.853  29.253  27.852  1.00  0.00     0.010 A 
ATOM     37  C   UNL A   1      39.233  28.516  28.978  1.00  0.00    -0.014 A 
BRANCH  37  38
ATOM     38  C   UNL A   1      40.638  28.127  29.047  1.00  0.00     0.031 A 
ATOM     39  C   UNL A   1      41.093  26.823  28.522  1.00  0.00     0.074 A 
ATOM     40  C   UNL A   1      41.539  29.014  29.525  1.00  0.00     0.049 A 
ATOM     41  N   UNL A   1      42.208  26.258  28.847  1.00  0.00    -0.248 NA
ATOM     42  C   UNL A   1      40.293  26.029  27.599  1.00  0.00     0.031 C 
ATOM     43  C   UNL A   1      42.996  28.936  29.448  1.00  0.00     0.029 A 
ATOM     44  N   UNL A   1      41.295  30.083  30.403  1.00  0.00    -0.354 N 
ATOM     45  C   UNL A   1      42.386  25.165  28.033  1.00  0.00     0.074 A 
ATOM     46  C   UNL A   1      41.149  25.048  27.293  1.00  0.00     0.031 C 
ATOM     47  C   UNL A   1      43.517  29.660  30.449  1.00  0.00     0.029 A 
ATOM     48  C   UNL A   1      42.410  30.104  31.277  1.00  0.00     0.049 A 
ATOM     49  H   UNL A   1      40.519  30.688  30.409  1.00  0.00     0.167 HD
ATOM     50  C   UNL A   1      43.598  24.537  28.008  1.00  0.00     0.037 A 
ATOM     51  C   UNL A   1      42.259  29.836  32.607  1.00  0.00     0.037 A 
ATOM     52  C   UNL A   1      44.519  25.102  28.987  1.00  0.00     0.049 A 
ATOM     53  C   UNL A   1      43.040  28.640  33.106  1.00  0.00     0.074 A 
ATOM     54  C   UNL A   1      45.531  26.047  28.933  1.00  0.00     0.029 A 
ATOM     55  N   UNL A   1      44.258  24.896  30.329  1.00  0.00    -0.354 N 
ATOM     56  N   UNL A   1      43.693  27.814  32.337  1.00  0.00    -0.248 NA
ATOM     57  C   UNL A   1      43.051  28.222  34.510  1.00  0.00     0.031 C 
ATOM     58  C   UNL A   1      45.851  26.430  30.266  1.00  0.00     0.029 A 
ATOM     59  C   UNL A   1      45.036  25.715  31.124  1.00  0.00     0.049 A 
ATOM     60  H   UNL A   1      43.602  24.248  30.674  1.00  0.00     0.167 HD
ATOM     61  C   UNL A   1      44.157  26.771  33.091  1.00  0.00     0.074 A 
ATOM     62  C   UNL A   1      43.732  27.066  34.445  1.00  0.00     0.031 C 
ATOM     63  C   UNL A   1      44.823  25.712  32.556  1.00  0.00     0.037 A 
BRANCH  50  64
ATOM     64  C   UNL A   1      44.015  23.546  26.949  1.00  0.00     0.064 A 
ATOM     65  C   UNL A   1      44.952  23.906  25.955  1.00  0.00     0.173 A 
ATOM     66  C   UNL A   1      43.504  22.241  26.834  1.00  0.00     0.173 A 
ATOM     67  F   UNL A   1      45.596  25.080  25.992  1.00  0.00    -0.203 F 
ATOM     68  C   UNL A   1      45.256  23.075  24.875  1.00  0.00     0.198 A 
ATOM     69  C   UNL A   1      43.759  21.433  25.721  1.00  0.00     0.198 A 
ATOM     70  F   UNL A   1      42.784  21.689  27.819  1.00  0.00    -0.203 F 
ATOM     71  F   UNL A   1      46.152  23.473  23.961  1.00  0.00    -0.200 F 
ATOM     72  C   UNL A   1      44.628  21.855  24.735  1.00  0.00     0.200 A 
ATOM     73  F   UNL A   1      43.156  20.241  25.614  1.00  0.00    -0.200 F 
ATOM     74  F   UNL A   1      44.877  21.080  23.671  1.00  0.00    -0.200 F 
ENDBRANCH  50  64
BRANCH  51  75
ATOM     75  C   UNL A   1      40.934  30.259  33.137  1.00  0.00     0.064 A 
ATOM     76  C   UNL A   1      40.656  31.636  33.240  1.00  0.00     0.173 A 
ATOM     77  C   UNL A   1      39.852  29.374  33.196  1.00  0.00     0.173 A 
ATOM     78  F   UNL A   1      41.658  32.529  33.189  1.00  0.00    -0.203 F 
ATOM     79  C   UNL A   1      39.347  32.109  33.270  1.00  0.00     0.198 A 
ATOM     80  C   UNL A   1      38.542  29.851  33.251  1.00  0.00     0.198 A 
ATOM     81  F   UNL A   1      40.046  28.051  33.085  1.00  0.00    -0.203 F 
ATOM     82  F   UNL A   1      39.112  33.429  33.240  1.00  0.00    -0.200 F 
ATOM     83  C   UNL A   1      38.290  31.216  33.250  1.00  0.00     0.200 A 
ATOM     84  F   UNL A   1      37.520  28.986  33.209  1.00  0.00    -0.200 F 
ATOM     85  F   UNL A   1      37.030  31.666  33.188  1.00  0.00    -0.200 F 
ENDBRANCH  51  75
BRANCH  63  86
ATOM     86  C   UNL A   1      45.337  24.583  33.385  1.00  0.00     0.064 A 
ATOM     87  C   UNL A   1      46.652  24.564  33.871  1.00  0.00     0.173 A 
ATOM     88  C   UNL A   1      44.558  23.433  33.612  1.00  0.00     0.173 A 
ATOM     89  F   UNL A   1      47.468  25.610  33.670  1.00  0.00    -0.203 F 
ATOM     90  C   UNL A   1      47.154  23.462  34.564  1.00  0.00     0.198 A 
ATOM     91  C   UNL A   1      45.074  22.318  34.267  1.00  0.00     0.198 A 
ATOM     92  F   UNL A   1      43.275  23.378  33.220  1.00  0.00    -0.203 F 
ATOM     93  F   UNL A   1      48.402  23.494  35.049  1.00  0.00    -0.200 F 
ATOM     94  C   UNL A   1      46.370  22.336  34.749  1.00  0.00     0.200 A 
ATOM     95  F   UNL A   1      44.309  21.229  34.429  1.00  0.00    -0.200 F 
ATOM     96  F   UNL A   1      46.860  21.270  35.396  1.00  0.00    -0.200 F 
ENDBRANCH  63  86
ENDBRANCH  37  38
ENDBRANCH  29  32
ENDBRANCH  27  28
ENDBRANCH  26  27
ENDBRANCH  25  26
ENDBRANCH   1  25
TORSDOF 16
ENDMDL
