MODEL 1
REMARK VINA RESULT:     -12.6      0.000      0.000
REMARK SMILES COc1ccc(-c2ccc(S(=O)(=O)NC(C)(C)C)cc2)c(C(=O)NCCCCCCNC(=O)c2ccc(-c3c4nc(c(-c5c(F)c(F)c(F)c(F)c5F)c5ccc([nH]5)c(-c5c(F)c(F)c(F)c(F)c5F)c5nc(c(-c6c(F)c(F)c(F)c(F)c6F)c6ccc3[nH]6)C=C5)C=C4)cc2)c1
REMARK SMILES IDX 26 1 25 2 24 3 22 4 23 5 21 7 3 8 4 9 97 10 5 11 6 12 2 13
REMARK SMILES IDX 1 14 7 15 8 16 20 17 9 18 19 19 10 20 11 21 12 22 13 23
REMARK SMILES IDX 14 24 15 26 16 27 17 28 18 29 27 30 28 31 29 32 30 33 31 34
REMARK SMILES IDX 32 35 33 37 34 38 35 39 96 40 36 41 95 42 37 43 38 44 39 45
REMARK SMILES IDX 89 46 40 47 94 48 88 49 90 50 41 51 93 52 87 53 86 54 42 56
REMARK SMILES IDX 74 57 54 58 73 59 55 60 58 61 72 62 91 63 56 64 57 65 71 67
REMARK SMILES IDX 92 68 59 69 43 70 44 71 52 72 45 73 46 74 50 75 53 76 47 77
REMARK SMILES IDX 48 78 51 79 49 80 75 81 76 82 84 83 77 84 78 85 82 86 85 87
REMARK SMILES IDX 79 88 80 89 83 90 81 91 60 92 61 93 69 94 62 95 63 96 67 97
REMARK SMILES IDX 70 98 64 99 65 100 68 101 66 102
REMARK H PARENT 24 6 14 25 31 36 90 55 58 66
REMARK Flexibility Score: inf
ROOT
ATOM      1  C   UNL A   1      31.762  28.582  27.350  1.00  0.00     0.021 C 
ENDROOT
BRANCH   1   2
ATOM      2  C   UNL A   1      32.072  27.319  26.550  1.00  0.00     0.116 C 
BRANCH   2   3
ATOM      3  N   UNL A   1      32.787  27.527  25.304  1.00  0.00    -0.352 N 
ATOM      4  C   UNL A   1      32.310  27.890  24.058  1.00  0.00     0.252 C 
ATOM      5  O   UNL A   1      33.119  28.213  23.194  1.00  0.00    -0.269 OA
ATOM      6  H   UNL A   1      33.760  27.389  25.354  1.00  0.00     0.163 HD
BRANCH   4   7
ATOM      7  C   UNL A   1      30.848  27.864  23.763  1.00  0.00     0.051 A 
ATOM      8  C   UNL A   1      28.838  29.167  23.292  1.00  0.00     0.119 A 
ATOM      9  C   UNL A   1      28.082  28.005  23.371  1.00  0.00     0.047 A 
ATOM     10  C   UNL A   1      30.219  29.087  23.450  1.00  0.00     0.060 A 
ATOM     11  C   UNL A   1      28.705  26.773  23.580  1.00  0.00     0.013 A 
ATOM     12  C   UNL A   1      30.103  26.662  23.752  1.00  0.00    -0.005 A 
BRANCH   8  13
ATOM     13  O   UNL A   1      28.124  30.309  23.063  1.00  0.00    -0.497 OA
ATOM     14  C   UNL A   1      28.632  31.508  23.634  1.00  0.00     0.278 C 
ENDBRANCH   8  13
BRANCH  12  15
ATOM     15  C   UNL A   1      30.680  25.302  23.839  1.00  0.00    -0.018 A 
ATOM     16  C   UNL A   1      30.442  24.522  24.991  1.00  0.00     0.010 A 
ATOM     17  C   UNL A   1      31.467  24.739  22.821  1.00  0.00     0.010 A 
ATOM     18  C   UNL A   1      30.990  23.247  25.137  1.00  0.00     0.022 A 
ATOM     19  C   UNL A   1      31.978  23.441  22.938  1.00  0.00     0.022 A 
ATOM     20  C   UNL A   1      31.762  22.712  24.107  1.00  0.00     0.082 A 
BRANCH  20  21
ATOM     21  S   UNL A   1      32.489  21.117  24.353  1.00  0.00     0.241 S 
ATOM     22  O   UNL A   1      31.902  20.535  25.538  1.00  0.00    -0.207 OA
ATOM     23  O   UNL A   1      32.432  20.439  23.075  1.00  0.00    -0.207 OA
BRANCH  21  24
ATOM     24  N   UNL A   1      34.118  21.389  24.630  1.00  0.00    -0.206 NA
ATOM     25  H   UNL A   1      34.462  21.821  23.772  1.00  0.00     0.141 HD
BRANCH  24  26
ATOM     26  C   UNL A   1      34.716  22.186  25.722  1.00  0.00     0.025 C 
ATOM     27  C   UNL A   1      33.980  22.001  27.051  1.00  0.00     0.028 C 
ATOM     28  C   UNL A   1      36.156  21.659  25.890  1.00  0.00     0.028 C 
ATOM     29  C   UNL A   1      34.787  23.670  25.359  1.00  0.00     0.028 C 
ENDBRANCH  24  26
ENDBRANCH  21  24
ENDBRANCH  20  21
ENDBRANCH  12  15
ENDBRANCH   4   7
ENDBRANCH   2   3
ENDBRANCH   1   2
BRANCH   1  30
ATOM     30  C   UNL A   1      32.411  29.890  26.898  1.00  0.00     0.002 C 
BRANCH  30  31
ATOM     31  C   UNL A   1      31.558  30.863  26.083  1.00  0.00     0.002 C 
BRANCH  31  32
ATOM     32  C   UNL A   1      31.357  32.265  26.657  1.00  0.00     0.021 C 
BRANCH  32  33
ATOM     33  C   UNL A   1      32.573  32.918  27.305  1.00  0.00     0.116 C 
BRANCH  33  34
ATOM     34  N   UNL A   1      32.342  34.288  27.723  1.00  0.00    -0.352 N 
ATOM     35  C   UNL A   1      33.004  35.045  28.660  1.00  0.00     0.251 C 
ATOM     36  H   UNL A   1      31.599  34.745  27.266  1.00  0.00     0.163 HD
ATOM     37  O   UNL A   1      32.594  36.169  28.940  1.00  0.00    -0.269 OA
BRANCH  35  38
ATOM     38  C   UNL A   1      34.191  34.507  29.366  1.00  0.00     0.039 A 
ATOM     39  C   UNL A   1      34.008  33.901  30.614  1.00  0.00     0.014 A 
ATOM     40  C   UNL A   1      35.476  34.610  28.825  1.00  0.00     0.014 A 
ATOM     41  C   UNL A   1      35.098  33.339  31.284  1.00  0.00     0.010 A 
ATOM     42  C   UNL A   1      36.551  33.994  29.464  1.00  0.00     0.010 A 
ATOM     43  C   UNL A   1      36.373  33.351  30.699  1.00  0.00    -0.014 A 
BRANCH  43  44
ATOM     44  C   UNL A   1      37.531  32.696  31.361  1.00  0.00     0.031 A 
ATOM     45  C   UNL A   1      38.246  31.558  30.691  1.00  0.00     0.074 A 
ATOM     46  C   UNL A   1      37.895  33.080  32.601  1.00  0.00     0.049 A 
ATOM     47  N   UNL A   1      39.225  30.813  31.140  1.00  0.00    -0.248 NA
ATOM     48  C   UNL A   1      37.783  31.192  29.344  1.00  0.00     0.031 C 
ATOM     49  C   UNL A   1      37.253  34.139  33.380  1.00  0.00     0.029 A 
ATOM     50  N   UNL A   1      38.886  32.613  33.428  1.00  0.00    -0.354 N 
ATOM     51  C   UNL A   1      39.479  29.880  30.144  1.00  0.00     0.074 A 
ATOM     52  C   UNL A   1      38.524  30.125  29.083  1.00  0.00     0.031 C 
ATOM     53  C   UNL A   1      37.874  34.250  34.565  1.00  0.00     0.029 A 
ATOM     54  C   UNL A   1      38.937  33.252  34.642  1.00  0.00     0.049 A 
ATOM     55  H   UNL A   1      39.501  31.887  33.175  1.00  0.00     0.167 HD
ATOM     56  C   UNL A   1      40.434  28.920  30.107  1.00  0.00     0.037 A 
ATOM     57  C   UNL A   1      39.745  33.053  35.701  1.00  0.00     0.037 A 
ATOM     58  C   UNL A   1      41.404  28.697  31.147  1.00  0.00     0.049 A 
ATOM     59  C   UNL A   1      40.807  31.991  35.631  1.00  0.00     0.074 A 
ATOM     60  C   UNL A   1      42.455  27.797  31.170  1.00  0.00     0.029 A 
ATOM     61  N   UNL A   1      41.441  29.386  32.350  1.00  0.00    -0.354 N 
ATOM     62  N   UNL A   1      41.080  31.159  34.656  1.00  0.00    -0.248 NA
ATOM     63  C   UNL A   1      41.679  31.847  36.805  1.00  0.00     0.031 C 
ATOM     64  C   UNL A   1      43.105  27.914  32.404  1.00  0.00     0.029 A 
ATOM     65  C   UNL A   1      42.486  28.916  33.131  1.00  0.00     0.049 A 
ATOM     66  H   UNL A   1      40.820  30.103  32.610  1.00  0.00     0.167 HD
ATOM     67  C   UNL A   1      42.166  30.410  35.086  1.00  0.00     0.074 A 
ATOM     68  C   UNL A   1      42.511  30.894  36.407  1.00  0.00     0.031 C 
ATOM     69  C   UNL A   1      42.819  29.411  34.443  1.00  0.00     0.037 A 
BRANCH  56  70
ATOM     70  C   UNL A   1      40.474  28.032  28.897  1.00  0.00     0.064 A 
ATOM     71  C   UNL A   1      39.765  26.822  28.849  1.00  0.00     0.173 A 
ATOM     72  C   UNL A   1      41.210  28.408  27.763  1.00  0.00     0.173 A 
ATOM     73  F   UNL A   1      39.056  26.412  29.911  1.00  0.00    -0.203 F 
ATOM     74  C   UNL A   1      39.820  26.004  27.723  1.00  0.00     0.198 A 
ATOM     75  C   UNL A   1      41.239  27.601  26.628  1.00  0.00     0.198 A 
ATOM     76  F   UNL A   1      41.901  29.557  27.754  1.00  0.00    -0.203 F 
ATOM     77  F   UNL A   1      39.177  24.829  27.719  1.00  0.00    -0.200 F 
ATOM     78  C   UNL A   1      40.551  26.397  26.612  1.00  0.00     0.200 A 
ATOM     79  F   UNL A   1      41.937  27.987  25.551  1.00  0.00    -0.200 F 
ATOM     80  F   UNL A   1      40.601  25.610  25.529  1.00  0.00    -0.200 F 
ENDBRANCH  56  70
BRANCH  57  81
ATOM     81  C   UNL A   1      39.596  33.903  36.909  1.00  0.00     0.064 A 
ATOM     82  C   UNL A   1      40.206  35.163  36.979  1.00  0.00     0.173 A 
ATOM     83  C   UNL A   1      38.831  33.484  38.007  1.00  0.00     0.173 A 
ATOM     84  F   UNL A   1      40.964  35.597  35.961  1.00  0.00    -0.203 F 
ATOM     85  C   UNL A   1      40.066  35.968  38.107  1.00  0.00     0.198 A 
ATOM     86  C   UNL A   1      38.673  34.300  39.125  1.00  0.00     0.198 A 
ATOM     87  F   UNL A   1      38.224  32.289  37.986  1.00  0.00    -0.203 F 
ATOM     88  F   UNL A   1      40.689  37.154  38.163  1.00  0.00    -0.200 F 
ATOM     89  C   UNL A   1      39.295  35.539  39.176  1.00  0.00     0.200 A 
ATOM     90  F   UNL A   1      37.916  33.888  40.151  1.00  0.00    -0.200 F 
ATOM     91  F   UNL A   1      39.154  36.317  40.258  1.00  0.00    -0.200 F 
ENDBRANCH  57  81
BRANCH  69  92
ATOM     92  C   UNL A   1      43.991  28.792  35.146  1.00  0.00     0.064 A 
ATOM     93  C   UNL A   1      43.841  27.670  35.975  1.00  0.00     0.173 A 
ATOM     94  C   UNL A   1      45.284  29.301  34.953  1.00  0.00     0.173 A 
ATOM     95  F   UNL A   1      42.622  27.158  36.203  1.00  0.00    -0.203 F 
ATOM     96  C   UNL A   1      44.942  27.093  36.602  1.00  0.00     0.198 A 
ATOM     97  C   UNL A   1      46.385  28.706  35.562  1.00  0.00     0.198 A 
ATOM     98  F   UNL A   1      45.480  30.369  34.165  1.00  0.00    -0.203 F 
ATOM     99  F   UNL A   1      44.771  26.047  37.421  1.00  0.00    -0.200 F 
ATOM    100  C   UNL A   1      46.213  27.606  36.389  1.00  0.00     0.200 A 
ATOM    101  F   UNL A   1      47.614  29.196  35.347  1.00  0.00    -0.200 F 
ATOM    102  F   UNL A   1      47.272  27.045  36.988  1.00  0.00    -0.200 F 
ENDBRANCH  69  92
ENDBRANCH  43  44
ENDBRANCH  35  38
ENDBRANCH  33  34
ENDBRANCH  32  33
ENDBRANCH  31  32
ENDBRANCH  30  31
ENDBRANCH   1  30
TORSDOF 18
ENDMDL
MODEL 2
REMARK VINA RESULT:     -12.4      3.463      8.353
REMARK SMILES COc1ccc(-c2ccc(S(=O)(=O)NC(C)(C)C)cc2)c(C(=O)NCCCCCCNC(=O)c2ccc(-c3c4nc(c(-c5c(F)c(F)c(F)c(F)c5F)c5ccc([nH]5)c(-c5c(F)c(F)c(F)c(F)c5F)c5nc(c(-c6c(F)c(F)c(F)c(F)c6F)c6ccc3[nH]6)C=C5)C=C4)cc2)c1
REMARK SMILES IDX 26 1 25 2 24 3 22 4 23 5 21 7 3 8 4 9 97 10 5 11 6 12 2 13
REMARK SMILES IDX 1 14 7 15 8 16 20 17 9 18 19 19 10 20 11 21 12 22 13 23
REMARK SMILES IDX 14 24 15 26 16 27 17 28 18 29 27 30 28 31 29 32 30 33 31 34
REMARK SMILES IDX 32 35 33 37 34 38 35 39 96 40 36 41 95 42 37 43 38 44 39 45
REMARK SMILES IDX 89 46 40 47 94 48 88 49 90 50 41 51 93 52 87 53 86 54 42 56
REMARK SMILES IDX 74 57 54 58 73 59 55 60 58 61 72 62 91 63 56 64 57 65 71 67
REMARK SMILES IDX 92 68 59 69 43 70 44 71 52 72 45 73 46 74 50 75 53 76 47 77
REMARK SMILES IDX 48 78 51 79 49 80 75 81 76 82 84 83 77 84 78 85 82 86 85 87
REMARK SMILES IDX 79 88 80 89 83 90 81 91 60 92 61 93 69 94 62 95 63 96 67 97
REMARK SMILES IDX 70 98 64 99 65 100 68 101 66 102
REMARK H PARENT 24 6 14 25 31 36 90 55 58 66
REMARK Flexibility Score: inf
ROOT
ATOM      1  C   UNL A   1      33.100  27.120  22.628  1.00  0.00     0.021 C 
ENDROOT
BRANCH   1   2
ATOM      2  C   UNL A   1      32.849  28.615  22.445  1.00  0.00     0.116 C 
BRANCH   2   3
ATOM      3  N   UNL A   1      32.570  29.357  23.661  1.00  0.00    -0.352 N 
ATOM      4  C   UNL A   1      31.368  29.588  24.303  1.00  0.00     0.252 C 
ATOM      5  O   UNL A   1      31.391  30.067  25.433  1.00  0.00    -0.269 OA
ATOM      6  H   UNL A   1      33.358  29.756  24.094  1.00  0.00     0.163 HD
BRANCH   4   7
ATOM      7  C   UNL A   1      30.072  29.288  23.628  1.00  0.00     0.051 A 
ATOM      8  C   UNL A   1      28.253  30.131  22.237  1.00  0.00     0.119 A 
ATOM      9  C   UNL A   1      27.561  28.945  22.443  1.00  0.00     0.047 A 
ATOM     10  C   UNL A   1      29.518  30.283  22.796  1.00  0.00     0.060 A 
ATOM     11  C   UNL A   1      28.143  27.911  23.181  1.00  0.00     0.013 A 
ATOM     12  C   UNL A   1      29.421  28.040  23.767  1.00  0.00    -0.005 A 
BRANCH   8  13
ATOM     13  O   UNL A   1      27.595  31.061  21.482  1.00  0.00    -0.497 OA
ATOM     14  C   UNL A   1      28.190  32.350  21.390  1.00  0.00     0.278 C 
ENDBRANCH   8  13
BRANCH  12  15
ATOM     15  C   UNL A   1      30.002  26.845  24.419  1.00  0.00    -0.018 A 
ATOM     16  C   UNL A   1      30.239  25.685  23.650  1.00  0.00     0.010 A 
ATOM     17  C   UNL A   1      30.331  26.801  25.784  1.00  0.00     0.010 A 
ATOM     18  C   UNL A   1      30.754  24.521  24.222  1.00  0.00     0.022 A 
ATOM     19  C   UNL A   1      30.896  25.654  26.354  1.00  0.00     0.022 A 
ATOM     20  C   UNL A   1      31.077  24.510  25.578  1.00  0.00     0.082 A 
BRANCH  20  21
ATOM     21  S   UNL A   1      31.673  22.998  26.280  1.00  0.00     0.241 S 
ATOM     22  O   UNL A   1      31.071  22.841  27.584  1.00  0.00    -0.207 OA
ATOM     23  O   UNL A   1      31.526  21.984  25.258  1.00  0.00    -0.207 OA
BRANCH  21  24
ATOM     24  N   UNL A   1      33.326  23.195  26.465  1.00  0.00    -0.206 NA
ATOM     25  H   UNL A   1      33.546  22.750  27.357  1.00  0.00     0.141 HD
BRANCH  24  26
ATOM     26  C   UNL A   1      34.388  22.738  25.542  1.00  0.00     0.025 C 
ATOM     27  C   UNL A   1      34.036  22.996  24.076  1.00  0.00     0.028 C 
ATOM     28  C   UNL A   1      35.638  23.570  25.894  1.00  0.00     0.028 C 
ATOM     29  C   UNL A   1      34.718  21.260  25.756  1.00  0.00     0.028 C 
ENDBRANCH  24  26
ENDBRANCH  21  24
ENDBRANCH  20  21
ENDBRANCH  12  15
ENDBRANCH   4   7
ENDBRANCH   2   3
ENDBRANCH   1   2
BRANCH   1  30
ATOM     30  C   UNL A   1      34.155  26.695  23.650  1.00  0.00     0.002 C 
BRANCH  30  31
ATOM     31  C   UNL A   1      33.789  26.789  25.132  1.00  0.00     0.002 C 
BRANCH  31  32
ATOM     32  C   UNL A   1      34.342  27.980  25.913  1.00  0.00     0.021 C 
BRANCH  32  33
ATOM     33  C   UNL A   1      33.648  28.313  27.230  1.00  0.00     0.116 C 
BRANCH  33  34
ATOM     34  N   UNL A   1      33.570  29.736  27.500  1.00  0.00    -0.352 N 
ATOM     35  C   UNL A   1      34.513  30.582  28.035  1.00  0.00     0.251 C 
ATOM     36  H   UNL A   1      32.714  30.161  27.266  1.00  0.00     0.163 HD
ATOM     37  O   UNL A   1      34.221  31.751  28.275  1.00  0.00    -0.269 OA
BRANCH  35  38
ATOM     38  C   UNL A   1      35.872  30.090  28.361  1.00  0.00     0.039 A 
ATOM     39  C   UNL A   1      36.874  30.206  27.391  1.00  0.00     0.014 A 
ATOM     40  C   UNL A   1      36.164  29.502  29.594  1.00  0.00     0.014 A 
ATOM     41  C   UNL A   1      38.179  29.797  27.682  1.00  0.00     0.010 A 
ATOM     42  C   UNL A   1      37.477  29.153  29.907  1.00  0.00     0.010 A 
ATOM     43  C   UNL A   1      38.498  29.299  28.954  1.00  0.00    -0.014 A 
BRANCH  43  44
ATOM     44  C   UNL A   1      39.893  28.926  29.307  1.00  0.00     0.031 A 
ATOM     45  C   UNL A   1      40.747  29.860  30.117  1.00  0.00     0.074 A 
ATOM     46  C   UNL A   1      40.415  27.776  28.839  1.00  0.00     0.049 A 
ATOM     47  N   UNL A   1      42.006  29.747  30.459  1.00  0.00    -0.248 NA
ATOM     48  C   UNL A   1      40.107  31.100  30.582  1.00  0.00     0.031 C 
ATOM     49  C   UNL A   1      39.707  26.805  28.004  1.00  0.00     0.029 A 
ATOM     50  N   UNL A   1      41.668  27.235  28.987  1.00  0.00    -0.354 N 
ATOM     51  C   UNL A   1      42.313  30.906  31.160  1.00  0.00     0.074 A 
ATOM     52  C   UNL A   1      41.122  31.729  31.157  1.00  0.00     0.031 C 
ATOM     53  C   UNL A   1      40.531  25.782  27.725  1.00  0.00     0.029 A 
ATOM     54  C   UNL A   1      41.833  26.039  28.335  1.00  0.00     0.049 A 
ATOM     55  H   UNL A   1      42.382  27.666  29.511  1.00  0.00     0.167 HD
ATOM     56  C   UNL A   1      43.476  31.244  31.767  1.00  0.00     0.037 A 
ATOM     57  C   UNL A   1      42.913  25.239  28.234  1.00  0.00     0.037 A 
ATOM     58  C   UNL A   1      44.650  30.411  31.798  1.00  0.00     0.049 A 
ATOM     59  C   UNL A   1      44.187  25.629  28.930  1.00  0.00     0.074 A 
ATOM     60  C   UNL A   1      45.851  30.636  32.447  1.00  0.00     0.029 A 
ATOM     61  N   UNL A   1      44.768  29.191  31.149  1.00  0.00    -0.354 N 
ATOM     62  N   UNL A   1      44.445  26.696  29.645  1.00  0.00    -0.248 NA
ATOM     63  C   UNL A   1      45.318  24.698  28.811  1.00  0.00     0.031 C 
ATOM     64  C   UNL A   1      46.710  29.568  32.160  1.00  0.00     0.029 A 
ATOM     65  C   UNL A   1      46.029  28.660  31.367  1.00  0.00     0.049 A 
ATOM     66  H   UNL A   1      44.060  28.764  30.615  1.00  0.00     0.167 HD
ATOM     67  C   UNL A   1      45.756  26.557  30.081  1.00  0.00     0.074 A 
ATOM     68  C   UNL A   1      46.237  25.294  29.559  1.00  0.00     0.031 C 
ATOM     69  C   UNL A   1      46.492  27.399  30.844  1.00  0.00     0.037 A 
BRANCH  56  70
ATOM     70  C   UNL A   1      43.535  32.580  32.450  1.00  0.00     0.064 A 
ATOM     71  C   UNL A   1      43.950  33.735  31.771  1.00  0.00     0.173 A 
ATOM     72  C   UNL A   1      43.149  32.709  33.793  1.00  0.00     0.173 A 
ATOM     73  F   UNL A   1      44.340  33.662  30.490  1.00  0.00    -0.203 F 
ATOM     74  C   UNL A   1      44.008  34.966  32.420  1.00  0.00     0.198 A 
ATOM     75  C   UNL A   1      43.182  33.947  34.431  1.00  0.00     0.198 A 
ATOM     76  F   UNL A   1      42.739  31.637  34.487  1.00  0.00    -0.203 F 
ATOM     77  F   UNL A   1      44.457  36.045  31.767  1.00  0.00    -0.200 F 
ATOM     78  C   UNL A   1      43.618  35.072  33.748  1.00  0.00     0.200 A 
ATOM     79  F   UNL A   1      42.795  34.050  35.710  1.00  0.00    -0.200 F 
ATOM     80  F   UNL A   1      43.674  36.257  34.370  1.00  0.00    -0.200 F 
ENDBRANCH  56  70
BRANCH  57  81
ATOM     81  C   UNL A   1      42.820  23.972  27.466  1.00  0.00     0.064 A 
ATOM     82  C   UNL A   1      43.141  23.935  26.102  1.00  0.00     0.173 A 
ATOM     83  C   UNL A   1      42.427  22.774  28.079  1.00  0.00     0.173 A 
ATOM     84  F   UNL A   1      43.503  25.062  25.469  1.00  0.00    -0.203 F 
ATOM     85  C   UNL A   1      43.062  22.750  25.377  1.00  0.00     0.198 A 
ATOM     86  C   UNL A   1      42.370  21.584  27.357  1.00  0.00     0.198 A 
ATOM     87  F   UNL A   1      42.114  22.757  29.382  1.00  0.00    -0.203 F 
ATOM     88  F   UNL A   1      43.341  22.749  24.065  1.00  0.00    -0.200 F 
ATOM     89  C   UNL A   1      42.683  21.573  26.005  1.00  0.00     0.200 A 
ATOM     90  F   UNL A   1      42.016  20.447  27.971  1.00  0.00    -0.200 F 
ATOM     91  F   UNL A   1      42.614  20.431  25.309  1.00  0.00    -0.200 F 
ENDBRANCH  57  81
BRANCH  69  92
ATOM     92  C   UNL A   1      47.889  26.972  31.188  1.00  0.00     0.064 A 
ATOM     93  C   UNL A   1      48.992  27.391  30.429  1.00  0.00     0.173 A 
ATOM     94  C   UNL A   1      48.130  26.170  32.313  1.00  0.00     0.173 A 
ATOM     95  F   UNL A   1      48.811  28.145  29.334  1.00  0.00    -0.203 F 
ATOM     96  C   UNL A   1      50.285  27.004  30.774  1.00  0.00     0.198 A 
ATOM     97  C   UNL A   1      49.425  25.807  32.670  1.00  0.00     0.198 A 
ATOM     98  F   UNL A   1      47.108  25.748  33.074  1.00  0.00    -0.203 F 
ATOM     99  F   UNL A   1      51.320  27.383  30.013  1.00  0.00    -0.200 F 
ATOM    100  C   UNL A   1      50.500  26.220  31.897  1.00  0.00     0.200 A 
ATOM    101  F   UNL A   1      49.633  25.057  33.760  1.00  0.00    -0.200 F 
ATOM    102  F   UNL A   1      51.746  25.855  32.231  1.00  0.00    -0.200 F 
ENDBRANCH  69  92
ENDBRANCH  43  44
ENDBRANCH  35  38
ENDBRANCH  33  34
ENDBRANCH  32  33
ENDBRANCH  31  32
ENDBRANCH  30  31
ENDBRANCH   1  30
TORSDOF 18
ENDMDL
MODEL 3
REMARK VINA RESULT:     -11.7      3.303      4.889
REMARK SMILES COc1ccc(-c2ccc(S(=O)(=O)NC(C)(C)C)cc2)c(C(=O)NCCCCCCNC(=O)c2ccc(-c3c4nc(c(-c5c(F)c(F)c(F)c(F)c5F)c5ccc([nH]5)c(-c5c(F)c(F)c(F)c(F)c5F)c5nc(c(-c6c(F)c(F)c(F)c(F)c6F)c6ccc3[nH]6)C=C5)C=C4)cc2)c1
REMARK SMILES IDX 26 1 25 2 24 3 22 4 23 5 21 7 3 8 4 9 97 10 5 11 6 12 2 13
REMARK SMILES IDX 1 14 7 15 8 16 20 17 9 18 19 19 10 20 11 21 12 22 13 23
REMARK SMILES IDX 14 24 15 26 16 27 17 28 18 29 27 30 28 31 29 32 30 33 31 34
REMARK SMILES IDX 32 35 33 37 34 38 35 39 96 40 36 41 95 42 37 43 38 44 39 45
REMARK SMILES IDX 89 46 40 47 94 48 88 49 90 50 41 51 93 52 87 53 86 54 42 56
REMARK SMILES IDX 74 57 54 58 73 59 55 60 58 61 72 62 91 63 56 64 57 65 71 67
REMARK SMILES IDX 92 68 59 69 43 70 44 71 52 72 45 73 46 74 50 75 53 76 47 77
REMARK SMILES IDX 48 78 51 79 49 80 75 81 76 82 84 83 77 84 78 85 82 86 85 87
REMARK SMILES IDX 79 88 80 89 83 90 81 91 60 92 61 93 69 94 62 95 63 96 67 97
REMARK SMILES IDX 70 98 64 99 65 100 68 101 66 102
REMARK H PARENT 24 6 14 25 31 36 90 55 58 66
REMARK Flexibility Score: inf
ROOT
ATOM      1  C   UNL A   1      33.023  27.069  22.457  1.00  0.00     0.021 C 
ENDROOT
BRANCH   1   2
ATOM      2  C   UNL A   1      32.742  28.564  22.339  1.00  0.00     0.116 C 
BRANCH   2   3
ATOM      3  N   UNL A   1      32.528  29.263  23.593  1.00  0.00    -0.352 N 
ATOM      4  C   UNL A   1      31.364  29.460  24.311  1.00  0.00     0.252 C 
ATOM      5  O   UNL A   1      31.447  29.900  25.453  1.00  0.00    -0.269 OA
ATOM      6  H   UNL A   1      33.336  29.655  23.995  1.00  0.00     0.163 HD
BRANCH   4   7
ATOM      7  C   UNL A   1      30.033  29.169  23.701  1.00  0.00     0.051 A 
ATOM      8  C   UNL A   1      28.142  30.032  22.422  1.00  0.00     0.119 A 
ATOM      9  C   UNL A   1      27.463  28.842  22.647  1.00  0.00     0.047 A 
ATOM     10  C   UNL A   1      29.436  30.176  22.915  1.00  0.00     0.060 A 
ATOM     11  C   UNL A   1      28.082  27.798  23.337  1.00  0.00     0.013 A 
ATOM     12  C   UNL A   1      29.390  27.919  23.856  1.00  0.00    -0.005 A 
BRANCH   8  13
ATOM     13  O   UNL A   1      27.446  30.973  21.717  1.00  0.00    -0.497 OA
ATOM     14  C   UNL A   1      28.191  31.777  20.811  1.00  0.00     0.278 C 
ENDBRANCH   8  13
BRANCH  12  15
ATOM     15  C   UNL A   1      30.005  26.714  24.458  1.00  0.00    -0.018 A 
ATOM     16  C   UNL A   1      30.236  25.579  23.651  1.00  0.00     0.010 A 
ATOM     17  C   UNL A   1      30.372  26.637  25.811  1.00  0.00     0.010 A 
ATOM     18  C   UNL A   1      30.782  24.407  24.175  1.00  0.00     0.022 A 
ATOM     19  C   UNL A   1      30.968  25.483  26.334  1.00  0.00     0.022 A 
ATOM     20  C   UNL A   1      31.143  24.363  25.521  1.00  0.00     0.082 A 
BRANCH  20  21
ATOM     21  S   UNL A   1      31.778  22.841  26.164  1.00  0.00     0.241 S 
ATOM     22  O   UNL A   1      31.755  22.919  27.606  1.00  0.00    -0.207 OA
ATOM     23  O   UNL A   1      31.092  21.779  25.458  1.00  0.00    -0.207 OA
BRANCH  21  24
ATOM     24  N   UNL A   1      33.369  22.750  25.649  1.00  0.00    -0.206 NA
ATOM     25  H   UNL A   1      33.902  22.505  26.484  1.00  0.00     0.141 HD
BRANCH  24  26
ATOM     26  C   UNL A   1      33.914  21.883  24.583  1.00  0.00     0.025 C 
ATOM     27  C   UNL A   1      35.365  22.223  24.238  1.00  0.00     0.028 C 
ATOM     28  C   UNL A   1      33.874  20.447  25.146  1.00  0.00     0.028 C 
ATOM     29  C   UNL A   1      33.046  21.930  23.324  1.00  0.00     0.028 C 
ENDBRANCH  24  26
ENDBRANCH  21  24
ENDBRANCH  20  21
ENDBRANCH  12  15
ENDBRANCH   4   7
ENDBRANCH   2   3
ENDBRANCH   1   2
BRANCH   1  30
ATOM     30  C   UNL A   1      34.126  26.624  23.418  1.00  0.00     0.002 C 
BRANCH  30  31
ATOM     31  C   UNL A   1      33.828  26.679  24.917  1.00  0.00     0.002 C 
BRANCH  31  32
ATOM     32  C   UNL A   1      34.418  27.850  25.703  1.00  0.00     0.021 C 
BRANCH  32  33
ATOM     33  C   UNL A   1      33.863  28.078  27.105  1.00  0.00     0.116 C 
BRANCH  33  34
ATOM     34  N   UNL A   1      33.668  29.479  27.430  1.00  0.00    -0.352 N 
ATOM     35  C   UNL A   1      34.527  30.371  28.026  1.00  0.00     0.251 C 
ATOM     36  H   UNL A   1      32.787  29.845  27.188  1.00  0.00     0.163 HD
ATOM     37  O   UNL A   1      34.138  31.503  28.304  1.00  0.00    -0.269 OA
BRANCH  35  38
ATOM     38  C   UNL A   1      35.912  29.972  28.372  1.00  0.00     0.039 A 
ATOM     39  C   UNL A   1      36.909  30.113  27.402  1.00  0.00     0.014 A 
ATOM     40  C   UNL A   1      36.232  29.444  29.626  1.00  0.00     0.014 A 
ATOM     41  C   UNL A   1      38.234  29.792  27.710  1.00  0.00     0.010 A 
ATOM     42  C   UNL A   1      37.562  29.184  29.953  1.00  0.00     0.010 A 
ATOM     43  C   UNL A   1      38.577  29.357  28.999  1.00  0.00    -0.014 A 
BRANCH  43  44
ATOM     44  C   UNL A   1      39.989  29.080  29.368  1.00  0.00     0.031 A 
ATOM     45  C   UNL A   1      40.670  27.831  28.885  1.00  0.00     0.074 A 
ATOM     46  C   UNL A   1      40.639  29.920  30.198  1.00  0.00     0.049 A 
ATOM     47  N   UNL A   1      41.867  27.377  29.162  1.00  0.00    -0.248 NA
ATOM     48  C   UNL A   1      39.890  26.960  27.992  1.00  0.00     0.031 C 
ATOM     49  C   UNL A   1      40.076  31.141  30.775  1.00  0.00     0.029 A 
ATOM     50  N   UNL A   1      41.911  29.865  30.712  1.00  0.00    -0.354 N 
ATOM     51  C   UNL A   1      41.976  26.164  28.496  1.00  0.00     0.074 A 
ATOM     52  C   UNL A   1      40.709  25.930  27.836  1.00  0.00     0.031 C 
ATOM     53  C   UNL A   1      41.002  31.727  31.551  1.00  0.00     0.029 A 
ATOM     54  C   UNL A   1      42.211  30.908  31.552  1.00  0.00     0.049 A 
ATOM     55  H   UNL A   1      42.547  29.144  30.499  1.00  0.00     0.167 HD
ATOM     56  C   UNL A   1      43.042  25.331  28.424  1.00  0.00     0.037 A 
ATOM     57  C   UNL A   1      43.332  31.174  32.249  1.00  0.00     0.037 A 
ATOM     58  C   UNL A   1      44.313  25.580  29.053  1.00  0.00     0.049 A 
ATOM     59  C   UNL A   1      44.507  30.242  32.141  1.00  0.00     0.074 A 
ATOM     60  C   UNL A   1      45.474  24.832  28.980  1.00  0.00     0.029 A 
ATOM     61  N   UNL A   1      44.587  26.665  29.873  1.00  0.00    -0.354 N 
ATOM     62  N   UNL A   1      44.621  29.132  31.455  1.00  0.00    -0.248 NA
ATOM     63  C   UNL A   1      45.713  30.606  32.899  1.00  0.00     0.031 C 
ATOM     64  C   UNL A   1      46.441  25.443  29.787  1.00  0.00     0.029 A 
ATOM     65  C   UNL A   1      45.894  26.595  30.328  1.00  0.00     0.049 A 
ATOM     66  H   UNL A   1      43.949  27.380  30.097  1.00  0.00     0.167 HD
ATOM     67  C   UNL A   1      45.913  28.676  31.677  1.00  0.00     0.074 A 
ATOM     68  C   UNL A   1      46.550  29.637  32.553  1.00  0.00     0.031 C 
ATOM     69  C   UNL A   1      46.516  27.562  31.197  1.00  0.00     0.037 A 
BRANCH  56  70
ATOM     70  C   UNL A   1      42.877  24.065  27.634  1.00  0.00     0.064 A 
ATOM     71  C   UNL A   1      42.422  22.880  28.231  1.00  0.00     0.173 A 
ATOM     72  C   UNL A   1      43.154  24.044  26.259  1.00  0.00     0.173 A 
ATOM     73  F   UNL A   1      42.154  22.846  29.545  1.00  0.00    -0.203 F 
ATOM     74  C   UNL A   1      42.282  21.711  27.488  1.00  0.00     0.198 A 
ATOM     75  C   UNL A   1      42.986  22.880  25.513  1.00  0.00     0.198 A 
ATOM     76  F   UNL A   1      43.586  25.151  25.638  1.00  0.00    -0.203 F 
ATOM     77  F   UNL A   1      41.896  20.578  28.090  1.00  0.00    -0.200 F 
ATOM     78  C   UNL A   1      42.558  21.713  26.129  1.00  0.00     0.200 A 
ATOM     79  F   UNL A   1      43.243  22.886  24.197  1.00  0.00    -0.200 F 
ATOM     80  F   UNL A   1      42.422  20.588  25.414  1.00  0.00    -0.200 F 
ENDBRANCH  56  70
BRANCH  57  81
ATOM     81  C   UNL A   1      43.404  32.397  33.089  1.00  0.00     0.064 A 
ATOM     82  C   UNL A   1      42.999  32.371  34.430  1.00  0.00     0.173 A 
ATOM     83  C   UNL A   1      43.892  33.607  32.575  1.00  0.00     0.173 A 
ATOM     84  F   UNL A   1      42.506  31.240  34.958  1.00  0.00    -0.203 F 
ATOM     85  C   UNL A   1      43.067  33.512  35.224  1.00  0.00     0.198 A 
ATOM     86  C   UNL A   1      43.981  34.743  33.377  1.00  0.00     0.198 A 
ATOM     87  F   UNL A   1      44.295  33.681  31.299  1.00  0.00    -0.203 F 
ATOM     88  F   UNL A   1      42.641  33.469  36.495  1.00  0.00    -0.200 F 
ATOM     89  C   UNL A   1      43.565  34.696  34.700  1.00  0.00     0.200 A 
ATOM     90  F   UNL A   1      44.475  35.881  32.871  1.00  0.00    -0.200 F 
ATOM     91  F   UNL A   1      43.639  35.792  35.467  1.00  0.00    -0.200 F 
ENDBRANCH  57  81
BRANCH  69  92
ATOM     92  C   UNL A   1      47.947  27.333  31.584  1.00  0.00     0.064 A 
ATOM     93  C   UNL A   1      48.290  26.577  32.715  1.00  0.00     0.173 A 
ATOM     94  C   UNL A   1      48.987  27.841  30.791  1.00  0.00     0.173 A 
ATOM     95  F   UNL A   1      47.331  26.086  33.514  1.00  0.00    -0.203 F 
ATOM     96  C   UNL A   1      49.624  26.355  33.049  1.00  0.00     0.198 A 
ATOM     97  C   UNL A   1      50.319  27.595  31.114  1.00  0.00     0.198 A 
ATOM     98  F   UNL A   1      48.711  28.565  29.696  1.00  0.00    -0.203 F 
ATOM     99  F   UNL A   1      49.929  25.665  34.156  1.00  0.00    -0.200 F 
ATOM    100  C   UNL A   1      50.636  26.857  32.245  1.00  0.00     0.200 A 
ATOM    101  F   UNL A   1      51.296  28.072  30.331  1.00  0.00    -0.200 F 
ATOM    102  F   UNL A   1      51.918  26.637  32.564  1.00  0.00    -0.200 F 
ENDBRANCH  69  92
ENDBRANCH  43  44
ENDBRANCH  35  38
ENDBRANCH  33  34
ENDBRANCH  32  33
ENDBRANCH  31  32
ENDBRANCH  30  31
ENDBRANCH   1  30
TORSDOF 18
ENDMDL
