MODEL 1
REMARK VINA RESULT:     -11.2      0.000      0.000
REMARK SMILES COc1cc(OC)cc(C(=O)C[C@H](C)CC(=O)NCCCCCCNC(=O)c2ccc(-c3c4nc(c(-c5c(F)c(F)c(F)c(F)c5F)c5ccc([nH]5)c(-c5c(F)c(F)c(F)c(F)c5F)c5nc(c(-c6c(F)c(F)c(F)c(F)c6F)c6ccc3[nH]6)C=C5)C=C4)cc2)c1
REMARK SMILES IDX 20 1 19 2 18 3 16 4 17 5 15 7 13 8 14 9 12 10 10 11 11 12
REMARK SMILES IDX 9 13 3 14 4 15 91 16 5 17 8 18 2 19 1 20 6 21 7 22 21 23
REMARK SMILES IDX 22 24 23 25 24 26 25 27 26 28 27 30 28 31 29 32 90 33 30 34
REMARK SMILES IDX 89 35 31 36 32 37 33 38 83 39 34 40 88 41 82 42 84 43 35 44
REMARK SMILES IDX 87 45 81 46 80 47 36 49 68 50 48 51 67 52 49 53 52 54 66 55
REMARK SMILES IDX 85 56 50 57 51 58 65 60 86 61 53 62 37 63 38 64 46 65 39 66
REMARK SMILES IDX 40 67 44 68 47 69 41 70 42 71 45 72 43 73 69 74 70 75 78 76
REMARK SMILES IDX 71 77 72 78 76 79 79 80 73 81 74 82 77 83 75 84 54 85 55 86
REMARK SMILES IDX 63 87 56 88 57 89 61 90 64 91 58 92 59 93 62 94 60 95
REMARK H PARENT 18 6 25 29 84 48 52 59
REMARK Flexibility Score: inf
ROOT
ATOM      1  C   UNL A   1      32.126  28.685  27.336  1.00  0.00     0.021 C 
ENDROOT
BRANCH   1   2
ATOM      2  C   UNL A   1      31.270  27.812  26.421  1.00  0.00     0.116 C 
BRANCH   2   3
ATOM      3  N   UNL A   1      31.395  26.422  26.818  1.00  0.00    -0.356 N 
ATOM      4  C   UNL A   1      32.220  25.460  26.315  1.00  0.00     0.220 C 
ATOM      5  O   UNL A   1      31.982  24.278  26.551  1.00  0.00    -0.275 OA
ATOM      6  H   UNL A   1      30.802  26.134  27.549  1.00  0.00     0.163 HD
BRANCH   4   7
ATOM      7  C   UNL A   1      33.453  25.888  25.553  1.00  0.00     0.103 C 
BRANCH   7   8
ATOM      8  C   UNL A   1      33.318  26.100  24.038  1.00  0.00     0.003 C 
ATOM      9  C   UNL A   1      33.664  27.526  23.603  1.00  0.00     0.008 C 
BRANCH   8  10
ATOM     10  C   UNL A   1      34.227  25.125  23.254  1.00  0.00     0.085 C 
BRANCH  10  11
ATOM     11  C   UNL A   1      33.563  23.808  22.882  1.00  0.00     0.163 C 
ATOM     12  O   UNL A   1      32.792  23.750  21.924  1.00  0.00    -0.294 OA
BRANCH  11  13
ATOM     13  C   UNL A   1      33.795  22.580  23.708  1.00  0.00     0.025 A 
ATOM     14  C   UNL A   1      33.099  20.436  24.581  1.00  0.00     0.123 A 
ATOM     15  C   UNL A   1      34.397  20.177  25.007  1.00  0.00     0.092 A 
ATOM     16  C   UNL A   1      32.779  21.662  24.000  1.00  0.00     0.058 A 
ATOM     17  C   UNL A   1      35.398  21.127  24.812  1.00  0.00     0.123 A 
ATOM     18  C   UNL A   1      35.105  22.309  24.130  1.00  0.00     0.058 A 
BRANCH  14  19
ATOM     19  O   UNL A   1      32.154  19.466  24.781  1.00  0.00    -0.497 OA
ATOM     20  C   UNL A   1      32.714  18.302  25.396  1.00  0.00     0.278 C 
ENDBRANCH  14  19
BRANCH  17  21
ATOM     21  O   UNL A   1      36.632  20.781  25.289  1.00  0.00    -0.497 OA
ATOM     22  C   UNL A   1      37.575  21.846  25.381  1.00  0.00     0.278 C 
ENDBRANCH  17  21
ENDBRANCH  11  13
ENDBRANCH  10  11
ENDBRANCH   8  10
ENDBRANCH   7   8
ENDBRANCH   4   7
ENDBRANCH   2   3
ENDBRANCH   1   2
BRANCH   1  23
ATOM     23  C   UNL A   1      32.560  29.998  26.682  1.00  0.00     0.002 C 
BRANCH  23  24
ATOM     24  C   UNL A   1      31.421  30.789  26.032  1.00  0.00     0.002 C 
BRANCH  24  25
ATOM     25  C   UNL A   1      31.290  32.241  26.503  1.00  0.00     0.021 C 
BRANCH  25  26
ATOM     26  C   UNL A   1      32.508  32.783  27.246  1.00  0.00     0.116 C 
BRANCH  26  27
ATOM     27  N   UNL A   1      32.344  34.178  27.615  1.00  0.00    -0.352 N 
ATOM     28  C   UNL A   1      32.970  34.894  28.602  1.00  0.00     0.251 C 
ATOM     29  H   UNL A   1      31.690  34.682  27.079  1.00  0.00     0.163 HD
ATOM     30  O   UNL A   1      32.569  36.012  28.905  1.00  0.00    -0.269 OA
BRANCH  28  31
ATOM     31  C   UNL A   1      34.124  34.307  29.313  1.00  0.00     0.039 A 
ATOM     32  C   UNL A   1      33.893  33.572  30.477  1.00  0.00     0.014 A 
ATOM     33  C   UNL A   1      35.429  34.503  28.848  1.00  0.00     0.014 A 
ATOM     34  C   UNL A   1      34.968  32.998  31.156  1.00  0.00     0.010 A 
ATOM     35  C   UNL A   1      36.492  33.876  29.489  1.00  0.00     0.010 A 
ATOM     36  C   UNL A   1      36.275  33.128  30.655  1.00  0.00    -0.014 A 
BRANCH  36  37
ATOM     37  C   UNL A   1      37.426  32.508  31.359  1.00  0.00     0.031 A 
ATOM     38  C   UNL A   1      38.159  31.357  30.730  1.00  0.00     0.074 A 
ATOM     39  C   UNL A   1      37.771  32.945  32.586  1.00  0.00     0.049 A 
ATOM     40  N   UNL A   1      39.149  30.646  31.209  1.00  0.00    -0.248 NA
ATOM     41  C   UNL A   1      37.703  30.925  29.398  1.00  0.00     0.031 C 
ATOM     42  C   UNL A   1      37.099  34.017  33.323  1.00  0.00     0.029 A 
ATOM     43  N   UNL A   1      38.766  32.532  33.436  1.00  0.00    -0.354 N 
ATOM     44  C   UNL A   1      39.415  29.674  30.252  1.00  0.00     0.074 A 
ATOM     45  C   UNL A   1      38.459  29.859  29.182  1.00  0.00     0.031 C 
ATOM     46  C   UNL A   1      37.707  34.183  34.509  1.00  0.00     0.029 A 
ATOM     47  C   UNL A   1      38.792  33.214  34.628  1.00  0.00     0.049 A 
ATOM     48  H   UNL A   1      39.401  31.814  33.213  1.00  0.00     0.167 HD
ATOM     49  C   UNL A   1      40.382  28.726  30.259  1.00  0.00     0.037 A 
ATOM     50  C   UNL A   1      39.597  33.067  35.697  1.00  0.00     0.037 A 
ATOM     51  C   UNL A   1      41.364  28.581  31.300  1.00  0.00     0.049 A 
ATOM     52  C   UNL A   1      40.691  32.034  35.655  1.00  0.00     0.074 A 
ATOM     53  C   UNL A   1      42.439  27.710  31.356  1.00  0.00     0.029 A 
ATOM     54  N   UNL A   1      41.393  29.327  32.468  1.00  0.00    -0.354 N 
ATOM     55  N   UNL A   1      40.988  31.180  34.705  1.00  0.00    -0.248 NA
ATOM     56  C   UNL A   1      41.573  31.953  36.827  1.00  0.00     0.031 C 
ATOM     57  C   UNL A   1      43.093  27.900  32.576  1.00  0.00     0.029 A 
ATOM     58  C   UNL A   1      42.456  28.924  33.259  1.00  0.00     0.049 A 
ATOM     59  H   UNL A   1      40.752  30.039  32.700  1.00  0.00     0.167 HD
ATOM     60  C   UNL A   1      42.107  30.489  35.148  1.00  0.00     0.074 A 
ATOM     61  C   UNL A   1      42.446  31.032  36.447  1.00  0.00     0.031 C 
ATOM     62  C   UNL A   1      42.792  29.492  34.538  1.00  0.00     0.037 A 
BRANCH  49  63
ATOM     63  C   UNL A   1      40.442  27.773  29.104  1.00  0.00     0.064 A 
ATOM     64  C   UNL A   1      39.666  26.605  29.069  1.00  0.00     0.173 A 
ATOM     65  C   UNL A   1      41.230  28.072  27.981  1.00  0.00     0.173 A 
ATOM     66  F   UNL A   1      38.905  26.271  30.121  1.00  0.00    -0.203 F 
ATOM     67  C   UNL A   1      39.685  25.765  27.958  1.00  0.00     0.198 A 
ATOM     68  C   UNL A   1      41.227  27.244  26.862  1.00  0.00     0.198 A 
ATOM     69  F   UNL A   1      41.988  29.179  27.962  1.00  0.00    -0.203 F 
ATOM     70  F   UNL A   1      38.958  24.639  27.960  1.00  0.00    -0.200 F 
ATOM     71  C   UNL A   1      40.457  26.090  26.853  1.00  0.00     0.200 A 
ATOM     72  F   UNL A   1      41.962  27.566  25.789  1.00  0.00    -0.200 F 
ATOM     73  F   UNL A   1      40.459  25.290  25.778  1.00  0.00    -0.200 F 
ENDBRANCH  49  63
BRANCH  50  74
ATOM     74  C   UNL A   1      39.417  33.928  36.897  1.00  0.00     0.064 A 
ATOM     75  C   UNL A   1      40.000  35.200  36.968  1.00  0.00     0.173 A 
ATOM     76  C   UNL A   1      38.690  33.482  38.009  1.00  0.00     0.173 A 
ATOM     77  F   UNL A   1      40.722  35.664  35.936  1.00  0.00    -0.203 F 
ATOM     78  C   UNL A   1      39.895  35.978  38.119  1.00  0.00     0.198 A 
ATOM     79  C   UNL A   1      38.559  34.273  39.148  1.00  0.00     0.198 A 
ATOM     80  F   UNL A   1      38.104  32.275  37.990  1.00  0.00    -0.203 F 
ATOM     81  F   UNL A   1      40.516  37.163  38.182  1.00  0.00    -0.200 F 
ATOM     82  C   UNL A   1      39.172  35.515  39.207  1.00  0.00     0.200 A 
ATOM     83  F   UNL A   1      37.847  33.828  40.193  1.00  0.00    -0.200 F 
ATOM     84  F   UNL A   1      39.077  36.260  40.317  1.00  0.00    -0.200 F 
ENDBRANCH  50  74
BRANCH  62  85
ATOM     85  C   UNL A   1      44.005  28.959  35.241  1.00  0.00     0.064 A 
ATOM     86  C   UNL A   1      43.927  27.874  36.126  1.00  0.00     0.173 A 
ATOM     87  C   UNL A   1      45.267  29.523  35.000  1.00  0.00     0.173 A 
ATOM     88  F   UNL A   1      42.741  27.311  36.401  1.00  0.00    -0.203 F 
ATOM     89  C   UNL A   1      45.066  27.391  36.765  1.00  0.00     0.198 A 
ATOM     90  C   UNL A   1      46.407  29.018  35.617  1.00  0.00     0.198 A 
ATOM     91  F   UNL A   1      45.396  30.557  34.155  1.00  0.00    -0.203 F 
ATOM     92  F   UNL A   1      44.962  26.387  37.646  1.00  0.00    -0.200 F 
ATOM     93  C   UNL A   1      46.305  27.958  36.506  1.00  0.00     0.200 A 
ATOM     94  F   UNL A   1      47.605  29.558  35.353  1.00  0.00    -0.200 F 
ATOM     95  F   UNL A   1      47.399  27.489  37.119  1.00  0.00    -0.200 F 
ENDBRANCH  62  85
ENDBRANCH  36  37
ENDBRANCH  28  31
ENDBRANCH  26  27
ENDBRANCH  25  26
ENDBRANCH  24  25
ENDBRANCH  23  24
ENDBRANCH   1  23
TORSDOF 19
ENDMDL
MODEL 2
REMARK VINA RESULT:     -10.9      0.553      2.049
REMARK SMILES COc1cc(OC)cc(C(=O)C[C@H](C)CC(=O)NCCCCCCNC(=O)c2ccc(-c3c4nc(c(-c5c(F)c(F)c(F)c(F)c5F)c5ccc([nH]5)c(-c5c(F)c(F)c(F)c(F)c5F)c5nc(c(-c6c(F)c(F)c(F)c(F)c6F)c6ccc3[nH]6)C=C5)C=C4)cc2)c1
REMARK SMILES IDX 20 1 19 2 18 3 16 4 17 5 15 7 13 8 14 9 12 10 10 11 11 12
REMARK SMILES IDX 9 13 3 14 4 15 91 16 5 17 8 18 2 19 1 20 6 21 7 22 21 23
REMARK SMILES IDX 22 24 23 25 24 26 25 27 26 28 27 30 28 31 29 32 90 33 30 34
REMARK SMILES IDX 89 35 31 36 32 37 33 38 83 39 34 40 88 41 82 42 84 43 35 44
REMARK SMILES IDX 87 45 81 46 80 47 36 49 68 50 48 51 67 52 49 53 52 54 66 55
REMARK SMILES IDX 85 56 50 57 51 58 65 60 86 61 53 62 37 63 38 64 46 65 39 66
REMARK SMILES IDX 40 67 44 68 47 69 41 70 42 71 45 72 43 73 69 74 70 75 78 76
REMARK SMILES IDX 71 77 72 78 76 79 79 80 73 81 74 82 77 83 75 84 54 85 55 86
REMARK SMILES IDX 63 87 56 88 57 89 61 90 64 91 58 92 59 93 62 94 60 95
REMARK H PARENT 18 6 25 29 84 48 52 59
REMARK Flexibility Score: inf
ROOT
ATOM      1  C   UNL A   1      32.264  28.813  27.566  1.00  0.00     0.021 C 
ENDROOT
BRANCH   1   2
ATOM      2  C   UNL A   1      31.294  27.866  26.866  1.00  0.00     0.116 C 
BRANCH   2   3
ATOM      3  N   UNL A   1      31.798  26.507  26.942  1.00  0.00    -0.356 N 
ATOM      4  C   UNL A   1      32.522  25.810  26.019  1.00  0.00     0.220 C 
ATOM      5  O   UNL A   1      32.599  24.588  26.112  1.00  0.00    -0.275 OA
ATOM      6  H   UNL A   1      31.588  26.021  27.772  1.00  0.00     0.163 HD
BRANCH   4   7
ATOM      7  C   UNL A   1      33.277  26.579  24.960  1.00  0.00     0.103 C 
BRANCH   7   8
ATOM      8  C   UNL A   1      32.633  26.702  23.571  1.00  0.00     0.003 C 
ATOM      9  C   UNL A   1      32.073  28.099  23.296  1.00  0.00     0.008 C 
BRANCH   8  10
ATOM     10  C   UNL A   1      33.646  26.362  22.453  1.00  0.00     0.085 C 
BRANCH  10  11
ATOM     11  C   UNL A   1      33.532  24.946  21.911  1.00  0.00     0.163 C 
ATOM     12  O   UNL A   1      33.136  24.749  20.762  1.00  0.00    -0.294 OA
BRANCH  11  13
ATOM     13  C   UNL A   1      33.848  23.769  22.784  1.00  0.00     0.025 A 
ATOM     14  C   UNL A   1      35.147  22.683  24.509  1.00  0.00     0.123 A 
ATOM     15  C   UNL A   1      34.199  21.668  24.597  1.00  0.00     0.092 A 
ATOM     16  C   UNL A   1      35.013  23.691  23.556  1.00  0.00     0.058 A 
ATOM     17  C   UNL A   1      33.083  21.681  23.762  1.00  0.00     0.123 A 
ATOM     18  C   UNL A   1      32.890  22.750  22.884  1.00  0.00     0.058 A 
BRANCH  14  19
ATOM     19  O   UNL A   1      36.217  22.634  25.361  1.00  0.00    -0.497 OA
ATOM     20  C   UNL A   1      36.922  21.394  25.252  1.00  0.00     0.278 C 
ENDBRANCH  14  19
BRANCH  17  21
ATOM     21  O   UNL A   1      32.227  20.626  23.915  1.00  0.00    -0.497 OA
ATOM     22  C   UNL A   1      32.678  19.591  24.785  1.00  0.00     0.278 C 
ENDBRANCH  17  21
ENDBRANCH  11  13
ENDBRANCH  10  11
ENDBRANCH   8  10
ENDBRANCH   7   8
ENDBRANCH   4   7
ENDBRANCH   2   3
ENDBRANCH   1   2
BRANCH   1  23
ATOM     23  C   UNL A   1      32.603  30.051  26.735  1.00  0.00     0.002 C 
BRANCH  23  24
ATOM     24  C   UNL A   1      31.384  30.807  26.198  1.00  0.00     0.002 C 
BRANCH  24  25
ATOM     25  C   UNL A   1      31.401  32.319  26.438  1.00  0.00     0.021 C 
BRANCH  25  26
ATOM     26  C   UNL A   1      32.595  32.824  27.244  1.00  0.00     0.116 C 
BRANCH  26  27
ATOM     27  N   UNL A   1      32.442  34.214  27.632  1.00  0.00    -0.352 N 
ATOM     28  C   UNL A   1      33.070  34.912  28.629  1.00  0.00     0.251 C 
ATOM     29  H   UNL A   1      31.793  34.731  27.100  1.00  0.00     0.163 HD
ATOM     30  O   UNL A   1      32.678  36.030  28.946  1.00  0.00    -0.269 OA
BRANCH  28  31
ATOM     31  C   UNL A   1      34.218  34.306  29.336  1.00  0.00     0.039 A 
ATOM     32  C   UNL A   1      33.976  33.549  30.484  1.00  0.00     0.014 A 
ATOM     33  C   UNL A   1      35.526  34.505  28.883  1.00  0.00     0.014 A 
ATOM     34  C   UNL A   1      35.044  32.957  31.158  1.00  0.00     0.010 A 
ATOM     35  C   UNL A   1      36.583  33.861  29.518  1.00  0.00     0.010 A 
ATOM     36  C   UNL A   1      36.355  33.091  30.668  1.00  0.00    -0.014 A 
BRANCH  36  37
ATOM     37  C   UNL A   1      37.498  32.453  31.367  1.00  0.00     0.031 A 
ATOM     38  C   UNL A   1      38.212  31.292  30.733  1.00  0.00     0.074 A 
ATOM     39  C   UNL A   1      37.854  32.881  32.593  1.00  0.00     0.049 A 
ATOM     40  N   UNL A   1      39.194  30.565  31.206  1.00  0.00    -0.248 NA
ATOM     41  C   UNL A   1      37.746  30.871  29.401  1.00  0.00     0.031 C 
ATOM     42  C   UNL A   1      37.199  33.961  33.336  1.00  0.00     0.029 A 
ATOM     43  N   UNL A   1      38.845  32.451  33.440  1.00  0.00    -0.354 N 
ATOM     44  C   UNL A   1      39.442  29.593  30.246  1.00  0.00     0.074 A 
ATOM     45  C   UNL A   1      38.486  29.794  29.179  1.00  0.00     0.031 C 
ATOM     46  C   UNL A   1      37.814  34.114  34.521  1.00  0.00     0.029 A 
ATOM     47  C   UNL A   1      38.884  33.129  34.634  1.00  0.00     0.049 A 
ATOM     48  H   UNL A   1      39.469  31.724  33.212  1.00  0.00     0.167 HD
ATOM     49  C   UNL A   1      40.395  28.631  30.247  1.00  0.00     0.037 A 
ATOM     50  C   UNL A   1      39.690  32.967  35.700  1.00  0.00     0.037 A 
ATOM     51  C   UNL A   1      41.378  28.468  31.285  1.00  0.00     0.049 A 
ATOM     52  C   UNL A   1      40.769  31.918  35.651  1.00  0.00     0.074 A 
ATOM     53  C   UNL A   1      42.440  27.581  31.335  1.00  0.00     0.029 A 
ATOM     54  N   UNL A   1      41.421  29.210  32.454  1.00  0.00    -0.354 N 
ATOM     55  N   UNL A   1      41.050  31.063  34.698  1.00  0.00    -0.248 NA
ATOM     56  C   UNL A   1      41.653  31.821  36.821  1.00  0.00     0.031 C 
ATOM     57  C   UNL A   1      43.101  27.759  32.553  1.00  0.00     0.029 A 
ATOM     58  C   UNL A   1      42.481  28.789  33.242  1.00  0.00     0.049 A 
ATOM     59  H   UNL A   1      40.792  29.931  32.691  1.00  0.00     0.167 HD
ATOM     60  C   UNL A   1      42.160  30.354  35.136  1.00  0.00     0.074 A 
ATOM     61  C   UNL A   1      42.511  30.888  36.436  1.00  0.00     0.031 C 
ATOM     62  C   UNL A   1      42.829  29.349  34.521  1.00  0.00     0.037 A 
BRANCH  49  63
ATOM     63  C   UNL A   1      40.438  27.680  29.089  1.00  0.00     0.064 A 
ATOM     64  C   UNL A   1      39.653  26.518  29.058  1.00  0.00     0.173 A 
ATOM     65  C   UNL A   1      41.217  27.976  27.959  1.00  0.00     0.173 A 
ATOM     66  F   UNL A   1      38.900  26.186  30.117  1.00  0.00    -0.203 F 
ATOM     67  C   UNL A   1      39.656  25.680  27.946  1.00  0.00     0.198 A 
ATOM     68  C   UNL A   1      41.197  27.151  26.839  1.00  0.00     0.198 A 
ATOM     69  F   UNL A   1      41.982  29.078  27.936  1.00  0.00    -0.203 F 
ATOM     70  F   UNL A   1      38.922  24.559  27.951  1.00  0.00    -0.200 F 
ATOM     71  C   UNL A   1      40.420  26.003  26.833  1.00  0.00     0.200 A 
ATOM     72  F   UNL A   1      41.925  27.471  25.759  1.00  0.00    -0.200 F 
ATOM     73  F   UNL A   1      40.406  25.206  25.757  1.00  0.00    -0.200 F 
ENDBRANCH  49  63
BRANCH  50  74
ATOM     74  C   UNL A   1      39.526  33.827  36.902  1.00  0.00     0.064 A 
ATOM     75  C   UNL A   1      38.757  33.402  37.995  1.00  0.00     0.173 A 
ATOM     76  C   UNL A   1      40.104  35.102  36.969  1.00  0.00     0.173 A 
ATOM     77  F   UNL A   1      38.168  32.197  37.971  1.00  0.00    -0.203 F 
ATOM     78  C   UNL A   1      38.541  34.235  39.091  1.00  0.00     0.198 A 
ATOM     79  C   UNL A   1      39.913  35.922  38.078  1.00  0.00     0.198 A 
ATOM     80  F   UNL A   1      40.856  35.554  35.953  1.00  0.00    -0.203 F 
ATOM     81  F   UNL A   1      37.750  33.828  40.092  1.00  0.00    -0.200 F 
ATOM     82  C   UNL A   1      39.121  35.494  39.133  1.00  0.00     0.200 A 
ATOM     83  F   UNL A   1      40.487  37.132  38.122  1.00  0.00    -0.200 F 
ATOM     84  F   UNL A   1      38.907  36.297  40.184  1.00  0.00    -0.200 F 
ENDBRANCH  50  74
BRANCH  62  85
ATOM     85  C   UNL A   1      44.036  28.796  35.219  1.00  0.00     0.064 A 
ATOM     86  C   UNL A   1      45.317  29.325  35.007  1.00  0.00     0.173 A 
ATOM     87  C   UNL A   1      43.902  27.743  36.136  1.00  0.00     0.173 A 
ATOM     88  F   UNL A   1      45.498  30.323  34.128  1.00  0.00    -0.203 F 
ATOM     89  C   UNL A   1      46.425  28.802  35.668  1.00  0.00     0.198 A 
ATOM     90  C   UNL A   1      45.008  27.242  36.818  1.00  0.00     0.198 A 
ATOM     91  F   UNL A   1      42.697  27.207  36.381  1.00  0.00    -0.203 F 
ATOM     92  F   UNL A   1      47.647  29.288  35.412  1.00  0.00    -0.200 F 
ATOM     93  C   UNL A   1      46.269  27.766  36.577  1.00  0.00     0.200 A 
ATOM     94  F   UNL A   1      44.852  26.251  37.707  1.00  0.00    -0.200 F 
ATOM     95  F   UNL A   1      47.335  27.266  37.214  1.00  0.00    -0.200 F 
ENDBRANCH  62  85
ENDBRANCH  36  37
ENDBRANCH  28  31
ENDBRANCH  26  27
ENDBRANCH  25  26
ENDBRANCH  24  25
ENDBRANCH  23  24
ENDBRANCH   1  23
TORSDOF 19
ENDMDL
MODEL 3
REMARK VINA RESULT:     -10.9      6.231     11.061
REMARK SMILES COc1cc(OC)cc(C(=O)C[C@H](C)CC(=O)NCCCCCCNC(=O)c2ccc(-c3c4nc(c(-c5c(F)c(F)c(F)c(F)c5F)c5ccc([nH]5)c(-c5c(F)c(F)c(F)c(F)c5F)c5nc(c(-c6c(F)c(F)c(F)c(F)c6F)c6ccc3[nH]6)C=C5)C=C4)cc2)c1
REMARK SMILES IDX 20 1 19 2 18 3 16 4 17 5 15 7 13 8 14 9 12 10 10 11 11 12
REMARK SMILES IDX 9 13 3 14 4 15 91 16 5 17 8 18 2 19 1 20 6 21 7 22 21 23
REMARK SMILES IDX 22 24 23 25 24 26 25 27 26 28 27 30 28 31 29 32 90 33 30 34
REMARK SMILES IDX 89 35 31 36 32 37 33 38 83 39 34 40 88 41 82 42 84 43 35 44
REMARK SMILES IDX 87 45 81 46 80 47 36 49 68 50 48 51 67 52 49 53 52 54 66 55
REMARK SMILES IDX 85 56 50 57 51 58 65 60 86 61 53 62 37 63 38 64 46 65 39 66
REMARK SMILES IDX 40 67 44 68 47 69 41 70 42 71 45 72 43 73 69 74 70 75 78 76
REMARK SMILES IDX 71 77 72 78 76 79 79 80 73 81 74 82 77 83 75 84 54 85 55 86
REMARK SMILES IDX 63 87 56 88 57 89 61 90 64 91 58 92 59 93 62 94 60 95
REMARK H PARENT 18 6 25 29 84 48 52 59
REMARK Flexibility Score: inf
ROOT
ATOM      1  C   UNL A   1      40.434  22.307  27.000  1.00  0.00     0.021 C 
ENDROOT
BRANCH   1   2
ATOM      2  C   UNL A   1      39.327  21.766  26.099  1.00  0.00     0.116 C 
BRANCH   2   3
ATOM      3  N   UNL A   1      38.490  22.861  25.645  1.00  0.00    -0.356 N 
ATOM      4  C   UNL A   1      37.195  22.826  25.215  1.00  0.00     0.220 C 
ATOM      5  O   UNL A   1      36.745  23.779  24.584  1.00  0.00    -0.275 OA
ATOM      6  H   UNL A   1      38.913  23.750  25.647  1.00  0.00     0.163 HD
BRANCH   4   7
ATOM      7  C   UNL A   1      36.333  21.647  25.605  1.00  0.00     0.103 C 
BRANCH   7   8
ATOM      8  C   UNL A   1      34.911  21.582  25.030  1.00  0.00     0.003 C 
ATOM      9  C   UNL A   1      34.398  20.149  24.872  1.00  0.00     0.008 C 
BRANCH   8  10
ATOM     10  C   UNL A   1      33.911  22.355  25.921  1.00  0.00     0.085 C 
BRANCH  10  11
ATOM     11  C   UNL A   1      32.908  23.201  25.154  1.00  0.00     0.163 C 
ATOM     12  O   UNL A   1      31.774  22.774  24.934  1.00  0.00    -0.294 OA
BRANCH  11  13
ATOM     13  C   UNL A   1      33.301  24.540  24.608  1.00  0.00     0.025 A 
ATOM     14  C   UNL A   1      33.546  26.111  22.787  1.00  0.00     0.123 A 
ATOM     15  C   UNL A   1      33.757  27.144  23.694  1.00  0.00     0.092 A 
ATOM     16  C   UNL A   1      33.393  24.800  23.236  1.00  0.00     0.058 A 
ATOM     17  C   UNL A   1      33.768  26.880  25.062  1.00  0.00     0.123 A 
ATOM     18  C   UNL A   1      33.503  25.587  25.518  1.00  0.00     0.058 A 
BRANCH  14  19
ATOM     19  O   UNL A   1      33.529  26.422  21.454  1.00  0.00    -0.497 OA
ATOM     20  C   UNL A   1      32.636  25.575  20.726  1.00  0.00     0.278 C 
ENDBRANCH  14  19
BRANCH  17  21
ATOM     21  O   UNL A   1      34.006  27.962  25.864  1.00  0.00    -0.497 OA
ATOM     22  C   UNL A   1      33.034  29.002  25.795  1.00  0.00     0.278 C 
ENDBRANCH  17  21
ENDBRANCH  11  13
ENDBRANCH  10  11
ENDBRANCH   8  10
ENDBRANCH   7   8
ENDBRANCH   4   7
ENDBRANCH   2   3
ENDBRANCH   1   2
BRANCH   1  23
ATOM     23  C   UNL A   1      41.774  21.597  26.799  1.00  0.00     0.002 C 
BRANCH  23  24
ATOM     24  C   UNL A   1      41.932  20.303  27.603  1.00  0.00     0.002 C 
BRANCH  24  25
ATOM     25  C   UNL A   1      42.564  19.138  26.837  1.00  0.00     0.021 C 
BRANCH  25  26
ATOM     26  C   UNL A   1      42.531  19.279  25.317  1.00  0.00     0.116 C 
BRANCH  26  27
ATOM     27  N   UNL A   1      43.776  18.856  24.704  1.00  0.00    -0.352 N 
ATOM     28  C   UNL A   1      44.870  19.603  24.354  1.00  0.00     0.251 C 
ATOM     29  H   UNL A   1      43.846  17.892  24.512  1.00  0.00     0.163 HD
ATOM     30  O   UNL A   1      45.760  19.116  23.665  1.00  0.00    -0.269 OA
BRANCH  28  31
ATOM     31  C   UNL A   1      44.968  21.009  24.798  1.00  0.00     0.039 A 
ATOM     32  C   UNL A   1      45.413  21.275  26.095  1.00  0.00     0.014 A 
ATOM     33  C   UNL A   1      44.600  22.057  23.949  1.00  0.00     0.014 A 
ATOM     34  C   UNL A   1      45.526  22.595  26.529  1.00  0.00     0.010 A 
ATOM     35  C   UNL A   1      44.775  23.375  24.361  1.00  0.00     0.010 A 
ATOM     36  C   UNL A   1      45.228  23.657  25.658  1.00  0.00    -0.014 A 
BRANCH  36  37
ATOM     37  C   UNL A   1      45.360  25.067  26.102  1.00  0.00     0.031 A 
ATOM     38  C   UNL A   1      46.701  25.746  26.058  1.00  0.00     0.074 A 
ATOM     39  C   UNL A   1      44.287  25.714  26.597  1.00  0.00     0.049 A 
ATOM     40  N   UNL A   1      47.032  26.950  26.454  1.00  0.00    -0.248 NA
ATOM     41  C   UNL A   1      47.827  24.961  25.526  1.00  0.00     0.031 C 
ATOM     42  C   UNL A   1      42.947  25.142  26.743  1.00  0.00     0.029 A 
ATOM     43  N   UNL A   1      44.157  26.991  27.082  1.00  0.00    -0.354 N 
ATOM     44  C   UNL A   1      48.401  27.054  26.242  1.00  0.00     0.074 A 
ATOM     45  C   UNL A   1      48.849  25.782  25.719  1.00  0.00     0.031 C 
ATOM     46  C   UNL A   1      42.129  26.068  27.271  1.00  0.00     0.029 A 
ATOM     47  C   UNL A   1      42.891  27.286  27.526  1.00  0.00     0.049 A 
ATOM     48  H   UNL A   1      44.901  27.635  27.111  1.00  0.00     0.167 HD
ATOM     49  C   UNL A   1      49.207  28.123  26.447  1.00  0.00     0.037 A 
ATOM     50  C   UNL A   1      42.405  28.412  28.082  1.00  0.00     0.037 A 
ATOM     51  C   UNL A   1      48.748  29.403  26.917  1.00  0.00     0.049 A 
ATOM     52  C   UNL A   1      43.316  29.598  28.256  1.00  0.00     0.074 A 
ATOM     53  C   UNL A   1      49.471  30.574  27.072  1.00  0.00     0.029 A 
ATOM     54  N   UNL A   1      47.447  29.681  27.304  1.00  0.00    -0.354 N 
ATOM     55  N   UNL A   1      44.590  29.712  27.967  1.00  0.00    -0.248 NA
ATOM     56  C   UNL A   1      42.719  30.816  28.818  1.00  0.00     0.031 C 
ATOM     57  C   UNL A   1      48.616  31.549  27.593  1.00  0.00     0.029 A 
ATOM     58  C   UNL A   1      47.349  31.001  27.716  1.00  0.00     0.049 A 
ATOM     59  H   UNL A   1      46.702  29.037  27.289  1.00  0.00     0.167 HD
ATOM     60  C   UNL A   1      44.936  31.020  28.278  1.00  0.00     0.074 A 
ATOM     61  C   UNL A   1      43.735  31.666  28.765  1.00  0.00     0.031 C 
ATOM     62  C   UNL A   1      46.140  31.632  28.175  1.00  0.00     0.037 A 
BRANCH  49  63
ATOM     63  C   UNL A   1      50.670  27.968  26.158  1.00  0.00     0.064 A 
ATOM     64  C   UNL A   1      51.184  28.111  24.860  1.00  0.00     0.173 A 
ATOM     65  C   UNL A   1      51.579  27.751  27.204  1.00  0.00     0.173 A 
ATOM     66  F   UNL A   1      50.355  28.308  23.825  1.00  0.00    -0.203 F 
ATOM     67  C   UNL A   1      52.553  28.029  24.619  1.00  0.00     0.198 A 
ATOM     68  C   UNL A   1      52.949  27.696  26.964  1.00  0.00     0.198 A 
ATOM     69  F   UNL A   1      51.140  27.612  28.464  1.00  0.00    -0.203 F 
ATOM     70  F   UNL A   1      53.019  28.138  23.368  1.00  0.00    -0.200 F 
ATOM     71  C   UNL A   1      53.435  27.832  25.672  1.00  0.00     0.200 A 
ATOM     72  F   UNL A   1      53.801  27.520  27.984  1.00  0.00    -0.200 F 
ATOM     73  F   UNL A   1      54.753  27.773  25.441  1.00  0.00    -0.200 F 
ENDBRANCH  49  63
BRANCH  50  74
ATOM     74  C   UNL A   1      40.980  28.487  28.502  1.00  0.00     0.064 A 
ATOM     75  C   UNL A   1      39.993  28.965  27.630  1.00  0.00     0.173 A 
ATOM     76  C   UNL A   1      40.583  28.117  29.795  1.00  0.00     0.173 A 
ATOM     77  F   UNL A   1      40.326  29.349  26.388  1.00  0.00    -0.203 F 
ATOM     78  C   UNL A   1      38.670  29.105  28.045  1.00  0.00     0.198 A 
ATOM     79  C   UNL A   1      39.254  28.229  30.199  1.00  0.00     0.198 A 
ATOM     80  F   UNL A   1      41.486  27.646  30.668  1.00  0.00    -0.203 F 
ATOM     81  F   UNL A   1      37.760  29.624  27.210  1.00  0.00    -0.200 F 
ATOM     82  C   UNL A   1      38.302  28.735  29.329  1.00  0.00     0.200 A 
ATOM     83  F   UNL A   1      38.899  27.856  31.437  1.00  0.00    -0.200 F 
ATOM     84  F   UNL A   1      37.031  28.877  29.730  1.00  0.00    -0.200 F 
ENDBRANCH  50  74
BRANCH  62  85
ATOM     85  C   UNL A   1      46.209  33.084  28.544  1.00  0.00     0.064 A 
ATOM     86  C   UNL A   1      46.519  33.500  29.847  1.00  0.00     0.173 A 
ATOM     87  C   UNL A   1      45.992  34.072  27.571  1.00  0.00     0.173 A 
ATOM     88  F   UNL A   1      46.719  32.593  30.815  1.00  0.00    -0.203 F 
ATOM     89  C   UNL A   1      46.583  34.853  30.169  1.00  0.00     0.198 A 
ATOM     90  C   UNL A   1      46.087  35.424  27.890  1.00  0.00     0.198 A 
ATOM     91  F   UNL A   1      45.701  33.726  26.308  1.00  0.00    -0.203 F 
ATOM     92  F   UNL A   1      46.829  35.228  31.431  1.00  0.00    -0.200 F 
ATOM     93  C   UNL A   1      46.373  35.813  29.189  1.00  0.00     0.200 A 
ATOM     94  F   UNL A   1      45.899  36.349  26.939  1.00  0.00    -0.200 F 
ATOM     95  F   UNL A   1      46.439  37.114  29.501  1.00  0.00    -0.200 F 
ENDBRANCH  62  85
ENDBRANCH  36  37
ENDBRANCH  28  31
ENDBRANCH  26  27
ENDBRANCH  25  26
ENDBRANCH  24  25
ENDBRANCH  23  24
ENDBRANCH   1  23
TORSDOF 19
ENDMDL
