MODEL 1
REMARK VINA RESULT:     -11.8      0.000      0.000
REMARK SMILES O=C(NCCCCCCNC(=O)[C@H]1C[C@H](O)CN1C(=O)[C@@H]1CC(=O)N(C2CC2)C1)c1ccc(-c2c3nc(c(-c4c(F)c(F)c(F)c(F)c4F)c4ccc([nH]4)c(-c4c(F)c(F)c(F)c(F)c4F)c4nc(c(-c5c(F)c(F)c(F)c(F)c5F)c5ccc2[nH]5)C=C4)C=C3)cc1
REMARK SMILES IDX 7 1 6 2 5 3 4 4 3 5 1 6 2 7 30 9 31 10 92 11 32 12 91 13
REMARK SMILES IDX 33 14 34 15 35 16 85 17 36 18 90 19 84 20 86 21 37 22 89 23
REMARK SMILES IDX 83 24 82 25 38 27 70 28 50 29 69 30 51 31 54 32 68 33 87 34
REMARK SMILES IDX 52 35 53 36 67 38 88 39 55 40 39 41 40 42 48 43 41 44 42 45
REMARK SMILES IDX 46 46 49 47 43 48 44 49 47 50 45 51 71 52 72 53 80 54 73 55
REMARK SMILES IDX 74 56 78 57 81 58 75 59 76 60 79 61 77 62 56 63 57 64 65 65
REMARK SMILES IDX 58 66 59 67 63 68 66 69 60 70 61 71 64 72 62 73 8 74 9 75
REMARK SMILES IDX 10 76 11 77 12 79 13 80 14 81 18 82 15 83 17 84 19 85 20 86
REMARK SMILES IDX 21 87 22 88 29 89 23 90 25 91 24 92 26 93 27 94 28 95 16 96
REMARK H PARENT 3 8 86 26 54 37 10 78 16 97
REMARK Flexibility Score: inf
ROOT
ATOM      1  C   UNL A   1      32.470  29.969  26.809  1.00  0.00     0.002 C 
ENDROOT
BRANCH   1   2
ATOM      2  C   UNL A   1      31.459  30.828  26.046  1.00  0.00     0.002 C 
BRANCH   2   3
ATOM      3  C   UNL A   1      31.298  32.262  26.553  1.00  0.00     0.021 C 
BRANCH   3   4
ATOM      4  C   UNL A   1      32.528  32.847  27.233  1.00  0.00     0.116 C 
BRANCH   4   5
ATOM      5  N   UNL A   1      32.331  34.220  27.668  1.00  0.00    -0.352 N 
ATOM      6  O   UNL A   1      32.597  36.033  28.986  1.00  0.00    -0.269 OA
ATOM      7  C   UNL A   1      32.991  34.923  28.646  1.00  0.00     0.251 C 
ATOM      8  H   UNL A   1      31.624  34.716  27.195  1.00  0.00     0.163 HD
BRANCH   7   9
ATOM      9  C   UNL A   1      34.167  34.323  29.314  1.00  0.00     0.039 A 
ATOM     10  C   UNL A   1      35.461  34.598  28.863  1.00  0.00     0.014 A 
ATOM     11  C   UNL A   1      33.968  33.476  30.407  1.00  0.00     0.014 A 
ATOM     12  C   UNL A   1      36.541  33.917  29.414  1.00  0.00     0.010 A 
ATOM     13  C   UNL A   1      35.064  32.856  31.013  1.00  0.00     0.010 A 
ATOM     14  C   UNL A   1      36.357  33.046  30.501  1.00  0.00    -0.014 A 
BRANCH  14  15
ATOM     15  C   UNL A   1      37.539  32.389  31.113  1.00  0.00     0.031 A 
ATOM     16  C   UNL A   1      37.986  32.729  32.506  1.00  0.00     0.074 A 
ATOM     17  C   UNL A   1      38.191  31.449  30.404  1.00  0.00     0.049 A 
ATOM     18  N   UNL A   1      38.968  32.216  33.205  1.00  0.00    -0.248 NA
ATOM     19  C   UNL A   1      37.241  33.785  33.207  1.00  0.00     0.031 C 
ATOM     20  C   UNL A   1      37.858  31.047  29.036  1.00  0.00     0.029 A 
ATOM     21  N   UNL A   1      39.251  30.645  30.738  1.00  0.00    -0.354 N 
ATOM     22  C   UNL A   1      38.974  32.899  34.415  1.00  0.00     0.074 A 
ATOM     23  C   UNL A   1      37.910  33.879  34.348  1.00  0.00     0.031 C 
ATOM     24  C   UNL A   1      38.657  30.035  28.667  1.00  0.00     0.029 A 
ATOM     25  C   UNL A   1      39.594  29.755  29.749  1.00  0.00     0.049 A 
ATOM     26  H   UNL A   1      39.718  30.699  31.602  1.00  0.00     0.167 HD
ATOM     27  C   UNL A   1      39.788  32.717  35.482  1.00  0.00     0.037 A 
ATOM     28  C   UNL A   1      40.562  28.821  29.714  1.00  0.00     0.037 A 
ATOM     29  C   UNL A   1      40.831  31.725  35.551  1.00  0.00     0.049 A 
ATOM     30  C   UNL A   1      41.455  28.651  30.909  1.00  0.00     0.074 A 
ATOM     31  C   UNL A   1      41.677  31.432  36.606  1.00  0.00     0.029 A 
ATOM     32  N   UNL A   1      41.173  30.866  34.516  1.00  0.00    -0.354 N 
ATOM     33  N   UNL A   1      41.422  29.274  32.061  1.00  0.00    -0.248 NA
ATOM     34  C   UNL A   1      42.523  27.650  30.794  1.00  0.00     0.031 C 
ATOM     35  C   UNL A   1      42.558  30.425  36.197  1.00  0.00     0.029 A 
ATOM     36  C   UNL A   1      42.233  30.058  34.901  1.00  0.00     0.049 A 
ATOM     37  H   UNL A   1      40.729  30.834  33.638  1.00  0.00     0.167 HD
ATOM     38  C   UNL A   1      42.451  28.731  32.816  1.00  0.00     0.074 A 
ATOM     39  C   UNL A   1      43.078  27.713  31.997  1.00  0.00     0.031 C 
ATOM     40  C   UNL A   1      42.845  29.051  34.073  1.00  0.00     0.037 A 
BRANCH  27  41
ATOM     41  C   UNL A   1      39.598  33.623  36.665  1.00  0.00     0.064 A 
ATOM     42  C   UNL A   1      40.199  34.888  36.730  1.00  0.00     0.173 A 
ATOM     43  C   UNL A   1      38.770  33.236  37.729  1.00  0.00     0.173 A 
ATOM     44  F   UNL A   1      41.009  35.303  35.743  1.00  0.00    -0.203 F 
ATOM     45  C   UNL A   1      39.997  35.723  37.826  1.00  0.00     0.198 A 
ATOM     46  C   UNL A   1      38.549  34.082  38.813  1.00  0.00     0.198 A 
ATOM     47  F   UNL A   1      38.165  32.038  37.714  1.00  0.00    -0.203 F 
ATOM     48  F   UNL A   1      40.615  36.911  37.886  1.00  0.00    -0.200 F 
ATOM     49  C   UNL A   1      39.168  35.322  38.864  1.00  0.00     0.200 A 
ATOM     50  F   UNL A   1      37.738  33.698  39.808  1.00  0.00    -0.200 F 
ATOM     51  F   UNL A   1      38.970  36.129  39.916  1.00  0.00    -0.200 F 
ENDBRANCH  27  41
BRANCH  28  52
ATOM     52  C   UNL A   1      40.718  27.969  28.510  1.00  0.00     0.064 A 
ATOM     53  C   UNL A   1      40.083  26.723  28.425  1.00  0.00     0.173 A 
ATOM     54  C   UNL A   1      41.485  28.389  27.414  1.00  0.00     0.173 A 
ATOM     55  F   UNL A   1      39.354  26.272  29.457  1.00  0.00    -0.203 F 
ATOM     56  C   UNL A   1      40.217  25.924  27.293  1.00  0.00     0.198 A 
ATOM     57  C   UNL A   1      41.597  27.601  26.271  1.00  0.00     0.198 A 
ATOM     58  F   UNL A   1      42.108  29.576  27.445  1.00  0.00    -0.203 F 
ATOM     59  F   UNL A   1      39.628  24.721  27.251  1.00  0.00    -0.200 F 
ATOM     60  C   UNL A   1      40.968  26.367  26.213  1.00  0.00     0.200 A 
ATOM     61  F   UNL A   1      42.309  28.040  25.224  1.00  0.00    -0.200 F 
ATOM     62  F   UNL A   1      41.087  25.602  25.120  1.00  0.00    -0.200 F 
ENDBRANCH  28  52
BRANCH  40  63
ATOM     63  C   UNL A   1      43.990  28.269  34.645  1.00  0.00     0.064 A 
ATOM     64  C   UNL A   1      45.314  28.715  34.525  1.00  0.00     0.173 A 
ATOM     65  C   UNL A   1      43.758  27.067  35.331  1.00  0.00     0.173 A 
ATOM     66  F   UNL A   1      45.587  29.848  33.862  1.00  0.00    -0.203 F 
ATOM     67  C   UNL A   1      46.369  27.972  35.049  1.00  0.00     0.198 A 
ATOM     68  C   UNL A   1      44.812  26.341  35.875  1.00  0.00     0.198 A 
ATOM     69  F   UNL A   1      42.509  26.600  35.474  1.00  0.00    -0.203 F 
ATOM     70  F   UNL A   1      47.630  28.390  34.879  1.00  0.00    -0.200 F 
ATOM     71  C   UNL A   1      46.116  26.788  35.727  1.00  0.00     0.200 A 
ATOM     72  F   UNL A   1      44.566  25.203  36.539  1.00  0.00    -0.200 F 
ATOM     73  F   UNL A   1      47.133  26.073  36.230  1.00  0.00    -0.200 F 
ENDBRANCH  40  63
ENDBRANCH  14  15
ENDBRANCH   7   9
ENDBRANCH   4   5
ENDBRANCH   3   4
ENDBRANCH   2   3
ENDBRANCH   1   2
BRANCH   1  74
ATOM     74  C   UNL A   1      32.758  28.590  26.206  1.00  0.00     0.021 C 
BRANCH  74  75
ATOM     75  C   UNL A   1      32.539  27.415  27.157  1.00  0.00     0.116 C 
BRANCH  75  76
ATOM     76  N   UNL A   1      31.289  26.728  26.889  1.00  0.00    -0.354 N 
ATOM     77  C   UNL A   1      31.068  25.452  26.464  1.00  0.00     0.242 C 
ATOM     78  H   UNL A   1      30.478  27.265  27.038  1.00  0.00     0.163 HD
ATOM     79  O   UNL A   1      29.911  25.130  26.176  1.00  0.00    -0.273 OA
BRANCH  77  80
ATOM     80  C   UNL A   1      32.236  24.456  26.342  1.00  0.00     0.177 C 
ATOM     81  C   UNL A   1      31.814  23.088  26.877  1.00  0.00     0.069 C 
ATOM     82  N   UNL A   1      32.581  24.234  24.934  1.00  0.00    -0.328 N 
ATOM     83  C   UNL A   1      31.304  22.351  25.644  1.00  0.00     0.136 C 
ATOM     84  C   UNL A   1      32.178  22.898  24.515  1.00  0.00     0.152 C 
BRANCH  82  85
ATOM     85  C   UNL A   1      33.266  25.209  24.254  1.00  0.00     0.228 C 
ATOM     86  O   UNL A   1      34.371  25.582  24.668  1.00  0.00    -0.274 OA
BRANCH  85  87
ATOM     87  C   UNL A   1      32.772  25.812  22.946  1.00  0.00     0.107 C 
ATOM     88  C   UNL A   1      33.479  27.051  22.422  1.00  0.00     0.115 C 
ATOM     89  C   UNL A   1      31.306  26.166  23.014  1.00  0.00     0.133 C 
ATOM     90  C   UNL A   1      32.486  28.166  22.645  1.00  0.00     0.223 C 
ATOM     91  N   UNL A   1      31.276  27.604  23.047  1.00  0.00    -0.339 N 
ATOM     92  O   UNL A   1      32.757  29.349  22.513  1.00  0.00    -0.275 OA
BRANCH  91  93
ATOM     93  C   UNL A   1      30.103  28.290  23.497  1.00  0.00     0.085 C 
ATOM     94  C   UNL A   1      29.210  29.018  22.529  1.00  0.00     0.027 C 
ATOM     95  C   UNL A   1      28.703  27.806  23.258  1.00  0.00     0.027 C 
ENDBRANCH  91  93
ENDBRANCH  85  87
ENDBRANCH  82  85
BRANCH  83  96
ATOM     96  O   UNL A   1      31.430  20.946  25.807  1.00  0.00    -0.391 OA
ATOM     97  H   UNL A   1      31.313  20.510  24.950  1.00  0.00     0.211 HD
ENDBRANCH  83  96
ENDBRANCH  77  80
ENDBRANCH  75  76
ENDBRANCH  74  75
ENDBRANCH   1  74
TORSDOF 17
ENDMDL
MODEL 2
REMARK VINA RESULT:     -11.7      5.201     10.789
REMARK SMILES O=C(NCCCCCCNC(=O)[C@H]1C[C@H](O)CN1C(=O)[C@@H]1CC(=O)N(C2CC2)C1)c1ccc(-c2c3nc(c(-c4c(F)c(F)c(F)c(F)c4F)c4ccc([nH]4)c(-c4c(F)c(F)c(F)c(F)c4F)c4nc(c(-c5c(F)c(F)c(F)c(F)c5F)c5ccc2[nH]5)C=C4)C=C3)cc1
REMARK SMILES IDX 7 1 6 2 5 3 4 4 3 5 1 6 2 7 30 9 31 10 92 11 32 12 91 13
REMARK SMILES IDX 33 14 34 15 35 16 85 17 36 18 90 19 84 20 86 21 37 22 89 23
REMARK SMILES IDX 83 24 82 25 38 27 70 28 50 29 69 30 51 31 54 32 68 33 87 34
REMARK SMILES IDX 52 35 53 36 67 38 88 39 55 40 39 41 40 42 48 43 41 44 42 45
REMARK SMILES IDX 46 46 49 47 43 48 44 49 47 50 45 51 71 52 72 53 80 54 73 55
REMARK SMILES IDX 74 56 78 57 81 58 75 59 76 60 79 61 77 62 56 63 57 64 65 65
REMARK SMILES IDX 58 66 59 67 63 68 66 69 60 70 61 71 64 72 62 73 8 74 9 75
REMARK SMILES IDX 10 76 11 77 12 79 13 80 14 81 18 82 15 83 17 84 19 85 20 86
REMARK SMILES IDX 21 87 22 88 29 89 23 90 25 91 24 92 26 93 27 94 28 95 16 96
REMARK H PARENT 3 8 86 26 54 37 10 78 16 97
REMARK Flexibility Score: inf
ROOT
ATOM      1  C   UNL A   1      36.866  21.777  24.302  1.00  0.00     0.002 C 
ENDROOT
BRANCH   1   2
ATOM      2  C   UNL A   1      36.642  20.397  24.927  1.00  0.00     0.002 C 
BRANCH   2   3
ATOM      3  C   UNL A   1      37.878  19.500  25.001  1.00  0.00     0.021 C 
BRANCH   3   4
ATOM      4  C   UNL A   1      39.006  20.028  25.875  1.00  0.00     0.116 C 
BRANCH   4   5
ATOM      5  N   UNL A   1      40.170  19.158  25.877  1.00  0.00    -0.352 N 
ATOM      6  O   UNL A   1      42.367  18.638  25.866  1.00  0.00    -0.269 OA
ATOM      7  C   UNL A   1      41.496  19.483  26.039  1.00  0.00     0.251 C 
ATOM      8  H   UNL A   1      39.983  18.201  25.744  1.00  0.00     0.163 HD
BRANCH   7   9
ATOM      9  C   UNL A   1      41.873  20.868  26.393  1.00  0.00     0.039 A 
ATOM     10  C   UNL A   1      41.886  21.875  25.424  1.00  0.00     0.014 A 
ATOM     11  C   UNL A   1      42.215  21.162  27.715  1.00  0.00     0.014 A 
ATOM     12  C   UNL A   1      42.376  23.136  25.747  1.00  0.00     0.010 A 
ATOM     13  C   UNL A   1      42.629  22.453  28.056  1.00  0.00     0.010 A 
ATOM     14  C   UNL A   1      42.743  23.442  27.067  1.00  0.00    -0.014 A 
BRANCH  14  15
ATOM     15  C   UNL A   1      43.195  24.818  27.394  1.00  0.00     0.031 A 
ATOM     16  C   UNL A   1      44.584  25.283  27.060  1.00  0.00     0.074 A 
ATOM     17  C   UNL A   1      42.319  25.663  27.970  1.00  0.00     0.049 A 
ATOM     18  N   UNL A   1      45.122  26.465  27.236  1.00  0.00    -0.248 NA
ATOM     19  C   UNL A   1      45.491  24.296  26.458  1.00  0.00     0.031 C 
ATOM     20  C   UNL A   1      40.948  25.318  28.354  1.00  0.00     0.029 A 
ATOM     21  N   UNL A   1      42.437  26.986  28.311  1.00  0.00    -0.354 N 
ATOM     22  C   UNL A   1      46.432  26.358  26.788  1.00  0.00     0.074 A 
ATOM     23  C   UNL A   1      46.616  24.989  26.352  1.00  0.00     0.031 C 
ATOM     24  C   UNL A   1      40.335  26.414  28.825  1.00  0.00     0.029 A 
ATOM     25  C   UNL A   1      41.283  27.521  28.829  1.00  0.00     0.049 A 
ATOM     26  H   UNL A   1      43.268  27.501  28.196  1.00  0.00     0.167 HD
ATOM     27  C   UNL A   1      47.388  27.316  26.740  1.00  0.00     0.037 A 
ATOM     28  C   UNL A   1      41.020  28.767  29.265  1.00  0.00     0.037 A 
ATOM     29  C   UNL A   1      47.193  28.683  27.155  1.00  0.00     0.049 A 
ATOM     30  C   UNL A   1      42.103  29.805  29.208  1.00  0.00     0.074 A 
ATOM     31  C   UNL A   1      48.085  29.739  27.100  1.00  0.00     0.029 A 
ATOM     32  N   UNL A   1      46.021  29.180  27.707  1.00  0.00    -0.354 N 
ATOM     33  N   UNL A   1      43.323  29.701  28.744  1.00  0.00    -0.248 NA
ATOM     34  C   UNL A   1      41.770  31.131  29.742  1.00  0.00     0.031 C 
ATOM     35  C   UNL A   1      47.469  30.865  27.658  1.00  0.00     0.029 A 
ATOM     36  C   UNL A   1      46.176  30.523  28.019  1.00  0.00     0.049 A 
ATOM     37  H   UNL A   1      45.200  28.657  27.856  1.00  0.00     0.167 HD
ATOM     38  C   UNL A   1      43.901  30.950  28.912  1.00  0.00     0.074 A 
ATOM     39  C   UNL A   1      42.889  31.802  29.505  1.00  0.00     0.031 C 
ATOM     40  C   UNL A   1      45.159  31.355  28.609  1.00  0.00     0.037 A 
BRANCH  27  41
ATOM     41  C   UNL A   1      48.746  26.922  26.234  1.00  0.00     0.064 A 
ATOM     42  C   UNL A   1      49.099  27.055  24.883  1.00  0.00     0.173 A 
ATOM     43  C   UNL A   1      49.722  26.442  27.121  1.00  0.00     0.173 A 
ATOM     44  F   UNL A   1      48.200  27.499  23.991  1.00  0.00    -0.203 F 
ATOM     45  C   UNL A   1      50.369  26.701  24.435  1.00  0.00     0.198 A 
ATOM     46  C   UNL A   1      50.999  26.113  26.676  1.00  0.00     0.198 A 
ATOM     47  F   UNL A   1      49.439  26.301  28.425  1.00  0.00    -0.203 F 
ATOM     48  F   UNL A   1      50.671  26.798  23.133  1.00  0.00    -0.200 F 
ATOM     49  C   UNL A   1      51.320  26.237  25.332  1.00  0.00     0.200 A 
ATOM     50  F   UNL A   1      51.920  25.675  27.545  1.00  0.00    -0.200 F 
ATOM     51  F   UNL A   1      52.544  25.902  24.900  1.00  0.00    -0.200 F 
ENDBRANCH  27  41
BRANCH  28  52
ATOM     52  C   UNL A   1      39.665  29.095  29.774  1.00  0.00     0.064 A 
ATOM     53  C   UNL A   1      39.353  28.947  31.132  1.00  0.00     0.173 A 
ATOM     54  C   UNL A   1      38.664  29.583  28.922  1.00  0.00     0.173 A 
ATOM     55  F   UNL A   1      40.273  28.467  31.981  1.00  0.00    -0.203 F 
ATOM     56  C   UNL A   1      38.087  29.265  31.617  1.00  0.00     0.198 A 
ATOM     57  C   UNL A   1      37.407  29.926  29.412  1.00  0.00     0.198 A 
ATOM     58  F   UNL A   1      38.916  29.747  27.614  1.00  0.00    -0.203 F 
ATOM     59  F   UNL A   1      37.803  29.082  32.913  1.00  0.00    -0.200 F 
ATOM     60  C   UNL A   1      37.117  29.762  30.758  1.00  0.00     0.200 A 
ATOM     61  F   UNL A   1      36.479  30.421  28.582  1.00  0.00    -0.200 F 
ATOM     62  F   UNL A   1      35.903  30.077  31.227  1.00  0.00    -0.200 F 
ENDBRANCH  28  52
BRANCH  40  63
ATOM     63  C   UNL A   1      45.496  32.789  28.888  1.00  0.00     0.064 A 
ATOM     64  C   UNL A   1      46.077  33.181  30.103  1.00  0.00     0.173 A 
ATOM     65  C   UNL A   1      45.248  33.779  27.925  1.00  0.00     0.173 A 
ATOM     66  F   UNL A   1      46.316  32.275  31.062  1.00  0.00    -0.203 F 
ATOM     67  C   UNL A   1      46.372  34.519  30.354  1.00  0.00     0.198 A 
ATOM     68  C   UNL A   1      45.569  35.110  28.170  1.00  0.00     0.198 A 
ATOM     69  F   UNL A   1      44.697  33.452  26.747  1.00  0.00    -0.203 F 
ATOM     70  F   UNL A   1      46.879  34.880  31.541  1.00  0.00    -0.200 F 
ATOM     71  C   UNL A   1      46.123  35.481  29.386  1.00  0.00     0.200 A 
ATOM     72  F   UNL A   1      45.336  36.036  27.230  1.00  0.00    -0.200 F 
ATOM     73  F   UNL A   1      46.406  36.768  29.630  1.00  0.00    -0.200 F 
ENDBRANCH  40  63
ENDBRANCH  14  15
ENDBRANCH   7   9
ENDBRANCH   4   5
ENDBRANCH   3   4
ENDBRANCH   2   3
ENDBRANCH   1   2
BRANCH   1  74
ATOM     74  C   UNL A   1      36.787  22.963  25.270  1.00  0.00     0.021 C 
BRANCH  74  75
ATOM     75  C   UNL A   1      35.733  24.011  24.916  1.00  0.00     0.116 C 
BRANCH  75  76
ATOM     76  N   UNL A   1      35.064  23.705  23.666  1.00  0.00    -0.354 N 
ATOM     77  C   UNL A   1      34.073  24.381  23.018  1.00  0.00     0.242 C 
ATOM     78  H   UNL A   1      35.372  22.885  23.217  1.00  0.00     0.163 HD
ATOM     79  O   UNL A   1      33.564  23.852  22.024  1.00  0.00    -0.273 OA
BRANCH  77  80
ATOM     80  C   UNL A   1      33.606  25.758  23.525  1.00  0.00     0.177 C 
ATOM     81  C   UNL A   1      33.176  26.631  22.347  1.00  0.00     0.069 C 
ATOM     82  N   UNL A   1      32.411  25.622  24.364  1.00  0.00    -0.328 N 
ATOM     83  C   UNL A   1      31.679  26.377  22.225  1.00  0.00     0.136 C 
ATOM     84  C   UNL A   1      31.240  26.141  23.671  1.00  0.00     0.152 C 
BRANCH  82  85
ATOM     85  C   UNL A   1      32.544  25.133  25.639  1.00  0.00     0.228 C 
ATOM     86  O   UNL A   1      33.173  25.785  26.482  1.00  0.00    -0.274 OA
BRANCH  85  87
ATOM     87  C   UNL A   1      31.879  23.846  26.109  1.00  0.00     0.107 C 
ATOM     88  C   UNL A   1      32.537  23.077  27.241  1.00  0.00     0.115 C 
ATOM     89  C   UNL A   1      31.711  22.860  24.978  1.00  0.00     0.133 C 
ATOM     90  C   UNL A   1      33.117  21.855  26.571  1.00  0.00     0.223 C 
ATOM     91  N   UNL A   1      32.662  21.817  25.255  1.00  0.00    -0.339 N 
ATOM     92  O   UNL A   1      33.879  21.077  27.124  1.00  0.00    -0.275 OA
BRANCH  91  93
ATOM     93  C   UNL A   1      33.065  20.916  24.218  1.00  0.00     0.085 C 
ATOM     94  C   UNL A   1      32.528  19.511  24.159  1.00  0.00     0.027 C 
ATOM     95  C   UNL A   1      32.183  20.498  23.079  1.00  0.00     0.027 C 
ENDBRANCH  91  93
ENDBRANCH  85  87
ENDBRANCH  82  85
BRANCH  83  96
ATOM     96  O   UNL A   1      31.026  27.485  21.625  1.00  0.00    -0.391 OA
ATOM     97  H   UNL A   1      31.453  28.307  21.912  1.00  0.00     0.211 HD
ENDBRANCH  83  96
ENDBRANCH  77  80
ENDBRANCH  75  76
ENDBRANCH  74  75
ENDBRANCH   1  74
TORSDOF 17
ENDMDL
MODEL 3
REMARK VINA RESULT:     -11.7      1.124      2.984
REMARK SMILES O=C(NCCCCCCNC(=O)[C@H]1C[C@H](O)CN1C(=O)[C@@H]1CC(=O)N(C2CC2)C1)c1ccc(-c2c3nc(c(-c4c(F)c(F)c(F)c(F)c4F)c4ccc([nH]4)c(-c4c(F)c(F)c(F)c(F)c4F)c4nc(c(-c5c(F)c(F)c(F)c(F)c5F)c5ccc2[nH]5)C=C4)C=C3)cc1
REMARK SMILES IDX 7 1 6 2 5 3 4 4 3 5 1 6 2 7 30 9 31 10 92 11 32 12 91 13
REMARK SMILES IDX 33 14 34 15 35 16 85 17 36 18 90 19 84 20 86 21 37 22 89 23
REMARK SMILES IDX 83 24 82 25 38 27 70 28 50 29 69 30 51 31 54 32 68 33 87 34
REMARK SMILES IDX 52 35 53 36 67 38 88 39 55 40 39 41 40 42 48 43 41 44 42 45
REMARK SMILES IDX 46 46 49 47 43 48 44 49 47 50 45 51 71 52 72 53 80 54 73 55
REMARK SMILES IDX 74 56 78 57 81 58 75 59 76 60 79 61 77 62 56 63 57 64 65 65
REMARK SMILES IDX 58 66 59 67 63 68 66 69 60 70 61 71 64 72 62 73 8 74 9 75
REMARK SMILES IDX 10 76 11 77 12 79 13 80 14 81 18 82 15 83 17 84 19 85 20 86
REMARK SMILES IDX 21 87 22 88 29 89 23 90 25 91 24 92 26 93 27 94 28 95 16 96
REMARK H PARENT 3 8 86 26 54 37 10 78 16 97
REMARK Flexibility Score: inf
ROOT
ATOM      1  C   UNL A   1      32.346  29.879  26.592  1.00  0.00     0.002 C 
ENDROOT
BRANCH   1   2
ATOM      2  C   UNL A   1      31.315  30.789  25.920  1.00  0.00     0.002 C 
BRANCH   2   3
ATOM      3  C   UNL A   1      31.203  32.199  26.501  1.00  0.00     0.021 C 
BRANCH   3   4
ATOM      4  C   UNL A   1      32.515  32.807  26.975  1.00  0.00     0.116 C 
BRANCH   4   5
ATOM      5  N   UNL A   1      32.340  34.110  27.594  1.00  0.00    -0.352 N 
ATOM      6  O   UNL A   1      32.651  35.728  29.137  1.00  0.00    -0.269 OA
ATOM      7  C   UNL A   1      33.027  34.671  28.644  1.00  0.00     0.251 C 
ATOM      8  H   UNL A   1      31.629  34.670  27.207  1.00  0.00     0.163 HD
BRANCH   7   9
ATOM      9  C   UNL A   1      34.210  33.978  29.199  1.00  0.00     0.039 A 
ATOM     10  C   UNL A   1      34.060  32.878  30.047  1.00  0.00     0.014 A 
ATOM     11  C   UNL A   1      35.486  34.437  28.863  1.00  0.00     0.014 A 
ATOM     12  C   UNL A   1      35.178  32.329  30.668  1.00  0.00     0.010 A 
ATOM     13  C   UNL A   1      36.614  33.830  29.424  1.00  0.00     0.010 A 
ATOM     14  C   UNL A   1      36.466  32.792  30.356  1.00  0.00    -0.014 A 
BRANCH  14  15
ATOM     15  C   UNL A   1      37.643  32.137  30.981  1.00  0.00     0.031 A 
ATOM     16  C   UNL A   1      38.068  32.471  32.383  1.00  0.00     0.074 A 
ATOM     17  C   UNL A   1      38.310  31.204  30.276  1.00  0.00     0.049 A 
ATOM     18  N   UNL A   1      39.043  31.960  33.093  1.00  0.00    -0.248 NA
ATOM     19  C   UNL A   1      37.308  33.520  33.079  1.00  0.00     0.031 C 
ATOM     20  C   UNL A   1      37.999  30.808  28.902  1.00  0.00     0.029 A 
ATOM     21  N   UNL A   1      39.369  30.403  30.622  1.00  0.00    -0.354 N 
ATOM     22  C   UNL A   1      39.027  32.635  34.306  1.00  0.00     0.074 A 
ATOM     23  C   UNL A   1      37.960  33.611  34.230  1.00  0.00     0.031 C 
ATOM     24  C   UNL A   1      38.809  29.803  28.539  1.00  0.00     0.029 A 
ATOM     25  C   UNL A   1      39.731  29.522  29.633  1.00  0.00     0.049 A 
ATOM     26  H   UNL A   1      39.824  30.455  31.492  1.00  0.00     0.167 HD
ATOM     27  C   UNL A   1      39.827  32.452  35.384  1.00  0.00     0.037 A 
ATOM     28  C   UNL A   1      40.705  28.593  29.607  1.00  0.00     0.037 A 
ATOM     29  C   UNL A   1      40.874  31.465  35.463  1.00  0.00     0.049 A 
ATOM     30  C   UNL A   1      41.581  28.420  30.814  1.00  0.00     0.074 A 
ATOM     31  C   UNL A   1      41.706  31.170  36.529  1.00  0.00     0.029 A 
ATOM     32  N   UNL A   1      41.235  30.613  34.429  1.00  0.00    -0.354 N 
ATOM     33  N   UNL A   1      41.528  29.037  31.969  1.00  0.00    -0.248 NA
ATOM     34  C   UNL A   1      42.655  27.425  30.709  1.00  0.00     0.031 C 
ATOM     35  C   UNL A   1      42.598  30.170  36.127  1.00  0.00     0.029 A 
ATOM     36  C   UNL A   1      42.294  29.809  34.825  1.00  0.00     0.049 A 
ATOM     37  H   UNL A   1      40.804  30.584  33.544  1.00  0.00     0.167 HD
ATOM     38  C   UNL A   1      42.548  28.495  32.736  1.00  0.00     0.074 A 
ATOM     39  C   UNL A   1      43.192  27.484  31.920  1.00  0.00     0.031 C 
ATOM     40  C   UNL A   1      42.922  28.809  34.000  1.00  0.00     0.037 A 
BRANCH  27  41
ATOM     41  C   UNL A   1      39.615  33.350  36.570  1.00  0.00     0.064 A 
ATOM     42  C   UNL A   1      40.257  34.592  36.679  1.00  0.00     0.173 A 
ATOM     43  C   UNL A   1      38.726  32.981  37.590  1.00  0.00     0.173 A 
ATOM     44  F   UNL A   1      41.125  34.989  35.735  1.00  0.00    -0.203 F 
ATOM     45  C   UNL A   1      40.035  35.421  37.776  1.00  0.00     0.198 A 
ATOM     46  C   UNL A   1      38.486  33.821  38.674  1.00  0.00     0.198 A 
ATOM     47  F   UNL A   1      38.080  31.806  37.532  1.00  0.00    -0.203 F 
ATOM     48  F   UNL A   1      40.691  36.585  37.879  1.00  0.00    -0.200 F 
ATOM     49  C   UNL A   1      39.145  35.038  38.769  1.00  0.00     0.200 A 
ATOM     50  F   UNL A   1      37.617  33.456  39.626  1.00  0.00    -0.200 F 
ATOM     51  F   UNL A   1      38.928  35.839  39.822  1.00  0.00    -0.200 F 
ENDBRANCH  27  41
BRANCH  28  52
ATOM     52  C   UNL A   1      40.882  27.748  28.401  1.00  0.00     0.064 A 
ATOM     53  C   UNL A   1      40.224  26.517  28.283  1.00  0.00     0.173 A 
ATOM     54  C   UNL A   1      41.694  28.160  27.334  1.00  0.00     0.173 A 
ATOM     55  F   UNL A   1      39.451  26.073  29.285  1.00  0.00    -0.203 F 
ATOM     56  C   UNL A   1      40.378  25.725  27.148  1.00  0.00     0.198 A 
ATOM     57  C   UNL A   1      41.827  27.381  26.189  1.00  0.00     0.198 A 
ATOM     58  F   UNL A   1      42.342  29.333  27.398  1.00  0.00    -0.203 F 
ATOM     59  F   UNL A   1      39.765  24.536  27.074  1.00  0.00    -0.200 F 
ATOM     60  C   UNL A   1      41.174  26.161  26.098  1.00  0.00     0.200 A 
ATOM     61  F   UNL A   1      42.583  27.813  25.170  1.00  0.00    -0.200 F 
ATOM     62  F   UNL A   1      41.313  25.404  25.002  1.00  0.00    -0.200 F 
ENDBRANCH  28  52
BRANCH  40  63
ATOM     63  C   UNL A   1      44.063  28.030  34.584  1.00  0.00     0.064 A 
ATOM     64  C   UNL A   1      45.390  28.467  34.457  1.00  0.00     0.173 A 
ATOM     65  C   UNL A   1      43.825  26.840  35.289  1.00  0.00     0.173 A 
ATOM     66  F   UNL A   1      45.670  29.588  33.776  1.00  0.00    -0.203 F 
ATOM     67  C   UNL A   1      46.440  27.726  34.992  1.00  0.00     0.198 A 
ATOM     68  C   UNL A   1      44.874  26.116  35.844  1.00  0.00     0.198 A 
ATOM     69  F   UNL A   1      42.572  26.383  35.439  1.00  0.00    -0.203 F 
ATOM     70  F   UNL A   1      47.704  28.134  34.816  1.00  0.00    -0.200 F 
ATOM     71  C   UNL A   1      46.181  26.554  35.690  1.00  0.00     0.200 A 
ATOM     72  F   UNL A   1      44.622  24.990  36.526  1.00  0.00    -0.200 F 
ATOM     73  F   UNL A   1      47.193  25.841  36.203  1.00  0.00    -0.200 F 
ENDBRANCH  40  63
ENDBRANCH  14  15
ENDBRANCH   7   9
ENDBRANCH   4   5
ENDBRANCH   3   4
ENDBRANCH   2   3
ENDBRANCH   1   2
BRANCH   1  74
ATOM     74  C   UNL A   1      31.775  28.795  27.513  1.00  0.00     0.021 C 
BRANCH  74  75
ATOM     75  C   UNL A   1      31.463  27.468  26.824  1.00  0.00     0.116 C 
BRANCH  75  76
ATOM     76  N   UNL A   1      32.669  26.736  26.486  1.00  0.00    -0.354 N 
ATOM     77  C   UNL A   1      33.048  26.178  25.301  1.00  0.00     0.242 C 
ATOM     78  H   UNL A   1      33.311  26.627  27.223  1.00  0.00     0.163 HD
ATOM     79  O   UNL A   1      34.069  25.484  25.288  1.00  0.00    -0.273 OA
BRANCH  77  80
ATOM     80  C   UNL A   1      32.213  26.407  24.027  1.00  0.00     0.177 C 
ATOM     81  C   UNL A   1      32.649  27.702  23.343  1.00  0.00     0.069 C 
ATOM     82  N   UNL A   1      32.464  25.346  23.047  1.00  0.00    -0.328 N 
ATOM     83  C   UNL A   1      33.707  27.253  22.343  1.00  0.00     0.136 C 
ATOM     84  C   UNL A   1      33.231  25.862  21.922  1.00  0.00     0.152 C 
BRANCH  82  85
ATOM     85  C   UNL A   1      31.915  24.106  23.253  1.00  0.00     0.228 C 
ATOM     86  O   UNL A   1      30.824  24.008  23.830  1.00  0.00    -0.274 OA
BRANCH  85  87
ATOM     87  C   UNL A   1      32.543  22.821  22.728  1.00  0.00     0.107 C 
ATOM     88  C   UNL A   1      31.778  21.524  22.924  1.00  0.00     0.115 C 
ATOM     89  C   UNL A   1      33.913  22.590  23.318  1.00  0.00     0.133 C 
ATOM     90  C   UNL A   1      32.557  20.791  23.989  1.00  0.00     0.223 C 
ATOM     91  N   UNL A   1      33.743  21.484  24.221  1.00  0.00    -0.339 N 
ATOM     92  O   UNL A   1      32.157  19.781  24.546  1.00  0.00    -0.275 OA
BRANCH  91  93
ATOM     93  C   UNL A   1      34.717  21.229  25.239  1.00  0.00     0.085 C 
ATOM     94  C   UNL A   1      35.856  20.275  25.002  1.00  0.00     0.027 C 
ATOM     95  C   UNL A   1      36.127  21.740  25.200  1.00  0.00     0.027 C 
ENDBRANCH  91  93
ENDBRANCH  85  87
ENDBRANCH  82  85
BRANCH  83  96
ATOM     96  O   UNL A   1      33.790  28.160  21.253  1.00  0.00    -0.391 OA
ATOM     97  H   UNL A   1      33.243  28.939  21.439  1.00  0.00     0.211 HD
ENDBRANCH  83  96
ENDBRANCH  77  80
ENDBRANCH  75  76
ENDBRANCH  74  75
ENDBRANCH   1  74
TORSDOF 17
ENDMDL
