MODEL 1
REMARK VINA RESULT:     -13.2      0.000      0.000
REMARK SMILES Cc1ccccc1-n1nc(Cl)c(C(=O)NCCCCCCNC(=O)c2ccc(-c3c4nc(c(-c5c(F)c(F)c(F)c(F)c5F)c5ccc([nH]5)c(-c5c(F)c(F)c(F)c(F)c5F)c5nc(c(-c6c(F)c(F)c(F)c(F)c6F)c6ccc3[nH]6)C=C5)C=C4)cc2)n1
REMARK SMILES IDX 19 1 18 2 17 3 16 4 15 5 13 6 14 7 12 9 8 10 9 11 88 12
REMARK SMILES IDX 10 13 11 14 7 15 1 16 2 17 3 18 4 19 6 20 5 21 20 22 21 23
REMARK SMILES IDX 22 24 23 25 24 27 25 28 26 29 87 30 27 31 86 32 28 33 29 34
REMARK SMILES IDX 30 35 80 36 31 37 85 38 79 39 81 40 32 41 84 42 78 43 77 44
REMARK SMILES IDX 33 46 65 47 45 48 64 49 46 50 49 51 63 52 82 53 47 54 48 55
REMARK SMILES IDX 62 57 83 58 50 59 34 60 35 61 43 62 36 63 37 64 41 65 44 66
REMARK SMILES IDX 38 67 39 68 42 69 40 70 66 71 67 72 75 73 68 74 69 75 73 76
REMARK SMILES IDX 76 77 70 78 71 79 74 80 72 81 51 82 52 83 60 84 53 85 54 86
REMARK SMILES IDX 58 87 61 88 55 89 56 90 59 91 57 92
REMARK H PARENT 15 8 22 26 81 45 49 56
REMARK Flexibility Score: inf
ROOT
ATOM      1  C   UNL A   1      32.216  29.208  27.252  1.00  0.00     0.002 C 
ENDROOT
BRANCH   1   2
ATOM      2  C   UNL A   1      31.978  28.549  25.884  1.00  0.00     0.002 C 
BRANCH   2   3
ATOM      3  C   UNL A   1      31.972  27.019  25.856  1.00  0.00     0.021 C 
BRANCH   3   4
ATOM      4  C   UNL A   1      30.646  26.371  25.456  1.00  0.00     0.116 C 
BRANCH   4   5
ATOM      5  N   UNL A   1      30.238  25.311  26.362  1.00  0.00    -0.351 N 
ATOM      6  C   UNL A   1      30.703  24.014  26.512  1.00  0.00     0.275 C 
ATOM      7  O   UNL A   1      30.144  23.306  27.338  1.00  0.00    -0.267 OA
ATOM      8  H   UNL A   1      29.505  25.555  26.972  1.00  0.00     0.163 HD
BRANCH   6   9
ATOM      9  C   UNL A   1      31.802  23.524  25.679  1.00  0.00     0.189 A 
ATOM     10  N   UNL A   1      33.724  22.892  25.071  1.00  0.00    -0.149 N 
ATOM     11  N   UNL A   1      33.103  23.093  23.884  1.00  0.00    -0.135 NA
ATOM     12  N   UNL A   1      32.960  23.059  26.172  1.00  0.00    -0.141 NA
ATOM     13  C   UNL A   1      31.865  23.414  24.276  1.00  0.00     0.184 A 
ATOM     14  Cl  UNL A   1      30.653  23.700  23.132  1.00  0.00    -0.058 Cl
BRANCH  10  15
ATOM     15  C   UNL A   1      35.128  22.705  25.194  1.00  0.00     0.089 A 
ATOM     16  C   UNL A   1      34.989  20.129  24.936  1.00  0.00     0.047 C 
ATOM     17  C   UNL A   1      35.712  21.418  25.234  1.00  0.00    -0.023 A 
ATOM     18  C   UNL A   1      37.083  21.315  25.528  1.00  0.00     0.006 A 
ATOM     19  C   UNL A   1      37.860  22.452  25.755  1.00  0.00     0.000 A 
ATOM     20  C   UNL A   1      35.927  23.849  25.375  1.00  0.00     0.030 A 
ATOM     21  C   UNL A   1      37.286  23.716  25.669  1.00  0.00     0.002 A 
ENDBRANCH  10  15
ENDBRANCH   6   9
ENDBRANCH   4   5
ENDBRANCH   3   4
ENDBRANCH   2   3
ENDBRANCH   1   2
BRANCH   1  22
ATOM     22  C   UNL A   1      32.882  30.583  27.234  1.00  0.00     0.021 C 
BRANCH  22  23
ATOM     23  C   UNL A   1      34.398  30.550  27.137  1.00  0.00     0.116 C 
BRANCH  23  24
ATOM     24  N   UNL A   1      35.066  31.347  28.161  1.00  0.00    -0.352 N 
ATOM     25  C   UNL A   1      36.024  30.982  29.091  1.00  0.00     0.251 C 
ATOM     26  H   UNL A   1      34.792  32.292  28.195  1.00  0.00     0.163 HD
ATOM     27  O   UNL A   1      36.399  31.782  29.942  1.00  0.00    -0.269 OA
BRANCH  25  28
ATOM     28  C   UNL A   1      36.736  29.694  28.927  1.00  0.00     0.039 A 
ATOM     29  C   UNL A   1      36.967  28.964  30.101  1.00  0.00     0.014 A 
ATOM     30  C   UNL A   1      37.484  29.454  27.784  1.00  0.00     0.014 A 
ATOM     31  C   UNL A   1      38.157  28.264  30.230  1.00  0.00     0.010 A 
ATOM     32  C   UNL A   1      38.726  28.896  27.954  1.00  0.00     0.010 A 
ATOM     33  C   UNL A   1      39.083  28.378  29.203  1.00  0.00    -0.014 A 
BRANCH  33  34
ATOM     34  C   UNL A   1      40.468  27.970  29.306  1.00  0.00     0.031 A 
ATOM     35  C   UNL A   1      40.825  26.648  28.779  1.00  0.00     0.074 A 
ATOM     36  C   UNL A   1      41.388  28.874  29.702  1.00  0.00     0.049 A 
ATOM     37  N   UNL A   1      41.933  26.044  29.016  1.00  0.00    -0.248 NA
ATOM     38  C   UNL A   1      39.902  25.863  27.966  1.00  0.00     0.031 C 
ATOM     39  C   UNL A   1      42.837  28.805  29.554  1.00  0.00     0.029 A 
ATOM     40  N   UNL A   1      41.180  29.999  30.519  1.00  0.00    -0.354 N 
ATOM     41  C   UNL A   1      42.000  24.958  28.173  1.00  0.00     0.074 A 
ATOM     42  C   UNL A   1      40.668  24.820  27.643  1.00  0.00     0.031 C 
ATOM     43  C   UNL A   1      43.404  29.609  30.469  1.00  0.00     0.029 A 
ATOM     44  C   UNL A   1      42.338  30.082  31.335  1.00  0.00     0.049 A 
ATOM     45  H   UNL A   1      40.401  30.599  30.523  1.00  0.00     0.167 HD
ATOM     46  C   UNL A   1      43.228  24.414  27.935  1.00  0.00     0.037 A 
ATOM     47  C   UNL A   1      42.242  29.825  32.676  1.00  0.00     0.037 A 
ATOM     48  C   UNL A   1      44.218  25.004  28.843  1.00  0.00     0.049 A 
ATOM     49  C   UNL A   1      43.001  28.587  33.120  1.00  0.00     0.074 A 
ATOM     50  C   UNL A   1      45.156  26.017  28.728  1.00  0.00     0.029 A 
ATOM     51  N   UNL A   1      44.073  24.774  30.200  1.00  0.00    -0.354 N 
ATOM     52  N   UNL A   1      43.552  27.735  32.301  1.00  0.00    -0.248 NA
ATOM     53  C   UNL A   1      43.125  28.171  34.517  1.00  0.00     0.031 C 
ATOM     54  C   UNL A   1      45.516  26.433  30.047  1.00  0.00     0.029 A 
ATOM     55  C   UNL A   1      44.819  25.655  30.956  1.00  0.00     0.049 A 
ATOM     56  H   UNL A   1      43.505  24.066  30.581  1.00  0.00     0.167 HD
ATOM     57  C   UNL A   1      44.066  26.684  33.005  1.00  0.00     0.074 A 
ATOM     58  C   UNL A   1      43.759  26.991  34.391  1.00  0.00     0.031 C 
ATOM     59  C   UNL A   1      44.686  25.625  32.405  1.00  0.00     0.037 A 
BRANCH  46  60
ATOM     60  C   UNL A   1      43.607  23.527  26.765  1.00  0.00     0.064 A 
ATOM     61  C   UNL A   1      43.155  22.188  26.735  1.00  0.00     0.173 A 
ATOM     62  C   UNL A   1      44.461  23.869  25.697  1.00  0.00     0.173 A 
ATOM     63  F   UNL A   1      42.282  21.725  27.640  1.00  0.00    -0.203 F 
ATOM     64  C   UNL A   1      43.584  21.265  25.776  1.00  0.00     0.198 A 
ATOM     65  C   UNL A   1      44.899  22.944  24.743  1.00  0.00     0.198 A 
ATOM     66  F   UNL A   1      44.899  25.111  25.495  1.00  0.00    -0.203 F 
ATOM     67  F   UNL A   1      43.139  20.002  25.826  1.00  0.00    -0.200 F 
ATOM     68  C   UNL A   1      44.471  21.638  24.791  1.00  0.00     0.200 A 
ATOM     69  F   UNL A   1      45.746  23.340  23.782  1.00  0.00    -0.200 F 
ATOM     70  F   UNL A   1      44.901  20.751  23.884  1.00  0.00    -0.200 F 
ENDBRANCH  46  60
BRANCH  47  71
ATOM     71  C   UNL A   1      40.933  30.282  33.228  1.00  0.00     0.064 A 
ATOM     72  C   UNL A   1      40.660  31.667  33.197  1.00  0.00     0.173 A 
ATOM     73  C   UNL A   1      39.842  29.411  33.322  1.00  0.00     0.173 A 
ATOM     74  F   UNL A   1      41.672  32.549  33.128  1.00  0.00    -0.203 F 
ATOM     75  C   UNL A   1      39.358  32.143  33.063  1.00  0.00     0.198 A 
ATOM     76  C   UNL A   1      38.537  29.897  33.230  1.00  0.00     0.198 A 
ATOM     77  F   UNL A   1      40.033  28.085  33.364  1.00  0.00    -0.203 F 
ATOM     78  F   UNL A   1      39.141  33.450  32.855  1.00  0.00    -0.200 F 
ATOM     79  C   UNL A   1      38.300  31.251  33.043  1.00  0.00     0.200 A 
ATOM     80  F   UNL A   1      37.509  29.035  33.209  1.00  0.00    -0.200 F 
ATOM     81  F   UNL A   1      37.057  31.691  32.798  1.00  0.00    -0.200 F 
ENDBRANCH  47  71
BRANCH  59  82
ATOM     82  C   UNL A   1      45.232  24.460  33.174  1.00  0.00     0.064 A 
ATOM     83  C   UNL A   1      44.429  23.370  33.543  1.00  0.00     0.173 A 
ATOM     84  C   UNL A   1      46.556  24.453  33.661  1.00  0.00     0.173 A 
ATOM     85  F   UNL A   1      43.139  23.317  33.181  1.00  0.00    -0.203 F 
ATOM     86  C   UNL A   1      44.936  22.317  34.306  1.00  0.00     0.198 A 
ATOM     87  C   UNL A   1      47.039  23.435  34.478  1.00  0.00     0.198 A 
ATOM     88  F   UNL A   1      47.429  25.417  33.333  1.00  0.00    -0.203 F 
ATOM     89  F   UNL A   1      44.157  21.262  34.579  1.00  0.00    -0.200 F 
ATOM     90  C   UNL A   1      46.234  22.357  34.784  1.00  0.00     0.200 A 
ATOM     91  F   UNL A   1      48.291  23.502  34.954  1.00  0.00    -0.200 F 
ATOM     92  F   UNL A   1      46.712  21.354  35.533  1.00  0.00    -0.200 F 
ENDBRANCH  59  82
ENDBRANCH  33  34
ENDBRANCH  25  28
ENDBRANCH  23  24
ENDBRANCH  22  23
ENDBRANCH   1  22
TORSDOF 14
ENDMDL
MODEL 2
REMARK VINA RESULT:     -13.1      2.135      3.873
REMARK SMILES Cc1ccccc1-n1nc(Cl)c(C(=O)NCCCCCCNC(=O)c2ccc(-c3c4nc(c(-c5c(F)c(F)c(F)c(F)c5F)c5ccc([nH]5)c(-c5c(F)c(F)c(F)c(F)c5F)c5nc(c(-c6c(F)c(F)c(F)c(F)c6F)c6ccc3[nH]6)C=C5)C=C4)cc2)n1
REMARK SMILES IDX 19 1 18 2 17 3 16 4 15 5 13 6 14 7 12 9 8 10 9 11 88 12
REMARK SMILES IDX 10 13 11 14 7 15 1 16 2 17 3 18 4 19 6 20 5 21 20 22 21 23
REMARK SMILES IDX 22 24 23 25 24 27 25 28 26 29 87 30 27 31 86 32 28 33 29 34
REMARK SMILES IDX 30 35 80 36 31 37 85 38 79 39 81 40 32 41 84 42 78 43 77 44
REMARK SMILES IDX 33 46 65 47 45 48 64 49 46 50 49 51 63 52 82 53 47 54 48 55
REMARK SMILES IDX 62 57 83 58 50 59 34 60 35 61 43 62 36 63 37 64 41 65 44 66
REMARK SMILES IDX 38 67 39 68 42 69 40 70 66 71 67 72 75 73 68 74 69 75 73 76
REMARK SMILES IDX 76 77 70 78 71 79 74 80 72 81 51 82 52 83 60 84 53 85 54 86
REMARK SMILES IDX 58 87 61 88 55 89 56 90 59 91 57 92
REMARK H PARENT 15 8 22 26 81 45 49 56
REMARK Flexibility Score: inf
ROOT
ATOM      1  C   UNL A   1      34.429  28.535  26.723  1.00  0.00     0.002 C 
ENDROOT
BRANCH   1   2
ATOM      2  C   UNL A   1      33.272  27.621  26.293  1.00  0.00     0.002 C 
BRANCH   2   3
ATOM      3  C   UNL A   1      33.568  26.635  25.160  1.00  0.00     0.021 C 
BRANCH   3   4
ATOM      4  C   UNL A   1      34.064  27.257  23.855  1.00  0.00     0.116 C 
BRANCH   4   5
ATOM      5  N   UNL A   1      33.855  26.398  22.702  1.00  0.00    -0.351 N 
ATOM      6  C   UNL A   1      32.700  26.079  22.003  1.00  0.00     0.275 C 
ATOM      7  O   UNL A   1      32.801  25.283  21.080  1.00  0.00    -0.267 OA
ATOM      8  H   UNL A   1      34.672  25.968  22.359  1.00  0.00     0.163 HD
BRANCH   6   9
ATOM      9  C   UNL A   1      31.417  26.662  22.397  1.00  0.00     0.189 A 
ATOM     10  N   UNL A   1      29.877  28.069  22.732  1.00  0.00    -0.149 N 
ATOM     11  N   UNL A   1      29.463  27.013  23.473  1.00  0.00    -0.135 NA
ATOM     12  N   UNL A   1      30.999  27.876  22.007  1.00  0.00    -0.141 NA
ATOM     13  C   UNL A   1      30.399  26.100  23.192  1.00  0.00     0.184 A 
ATOM     14  Cl  UNL A   1      30.293  24.540  23.837  1.00  0.00    -0.058 Cl
BRANCH  10  15
ATOM     15  C   UNL A   1      29.303  29.365  22.834  1.00  0.00     0.089 A 
ATOM     16  C   UNL A   1      30.907  30.121  24.726  1.00  0.00     0.047 C 
ATOM     17  C   UNL A   1      29.709  30.288  23.826  1.00  0.00    -0.023 A 
ATOM     18  C   UNL A   1      28.977  31.480  23.969  1.00  0.00     0.006 A 
ATOM     19  C   UNL A   1      27.890  31.764  23.141  1.00  0.00     0.000 A 
ATOM     20  C   UNL A   1      28.237  29.680  21.972  1.00  0.00     0.030 A 
ATOM     21  C   UNL A   1      27.527  30.870  22.138  1.00  0.00     0.002 A 
ENDBRANCH  10  15
ENDBRANCH   6   9
ENDBRANCH   4   5
ENDBRANCH   3   4
ENDBRANCH   2   3
ENDBRANCH   1   2
BRANCH   1  22
ATOM     22  C   UNL A   1      34.104  30.024  26.848  1.00  0.00     0.021 C 
BRANCH  22  23
ATOM     23  C   UNL A   1      34.253  30.588  28.250  1.00  0.00     0.116 C 
BRANCH  23  24
ATOM     24  N   UNL A   1      35.348  31.544  28.382  1.00  0.00    -0.352 N 
ATOM     25  C   UNL A   1      36.695  31.328  28.615  1.00  0.00     0.251 C 
ATOM     26  H   UNL A   1      35.088  32.488  28.289  1.00  0.00     0.163 HD
ATOM     27  O   UNL A   1      37.454  32.276  28.791  1.00  0.00    -0.269 OA
BRANCH  25  28
ATOM     28  C   UNL A   1      37.248  29.964  28.454  1.00  0.00     0.039 A 
ATOM     29  C   UNL A   1      37.399  29.216  29.629  1.00  0.00     0.014 A 
ATOM     30  C   UNL A   1      37.955  29.632  27.307  1.00  0.00     0.014 A 
ATOM     31  C   UNL A   1      38.498  28.380  29.753  1.00  0.00     0.010 A 
ATOM     32  C   UNL A   1      39.123  28.932  27.471  1.00  0.00     0.010 A 
ATOM     33  C   UNL A   1      39.425  28.380  28.720  1.00  0.00    -0.014 A 
BRANCH  33  34
ATOM     34  C   UNL A   1      40.752  27.810  28.817  1.00  0.00     0.031 A 
ATOM     35  C   UNL A   1      40.894  26.375  28.547  1.00  0.00     0.074 A 
ATOM     36  C   UNL A   1      41.809  28.637  28.963  1.00  0.00     0.049 A 
ATOM     37  N   UNL A   1      41.936  25.680  28.832  1.00  0.00    -0.248 NA
ATOM     38  C   UNL A   1      39.812  25.585  27.970  1.00  0.00     0.031 C 
ATOM     39  C   UNL A   1      43.219  28.340  28.740  1.00  0.00     0.029 A 
ATOM     40  N   UNL A   1      41.816  29.916  29.546  1.00  0.00    -0.354 N 
ATOM     41  C   UNL A   1      41.792  24.453  28.223  1.00  0.00     0.074 A 
ATOM     42  C   UNL A   1      40.411  24.403  27.818  1.00  0.00     0.031 C 
ATOM     43  C   UNL A   1      43.961  29.217  29.437  1.00  0.00     0.029 A 
ATOM     44  C   UNL A   1      43.043  29.993  30.254  1.00  0.00     0.049 A 
ATOM     45  H   UNL A   1      41.120  30.608  29.478  1.00  0.00     0.167 HD
ATOM     46  C   UNL A   1      42.917  23.709  28.024  1.00  0.00     0.037 A 
ATOM     47  C   UNL A   1      43.036  30.014  31.622  1.00  0.00     0.037 A 
ATOM     48  C   UNL A   1      44.049  24.319  28.729  1.00  0.00     0.049 A 
ATOM     49  C   UNL A   1      43.672  28.792  32.260  1.00  0.00     0.074 A 
ATOM     50  C   UNL A   1      45.092  25.149  28.352  1.00  0.00     0.029 A 
ATOM     51  N   UNL A   1      43.999  24.377  30.111  1.00  0.00    -0.354 N 
ATOM     52  N   UNL A   1      44.038  27.729  31.597  1.00  0.00    -0.248 NA
ATOM     53  C   UNL A   1      43.869  28.639  33.701  1.00  0.00     0.031 C 
ATOM     54  C   UNL A   1      45.617  25.758  29.535  1.00  0.00     0.029 A 
ATOM     55  C   UNL A   1      44.913  25.274  30.624  1.00  0.00     0.049 A 
ATOM     56  H   UNL A   1      43.384  23.841  30.663  1.00  0.00     0.167 HD
ATOM     57  C   UNL A   1      44.479  26.772  32.466  1.00  0.00     0.074 A 
ATOM     58  C   UNL A   1      44.337  27.381  33.777  1.00  0.00     0.031 C 
ATOM     59  C   UNL A   1      44.907  25.542  32.055  1.00  0.00     0.037 A 
BRANCH  46  60
ATOM     60  C   UNL A   1      43.076  22.569  27.037  1.00  0.00     0.064 A 
ATOM     61  C   UNL A   1      42.349  21.373  27.234  1.00  0.00     0.173 A 
ATOM     62  C   UNL A   1      43.964  22.527  25.943  1.00  0.00     0.173 A 
ATOM     63  F   UNL A   1      41.414  21.273  28.189  1.00  0.00    -0.203 F 
ATOM     64  C   UNL A   1      42.555  20.225  26.462  1.00  0.00     0.198 A 
ATOM     65  C   UNL A   1      44.178  21.377  25.176  1.00  0.00     0.198 A 
ATOM     66  F   UNL A   1      44.653  23.592  25.533  1.00  0.00    -0.203 F 
ATOM     67  F   UNL A   1      41.852  19.115  26.725  1.00  0.00    -0.200 F 
ATOM     68  C   UNL A   1      43.483  20.221  25.444  1.00  0.00     0.200 A 
ATOM     69  F   UNL A   1      45.072  21.407  24.177  1.00  0.00    -0.200 F 
ATOM     70  F   UNL A   1      43.698  19.117  24.716  1.00  0.00    -0.200 F 
ENDBRANCH  46  60
BRANCH  47  71
ATOM     71  C   UNL A   1      41.848  30.747  32.152  1.00  0.00     0.064 A 
ATOM     72  C   UNL A   1      41.758  32.128  31.874  1.00  0.00     0.173 A 
ATOM     73  C   UNL A   1      40.665  30.073  32.470  1.00  0.00     0.173 A 
ATOM     74  F   UNL A   1      42.866  32.828  31.582  1.00  0.00    -0.203 F 
ATOM     75  C   UNL A   1      40.522  32.755  31.727  1.00  0.00     0.198 A 
ATOM     76  C   UNL A   1      39.431  30.717  32.363  1.00  0.00     0.198 A 
ATOM     77  F   UNL A   1      40.683  28.763  32.753  1.00  0.00    -0.203 F 
ATOM     78  F   UNL A   1      40.462  34.020  31.288  1.00  0.00    -0.200 F 
ATOM     79  C   UNL A   1      39.358  32.036  31.937  1.00  0.00     0.200 A 
ATOM     80  F   UNL A   1      38.301  30.023  32.564  1.00  0.00    -0.200 F 
ATOM     81  F   UNL A   1      38.168  32.598  31.684  1.00  0.00    -0.200 F 
ENDBRANCH  47  71
BRANCH  59  82
ATOM     82  C   UNL A   1      45.371  24.482  33.008  1.00  0.00     0.064 A 
ATOM     83  C   UNL A   1      44.520  23.462  33.457  1.00  0.00     0.173 A 
ATOM     84  C   UNL A   1      46.657  24.524  33.588  1.00  0.00     0.173 A 
ATOM     85  F   UNL A   1      43.258  23.377  33.011  1.00  0.00    -0.203 F 
ATOM     86  C   UNL A   1      44.948  22.513  34.387  1.00  0.00     0.198 A 
ATOM     87  C   UNL A   1      47.057  23.617  34.564  1.00  0.00     0.198 A 
ATOM     88  F   UNL A   1      47.571  25.425  33.201  1.00  0.00    -0.203 F 
ATOM     89  F   UNL A   1      44.129  21.513  34.738  1.00  0.00    -0.200 F 
ATOM     90  C   UNL A   1      46.209  22.599  34.950  1.00  0.00     0.200 A 
ATOM     91  F   UNL A   1      48.273  23.731  35.119  1.00  0.00    -0.200 F 
ATOM     92  F   UNL A   1      46.610  21.699  35.857  1.00  0.00    -0.200 F 
ENDBRANCH  59  82
ENDBRANCH  33  34
ENDBRANCH  25  28
ENDBRANCH  23  24
ENDBRANCH  22  23
ENDBRANCH   1  22
TORSDOF 14
ENDMDL
MODEL 3
REMARK VINA RESULT:     -13.0      1.789      2.490
REMARK SMILES Cc1ccccc1-n1nc(Cl)c(C(=O)NCCCCCCNC(=O)c2ccc(-c3c4nc(c(-c5c(F)c(F)c(F)c(F)c5F)c5ccc([nH]5)c(-c5c(F)c(F)c(F)c(F)c5F)c5nc(c(-c6c(F)c(F)c(F)c(F)c6F)c6ccc3[nH]6)C=C5)C=C4)cc2)n1
REMARK SMILES IDX 19 1 18 2 17 3 16 4 15 5 13 6 14 7 12 9 8 10 9 11 88 12
REMARK SMILES IDX 10 13 11 14 7 15 1 16 2 17 3 18 4 19 6 20 5 21 20 22 21 23
REMARK SMILES IDX 22 24 23 25 24 27 25 28 26 29 87 30 27 31 86 32 28 33 29 34
REMARK SMILES IDX 30 35 80 36 31 37 85 38 79 39 81 40 32 41 84 42 78 43 77 44
REMARK SMILES IDX 33 46 65 47 45 48 64 49 46 50 49 51 63 52 82 53 47 54 48 55
REMARK SMILES IDX 62 57 83 58 50 59 34 60 35 61 43 62 36 63 37 64 41 65 44 66
REMARK SMILES IDX 38 67 39 68 42 69 40 70 66 71 67 72 75 73 68 74 69 75 73 76
REMARK SMILES IDX 76 77 70 78 71 79 74 80 72 81 51 82 52 83 60 84 53 85 54 86
REMARK SMILES IDX 58 87 61 88 55 89 56 90 59 91 57 92
REMARK H PARENT 15 8 22 26 81 45 49 56
REMARK Flexibility Score: inf
ROOT
ATOM      1  C   UNL A   1      33.232  28.253  26.406  1.00  0.00     0.002 C 
ENDROOT
BRANCH   1   2
ATOM      2  C   UNL A   1      33.814  27.421  25.253  1.00  0.00     0.002 C 
BRANCH   2   3
ATOM      3  C   UNL A   1      33.969  28.136  23.908  1.00  0.00     0.021 C 
BRANCH   3   4
ATOM      4  C   UNL A   1      32.734  28.124  23.006  1.00  0.00     0.116 C 
BRANCH   4   5
ATOM      5  N   UNL A   1      32.938  27.374  21.778  1.00  0.00    -0.351 N 
ATOM      6  C   UNL A   1      32.820  26.019  21.510  1.00  0.00     0.275 C 
ATOM      7  O   UNL A   1      33.094  25.642  20.379  1.00  0.00    -0.267 OA
ATOM      8  H   UNL A   1      33.205  27.922  21.005  1.00  0.00     0.163 HD
BRANCH   6   9
ATOM      9  C   UNL A   1      32.413  25.092  22.567  1.00  0.00     0.189 A 
ATOM     10  N   UNL A   1      32.351  23.397  23.827  1.00  0.00    -0.149 N 
ATOM     11  N   UNL A   1      31.150  23.975  24.068  1.00  0.00    -0.135 NA
ATOM     12  N   UNL A   1      33.173  24.073  22.997  1.00  0.00    -0.141 NA
ATOM     13  C   UNL A   1      31.230  25.088  23.330  1.00  0.00     0.184 A 
ATOM     14  Cl  UNL A   1      29.971  26.217  23.345  1.00  0.00    -0.058 Cl
BRANCH  10  15
ATOM     15  C   UNL A   1      32.680  22.080  24.247  1.00  0.00     0.089 A 
ATOM     16  C   UNL A   1      31.921  20.986  22.023  1.00  0.00     0.047 C 
ATOM     17  C   UNL A   1      32.390  20.946  23.455  1.00  0.00    -0.023 A 
ATOM     18  C   UNL A   1      32.591  19.671  24.014  1.00  0.00     0.006 A 
ATOM     19  C   UNL A   1      33.085  19.521  25.310  1.00  0.00     0.000 A 
ATOM     20  C   UNL A   1      33.225  21.921  25.535  1.00  0.00     0.030 A 
ATOM     21  C   UNL A   1      33.411  20.643  26.065  1.00  0.00     0.002 A 
ENDBRANCH  10  15
ENDBRANCH   6   9
ENDBRANCH   4   5
ENDBRANCH   3   4
ENDBRANCH   2   3
ENDBRANCH   1   2
BRANCH   1  22
ATOM     22  C   UNL A   1      33.512  29.755  26.365  1.00  0.00     0.021 C 
BRANCH  22  23
ATOM     23  C   UNL A   1      33.153  30.499  27.639  1.00  0.00     0.116 C 
BRANCH  23  24
ATOM     24  N   UNL A   1      34.076  31.585  27.961  1.00  0.00    -0.352 N 
ATOM     25  C   UNL A   1      35.363  31.539  28.466  1.00  0.00     0.251 C 
ATOM     26  H   UNL A   1      33.727  32.489  27.791  1.00  0.00     0.163 HD
ATOM     27  O   UNL A   1      35.950  32.574  28.764  1.00  0.00    -0.269 OA
BRANCH  25  28
ATOM     28  C   UNL A   1      36.099  30.254  28.457  1.00  0.00     0.039 A 
ATOM     29  C   UNL A   1      36.365  29.686  29.711  1.00  0.00     0.014 A 
ATOM     30  C   UNL A   1      36.831  29.880  27.340  1.00  0.00     0.014 A 
ATOM     31  C   UNL A   1      37.571  29.030  29.906  1.00  0.00     0.010 A 
ATOM     32  C   UNL A   1      38.087  29.371  27.557  1.00  0.00     0.010 A 
ATOM     33  C   UNL A   1      38.476  29.027  28.855  1.00  0.00    -0.014 A 
BRANCH  33  34
ATOM     34  C   UNL A   1      39.871  28.660  28.983  1.00  0.00     0.031 A 
ATOM     35  C   UNL A   1      40.242  27.280  28.648  1.00  0.00     0.074 A 
ATOM     36  C   UNL A   1      40.782  29.628  29.219  1.00  0.00     0.049 A 
ATOM     37  N   UNL A   1      41.366  26.737  28.944  1.00  0.00    -0.248 NA
ATOM     38  C   UNL A   1      39.316  26.370  27.983  1.00  0.00     0.031 C 
ATOM     39  C   UNL A   1      42.228  29.561  29.046  1.00  0.00     0.029 A 
ATOM     40  N   UNL A   1      40.571  30.858  29.865  1.00  0.00    -0.354 N 
ATOM     41  C   UNL A   1      41.436  25.538  28.269  1.00  0.00     0.074 A 
ATOM     42  C   UNL A   1      40.095  25.303  27.799  1.00  0.00     0.031 C 
ATOM     43  C   UNL A   1      42.800  30.499  29.818  1.00  0.00     0.029 A 
ATOM     44  C   UNL A   1      41.744  31.079  30.631  1.00  0.00     0.049 A 
ATOM     45  H   UNL A   1      39.780  31.439  29.800  1.00  0.00     0.167 HD
ATOM     46  C   UNL A   1      42.668  24.985  28.084  1.00  0.00     0.037 A 
ATOM     47  C   UNL A   1      41.683  31.021  31.997  1.00  0.00     0.037 A 
ATOM     48  C   UNL A   1      43.666  25.719  28.870  1.00  0.00     0.049 A 
ATOM     49  C   UNL A   1      42.475  29.875  32.600  1.00  0.00     0.074 A 
ATOM     50  C   UNL A   1      44.582  26.718  28.583  1.00  0.00     0.029 A 
ATOM     51  N   UNL A   1      43.556  25.690  30.249  1.00  0.00    -0.354 N 
ATOM     52  N   UNL A   1      43.024  28.920  31.902  1.00  0.00    -0.248 NA
ATOM     53  C   UNL A   1      42.639  29.673  34.040  1.00  0.00     0.031 C 
ATOM     54  C   UNL A   1      44.963  27.330  29.817  1.00  0.00     0.029 A 
ATOM     55  C   UNL A   1      44.301  26.684  30.848  1.00  0.00     0.049 A 
ATOM     56  H   UNL A   1      43.011  25.037  30.744  1.00  0.00     0.167 HD
ATOM     57  C   UNL A   1      43.575  27.993  32.741  1.00  0.00     0.074 A 
ATOM     58  C   UNL A   1      43.292  28.497  34.073  1.00  0.00     0.031 C 
ATOM     59  C   UNL A   1      44.202  26.867  32.288  1.00  0.00     0.037 A 
BRANCH  46  60
ATOM     60  C   UNL A   1      43.038  23.941  27.049  1.00  0.00     0.064 A 
ATOM     61  C   UNL A   1      42.667  22.593  27.259  1.00  0.00     0.173 A 
ATOM     62  C   UNL A   1      43.812  24.148  25.890  1.00  0.00     0.173 A 
ATOM     63  F   UNL A   1      41.872  22.238  28.278  1.00  0.00    -0.203 F 
ATOM     64  C   UNL A   1      43.100  21.550  26.434  1.00  0.00     0.198 A 
ATOM     65  C   UNL A   1      44.255  23.105  25.069  1.00  0.00     0.198 A 
ATOM     66  F   UNL A   1      44.163  25.362  25.466  1.00  0.00    -0.203 F 
ATOM     67  F   UNL A   1      42.735  20.291  26.711  1.00  0.00    -0.200 F 
ATOM     68  C   UNL A   1      43.910  21.804  25.350  1.00  0.00     0.200 A 
ATOM     69  F   UNL A   1      45.025  23.382  24.007  1.00  0.00    -0.200 F 
ATOM     70  F   UNL A   1      44.344  20.805  24.570  1.00  0.00    -0.200 F 
ENDBRANCH  46  60
BRANCH  47  71
ATOM     71  C   UNL A   1      40.378  31.535  32.508  1.00  0.00     0.064 A 
ATOM     72  C   UNL A   1      40.062  32.886  32.247  1.00  0.00     0.173 A 
ATOM     73  C   UNL A   1      39.318  30.666  32.789  1.00  0.00     0.173 A 
ATOM     74  F   UNL A   1      41.043  33.767  31.992  1.00  0.00    -0.203 F 
ATOM     75  C   UNL A   1      38.742  33.298  32.080  1.00  0.00     0.198 A 
ATOM     76  C   UNL A   1      37.996  31.095  32.662  1.00  0.00     0.198 A 
ATOM     77  F   UNL A   1      39.551  29.372  33.054  1.00  0.00    -0.203 F 
ATOM     78  F   UNL A   1      38.478  34.543  31.658  1.00  0.00    -0.200 F 
ATOM     79  C   UNL A   1      37.711  32.390  32.252  1.00  0.00     0.200 A 
ATOM     80  F   UNL A   1      36.995  30.218  32.826  1.00  0.00    -0.200 F 
ATOM     81  F   UNL A   1      36.449  32.749  31.979  1.00  0.00    -0.200 F 
ENDBRANCH  47  71
BRANCH  59  82
ATOM     82  C   UNL A   1      44.787  25.837  33.207  1.00  0.00     0.064 A 
ATOM     83  C   UNL A   1      46.159  25.547  33.221  1.00  0.00     0.173 A 
ATOM     84  C   UNL A   1      43.970  25.030  34.027  1.00  0.00     0.173 A 
ATOM     85  F   UNL A   1      47.009  26.217  32.429  1.00  0.00    -0.203 F 
ATOM     86  C   UNL A   1      46.684  24.548  34.042  1.00  0.00     0.198 A 
ATOM     87  C   UNL A   1      44.487  23.991  34.793  1.00  0.00     0.198 A 
ATOM     88  F   UNL A   1      42.650  25.248  34.131  1.00  0.00    -0.203 F 
ATOM     89  F   UNL A   1      48.008  24.348  34.078  1.00  0.00    -0.200 F 
ATOM     90  C   UNL A   1      45.848  23.762  34.816  1.00  0.00     0.200 A 
ATOM     91  F   UNL A   1      43.660  23.223  35.517  1.00  0.00    -0.200 F 
ATOM     92  F   UNL A   1      46.352  22.791  35.588  1.00  0.00    -0.200 F 
ENDBRANCH  59  82
ENDBRANCH  33  34
ENDBRANCH  25  28
ENDBRANCH  23  24
ENDBRANCH  22  23
ENDBRANCH   1  22
TORSDOF 14
ENDMDL
