MODEL 1
REMARK VINA RESULT:     -11.4      0.000      0.000
REMARK SMILES CC(C)(O)CC[C@@H](C(=O)NCCCCCCNC(=O)c1ccc(-c2c3nc(c(-c4c(F)c(F)c(F)c(F)c4F)c4ccc([nH]4)c(-c4c(F)c(F)c(F)c(F)c4F)c4nc(c(-c5c(F)c(F)c(F)c(F)c5F)c5ccc2[nH]5)C=C4)C=C3)cc1)[C@@H]1CCS(=O)(=O)C1
REMARK SMILES IDX 12 1 11 2 10 3 8 4 9 5 7 7 6 8 5 9 2 10 1 11 3 12 4 13 83 15
REMARK SMILES IDX 84 16 89 17 85 18 86 19 87 20 88 21 13 22 14 23 15 24 16 25
REMARK SMILES IDX 17 26 18 27 19 29 20 30 21 31 82 32 22 33 81 34 23 35 24 36
REMARK SMILES IDX 25 37 75 38 26 39 80 40 74 41 76 42 27 43 79 44 73 45 72 46
REMARK SMILES IDX 28 48 60 49 40 50 59 51 41 52 44 53 58 54 77 55 42 56 43 57
REMARK SMILES IDX 57 59 78 60 45 61 29 62 30 63 38 64 31 65 32 66 36 67 39 68
REMARK SMILES IDX 33 69 34 70 37 71 35 72 61 73 62 74 70 75 63 76 64 77 68 78
REMARK SMILES IDX 71 79 65 80 66 81 69 82 67 83 46 84 47 85 55 86 48 87 49 88
REMARK SMILES IDX 53 89 56 90 50 91 51 92 54 93 52 94
REMARK H PARENT 10 6 4 14 17 28 76 47 44 58
REMARK Flexibility Score: inf
ROOT
ATOM      1  C   UNL A   1      33.227  29.359  26.260  1.00  0.00     0.021 C 
ENDROOT
BRANCH   1   2
ATOM      2  C   UNL A   1      33.355  27.937  26.813  1.00  0.00     0.116 C 
BRANCH   2   3
ATOM      3  N   UNL A   1      32.069  27.302  26.958  1.00  0.00    -0.356 N 
ATOM      4  C   UNL A   1      31.224  26.730  26.062  1.00  0.00     0.223 C 
ATOM      5  O   UNL A   1      30.205  26.239  26.558  1.00  0.00    -0.275 OA
ATOM      6  H   UNL A   1      31.740  27.277  27.886  1.00  0.00     0.163 HD
BRANCH   4   7
ATOM      7  C   UNL A   1      31.533  26.636  24.533  1.00  0.00     0.082 C 
BRANCH   7   8
ATOM      8  C   UNL A   1      30.480  27.359  23.663  1.00  0.00     0.017 C 
BRANCH   8   9
ATOM      9  C   UNL A   1      30.229  28.879  23.734  1.00  0.00     0.035 C 
BRANCH   9  10
ATOM     10  C   UNL A   1      29.185  29.648  22.877  1.00  0.00     0.059 C 
ATOM     11  C   UNL A   1      28.863  31.108  23.198  1.00  0.00     0.042 C 
ATOM     12  C   UNL A   1      27.869  28.851  22.925  1.00  0.00     0.042 C 
BRANCH  10  13
ATOM     13  O   UNL A   1      29.655  29.627  21.528  1.00  0.00    -0.390 OA
ATOM     14  H   UNL A   1      30.065  28.768  21.341  1.00  0.00     0.211 HD
ENDBRANCH  10  13
ENDBRANCH   9  10
ENDBRANCH   8   9
ENDBRANCH   7   8
BRANCH   7  15
ATOM     15  C   UNL A   1      31.705  25.091  24.158  1.00  0.00     0.017 C 
ATOM     16  C   UNL A   1      33.078  24.526  24.584  1.00  0.00     0.021 C 
ATOM     17  C   UNL A   1      31.538  24.635  22.693  1.00  0.00     0.141 C 
ATOM     18  C   UNL A   1      34.078  24.812  23.473  1.00  0.00     0.137 C 
ATOM     19  S   UNL A   1      33.169  24.643  21.952  1.00  0.00     0.150 S 
ATOM     20  O   UNL A   1      33.347  25.844  21.169  1.00  0.00    -0.229 OA
ATOM     21  O   UNL A   1      33.435  23.329  21.398  1.00  0.00    -0.229 OA
ENDBRANCH   7  15
ENDBRANCH   4   7
ENDBRANCH   2   3
ENDBRANCH   1   2
BRANCH   1  22
ATOM     22  C   UNL A   1      32.263  30.240  27.051  1.00  0.00     0.002 C 
BRANCH  22  23
ATOM     23  C   UNL A   1      31.363  31.132  26.185  1.00  0.00     0.002 C 
BRANCH  23  24
ATOM     24  C   UNL A   1      31.383  32.627  26.525  1.00  0.00     0.021 C 
BRANCH  24  25
ATOM     25  C   UNL A   1      32.635  33.104  27.256  1.00  0.00     0.116 C 
BRANCH  25  26
ATOM     26  N   UNL A   1      32.485  34.465  27.746  1.00  0.00    -0.352 N 
ATOM     27  C   UNL A   1      33.058  35.078  28.831  1.00  0.00     0.251 C 
ATOM     28  H   UNL A   1      31.879  35.034  27.218  1.00  0.00     0.163 HD
ATOM     29  O   UNL A   1      32.615  36.146  29.239  1.00  0.00    -0.269 OA
BRANCH  27  30
ATOM     30  C   UNL A   1      34.205  34.449  29.515  1.00  0.00     0.039 A 
ATOM     31  C   UNL A   1      33.981  33.746  30.702  1.00  0.00     0.014 A 
ATOM     32  C   UNL A   1      35.500  34.572  29.003  1.00  0.00     0.014 A 
ATOM     33  C   UNL A   1      35.048  33.113  31.341  1.00  0.00     0.010 A 
ATOM     34  C   UNL A   1      36.548  33.878  29.600  1.00  0.00     0.010 A 
ATOM     35  C   UNL A   1      36.333  33.142  30.774  1.00  0.00    -0.014 A 
BRANCH  35  36
ATOM     36  C   UNL A   1      37.458  32.389  31.384  1.00  0.00     0.031 A 
ATOM     37  C   UNL A   1      37.986  32.774  32.735  1.00  0.00     0.074 A 
ATOM     38  C   UNL A   1      38.049  31.402  30.684  1.00  0.00     0.049 A 
ATOM     39  N   UNL A   1      39.006  32.286  33.397  1.00  0.00    -0.248 NA
ATOM     40  C   UNL A   1      37.296  33.874  33.425  1.00  0.00     0.031 C 
ATOM     41  C   UNL A   1      37.657  30.971  29.341  1.00  0.00     0.029 A 
ATOM     42  N   UNL A   1      39.114  30.595  30.994  1.00  0.00    -0.354 N 
ATOM     43  C   UNL A   1      39.081  33.022  34.572  1.00  0.00     0.074 A 
ATOM     44  C   UNL A   1      38.045  34.029  34.505  1.00  0.00     0.031 C 
ATOM     45  C   UNL A   1      38.462  29.972  28.949  1.00  0.00     0.029 A 
ATOM     46  C   UNL A   1      39.454  29.722  29.990  1.00  0.00     0.049 A 
ATOM     47  H   UNL A   1      39.590  30.639  31.855  1.00  0.00     0.167 HD
ATOM     48  C   UNL A   1      39.923  32.855  35.620  1.00  0.00     0.037 A 
ATOM     49  C   UNL A   1      40.463  28.836  29.908  1.00  0.00     0.037 A 
ATOM     50  C   UNL A   1      40.951  31.847  35.679  1.00  0.00     0.049 A 
ATOM     51  C   UNL A   1      41.405  28.686  31.072  1.00  0.00     0.074 A 
ATOM     52  C   UNL A   1      41.819  31.559  36.716  1.00  0.00     0.029 A 
ATOM     53  N   UNL A   1      41.259  30.972  34.645  1.00  0.00    -0.354 N 
ATOM     54  N   UNL A   1      41.417  29.333  32.212  1.00  0.00    -0.248 NA
ATOM     55  C   UNL A   1      42.467  27.681  30.940  1.00  0.00     0.031 C 
ATOM     56  C   UNL A   1      42.694  30.554  36.288  1.00  0.00     0.029 A 
ATOM     57  C   UNL A   1      42.328  30.167  35.008  1.00  0.00     0.049 A 
ATOM     58  H   UNL A   1      40.787  30.929  33.783  1.00  0.00     0.167 HD
ATOM     59  C   UNL A   1      42.472  28.800  32.941  1.00  0.00     0.074 A 
ATOM     60  C   UNL A   1      43.063  27.764  32.122  1.00  0.00     0.031 C 
ATOM     61  C   UNL A   1      42.911  29.141  34.178  1.00  0.00     0.037 A 
BRANCH  48  62
ATOM     62  C   UNL A   1      39.773  33.794  36.786  1.00  0.00     0.064 A 
ATOM     63  C   UNL A   1      38.956  33.483  37.884  1.00  0.00     0.173 A 
ATOM     64  C   UNL A   1      40.464  35.015  36.812  1.00  0.00     0.173 A 
ATOM     65  F   UNL A   1      38.265  32.333  37.909  1.00  0.00    -0.203 F 
ATOM     66  C   UNL A   1      38.804  34.376  38.943  1.00  0.00     0.198 A 
ATOM     67  C   UNL A   1      40.338  35.888  37.890  1.00  0.00     0.198 A 
ATOM     68  F   UNL A   1      41.266  35.362  35.794  1.00  0.00    -0.203 F 
ATOM     69  F   UNL A   1      37.966  34.084  39.948  1.00  0.00    -0.200 F 
ATOM     70  C   UNL A   1      39.499  35.575  38.947  1.00  0.00     0.200 A 
ATOM     71  F   UNL A   1      41.025  37.040  37.900  1.00  0.00    -0.200 F 
ATOM     72  F   UNL A   1      39.352  36.433  39.966  1.00  0.00    -0.200 F 
ENDBRANCH  48  62
BRANCH  49  73
ATOM     73  C   UNL A   1      40.628  28.022  28.673  1.00  0.00     0.064 A 
ATOM     74  C   UNL A   1      39.991  26.784  28.530  1.00  0.00     0.173 A 
ATOM     75  C   UNL A   1      41.416  28.478  27.604  1.00  0.00     0.173 A 
ATOM     76  F   UNL A   1      39.241  26.296  29.530  1.00  0.00    -0.203 F 
ATOM     77  C   UNL A   1      40.145  26.024  27.372  1.00  0.00     0.198 A 
ATOM     78  C   UNL A   1      41.544  27.733  26.435  1.00  0.00     0.198 A 
ATOM     79  F   UNL A   1      42.041  29.661  27.687  1.00  0.00    -0.203 F 
ATOM     80  F   UNL A   1      39.557  24.824  27.277  1.00  0.00    -0.200 F 
ATOM     81  C   UNL A   1      40.915  26.502  26.323  1.00  0.00     0.200 A 
ATOM     82  F   UNL A   1      42.271  28.210  25.416  1.00  0.00    -0.200 F 
ATOM     83  F   UNL A   1      41.054  25.778  25.205  1.00  0.00    -0.200 F 
ENDBRANCH  49  73
BRANCH  61  84
ATOM     84  C   UNL A   1      44.076  28.371  34.734  1.00  0.00     0.064 A 
ATOM     85  C   UNL A   1      45.396  28.824  34.589  1.00  0.00     0.173 A 
ATOM     86  C   UNL A   1      43.864  27.189  35.459  1.00  0.00     0.173 A 
ATOM     87  F   UNL A   1      45.655  29.940  33.891  1.00  0.00    -0.203 F 
ATOM     88  C   UNL A   1      46.461  28.109  35.129  1.00  0.00     0.198 A 
ATOM     89  C   UNL A   1      44.929  26.494  36.028  1.00  0.00     0.198 A 
ATOM     90  F   UNL A   1      42.621  26.714  35.632  1.00  0.00    -0.203 F 
ATOM     91  F   UNL A   1      47.718  28.533  34.936  1.00  0.00    -0.200 F 
ATOM     92  C   UNL A   1      46.227  26.950  35.856  1.00  0.00     0.200 A 
ATOM     93  F   UNL A   1      44.698  25.385  36.743  1.00  0.00    -0.200 F 
ATOM     94  F   UNL A   1      47.253  26.270  36.385  1.00  0.00    -0.200 F 
ENDBRANCH  61  84
ENDBRANCH  35  36
ENDBRANCH  27  30
ENDBRANCH  25  26
ENDBRANCH  24  25
ENDBRANCH  23  24
ENDBRANCH  22  23
ENDBRANCH   1  22
TORSDOF 18
ENDMDL
MODEL 2
REMARK VINA RESULT:     -11.3      0.730      7.264
REMARK SMILES CC(C)(O)CC[C@@H](C(=O)NCCCCCCNC(=O)c1ccc(-c2c3nc(c(-c4c(F)c(F)c(F)c(F)c4F)c4ccc([nH]4)c(-c4c(F)c(F)c(F)c(F)c4F)c4nc(c(-c5c(F)c(F)c(F)c(F)c5F)c5ccc2[nH]5)C=C4)C=C3)cc1)[C@@H]1CCS(=O)(=O)C1
REMARK SMILES IDX 12 1 11 2 10 3 8 4 9 5 7 7 6 8 5 9 2 10 1 11 3 12 4 13 83 15
REMARK SMILES IDX 84 16 89 17 85 18 86 19 87 20 88 21 13 22 14 23 15 24 16 25
REMARK SMILES IDX 17 26 18 27 19 29 20 30 21 31 82 32 22 33 81 34 23 35 24 36
REMARK SMILES IDX 25 37 75 38 26 39 80 40 74 41 76 42 27 43 79 44 73 45 72 46
REMARK SMILES IDX 28 48 60 49 40 50 59 51 41 52 44 53 58 54 77 55 42 56 43 57
REMARK SMILES IDX 57 59 78 60 45 61 29 62 30 63 38 64 31 65 32 66 36 67 39 68
REMARK SMILES IDX 33 69 34 70 37 71 35 72 61 73 62 74 70 75 63 76 64 77 68 78
REMARK SMILES IDX 71 79 65 80 66 81 69 82 67 83 46 84 47 85 55 86 48 87 49 88
REMARK SMILES IDX 53 89 56 90 50 91 51 92 54 93 52 94
REMARK H PARENT 10 6 4 14 17 28 76 47 44 58
REMARK Flexibility Score: inf
ROOT
ATOM      1  C   UNL A   1      33.260  29.138  27.160  1.00  0.00     0.021 C 
ENDROOT
BRANCH   1   2
ATOM      2  C   UNL A   1      33.284  27.711  26.606  1.00  0.00     0.116 C 
BRANCH   2   3
ATOM      3  N   UNL A   1      32.030  27.033  26.820  1.00  0.00    -0.356 N 
ATOM      4  C   UNL A   1      31.070  26.595  25.966  1.00  0.00     0.223 C 
ATOM      5  O   UNL A   1      30.129  26.008  26.508  1.00  0.00    -0.275 OA
ATOM      6  H   UNL A   1      31.832  26.852  27.767  1.00  0.00     0.163 HD
BRANCH   4   7
ATOM      7  C   UNL A   1      31.165  26.756  24.414  1.00  0.00     0.082 C 
BRANCH   7   8
ATOM      8  C   UNL A   1      29.790  26.662  23.715  1.00  0.00     0.017 C 
BRANCH   8   9
ATOM      9  C   UNL A   1      28.836  27.865  23.570  1.00  0.00     0.035 C 
BRANCH   9  10
ATOM     10  C   UNL A   1      29.107  29.111  22.682  1.00  0.00     0.059 C 
ATOM     11  C   UNL A   1      29.635  30.399  23.316  1.00  0.00     0.042 C 
ATOM     12  C   UNL A   1      27.798  29.449  21.947  1.00  0.00     0.042 C 
BRANCH  10  13
ATOM     13  O   UNL A   1      30.068  28.723  21.699  1.00  0.00    -0.390 OA
ATOM     14  H   UNL A   1      30.840  28.332  22.137  1.00  0.00     0.211 HD
ENDBRANCH  10  13
ENDBRANCH   9  10
ENDBRANCH   8   9
ENDBRANCH   7   8
BRANCH   7  15
ATOM     15  C   UNL A   1      32.221  25.683  23.871  1.00  0.00     0.017 C 
ATOM     16  C   UNL A   1      33.560  26.329  23.451  1.00  0.00     0.021 C 
ATOM     17  C   UNL A   1      31.844  24.770  22.685  1.00  0.00     0.141 C 
ATOM     18  C   UNL A   1      33.432  26.797  22.008  1.00  0.00     0.137 C 
ATOM     19  S   UNL A   1      32.418  25.582  21.194  1.00  0.00     0.150 S 
ATOM     20  O   UNL A   1      31.317  26.256  20.546  1.00  0.00    -0.229 OA
ATOM     21  O   UNL A   1      33.282  24.669  20.471  1.00  0.00    -0.229 OA
ENDBRANCH   7  15
ENDBRANCH   4   7
ENDBRANCH   2   3
ENDBRANCH   1   2
BRANCH   1  22
ATOM     22  C   UNL A   1      31.862  29.750  27.215  1.00  0.00     0.002 C 
BRANCH  22  23
ATOM     23  C   UNL A   1      31.557  30.738  26.081  1.00  0.00     0.002 C 
BRANCH  23  24
ATOM     24  C   UNL A   1      31.430  32.209  26.495  1.00  0.00     0.021 C 
BRANCH  24  25
ATOM     25  C   UNL A   1      32.577  32.738  27.352  1.00  0.00     0.116 C 
BRANCH  25  26
ATOM     26  N   UNL A   1      32.425  34.155  27.638  1.00  0.00    -0.352 N 
ATOM     27  C   UNL A   1      33.018  34.927  28.604  1.00  0.00     0.251 C 
ATOM     28  H   UNL A   1      31.800  34.635  27.048  1.00  0.00     0.163 HD
ATOM     29  O   UNL A   1      32.574  36.041  28.861  1.00  0.00    -0.269 OA
BRANCH  27  30
ATOM     30  C   UNL A   1      34.189  34.415  29.344  1.00  0.00     0.039 A 
ATOM     31  C   UNL A   1      33.985  33.746  30.553  1.00  0.00     0.014 A 
ATOM     32  C   UNL A   1      35.485  34.615  28.859  1.00  0.00     0.014 A 
ATOM     33  C   UNL A   1      35.078  33.221  31.245  1.00  0.00     0.010 A 
ATOM     34  C   UNL A   1      36.565  34.027  29.511  1.00  0.00     0.010 A 
ATOM     35  C   UNL A   1      36.372  33.325  30.710  1.00  0.00    -0.014 A 
BRANCH  35  36
ATOM     36  C   UNL A   1      37.533  32.684  31.380  1.00  0.00     0.031 A 
ATOM     37  C   UNL A   1      38.230  31.518  30.741  1.00  0.00     0.074 A 
ATOM     38  C   UNL A   1      37.910  33.112  32.599  1.00  0.00     0.049 A 
ATOM     39  N   UNL A   1      39.210  30.783  31.205  1.00  0.00    -0.248 NA
ATOM     40  C   UNL A   1      37.745  31.103  29.416  1.00  0.00     0.031 C 
ATOM     41  C   UNL A   1      37.276  34.202  33.342  1.00  0.00     0.029 A 
ATOM     42  N   UNL A   1      38.903  32.671  33.438  1.00  0.00    -0.354 N 
ATOM     43  C   UNL A   1      39.451  29.820  30.234  1.00  0.00     0.074 A 
ATOM     44  C   UNL A   1      38.476  30.023  29.186  1.00  0.00     0.031 C 
ATOM     45  C   UNL A   1      37.903  34.353  34.519  1.00  0.00     0.029 A 
ATOM     46  C   UNL A   1      38.951  33.342  34.634  1.00  0.00     0.049 A 
ATOM     47  H   UNL A   1      39.521  31.941  33.203  1.00  0.00     0.167 HD
ATOM     48  C   UNL A   1      40.414  28.866  30.212  1.00  0.00     0.037 A 
ATOM     49  C   UNL A   1      39.735  33.154  35.711  1.00  0.00     0.037 A 
ATOM     50  C   UNL A   1      41.383  28.672  31.260  1.00  0.00     0.049 A 
ATOM     51  C   UNL A   1      40.780  32.071  35.677  1.00  0.00     0.074 A 
ATOM     52  C   UNL A   1      42.434  27.773  31.309  1.00  0.00     0.029 A 
ATOM     53  N   UNL A   1      41.408  29.380  32.454  1.00  0.00    -0.354 N 
ATOM     54  N   UNL A   1      41.052  31.217  34.720  1.00  0.00    -0.248 NA
ATOM     55  C   UNL A   1      41.629  31.932  36.866  1.00  0.00     0.031 C 
ATOM     56  C   UNL A   1      43.054  27.893  32.557  1.00  0.00     0.029 A 
ATOM     57  C   UNL A   1      42.435  28.914  33.261  1.00  0.00     0.049 A 
ATOM     58  H   UNL A   1      40.789  30.108  32.692  1.00  0.00     0.167 HD
ATOM     59  C   UNL A   1      42.115  30.453  35.182  1.00  0.00     0.074 A 
ATOM     60  C   UNL A   1      42.451  30.959  36.496  1.00  0.00     0.031 C 
ATOM     61  C   UNL A   1      42.754  29.424  34.572  1.00  0.00     0.037 A 
BRANCH  48  62
ATOM     62  C   UNL A   1      40.459  27.955  29.017  1.00  0.00     0.064 A 
ATOM     63  C   UNL A   1      39.726  26.758  28.972  1.00  0.00     0.173 A 
ATOM     64  C   UNL A   1      41.232  28.287  27.894  1.00  0.00     0.173 A 
ATOM     65  F   UNL A   1      38.975  26.386  30.020  1.00  0.00    -0.203 F 
ATOM     66  C   UNL A   1      39.800  25.910  27.870  1.00  0.00     0.198 A 
ATOM     67  C   UNL A   1      41.275  27.455  26.778  1.00  0.00     0.198 A 
ATOM     68  F   UNL A   1      41.947  29.423  27.876  1.00  0.00    -0.203 F 
ATOM     69  F   UNL A   1      39.143  24.741  27.880  1.00  0.00    -0.200 F 
ATOM     70  C   UNL A   1      40.570  26.262  26.772  1.00  0.00     0.200 A 
ATOM     71  F   UNL A   1      42.006  27.805  25.711  1.00  0.00    -0.200 F 
ATOM     72  F   UNL A   1      40.640  25.445  25.712  1.00  0.00    -0.200 F 
ENDBRANCH  48  62
BRANCH  49  73
ATOM     73  C   UNL A   1      39.557  34.014  36.911  1.00  0.00     0.064 A 
ATOM     74  C   UNL A   1      38.790  33.587  38.003  1.00  0.00     0.173 A 
ATOM     75  C   UNL A   1      40.165  35.277  36.996  1.00  0.00     0.173 A 
ATOM     76  F   UNL A   1      38.173  32.397  37.963  1.00  0.00    -0.203 F 
ATOM     77  C   UNL A   1      38.625  34.395  39.127  1.00  0.00     0.198 A 
ATOM     78  C   UNL A   1      40.027  36.068  38.132  1.00  0.00     0.198 A 
ATOM     79  F   UNL A   1      40.917  35.729  35.982  1.00  0.00    -0.203 F 
ATOM     80  F   UNL A   1      37.852  33.979  40.139  1.00  0.00    -0.200 F 
ATOM     81  C   UNL A   1      39.250  35.630  39.194  1.00  0.00     0.200 A 
ATOM     82  F   UNL A   1      40.650  37.252  38.202  1.00  0.00    -0.200 F 
ATOM     83  F   UNL A   1      39.101  36.401  40.280  1.00  0.00    -0.200 F 
ENDBRANCH  49  73
BRANCH  61  84
ATOM     84  C   UNL A   1      43.898  28.788  35.310  1.00  0.00     0.064 A 
ATOM     85  C   UNL A   1      45.216  29.244  35.163  1.00  0.00     0.173 A 
ATOM     86  C   UNL A   1      43.664  27.737  36.212  1.00  0.00     0.173 A 
ATOM     87  F   UNL A   1      45.497  30.234  34.302  1.00  0.00    -0.203 F 
ATOM     88  C   UNL A   1      46.261  28.656  35.871  1.00  0.00     0.198 A 
ATOM     89  C   UNL A   1      44.706  27.175  36.945  1.00  0.00     0.198 A 
ATOM     90  F   UNL A   1      42.422  27.266  36.396  1.00  0.00    -0.203 F 
ATOM     91  F   UNL A   1      47.519  29.074  35.677  1.00  0.00    -0.200 F 
ATOM     92  C   UNL A   1      46.004  27.629  36.769  1.00  0.00     0.200 A 
ATOM     93  F   UNL A   1      44.453  26.195  37.823  1.00  0.00    -0.200 F 
ATOM     94  F   UNL A   1      47.009  27.073  37.459  1.00  0.00    -0.200 F 
ENDBRANCH  61  84
ENDBRANCH  35  36
ENDBRANCH  27  30
ENDBRANCH  25  26
ENDBRANCH  24  25
ENDBRANCH  23  24
ENDBRANCH  22  23
ENDBRANCH   1  22
TORSDOF 18
ENDMDL
MODEL 3
REMARK VINA RESULT:     -11.2      1.072      7.508
REMARK SMILES CC(C)(O)CC[C@@H](C(=O)NCCCCCCNC(=O)c1ccc(-c2c3nc(c(-c4c(F)c(F)c(F)c(F)c4F)c4ccc([nH]4)c(-c4c(F)c(F)c(F)c(F)c4F)c4nc(c(-c5c(F)c(F)c(F)c(F)c5F)c5ccc2[nH]5)C=C4)C=C3)cc1)[C@@H]1CCS(=O)(=O)C1
REMARK SMILES IDX 12 1 11 2 10 3 8 4 9 5 7 7 6 8 5 9 2 10 1 11 3 12 4 13 83 15
REMARK SMILES IDX 84 16 89 17 85 18 86 19 87 20 88 21 13 22 14 23 15 24 16 25
REMARK SMILES IDX 17 26 18 27 19 29 20 30 21 31 82 32 22 33 81 34 23 35 24 36
REMARK SMILES IDX 25 37 75 38 26 39 80 40 74 41 76 42 27 43 79 44 73 45 72 46
REMARK SMILES IDX 28 48 60 49 40 50 59 51 41 52 44 53 58 54 77 55 42 56 43 57
REMARK SMILES IDX 57 59 78 60 45 61 29 62 30 63 38 64 31 65 32 66 36 67 39 68
REMARK SMILES IDX 33 69 34 70 37 71 35 72 61 73 62 74 70 75 63 76 64 77 68 78
REMARK SMILES IDX 71 79 65 80 66 81 69 82 67 83 46 84 47 85 55 86 48 87 49 88
REMARK SMILES IDX 53 89 56 90 50 91 51 92 54 93 52 94
REMARK H PARENT 10 6 4 14 17 28 76 47 44 58
REMARK Flexibility Score: inf
ROOT
ATOM      1  C   UNL A   1      33.703  29.649  26.704  1.00  0.00     0.021 C 
ENDROOT
BRANCH   1   2
ATOM      2  C   UNL A   1      33.913  28.343  25.932  1.00  0.00     0.116 C 
BRANCH   2   3
ATOM      3  N   UNL A   1      34.171  28.583  24.535  1.00  0.00    -0.356 N 
ATOM      4  C   UNL A   1      33.583  28.120  23.402  1.00  0.00     0.223 C 
ATOM      5  O   UNL A   1      34.049  28.580  22.356  1.00  0.00    -0.275 OA
ATOM      6  H   UNL A   1      34.917  29.204  24.369  1.00  0.00     0.163 HD
BRANCH   4   7
ATOM      7  C   UNL A   1      32.370  27.134  23.409  1.00  0.00     0.082 C 
BRANCH   7   8
ATOM      8  C   UNL A   1      31.016  27.850  23.616  1.00  0.00     0.017 C 
BRANCH   8   9
ATOM      9  C   UNL A   1      30.643  29.167  22.905  1.00  0.00     0.035 C 
BRANCH   9  10
ATOM     10  C   UNL A   1      29.196  29.711  22.744  1.00  0.00     0.059 C 
ATOM     11  C   UNL A   1      28.766  30.968  23.501  1.00  0.00     0.042 C 
ATOM     12  C   UNL A   1      28.230  28.575  23.126  1.00  0.00     0.042 C 
BRANCH  10  13
ATOM     13  O   UNL A   1      29.007  29.992  21.357  1.00  0.00    -0.390 OA
ATOM     14  H   UNL A   1      28.114  29.724  21.090  1.00  0.00     0.211 HD
ENDBRANCH  10  13
ENDBRANCH   9  10
ENDBRANCH   8   9
ENDBRANCH   7   8
BRANCH   7  15
ATOM     15  C   UNL A   1      32.658  26.005  24.504  1.00  0.00     0.017 C 
ATOM     16  C   UNL A   1      33.669  24.946  24.014  1.00  0.00     0.021 C 
ATOM     17  C   UNL A   1      31.487  25.182  25.082  1.00  0.00     0.141 C 
ATOM     18  C   UNL A   1      32.905  23.876  23.245  1.00  0.00     0.137 C 
ATOM     19  S   UNL A   1      31.347  23.698  24.087  1.00  0.00     0.150 S 
ATOM     20  O   UNL A   1      30.281  23.849  23.125  1.00  0.00    -0.229 OA
ATOM     21  O   UNL A   1      31.424  22.543  24.961  1.00  0.00    -0.229 OA
ENDBRANCH   7  15
ENDBRANCH   4   7
ENDBRANCH   2   3
ENDBRANCH   1   2
BRANCH   1  22
ATOM     22  C   UNL A   1      32.250  29.897  27.104  1.00  0.00     0.002 C 
BRANCH  22  23
ATOM     23  C   UNL A   1      31.465  30.781  26.126  1.00  0.00     0.002 C 
BRANCH  23  24
ATOM     24  C   UNL A   1      31.384  32.268  26.490  1.00  0.00     0.021 C 
BRANCH  24  25
ATOM     25  C   UNL A   1      32.558  32.794  27.311  1.00  0.00     0.116 C 
BRANCH  25  26
ATOM     26  N   UNL A   1      32.404  34.204  27.627  1.00  0.00    -0.352 N 
ATOM     27  C   UNL A   1      32.992  34.956  28.613  1.00  0.00     0.251 C 
ATOM     28  H   UNL A   1      31.781  34.697  27.045  1.00  0.00     0.163 HD
ATOM     29  O   UNL A   1      32.545  36.063  28.891  1.00  0.00    -0.269 OA
BRANCH  27  30
ATOM     30  C   UNL A   1      34.160  34.428  29.347  1.00  0.00     0.039 A 
ATOM     31  C   UNL A   1      33.964  33.855  30.606  1.00  0.00     0.014 A 
ATOM     32  C   UNL A   1      35.446  34.521  28.807  1.00  0.00     0.014 A 
ATOM     33  C   UNL A   1      35.051  33.316  31.296  1.00  0.00     0.010 A 
ATOM     34  C   UNL A   1      36.516  33.918  29.462  1.00  0.00     0.010 A 
ATOM     35  C   UNL A   1      36.329  33.310  30.712  1.00  0.00    -0.014 A 
BRANCH  35  36
ATOM     36  C   UNL A   1      37.476  32.650  31.385  1.00  0.00     0.031 A 
ATOM     37  C   UNL A   1      38.163  31.479  30.744  1.00  0.00     0.074 A 
ATOM     38  C   UNL A   1      37.851  33.066  32.610  1.00  0.00     0.049 A 
ATOM     39  N   UNL A   1      39.131  30.728  31.211  1.00  0.00    -0.248 NA
ATOM     40  C   UNL A   1      37.681  31.078  29.414  1.00  0.00     0.031 C 
ATOM     41  C   UNL A   1      37.227  34.160  33.355  1.00  0.00     0.029 A 
ATOM     42  N   UNL A   1      38.833  32.608  33.452  1.00  0.00    -0.354 N 
ATOM     43  C   UNL A   1      39.365  29.767  30.236  1.00  0.00     0.074 A 
ATOM     44  C   UNL A   1      38.399  29.990  29.183  1.00  0.00     0.031 C 
ATOM     45  C   UNL A   1      37.848  34.296  34.537  1.00  0.00     0.029 A 
ATOM     46  C   UNL A   1      38.882  33.272  34.652  1.00  0.00     0.049 A 
ATOM     47  H   UNL A   1      39.443  31.871  33.217  1.00  0.00     0.167 HD
ATOM     48  C   UNL A   1      40.316  28.802  30.214  1.00  0.00     0.037 A 
ATOM     49  C   UNL A   1      39.656  33.067  35.734  1.00  0.00     0.037 A 
ATOM     50  C   UNL A   1      41.275  28.589  31.267  1.00  0.00     0.049 A 
ATOM     51  C   UNL A   1      40.687  31.971  35.700  1.00  0.00     0.074 A 
ATOM     52  C   UNL A   1      42.314  27.677  31.318  1.00  0.00     0.029 A 
ATOM     53  N   UNL A   1      41.302  29.290  32.466  1.00  0.00    -0.354 N 
ATOM     54  N   UNL A   1      40.955  31.119  34.740  1.00  0.00    -0.248 NA
ATOM     55  C   UNL A   1      41.527  31.814  36.894  1.00  0.00     0.031 C 
ATOM     56  C   UNL A   1      42.927  27.782  32.571  1.00  0.00     0.029 A 
ATOM     57  C   UNL A   1      42.317  28.806  33.277  1.00  0.00     0.049 A 
ATOM     58  H   UNL A   1      40.690  30.024  32.704  1.00  0.00     0.167 HD
ATOM     59  C   UNL A   1      42.005  30.338  35.205  1.00  0.00     0.074 A 
ATOM     60  C   UNL A   1      42.338  30.832  36.524  1.00  0.00     0.031 C 
ATOM     61  C   UNL A   1      42.634  29.305  34.593  1.00  0.00     0.037 A 
BRANCH  48  62
ATOM     62  C   UNL A   1      40.356  27.897  29.014  1.00  0.00     0.064 A 
ATOM     63  C   UNL A   1      41.114  28.212  27.875  1.00  0.00     0.173 A 
ATOM     64  C   UNL A   1      39.639  26.691  29.007  1.00  0.00     0.173 A 
ATOM     65  F   UNL A   1      41.813  29.356  27.824  1.00  0.00    -0.203 F 
ATOM     66  C   UNL A   1      41.118  27.377  26.760  1.00  0.00     0.198 A 
ATOM     67  C   UNL A   1      39.675  25.840  27.904  1.00  0.00     0.198 A 
ATOM     68  F   UNL A   1      38.904  26.333  30.070  1.00  0.00    -0.203 F 
ATOM     69  F   UNL A   1      41.796  27.734  25.660  1.00  0.00    -0.200 F 
ATOM     70  C   UNL A   1      40.402  26.190  26.778  1.00  0.00     0.200 A 
ATOM     71  F   UNL A   1      38.996  24.684  27.930  1.00  0.00    -0.200 F 
ATOM     72  F   UNL A   1      40.407  25.388  25.704  1.00  0.00    -0.200 F 
ENDBRANCH  48  62
BRANCH  49  73
ATOM     73  C   UNL A   1      39.481  33.923  36.937  1.00  0.00     0.064 A 
ATOM     74  C   UNL A   1      40.053  35.200  37.009  1.00  0.00     0.173 A 
ATOM     75  C   UNL A   1      38.723  33.486  38.034  1.00  0.00     0.173 A 
ATOM     76  F   UNL A   1      40.802  35.656  35.994  1.00  0.00    -0.203 F 
ATOM     77  C   UNL A   1      39.887  36.001  38.136  1.00  0.00     0.198 A 
ATOM     78  C   UNL A   1      38.530  34.300  39.147  1.00  0.00     0.198 A 
ATOM     79  F   UNL A   1      38.146  32.275  38.013  1.00  0.00    -0.203 F 
ATOM     80  F   UNL A   1      40.479  37.201  38.196  1.00  0.00    -0.200 F 
ATOM     81  C   UNL A   1      39.119  35.555  39.201  1.00  0.00     0.200 A 
ATOM     82  F   UNL A   1      37.769  33.873  40.164  1.00  0.00    -0.200 F 
ATOM     83  F   UNL A   1      38.949  36.330  40.280  1.00  0.00    -0.200 F 
ENDBRANCH  49  73
BRANCH  61  84
ATOM     84  C   UNL A   1      43.765  28.649  35.334  1.00  0.00     0.064 A 
ATOM     85  C   UNL A   1      45.096  29.060  35.164  1.00  0.00     0.173 A 
ATOM     86  C   UNL A   1      43.508  27.628  36.262  1.00  0.00     0.173 A 
ATOM     87  F   UNL A   1      45.398  30.021  34.278  1.00  0.00    -0.203 F 
ATOM     88  C   UNL A   1      46.128  28.455  35.876  1.00  0.00     0.198 A 
ATOM     89  C   UNL A   1      44.539  27.049  36.998  1.00  0.00     0.198 A 
ATOM     90  F   UNL A   1      42.253  27.201  36.468  1.00  0.00    -0.203 F 
ATOM     91  F   UNL A   1      47.397  28.829  35.661  1.00  0.00    -0.200 F 
ATOM     92  C   UNL A   1      45.848  27.458  36.800  1.00  0.00     0.200 A 
ATOM     93  F   UNL A   1      44.264  26.099  37.901  1.00  0.00    -0.200 F 
ATOM     94  F   UNL A   1      46.842  26.886  37.493  1.00  0.00    -0.200 F 
ENDBRANCH  61  84
ENDBRANCH  35  36
ENDBRANCH  27  30
ENDBRANCH  25  26
ENDBRANCH  24  25
ENDBRANCH  23  24
ENDBRANCH  22  23
ENDBRANCH   1  22
TORSDOF 18
ENDMDL
