MODEL 1
REMARK VINA RESULT:      -9.3      0.000      0.000
REMARK SMILES CC[C@H]1CCCC[C@@H]1C1(C(=O)NCCCCCCNC(=O)c2ccc(-c3c4nc(c(-c5c(F)c(F)c(F)c(F)c5F)c5ccc([nH]5)c(-c5c(F)c(F)c(F)c(F)c5F)c5nc(c(-c6c(F)c(F)c(F)c(F)c6F)c6ccc3[nH]6)C=C5)C=C4)cc2)CC1
REMARK SMILES IDX 15 1 14 2 13 3 12 4 10 5 11 6 9 8 85 9 86 10 8 11 3 12 4 13
REMARK SMILES IDX 5 14 7 15 6 16 2 17 1 18 16 19 17 20 18 21 19 22 20 23 21 25
REMARK SMILES IDX 22 26 23 27 84 28 24 29 83 30 25 31 26 32 27 33 77 34 28 35
REMARK SMILES IDX 82 36 76 37 78 38 29 39 81 40 75 41 74 42 30 44 62 45 42 46
REMARK SMILES IDX 61 47 43 48 46 49 60 50 79 51 44 52 45 53 59 55 80 56 47 57
REMARK SMILES IDX 31 58 32 59 40 60 33 61 34 62 38 63 41 64 35 65 36 66 39 67
REMARK SMILES IDX 37 68 63 69 64 70 72 71 65 72 66 73 70 74 73 75 67 76 68 77
REMARK SMILES IDX 71 78 69 79 48 80 49 81 57 82 50 83 51 84 55 85 58 86 52 87
REMARK SMILES IDX 53 88 56 89 54 90
REMARK H PARENT 12 7 19 24 78 43 46 54
REMARK Flexibility Score: inf
ROOT
ATOM      1  C   UNL A   1      37.486  33.246  29.011  1.00  0.00     0.002 C 
ENDROOT
BRANCH   1   2
ATOM      2  C   UNL A   1      38.622  34.255  29.249  1.00  0.00     0.021 C 
BRANCH   2   3
ATOM      3  C   UNL A   1      38.999  34.461  30.716  1.00  0.00     0.116 C 
BRANCH   3   4
ATOM      4  N   UNL A   1      37.888  34.944  31.500  1.00  0.00    -0.356 N 
ATOM      5  C   UNL A   1      37.116  34.440  32.504  1.00  0.00     0.226 C 
ATOM      6  O   UNL A   1      36.292  35.221  32.977  1.00  0.00    -0.274 OA
ATOM      7  H   UNL A   1      37.623  35.858  31.248  1.00  0.00     0.163 HD
BRANCH   5   8
ATOM      8  C   UNL A   1      37.216  33.026  33.085  1.00  0.00     0.052 C 
ATOM      9  C   UNL A   1      36.676  31.943  32.142  1.00  0.00     0.018 C 
ATOM     10  C   UNL A   1      36.019  32.171  33.465  1.00  0.00     0.018 C 
BRANCH   8  11
ATOM     11  C   UNL A   1      38.533  32.808  33.913  1.00  0.00     0.008 C 
ATOM     12  C   UNL A   1      38.838  31.401  34.504  1.00  0.00    -0.007 C 
ATOM     13  C   UNL A   1      38.179  31.157  35.876  1.00  0.00     0.004 C 
ATOM     14  C   UNL A   1      38.339  32.314  36.858  1.00  0.00     0.000 C 
ATOM     15  C   UNL A   1      38.704  33.929  34.957  1.00  0.00     0.005 C 
ATOM     16  C   UNL A   1      37.959  33.660  36.258  1.00  0.00     0.000 C 
BRANCH  12  17
ATOM     17  C   UNL A   1      40.381  31.208  34.597  1.00  0.00     0.000 C 
ATOM     18  C   UNL A   1      40.814  29.750  34.672  1.00  0.00     0.004 C 
ENDBRANCH  12  17
ENDBRANCH   8  11
ENDBRANCH   5   8
ENDBRANCH   3   4
ENDBRANCH   2   3
ENDBRANCH   1   2
BRANCH   1  19
ATOM     19  C   UNL A   1      36.353  33.710  28.086  1.00  0.00     0.002 C 
BRANCH  19  20
ATOM     20  C   UNL A   1      34.941  33.599  28.661  1.00  0.00     0.021 C 
BRANCH  20  21
ATOM     21  C   UNL A   1      34.659  32.310  29.419  1.00  0.00     0.116 C 
BRANCH  21  22
ATOM     22  N   UNL A   1      34.087  31.283  28.565  1.00  0.00    -0.352 N 
ATOM     23  C   UNL A   1      34.710  30.217  27.963  1.00  0.00     0.251 C 
ATOM     24  H   UNL A   1      33.121  31.361  28.394  1.00  0.00     0.163 HD
ATOM     25  O   UNL A   1      34.116  29.539  27.132  1.00  0.00    -0.269 OA
BRANCH  23  26
ATOM     26  C   UNL A   1      36.113  29.898  28.305  1.00  0.00     0.039 A 
ATOM     27  C   UNL A   1      36.396  29.370  29.568  1.00  0.00     0.014 A 
ATOM     28  C   UNL A   1      37.146  30.124  27.390  1.00  0.00     0.014 A 
ATOM     29  C   UNL A   1      37.710  29.023  29.895  1.00  0.00     0.010 A 
ATOM     30  C   UNL A   1      38.441  29.713  27.690  1.00  0.00     0.010 A 
ATOM     31  C   UNL A   1      38.737  29.169  28.950  1.00  0.00    -0.014 A 
BRANCH  31  32
ATOM     32  C   UNL A   1      40.135  28.789  29.268  1.00  0.00     0.031 A 
ATOM     33  C   UNL A   1      41.004  29.725  30.063  1.00  0.00     0.074 A 
ATOM     34  C   UNL A   1      40.642  27.636  28.791  1.00  0.00     0.049 A 
ATOM     35  N   UNL A   1      42.269  29.613  30.381  1.00  0.00    -0.248 NA
ATOM     36  C   UNL A   1      40.373  30.966  30.538  1.00  0.00     0.031 C 
ATOM     37  C   UNL A   1      39.914  26.667  27.971  1.00  0.00     0.029 A 
ATOM     38  N   UNL A   1      41.895  27.089  28.918  1.00  0.00    -0.354 N 
ATOM     39  C   UNL A   1      42.588  30.775  31.070  1.00  0.00     0.074 A 
ATOM     40  C   UNL A   1      41.399  31.600  31.085  1.00  0.00     0.031 C 
ATOM     41  C   UNL A   1      40.726  25.635  27.686  1.00  0.00     0.029 A 
ATOM     42  C   UNL A   1      42.038  25.885  28.275  1.00  0.00     0.049 A 
ATOM     43  H   UNL A   1      42.622  27.521  29.424  1.00  0.00     0.167 HD
ATOM     44  C   UNL A   1      43.761  31.115  31.657  1.00  0.00     0.037 A 
ATOM     45  C   UNL A   1      43.110  25.076  28.172  1.00  0.00     0.037 A 
ATOM     46  C   UNL A   1      44.928  30.274  31.677  1.00  0.00     0.049 A 
ATOM     47  C   UNL A   1      44.395  25.468  28.848  1.00  0.00     0.074 A 
ATOM     48  C   UNL A   1      46.141  30.496  32.304  1.00  0.00     0.029 A 
ATOM     49  N   UNL A   1      45.025  29.046  31.039  1.00  0.00    -0.354 N 
ATOM     50  N   UNL A   1      44.666  26.539  29.554  1.00  0.00    -0.248 NA
ATOM     51  C   UNL A   1      45.522  24.534  28.720  1.00  0.00     0.031 C 
ATOM     52  C   UNL A   1      46.986  29.419  32.016  1.00  0.00     0.029 A 
ATOM     53  C   UNL A   1      46.284  28.506  31.246  1.00  0.00     0.049 A 
ATOM     54  H   UNL A   1      44.305  28.621  30.519  1.00  0.00     0.167 HD
ATOM     55  C   UNL A   1      45.980  26.394  29.979  1.00  0.00     0.074 A 
ATOM     56  C   UNL A   1      46.448  25.126  29.461  1.00  0.00     0.031 C 
ATOM     57  C   UNL A   1      46.728  27.236  30.733  1.00  0.00     0.037 A 
BRANCH  44  58
ATOM     58  C   UNL A   1      43.835  32.453  32.333  1.00  0.00     0.064 A 
ATOM     59  C   UNL A   1      43.965  33.642  31.599  1.00  0.00     0.173 A 
ATOM     60  C   UNL A   1      43.747  32.549  33.729  1.00  0.00     0.173 A 
ATOM     61  F   UNL A   1      44.067  33.602  30.262  1.00  0.00    -0.203 F 
ATOM     62  C   UNL A   1      44.033  34.875  32.241  1.00  0.00     0.198 A 
ATOM     63  C   UNL A   1      43.785  33.787  34.366  1.00  0.00     0.198 A 
ATOM     64  F   UNL A   1      43.617  31.442  34.478  1.00  0.00    -0.203 F 
ATOM     65  F   UNL A   1      44.206  35.993  31.523  1.00  0.00    -0.200 F 
ATOM     66  C   UNL A   1      43.936  34.947  33.623  1.00  0.00     0.200 A 
ATOM     67  F   UNL A   1      43.681  33.857  35.700  1.00  0.00    -0.200 F 
ATOM     68  F   UNL A   1      43.996  36.137  34.238  1.00  0.00    -0.200 F 
ENDBRANCH  44  58
BRANCH  45  69
ATOM     69  C   UNL A   1      43.003  23.796  27.426  1.00  0.00     0.064 A 
ATOM     70  C   UNL A   1      43.375  23.721  26.076  1.00  0.00     0.173 A 
ATOM     71  C   UNL A   1      42.528  22.629  28.038  1.00  0.00     0.173 A 
ATOM     72  F   UNL A   1      43.816  24.818  25.441  1.00  0.00    -0.203 F 
ATOM     73  C   UNL A   1      43.257  22.531  25.362  1.00  0.00     0.198 A 
ATOM     74  C   UNL A   1      42.434  21.433  27.330  1.00  0.00     0.198 A 
ATOM     75  F   UNL A   1      42.163  22.648  29.329  1.00  0.00    -0.203 F 
ATOM     76  F   UNL A   1      43.581  22.497  24.062  1.00  0.00    -0.200 F 
ATOM     77  C   UNL A   1      42.792  21.386  25.991  1.00  0.00     0.200 A 
ATOM     78  F   UNL A   1      41.995  20.325  27.945  1.00  0.00    -0.200 F 
ATOM     79  F   UNL A   1      42.682  20.240  25.305  1.00  0.00    -0.200 F 
ENDBRANCH  45  69
BRANCH  57  80
ATOM     80  C   UNL A   1      48.120  26.794  31.077  1.00  0.00     0.064 A 
ATOM     81  C   UNL A   1      48.379  25.976  32.187  1.00  0.00     0.173 A 
ATOM     82  C   UNL A   1      49.201  27.158  30.260  1.00  0.00     0.173 A 
ATOM     83  F   UNL A   1      47.380  25.614  33.007  1.00  0.00    -0.203 F 
ATOM     84  C   UNL A   1      49.675  25.558  32.479  1.00  0.00     0.198 A 
ATOM     85  C   UNL A   1      50.490  26.716  30.540  1.00  0.00     0.198 A 
ATOM     86  F   UNL A   1      49.003  27.934  29.184  1.00  0.00    -0.203 F 
ATOM     87  F   UNL A   1      49.906  24.814  33.568  1.00  0.00    -0.200 F 
ATOM     88  C   UNL A   1      50.727  25.923  31.651  1.00  0.00     0.200 A 
ATOM     89  F   UNL A   1      51.504  27.058  29.733  1.00  0.00    -0.200 F 
ATOM     90  F   UNL A   1      51.972  25.513  31.931  1.00  0.00    -0.200 F 
ENDBRANCH  57  80
ENDBRANCH  31  32
ENDBRANCH  23  26
ENDBRANCH  21  22
ENDBRANCH  20  21
ENDBRANCH  19  20
ENDBRANCH   1  19
TORSDOF 15
ENDMDL
MODEL 2
REMARK VINA RESULT:      -9.3      5.058      9.946
REMARK SMILES CC[C@H]1CCCC[C@@H]1C1(C(=O)NCCCCCCNC(=O)c2ccc(-c3c4nc(c(-c5c(F)c(F)c(F)c(F)c5F)c5ccc([nH]5)c(-c5c(F)c(F)c(F)c(F)c5F)c5nc(c(-c6c(F)c(F)c(F)c(F)c6F)c6ccc3[nH]6)C=C5)C=C4)cc2)CC1
REMARK SMILES IDX 15 1 14 2 13 3 12 4 10 5 11 6 9 8 85 9 86 10 8 11 3 12 4 13
REMARK SMILES IDX 5 14 7 15 6 16 2 17 1 18 16 19 17 20 18 21 19 22 20 23 21 25
REMARK SMILES IDX 22 26 23 27 84 28 24 29 83 30 25 31 26 32 27 33 77 34 28 35
REMARK SMILES IDX 82 36 76 37 78 38 29 39 81 40 75 41 74 42 30 44 62 45 42 46
REMARK SMILES IDX 61 47 43 48 46 49 60 50 79 51 44 52 45 53 59 55 80 56 47 57
REMARK SMILES IDX 31 58 32 59 40 60 33 61 34 62 38 63 41 64 35 65 36 66 39 67
REMARK SMILES IDX 37 68 63 69 64 70 72 71 65 72 66 73 70 74 73 75 67 76 68 77
REMARK SMILES IDX 71 78 69 79 48 80 49 81 57 82 50 83 51 84 55 85 58 86 52 87
REMARK SMILES IDX 53 88 56 89 54 90
REMARK H PARENT 12 7 19 24 78 43 46 54
REMARK Flexibility Score: inf
ROOT
ATOM      1  C   UNL A   1      36.522  21.834  25.743  1.00  0.00     0.002 C 
ENDROOT
BRANCH   1   2
ATOM      2  C   UNL A   1      35.124  21.753  26.379  1.00  0.00     0.021 C 
BRANCH   2   3
ATOM      3  C   UNL A   1      34.203  20.698  25.766  1.00  0.00     0.116 C 
BRANCH   3   4
ATOM      4  N   UNL A   1      32.808  21.011  25.969  1.00  0.00    -0.356 N 
ATOM      5  C   UNL A   1      31.900  21.834  25.371  1.00  0.00     0.226 C 
ATOM      6  O   UNL A   1      30.752  21.753  25.804  1.00  0.00    -0.274 OA
ATOM      7  H   UNL A   1      32.419  20.510  26.722  1.00  0.00     0.163 HD
BRANCH   5   8
ATOM      8  C   UNL A   1      32.192  22.800  24.219  1.00  0.00     0.052 C 
ATOM      9  C   UNL A   1      31.882  22.209  22.837  1.00  0.00     0.018 C 
ATOM     10  C   UNL A   1      33.284  22.591  23.184  1.00  0.00     0.018 C 
BRANCH   8  11
ATOM     11  C   UNL A   1      31.829  24.287  24.573  1.00  0.00     0.008 C 
ATOM     12  C   UNL A   1      32.027  25.397  23.501  1.00  0.00    -0.007 C 
ATOM     13  C   UNL A   1      33.458  25.970  23.469  1.00  0.00     0.004 C 
ATOM     14  C   UNL A   1      34.027  26.300  24.846  1.00  0.00     0.000 C 
ATOM     15  C   UNL A   1      32.433  24.678  25.936  1.00  0.00     0.005 C 
ATOM     16  C   UNL A   1      33.876  25.157  25.841  1.00  0.00     0.000 C 
BRANCH  12  17
ATOM     17  C   UNL A   1      30.989  26.533  23.741  1.00  0.00     0.000 C 
ATOM     18  C   UNL A   1      29.568  26.030  23.963  1.00  0.00     0.004 C 
ENDBRANCH  12  17
ENDBRANCH   8  11
ENDBRANCH   5   8
ENDBRANCH   3   4
ENDBRANCH   2   3
ENDBRANCH   1   2
BRANCH   1  19
ATOM     19  C   UNL A   1      36.819  20.820  24.631  1.00  0.00     0.002 C 
BRANCH  19  20
ATOM     20  C   UNL A   1      37.821  19.721  24.987  1.00  0.00     0.021 C 
BRANCH  20  21
ATOM     21  C   UNL A   1      39.026  20.189  25.789  1.00  0.00     0.116 C 
BRANCH  21  22
ATOM     22  N   UNL A   1      40.057  19.170  25.879  1.00  0.00    -0.352 N 
ATOM     23  C   UNL A   1      41.408  19.324  26.065  1.00  0.00     0.251 C 
ATOM     24  H   UNL A   1      39.744  18.240  25.796  1.00  0.00     0.163 HD
ATOM     25  O   UNL A   1      42.166  18.368  25.946  1.00  0.00    -0.269 OA
BRANCH  23  26
ATOM     26  C   UNL A   1      41.956  20.659  26.390  1.00  0.00     0.039 A 
ATOM     27  C   UNL A   1      42.220  21.552  25.348  1.00  0.00     0.014 A 
ATOM     28  C   UNL A   1      42.216  21.027  27.713  1.00  0.00     0.014 A 
ATOM     29  C   UNL A   1      42.699  22.833  25.638  1.00  0.00     0.010 A 
ATOM     30  C   UNL A   1      42.625  22.325  28.006  1.00  0.00     0.010 A 
ATOM     31  C   UNL A   1      42.881  23.237  26.969  1.00  0.00    -0.014 A 
BRANCH  31  32
ATOM     32  C   UNL A   1      43.369  24.598  27.301  1.00  0.00     0.031 A 
ATOM     33  C   UNL A   1      42.425  25.610  27.890  1.00  0.00     0.074 A 
ATOM     34  C   UNL A   1      44.639  24.943  27.015  1.00  0.00     0.049 A 
ATOM     35  N   UNL A   1      42.635  26.869  28.178  1.00  0.00    -0.248 NA
ATOM     36  C   UNL A   1      41.054  25.151  28.162  1.00  0.00     0.031 C 
ATOM     37  C   UNL A   1      45.637  24.066  26.403  1.00  0.00     0.029 A 
ATOM     38  N   UNL A   1      45.305  26.131  27.193  1.00  0.00    -0.354 N 
ATOM     39  C   UNL A   1      41.420  27.356  28.643  1.00  0.00     0.074 A 
ATOM     40  C   UNL A   1      40.466  26.272  28.555  1.00  0.00     0.031 C 
ATOM     41  C   UNL A   1      46.793  24.737  26.274  1.00  0.00     0.029 A 
ATOM     42  C   UNL A   1      46.608  26.100  26.765  1.00  0.00     0.049 A 
ATOM     43  H   UNL A   1      44.886  26.929  27.590  1.00  0.00     0.167 HD
ATOM     44  C   UNL A   1      41.131  28.590  29.121  1.00  0.00     0.037 A 
ATOM     45  C   UNL A   1      47.547  27.065  26.767  1.00  0.00     0.037 A 
ATOM     46  C   UNL A   1      42.092  29.653  29.247  1.00  0.00     0.049 A 
ATOM     47  C   UNL A   1      47.206  28.422  27.320  1.00  0.00     0.074 A 
ATOM     48  C   UNL A   1      41.917  30.917  29.784  1.00  0.00     0.029 A 
ATOM     49  N   UNL A   1      43.413  29.574  28.831  1.00  0.00    -0.354 N 
ATOM     50  N   UNL A   1      46.073  28.851  27.819  1.00  0.00    -0.248 NA
ATOM     51  C   UNL A   1      48.279  29.426  27.318  1.00  0.00     0.031 C 
ATOM     52  C   UNL A   1      43.122  31.616  29.659  1.00  0.00     0.029 A 
ATOM     53  C   UNL A   1      44.059  30.774  29.084  1.00  0.00     0.049 A 
ATOM     54  H   UNL A   1      43.829  28.784  28.417  1.00  0.00     0.167 HD
ATOM     55  C   UNL A   1      46.302  30.161  28.217  1.00  0.00     0.074 A 
ATOM     56  C   UNL A   1      47.687  30.453  27.912  1.00  0.00     0.031 C 
ATOM     57  C   UNL A   1      45.443  31.041  28.787  1.00  0.00     0.037 A 
BRANCH  44  58
ATOM     58  C   UNL A   1      39.718  28.854  29.550  1.00  0.00     0.064 A 
ATOM     59  C   UNL A   1      39.286  28.597  30.860  1.00  0.00     0.173 A 
ATOM     60  C   UNL A   1      38.791  29.398  28.648  1.00  0.00     0.173 A 
ATOM     61  F   UNL A   1      40.130  28.064  31.757  1.00  0.00    -0.203 F 
ATOM     62  C   UNL A   1      37.970  28.847  31.243  1.00  0.00     0.198 A 
ATOM     63  C   UNL A   1      37.485  29.674  29.042  1.00  0.00     0.198 A 
ATOM     64  F   UNL A   1      39.155  29.666  27.384  1.00  0.00    -0.203 F 
ATOM     65  F   UNL A   1      37.567  28.548  32.485  1.00  0.00    -0.200 F 
ATOM     66  C   UNL A   1      37.074  29.392  30.336  1.00  0.00     0.200 A 
ATOM     67  F   UNL A   1      36.622  30.210  28.169  1.00  0.00    -0.200 F 
ATOM     68  F   UNL A   1      35.809  29.637  30.707  1.00  0.00    -0.200 F 
ENDBRANCH  44  58
BRANCH  45  69
ATOM     69  C   UNL A   1      48.913  26.772  26.260  1.00  0.00     0.064 A 
ATOM     70  C   UNL A   1      49.255  27.044  24.928  1.00  0.00     0.173 A 
ATOM     71  C   UNL A   1      49.898  26.217  27.087  1.00  0.00     0.173 A 
ATOM     72  F   UNL A   1      48.339  27.557  24.093  1.00  0.00    -0.203 F 
ATOM     73  C   UNL A   1      50.526  26.752  24.437  1.00  0.00     0.198 A 
ATOM     74  C   UNL A   1      51.176  25.948  26.602  1.00  0.00     0.198 A 
ATOM     75  F   UNL A   1      49.622  25.942  28.371  1.00  0.00    -0.203 F 
ATOM     76  F   UNL A   1      50.813  26.983  23.149  1.00  0.00    -0.200 F 
ATOM     77  C   UNL A   1      51.487  26.210  25.276  1.00  0.00     0.200 A 
ATOM     78  F   UNL A   1      52.107  25.435  27.419  1.00  0.00    -0.200 F 
ATOM     79  F   UNL A   1      52.710  25.932  24.805  1.00  0.00    -0.200 F 
ENDBRANCH  45  69
BRANCH  57  80
ATOM     80  C   UNL A   1      45.986  32.390  29.154  1.00  0.00     0.064 A 
ATOM     81  C   UNL A   1      45.930  33.473  28.265  1.00  0.00     0.173 A 
ATOM     82  C   UNL A   1      46.528  32.612  30.429  1.00  0.00     0.173 A 
ATOM     83  F   UNL A   1      45.434  33.307  27.029  1.00  0.00    -0.203 F 
ATOM     84  C   UNL A   1      46.420  34.724  28.631  1.00  0.00     0.198 A 
ATOM     85  C   UNL A   1      46.993  33.869  30.801  1.00  0.00     0.198 A 
ATOM     86  F   UNL A   1      46.598  31.608  31.318  1.00  0.00    -0.203 F 
ATOM     87  F   UNL A   1      46.398  35.734  27.752  1.00  0.00    -0.200 F 
ATOM     88  C   UNL A   1      46.944  34.922  29.901  1.00  0.00     0.200 A 
ATOM     89  F   UNL A   1      47.487  34.063  32.032  1.00  0.00    -0.200 F 
ATOM     90  F   UNL A   1      47.409  36.129  30.253  1.00  0.00    -0.200 F 
ENDBRANCH  57  80
ENDBRANCH  31  32
ENDBRANCH  23  26
ENDBRANCH  21  22
ENDBRANCH  20  21
ENDBRANCH  19  20
ENDBRANCH   1  19
TORSDOF 15
ENDMDL
MODEL 3
REMARK VINA RESULT:      -9.2      0.543      2.267
REMARK SMILES CC[C@H]1CCCC[C@@H]1C1(C(=O)NCCCCCCNC(=O)c2ccc(-c3c4nc(c(-c5c(F)c(F)c(F)c(F)c5F)c5ccc([nH]5)c(-c5c(F)c(F)c(F)c(F)c5F)c5nc(c(-c6c(F)c(F)c(F)c(F)c6F)c6ccc3[nH]6)C=C5)C=C4)cc2)CC1
REMARK SMILES IDX 15 1 14 2 13 3 12 4 10 5 11 6 9 8 85 9 86 10 8 11 3 12 4 13
REMARK SMILES IDX 5 14 7 15 6 16 2 17 1 18 16 19 17 20 18 21 19 22 20 23 21 25
REMARK SMILES IDX 22 26 23 27 84 28 24 29 83 30 25 31 26 32 27 33 77 34 28 35
REMARK SMILES IDX 82 36 76 37 78 38 29 39 81 40 75 41 74 42 30 44 62 45 42 46
REMARK SMILES IDX 61 47 43 48 46 49 60 50 79 51 44 52 45 53 59 55 80 56 47 57
REMARK SMILES IDX 31 58 32 59 40 60 33 61 34 62 38 63 41 64 35 65 36 66 39 67
REMARK SMILES IDX 37 68 63 69 64 70 72 71 65 72 66 73 70 74 73 75 67 76 68 77
REMARK SMILES IDX 71 78 69 79 48 80 49 81 57 82 50 83 51 84 55 85 58 86 52 87
REMARK SMILES IDX 53 88 56 89 54 90
REMARK H PARENT 12 7 19 24 78 43 46 54
REMARK Flexibility Score: inf
ROOT
ATOM      1  C   UNL A   1      37.566  33.299  28.901  1.00  0.00     0.002 C 
ENDROOT
BRANCH   1   2
ATOM      2  C   UNL A   1      38.635  34.358  29.220  1.00  0.00     0.021 C 
BRANCH   2   3
ATOM      3  C   UNL A   1      38.927  34.546  30.708  1.00  0.00     0.116 C 
BRANCH   3   4
ATOM      4  N   UNL A   1      37.756  34.956  31.444  1.00  0.00    -0.356 N 
ATOM      5  C   UNL A   1      37.029  34.445  32.478  1.00  0.00     0.226 C 
ATOM      6  O   UNL A   1      36.114  35.161  32.883  1.00  0.00    -0.274 OA
ATOM      7  H   UNL A   1      37.393  35.813  31.121  1.00  0.00     0.163 HD
BRANCH   5   8
ATOM      8  C   UNL A   1      37.279  33.100  33.167  1.00  0.00     0.052 C 
ATOM      9  C   UNL A   1      37.338  31.919  32.190  1.00  0.00     0.018 C 
ATOM     10  C   UNL A   1      36.266  31.970  33.231  1.00  0.00     0.018 C 
BRANCH   8  11
ATOM     11  C   UNL A   1      38.283  33.218  34.370  1.00  0.00     0.008 C 
ATOM     12  C   UNL A   1      39.807  33.030  34.114  1.00  0.00    -0.007 C 
ATOM     13  C   UNL A   1      40.256  31.556  34.148  1.00  0.00     0.004 C 
ATOM     14  C   UNL A   1      39.703  30.765  35.330  1.00  0.00     0.000 C 
ATOM     15  C   UNL A   1      37.787  32.386  35.569  1.00  0.00     0.005 C 
ATOM     16  C   UNL A   1      38.198  30.921  35.497  1.00  0.00     0.000 C 
BRANCH  12  17
ATOM     17  C   UNL A   1      40.608  33.871  35.150  1.00  0.00     0.000 C 
ATOM     18  C   UNL A   1      40.106  35.301  35.301  1.00  0.00     0.004 C 
ENDBRANCH  12  17
ENDBRANCH   8  11
ENDBRANCH   5   8
ENDBRANCH   3   4
ENDBRANCH   2   3
ENDBRANCH   1   2
BRANCH   1  19
ATOM     19  C   UNL A   1      36.250  33.823  28.312  1.00  0.00     0.002 C 
BRANCH  19  20
ATOM     20  C   UNL A   1      35.024  33.700  29.216  1.00  0.00     0.021 C 
BRANCH  20  21
ATOM     21  C   UNL A   1      34.761  32.299  29.749  1.00  0.00     0.116 C 
BRANCH  21  22
ATOM     22  N   UNL A   1      34.114  31.448  28.766  1.00  0.00    -0.352 N 
ATOM     23  C   UNL A   1      34.657  30.444  28.002  1.00  0.00     0.251 C 
ATOM     24  H   UNL A   1      33.153  31.614  28.627  1.00  0.00     0.163 HD
ATOM     25  O   UNL A   1      34.011  29.936  27.093  1.00  0.00    -0.269 OA
BRANCH  23  26
ATOM     26  C   UNL A   1      36.039  29.988  28.267  1.00  0.00     0.039 A 
ATOM     27  C   UNL A   1      36.989  30.087  27.246  1.00  0.00     0.014 A 
ATOM     28  C   UNL A   1      36.396  29.458  29.510  1.00  0.00     0.014 A 
ATOM     29  C   UNL A   1      38.309  29.700  27.489  1.00  0.00     0.010 A 
ATOM     30  C   UNL A   1      37.725  29.140  29.773  1.00  0.00     0.010 A 
ATOM     31  C   UNL A   1      38.692  29.247  28.761  1.00  0.00    -0.014 A 
BRANCH  31  32
ATOM     32  C   UNL A   1      40.092  28.849  29.047  1.00  0.00     0.031 A 
ATOM     33  C   UNL A   1      41.006  29.796  29.776  1.00  0.00     0.074 A 
ATOM     34  C   UNL A   1      40.559  27.669  28.598  1.00  0.00     0.049 A 
ATOM     35  N   UNL A   1      42.279  29.669  30.056  1.00  0.00    -0.248 NA
ATOM     36  C   UNL A   1      40.416  31.067  30.224  1.00  0.00     0.031 C 
ATOM     37  C   UNL A   1      39.785  26.685  27.841  1.00  0.00     0.029 A 
ATOM     38  N   UNL A   1      41.805  27.101  28.704  1.00  0.00    -0.354 N 
ATOM     39  C   UNL A   1      42.644  30.850  30.689  1.00  0.00     0.074 A 
ATOM     40  C   UNL A   1      41.473  31.700  30.712  1.00  0.00     0.031 C 
ATOM     41  C   UNL A   1      40.566  25.627  27.569  1.00  0.00     0.029 A 
ATOM     42  C   UNL A   1      41.902  25.871  28.104  1.00  0.00     0.049 A 
ATOM     43  H   UNL A   1      42.557  27.536  29.169  1.00  0.00     0.167 HD
ATOM     44  C   UNL A   1      43.842  31.186  31.224  1.00  0.00     0.037 A 
ATOM     45  C   UNL A   1      42.953  25.036  27.996  1.00  0.00     0.037 A 
ATOM     46  C   UNL A   1      44.992  30.322  31.236  1.00  0.00     0.049 A 
ATOM     47  C   UNL A   1      44.268  25.426  28.614  1.00  0.00     0.074 A 
ATOM     48  C   UNL A   1      46.231  30.542  31.814  1.00  0.00     0.029 A 
ATOM     49  N   UNL A   1      45.043  29.069  30.644  1.00  0.00    -0.354 N 
ATOM     50  N   UNL A   1      44.584  26.516  29.268  1.00  0.00    -0.248 NA
ATOM     51  C   UNL A   1      45.371  24.463  28.484  1.00  0.00     0.031 C 
ATOM     52  C   UNL A   1      47.043  29.437  31.539  1.00  0.00     0.029 A 
ATOM     53  C   UNL A   1      46.298  28.511  30.828  1.00  0.00     0.049 A 
ATOM     54  H   UNL A   1      44.298  28.641  30.164  1.00  0.00     0.167 HD
ATOM     55  C   UNL A   1      45.908  26.360  29.655  1.00  0.00     0.074 A 
ATOM     56  C   UNL A   1      46.334  25.064  29.170  1.00  0.00     0.031 C 
ATOM     57  C   UNL A   1      46.699  27.213  30.351  1.00  0.00     0.037 A 
BRANCH  44  58
ATOM     58  C   UNL A   1      43.966  32.547  31.845  1.00  0.00     0.064 A 
ATOM     59  C   UNL A   1      43.860  32.736  33.231  1.00  0.00     0.173 A 
ATOM     60  C   UNL A   1      44.225  33.671  31.047  1.00  0.00     0.173 A 
ATOM     61  F   UNL A   1      43.600  31.694  34.036  1.00  0.00    -0.203 F 
ATOM     62  C   UNL A   1      43.977  34.005  33.791  1.00  0.00     0.198 A 
ATOM     63  C   UNL A   1      44.372  34.934  31.614  1.00  0.00     0.198 A 
ATOM     64  F   UNL A   1      44.341  33.544  29.715  1.00  0.00    -0.203 F 
ATOM     65  F   UNL A   1      43.823  34.169  35.112  1.00  0.00    -0.200 F 
ATOM     66  C   UNL A   1      44.241  35.101  32.983  1.00  0.00     0.200 A 
ATOM     67  F   UNL A   1      44.636  35.991  30.834  1.00  0.00    -0.200 F 
ATOM     68  F   UNL A   1      44.359  36.321  33.526  1.00  0.00    -0.200 F 
ENDBRANCH  44  58
BRANCH  45  69
ATOM     69  C   UNL A   1      42.795  23.731  27.303  1.00  0.00     0.064 A 
ATOM     70  C   UNL A   1      42.211  22.638  27.959  1.00  0.00     0.173 A 
ATOM     71  C   UNL A   1      43.224  23.547  25.982  1.00  0.00     0.173 A 
ATOM     72  F   UNL A   1      41.804  22.761  29.231  1.00  0.00    -0.203 F 
ATOM     73  C   UNL A   1      42.079  21.405  27.326  1.00  0.00     0.198 A 
ATOM     74  C   UNL A   1      43.070  22.320  25.340  1.00  0.00     0.198 A 
ATOM     75  F   UNL A   1      43.787  24.562  25.310  1.00  0.00    -0.203 F 
ATOM     76  F   UNL A   1      41.554  20.366  27.989  1.00  0.00    -0.200 F 
ATOM     77  C   UNL A   1      42.503  21.248  26.015  1.00  0.00     0.200 A 
ATOM     78  F   UNL A   1      43.470  22.175  24.069  1.00  0.00    -0.200 F 
ATOM     79  F   UNL A   1      42.374  20.062  25.404  1.00  0.00    -0.200 F 
ENDBRANCH  45  69
BRANCH  57  80
ATOM     80  C   UNL A   1      48.093  26.755  30.665  1.00  0.00     0.064 A 
ATOM     81  C   UNL A   1      49.184  27.116  29.862  1.00  0.00     0.173 A 
ATOM     82  C   UNL A   1      48.343  25.983  31.809  1.00  0.00     0.173 A 
ATOM     83  F   UNL A   1      48.993  27.841  28.749  1.00  0.00    -0.203 F 
ATOM     84  C   UNL A   1      50.474  26.699  30.181  1.00  0.00     0.198 A 
ATOM     85  C   UNL A   1      49.636  25.591  32.139  1.00  0.00     0.198 A 
ATOM     86  F   UNL A   1      47.332  25.617  32.613  1.00  0.00    -0.203 F 
ATOM     87  F   UNL A   1      51.496  27.018  29.377  1.00  0.00    -0.200 F 
ATOM     88  C   UNL A   1      50.699  25.943  31.323  1.00  0.00     0.200 A 
ATOM     89  F   UNL A   1      49.854  24.872  33.249  1.00  0.00    -0.200 F 
ATOM     90  F   UNL A   1      51.943  25.550  31.631  1.00  0.00    -0.200 F 
ENDBRANCH  57  80
ENDBRANCH  31  32
ENDBRANCH  23  26
ENDBRANCH  21  22
ENDBRANCH  20  21
ENDBRANCH  19  20
ENDBRANCH   1  19
TORSDOF 15
ENDMDL
