MODEL 1
REMARK VINA RESULT:     -11.5      0.000      0.000
REMARK SMILES COCCNc1cc(C)nc2cc(C(=O)NCCCCCCNC(=O)c3ccc(-c4c5nc(c(-c6c(F)c(F)c(F)c(F)c6F)c6ccc([nH]6)c(-c6c(F)c(F)c(F)c(F)c6F)c6nc(c(-c7c(F)c(F)c(F)c(F)c7F)c7ccc4[nH]7)C=C6)C=C5)cc3)ccc12
REMARK SMILES IDX 18 1 17 2 16 3 14 4 15 5 13 7 6 8 7 9 91 10 8 11 11 12 90 13
REMARK SMILES IDX 9 14 10 15 12 16 89 17 5 18 4 20 3 21 2 22 1 23 19 24 20 25
REMARK SMILES IDX 21 26 22 27 23 28 24 29 25 31 26 32 27 33 88 34 28 35 87 36
REMARK SMILES IDX 29 37 30 38 31 39 81 40 32 41 86 42 80 43 82 44 33 45 85 46
REMARK SMILES IDX 79 47 78 48 34 50 66 51 46 52 65 53 47 54 50 55 64 56 83 57
REMARK SMILES IDX 48 58 49 59 63 61 84 62 51 63 35 64 36 65 44 66 37 67 38 68
REMARK SMILES IDX 42 69 45 70 39 71 40 72 43 73 41 74 67 75 68 76 76 77 69 78
REMARK SMILES IDX 70 79 74 80 77 81 71 82 72 83 75 84 73 85 52 86 53 87 61 88
REMARK SMILES IDX 54 89 55 90 59 91 62 92 56 93 57 94 60 95 58 96
REMARK H PARENT 16 6 5 19 23 30 82 49 50 60
REMARK Flexibility Score: inf
ROOT
ATOM      1  C   UNL A   1      32.386  27.755  26.682  1.00  0.00     0.021 C 
ENDROOT
BRANCH   1   2
ATOM      2  C   UNL A   1      33.822  27.884  26.168  1.00  0.00     0.116 C 
BRANCH   2   3
ATOM      3  N   UNL A   1      34.068  26.880  25.154  1.00  0.00    -0.352 N 
ATOM      4  C   UNL A   1      33.396  26.508  24.023  1.00  0.00     0.251 C 
ATOM      5  O   UNL A   1      33.852  25.552  23.393  1.00  0.00    -0.269 OA
ATOM      6  H   UNL A   1      34.888  26.358  25.311  1.00  0.00     0.163 HD
BRANCH   4   7
ATOM      7  C   UNL A   1      32.203  27.222  23.481  1.00  0.00     0.041 A 
ATOM      8  C   UNL A   1      28.969  29.601  22.127  1.00  0.00     0.045 A 
ATOM      9  C   UNL A   1      27.696  29.247  22.567  1.00  0.00     0.049 A 
ATOM     10  C   UNL A   1      30.068  28.807  22.528  1.00  0.00     0.023 A 
ATOM     11  C   UNL A   1      27.540  28.112  23.352  1.00  0.00     0.040 A 
ATOM     12  C   UNL A   1      29.810  27.656  23.294  1.00  0.00     0.073 A 
ATOM     13  C   UNL A   1      31.405  29.134  22.227  1.00  0.00     0.013 A 
ATOM     14  C   UNL A   1      26.198  27.731  23.901  1.00  0.00     0.067 C 
ATOM     15  N   UNL A   1      28.576  27.309  23.688  1.00  0.00    -0.253 NA
ATOM     16  C   UNL A   1      30.872  26.852  23.684  1.00  0.00     0.042 A 
ATOM     17  C   UNL A   1      32.458  28.366  22.721  1.00  0.00     0.014 A 
BRANCH   8  18
ATOM     18  N   UNL A   1      29.159  30.642  21.229  1.00  0.00    -0.382 N 
ATOM     19  H   UNL A   1      30.073  30.803  20.898  1.00  0.00     0.160 HD
BRANCH  18  20
ATOM     20  C   UNL A   1      28.097  31.509  20.744  1.00  0.00     0.141 C 
BRANCH  20  21
ATOM     21  C   UNL A   1      28.161  32.879  21.438  1.00  0.00     0.181 C 
BRANCH  21  22
ATOM     22  O   UNL A   1      28.367  32.794  22.854  1.00  0.00    -0.383 OA
ATOM     23  C   UNL A   1      29.234  33.796  23.369  1.00  0.00     0.194 C 
ENDBRANCH  21  22
ENDBRANCH  20  21
ENDBRANCH  18  20
ENDBRANCH   8  18
ENDBRANCH   4   7
ENDBRANCH   2   3
ENDBRANCH   1   2
BRANCH   1  24
ATOM     24  C   UNL A   1      31.798  29.101  27.131  1.00  0.00     0.002 C 
BRANCH  24  25
ATOM     25  C   UNL A   1      31.828  30.198  26.058  1.00  0.00     0.002 C 
BRANCH  25  26
ATOM     26  C   UNL A   1      31.518  31.602  26.578  1.00  0.00     0.021 C 
BRANCH  26  27
ATOM     27  C   UNL A   1      32.716  32.291  27.217  1.00  0.00     0.116 C 
BRANCH  27  28
ATOM     28  N   UNL A   1      32.450  33.702  27.460  1.00  0.00    -0.352 N 
ATOM     29  C   UNL A   1      32.996  34.521  28.415  1.00  0.00     0.251 C 
ATOM     30  H   UNL A   1      31.793  34.123  26.860  1.00  0.00     0.163 HD
ATOM     31  O   UNL A   1      32.507  35.619  28.663  1.00  0.00    -0.269 OA
BRANCH  29  32
ATOM     32  C   UNL A   1      34.184  34.053  29.151  1.00  0.00     0.039 A 
ATOM     33  C   UNL A   1      34.034  33.143  30.199  1.00  0.00     0.014 A 
ATOM     34  C   UNL A   1      35.453  34.500  28.770  1.00  0.00     0.014 A 
ATOM     35  C   UNL A   1      35.169  32.635  30.833  1.00  0.00     0.010 A 
ATOM     36  C   UNL A   1      36.580  33.935  29.350  1.00  0.00     0.010 A 
ATOM     37  C   UNL A   1      36.450  33.003  30.392  1.00  0.00    -0.014 A 
BRANCH  37  38
ATOM     38  C   UNL A   1      37.683  32.471  31.020  1.00  0.00     0.031 A 
ATOM     39  C   UNL A   1      38.428  31.358  30.338  1.00  0.00     0.074 A 
ATOM     40  C   UNL A   1      38.079  32.919  32.227  1.00  0.00     0.049 A 
ATOM     41  N   UNL A   1      39.412  30.619  30.786  1.00  0.00    -0.248 NA
ATOM     42  C   UNL A   1      37.984  31.006  28.979  1.00  0.00     0.031 C 
ATOM     43  C   UNL A   1      37.430  33.983  32.994  1.00  0.00     0.029 A 
ATOM     44  N   UNL A   1      39.115  32.515  33.032  1.00  0.00    -0.354 N 
ATOM     45  C   UNL A   1      39.692  29.714  29.771  1.00  0.00     0.074 A 
ATOM     46  C   UNL A   1      38.737  29.950  28.711  1.00  0.00     0.031 C 
ATOM     47  C   UNL A   1      38.083  34.151  34.154  1.00  0.00     0.029 A 
ATOM     48  C   UNL A   1      39.166  33.175  34.238  1.00  0.00     0.049 A 
ATOM     49  H   UNL A   1      39.760  31.818  32.773  1.00  0.00     0.167 HD
ATOM     50  C   UNL A   1      40.676  28.787  29.716  1.00  0.00     0.037 A 
ATOM     51  C   UNL A   1      39.978  32.990  35.296  1.00  0.00     0.037 A 
ATOM     52  C   UNL A   1      41.635  28.569  30.766  1.00  0.00     0.049 A 
ATOM     53  C   UNL A   1      41.035  31.915  35.227  1.00  0.00     0.074 A 
ATOM     54  C   UNL A   1      42.677  27.661  30.808  1.00  0.00     0.029 A 
ATOM     55  N   UNL A   1      41.671  29.279  31.957  1.00  0.00    -0.354 N 
ATOM     56  N   UNL A   1      41.310  31.084  34.251  1.00  0.00    -0.248 NA
ATOM     57  C   UNL A   1      41.896  31.754  36.408  1.00  0.00     0.031 C 
ATOM     58  C   UNL A   1      43.323  27.796  32.040  1.00  0.00     0.029 A 
ATOM     59  C   UNL A   1      42.717  28.826  32.741  1.00  0.00     0.049 A 
ATOM     60  H   UNL A   1      41.047  29.998  32.207  1.00  0.00     0.167 HD
ATOM     61  C   UNL A   1      42.404  30.342  34.678  1.00  0.00     0.074 A 
ATOM     62  C   UNL A   1      42.745  30.821  36.000  1.00  0.00     0.031 C 
ATOM     63  C   UNL A   1      43.069  29.352  34.034  1.00  0.00     0.037 A 
BRANCH  50  64
ATOM     64  C   UNL A   1      40.781  27.953  28.474  1.00  0.00     0.064 A 
ATOM     65  C   UNL A   1      41.561  28.368  27.383  1.00  0.00     0.173 A 
ATOM     66  C   UNL A   1      40.144  26.707  28.390  1.00  0.00     0.173 A 
ATOM     67  F   UNL A   1      42.180  29.557  27.407  1.00  0.00    -0.203 F 
ATOM     68  C   UNL A   1      41.683  27.572  26.246  1.00  0.00     0.198 A 
ATOM     69  C   UNL A   1      40.295  25.900  27.264  1.00  0.00     0.198 A 
ATOM     70  F   UNL A   1      39.391  26.261  29.406  1.00  0.00    -0.203 F 
ATOM     71  F   UNL A   1      42.399  28.009  25.199  1.00  0.00    -0.200 F 
ATOM     72  C   UNL A   1      41.059  26.336  26.192  1.00  0.00     0.200 A 
ATOM     73  F   UNL A   1      39.704  24.698  27.220  1.00  0.00    -0.200 F 
ATOM     74  F   UNL A   1      41.190  25.565  25.103  1.00  0.00    -0.200 F 
ENDBRANCH  50  64
BRANCH  51  75
ATOM     75  C   UNL A   1      39.838  33.829  36.517  1.00  0.00     0.064 A 
ATOM     76  C   UNL A   1      39.021  33.420  37.581  1.00  0.00     0.173 A 
ATOM     77  C   UNL A   1      40.467  35.079  36.623  1.00  0.00     0.173 A 
ATOM     78  F   UNL A   1      38.382  32.243  37.520  1.00  0.00    -0.203 F 
ATOM     79  C   UNL A   1      38.801  34.247  38.681  1.00  0.00     0.198 A 
ATOM     80  C   UNL A   1      40.275  35.889  37.740  1.00  0.00     0.198 A 
ATOM     81  F   UNL A   1      41.264  35.517  35.638  1.00  0.00    -0.203 F 
ATOM     82  F   UNL A   1      37.956  33.862  39.647  1.00  0.00    -0.200 F 
ATOM     83  C   UNL A   1      39.430  35.480  38.761  1.00  0.00     0.200 A 
ATOM     84  F   UNL A   1      40.895  37.074  37.821  1.00  0.00    -0.200 F 
ATOM     85  F   UNL A   1      39.209  36.281  39.812  1.00  0.00    -0.200 F 
ENDBRANCH  51  75
BRANCH  63  86
ATOM     86  C   UNL A   1      44.284  28.778  34.702  1.00  0.00     0.064 A 
ATOM     87  C   UNL A   1      44.215  27.639  35.515  1.00  0.00     0.173 A 
ATOM     88  C   UNL A   1      45.547  29.341  34.461  1.00  0.00     0.173 A 
ATOM     89  F   UNL A   1      43.029  27.072  35.787  1.00  0.00    -0.203 F 
ATOM     90  C   UNL A   1      45.367  27.093  36.077  1.00  0.00     0.198 A 
ATOM     91  C   UNL A   1      46.698  28.774  34.999  1.00  0.00     0.198 A 
ATOM     92  F   UNL A   1      45.666  30.428  33.684  1.00  0.00    -0.203 F 
ATOM     93  F   UNL A   1      45.275  26.027  36.884  1.00  0.00    -0.200 F 
ATOM     94  C   UNL A   1      46.607  27.655  35.810  1.00  0.00     0.200 A 
ATOM     95  F   UNL A   1      47.897  29.308  34.725  1.00  0.00    -0.200 F 
ATOM     96  F   UNL A   1      47.715  27.116  36.338  1.00  0.00    -0.200 F 
ENDBRANCH  63  86
ENDBRANCH  37  38
ENDBRANCH  29  32
ENDBRANCH  27  28
ENDBRANCH  26  27
ENDBRANCH  25  26
ENDBRANCH  24  25
ENDBRANCH   1  24
TORSDOF 17
ENDMDL
MODEL 2
REMARK VINA RESULT:     -11.5      2.650      8.315
REMARK SMILES COCCNc1cc(C)nc2cc(C(=O)NCCCCCCNC(=O)c3ccc(-c4c5nc(c(-c6c(F)c(F)c(F)c(F)c6F)c6ccc([nH]6)c(-c6c(F)c(F)c(F)c(F)c6F)c6nc(c(-c7c(F)c(F)c(F)c(F)c7F)c7ccc4[nH]7)C=C6)C=C5)cc3)ccc12
REMARK SMILES IDX 18 1 17 2 16 3 14 4 15 5 13 7 6 8 7 9 91 10 8 11 11 12 90 13
REMARK SMILES IDX 9 14 10 15 12 16 89 17 5 18 4 20 3 21 2 22 1 23 19 24 20 25
REMARK SMILES IDX 21 26 22 27 23 28 24 29 25 31 26 32 27 33 88 34 28 35 87 36
REMARK SMILES IDX 29 37 30 38 31 39 81 40 32 41 86 42 80 43 82 44 33 45 85 46
REMARK SMILES IDX 79 47 78 48 34 50 66 51 46 52 65 53 47 54 50 55 64 56 83 57
REMARK SMILES IDX 48 58 49 59 63 61 84 62 51 63 35 64 36 65 44 66 37 67 38 68
REMARK SMILES IDX 42 69 45 70 39 71 40 72 43 73 41 74 67 75 68 76 76 77 69 78
REMARK SMILES IDX 70 79 74 80 77 81 71 82 72 83 75 84 73 85 52 86 53 87 61 88
REMARK SMILES IDX 54 89 55 90 59 91 62 92 56 93 57 94 60 95 58 96
REMARK H PARENT 16 6 5 19 23 30 82 49 50 60
REMARK Flexibility Score: inf
ROOT
ATOM      1  C   UNL A   1      35.252  32.047  27.988  1.00  0.00     0.021 C 
ENDROOT
BRANCH   1   2
ATOM      2  C   UNL A   1      34.364  30.801  28.033  1.00  0.00     0.116 C 
BRANCH   2   3
ATOM      3  N   UNL A   1      33.147  31.044  27.289  1.00  0.00    -0.352 N 
ATOM      4  C   UNL A   1      32.389  30.268  26.455  1.00  0.00     0.251 C 
ATOM      5  O   UNL A   1      31.418  30.809  25.922  1.00  0.00    -0.269 OA
ATOM      6  H   UNL A   1      32.791  31.954  27.408  1.00  0.00     0.163 HD
BRANCH   4   7
ATOM      7  C   UNL A   1      32.627  28.816  26.210  1.00  0.00     0.041 A 
ATOM      8  C   UNL A   1      33.269  24.778  25.098  1.00  0.00     0.045 A 
ATOM      9  C   UNL A   1      32.348  23.842  25.562  1.00  0.00     0.049 A 
ATOM     10  C   UNL A   1      33.107  26.130  25.480  1.00  0.00     0.023 A 
ATOM     11  C   UNL A   1      31.327  24.253  26.408  1.00  0.00     0.040 A 
ATOM     12  C   UNL A   1      32.065  26.448  26.370  1.00  0.00     0.073 A 
ATOM     13  C   UNL A   1      33.917  27.171  24.987  1.00  0.00     0.013 A 
ATOM     14  C   UNL A   1      30.277  23.292  26.877  1.00  0.00     0.067 C 
ATOM     15  N   UNL A   1      31.201  25.532  26.832  1.00  0.00    -0.253 NA
ATOM     16  C   UNL A   1      31.899  27.766  26.772  1.00  0.00     0.042 A 
ATOM     17  C   UNL A   1      33.662  28.498  25.326  1.00  0.00     0.014 A 
BRANCH   8  18
ATOM     18  N   UNL A   1      34.384  24.394  24.367  1.00  0.00    -0.382 N 
ATOM     19  H   UNL A   1      35.181  24.971  24.407  1.00  0.00     0.160 HD
BRANCH  18  20
ATOM     20  C   UNL A   1      34.450  23.196  23.545  1.00  0.00     0.141 C 
BRANCH  20  21
ATOM     21  C   UNL A   1      35.716  22.387  23.874  1.00  0.00     0.181 C 
BRANCH  21  22
ATOM     22  O   UNL A   1      35.830  22.043  25.260  1.00  0.00    -0.383 OA
ATOM     23  C   UNL A   1      34.877  21.080  25.693  1.00  0.00     0.194 C 
ENDBRANCH  21  22
ENDBRANCH  20  21
ENDBRANCH  18  20
ENDBRANCH   8  18
ENDBRANCH   4   7
ENDBRANCH   2   3
ENDBRANCH   1   2
BRANCH   1  24
ATOM     24  C   UNL A   1      34.752  33.161  28.919  1.00  0.00     0.002 C 
BRANCH  24  25
ATOM     25  C   UNL A   1      35.148  34.578  28.485  1.00  0.00     0.002 C 
BRANCH  25  26
ATOM     26  C   UNL A   1      34.093  35.648  28.771  1.00  0.00     0.021 C 
BRANCH  26  27
ATOM     27  C   UNL A   1      32.882  35.118  29.526  1.00  0.00     0.116 C 
BRANCH  27  28
ATOM     28  N   UNL A   1      32.428  36.066  30.535  1.00  0.00    -0.352 N 
ATOM     29  C   UNL A   1      32.733  36.099  31.871  1.00  0.00     0.251 C 
ATOM     30  H   UNL A   1      31.826  36.776  30.215  1.00  0.00     0.163 HD
ATOM     31  O   UNL A   1      32.095  36.801  32.649  1.00  0.00    -0.269 OA
BRANCH  29  32
ATOM     32  C   UNL A   1      33.842  35.264  32.364  1.00  0.00     0.039 A 
ATOM     33  C   UNL A   1      33.577  33.986  32.862  1.00  0.00     0.014 A 
ATOM     34  C   UNL A   1      35.153  35.746  32.297  1.00  0.00     0.014 A 
ATOM     35  C   UNL A   1      34.639  33.165  33.244  1.00  0.00     0.010 A 
ATOM     36  C   UNL A   1      36.209  34.900  32.604  1.00  0.00     0.010 A 
ATOM     37  C   UNL A   1      35.964  33.605  33.087  1.00  0.00    -0.014 A 
BRANCH  37  38
ATOM     38  C   UNL A   1      37.124  32.759  33.457  1.00  0.00     0.031 A 
ATOM     39  C   UNL A   1      37.846  33.034  34.746  1.00  0.00     0.074 A 
ATOM     40  C   UNL A   1      37.578  31.818  32.607  1.00  0.00     0.049 A 
ATOM     41  N   UNL A   1      38.983  32.552  35.181  1.00  0.00    -0.248 NA
ATOM     42  C   UNL A   1      37.220  34.007  35.656  1.00  0.00     0.031 C 
ATOM     43  C   UNL A   1      36.972  31.472  31.320  1.00  0.00     0.029 A 
ATOM     44  N   UNL A   1      38.673  30.994  32.689  1.00  0.00    -0.354 N 
ATOM     45  C   UNL A   1      39.209  33.171  36.403  1.00  0.00     0.074 A 
ATOM     46  C   UNL A   1      38.129  34.109  36.614  1.00  0.00     0.031 C 
ATOM     47  C   UNL A   1      37.699  30.505  30.737  1.00  0.00     0.029 A 
ATOM     48  C   UNL A   1      38.850  30.198  31.582  1.00  0.00     0.049 A 
ATOM     49  H   UNL A   1      39.276  30.976  33.467  1.00  0.00     0.167 HD
ATOM     50  C   UNL A   1      40.213  32.956  37.284  1.00  0.00     0.037 A 
ATOM     51  C   UNL A   1      39.843  29.342  31.278  1.00  0.00     0.037 A 
ATOM     52  C   UNL A   1      41.275  32.008  37.078  1.00  0.00     0.049 A 
ATOM     53  C   UNL A   1      40.976  29.159  32.257  1.00  0.00     0.074 A 
ATOM     54  C   UNL A   1      42.338  31.707  37.911  1.00  0.00     0.029 A 
ATOM     55  N   UNL A   1      41.400  31.200  35.958  1.00  0.00    -0.354 N 
ATOM     56  N   UNL A   1      41.165  29.727  33.423  1.00  0.00    -0.248 NA
ATOM     57  C   UNL A   1      42.035  28.211  31.877  1.00  0.00     0.031 C 
ATOM     58  C   UNL A   1      43.127  30.743  37.280  1.00  0.00     0.029 A 
ATOM     59  C   UNL A   1      42.525  30.403  36.079  1.00  0.00     0.049 A 
ATOM     60  H   UNL A   1      40.782  31.194  35.192  1.00  0.00     0.167 HD
ATOM     61  C   UNL A   1      42.329  29.170  33.936  1.00  0.00     0.074 A 
ATOM     62  C   UNL A   1      42.804  28.217  32.957  1.00  0.00     0.031 C 
ATOM     63  C   UNL A   1      42.951  29.424  35.113  1.00  0.00     0.037 A 
BRANCH  50  64
ATOM     64  C   UNL A   1      40.201  33.742  38.562  1.00  0.00     0.064 A 
ATOM     65  C   UNL A   1      39.423  33.338  39.658  1.00  0.00     0.173 A 
ATOM     66  C   UNL A   1      41.011  34.876  38.715  1.00  0.00     0.173 A 
ATOM     67  F   UNL A   1      38.620  32.268  39.559  1.00  0.00    -0.203 F 
ATOM     68  C   UNL A   1      39.443  34.052  40.853  1.00  0.00     0.198 A 
ATOM     69  C   UNL A   1      41.053  35.569  39.922  1.00  0.00     0.198 A 
ATOM     70  F   UNL A   1      41.778  35.302  37.700  1.00  0.00    -0.203 F 
ATOM     71  F   UNL A   1      38.659  33.671  41.872  1.00  0.00    -0.200 F 
ATOM     72  C   UNL A   1      40.265  35.160  40.987  1.00  0.00     0.200 A 
ATOM     73  F   UNL A   1      41.860  36.631  40.056  1.00  0.00    -0.200 F 
ATOM     74  F   UNL A   1      40.295  35.838  42.144  1.00  0.00    -0.200 F 
ENDBRANCH  50  64
BRANCH  51  75
ATOM     75  C   UNL A   1      39.828  28.586  29.996  1.00  0.00     0.064 A 
ATOM     76  C   UNL A   1      39.283  27.295  29.928  1.00  0.00     0.173 A 
ATOM     77  C   UNL A   1      40.408  29.108  28.830  1.00  0.00     0.173 A 
ATOM     78  F   UNL A   1      38.734  26.742  31.020  1.00  0.00    -0.203 F 
ATOM     79  C   UNL A   1      39.359  26.539  28.760  1.00  0.00     0.198 A 
ATOM     80  C   UNL A   1      40.452  28.364  27.652  1.00  0.00     0.198 A 
ATOM     81  F   UNL A   1      40.938  30.339  28.836  1.00  0.00    -0.203 F 
ATOM     82  F   UNL A   1      38.898  25.281  28.748  1.00  0.00    -0.200 F 
ATOM     83  C   UNL A   1      39.942  27.075  27.622  1.00  0.00     0.200 A 
ATOM     84  F   UNL A   1      41.002  28.891  26.550  1.00  0.00    -0.200 F 
ATOM     85  F   UNL A   1      40.028  26.344  26.502  1.00  0.00    -0.200 F 
ENDBRANCH  51  75
BRANCH  63  86
ATOM     86  C   UNL A   1      44.160  28.603  35.455  1.00  0.00     0.064 A 
ATOM     87  C   UNL A   1      44.061  27.382  36.135  1.00  0.00     0.173 A 
ATOM     88  C   UNL A   1      45.432  29.018  35.028  1.00  0.00     0.173 A 
ATOM     89  F   UNL A   1      42.870  26.948  36.577  1.00  0.00    -0.203 F 
ATOM     90  C   UNL A   1      45.193  26.613  36.390  1.00  0.00     0.198 A 
ATOM     91  C   UNL A   1      46.556  28.232  35.256  1.00  0.00     0.198 A 
ATOM     92  F   UNL A   1      45.578  30.176  34.366  1.00  0.00    -0.203 F 
ATOM     93  F   UNL A   1      45.082  25.467  37.076  1.00  0.00    -0.200 F 
ATOM     94  C   UNL A   1      46.437  27.033  35.941  1.00  0.00     0.200 A 
ATOM     95  F   UNL A   1      47.753  28.631  34.806  1.00  0.00    -0.200 F 
ATOM     96  F   UNL A   1      47.523  26.281  36.172  1.00  0.00    -0.200 F 
ENDBRANCH  63  86
ENDBRANCH  37  38
ENDBRANCH  29  32
ENDBRANCH  27  28
ENDBRANCH  26  27
ENDBRANCH  25  26
ENDBRANCH  24  25
ENDBRANCH   1  24
TORSDOF 17
ENDMDL
MODEL 3
REMARK VINA RESULT:     -11.4      2.945      5.468
REMARK SMILES COCCNc1cc(C)nc2cc(C(=O)NCCCCCCNC(=O)c3ccc(-c4c5nc(c(-c6c(F)c(F)c(F)c(F)c6F)c6ccc([nH]6)c(-c6c(F)c(F)c(F)c(F)c6F)c6nc(c(-c7c(F)c(F)c(F)c(F)c7F)c7ccc4[nH]7)C=C6)C=C5)cc3)ccc12
REMARK SMILES IDX 18 1 17 2 16 3 14 4 15 5 13 7 6 8 7 9 91 10 8 11 11 12 90 13
REMARK SMILES IDX 9 14 10 15 12 16 89 17 5 18 4 20 3 21 2 22 1 23 19 24 20 25
REMARK SMILES IDX 21 26 22 27 23 28 24 29 25 31 26 32 27 33 88 34 28 35 87 36
REMARK SMILES IDX 29 37 30 38 31 39 81 40 32 41 86 42 80 43 82 44 33 45 85 46
REMARK SMILES IDX 79 47 78 48 34 50 66 51 46 52 65 53 47 54 50 55 64 56 83 57
REMARK SMILES IDX 48 58 49 59 63 61 84 62 51 63 35 64 36 65 44 66 37 67 38 68
REMARK SMILES IDX 42 69 45 70 39 71 40 72 43 73 41 74 67 75 68 76 76 77 69 78
REMARK SMILES IDX 70 79 74 80 77 81 71 82 72 83 75 84 73 85 52 86 53 87 61 88
REMARK SMILES IDX 54 89 55 90 59 91 62 92 56 93 57 94 60 95 58 96
REMARK H PARENT 16 6 5 19 23 30 82 49 50 60
REMARK Flexibility Score: inf
ROOT
ATOM      1  C   UNL A   1      30.036  26.794  23.638  1.00  0.00     0.021 C 
ENDROOT
BRANCH   1   2
ATOM      2  C   UNL A   1      30.292  25.316  23.946  1.00  0.00     0.116 C 
BRANCH   2   3
ATOM      3  N   UNL A   1      29.799  25.004  25.271  1.00  0.00    -0.352 N 
ATOM      4  C   UNL A   1      30.192  24.109  26.229  1.00  0.00     0.251 C 
ATOM      5  O   UNL A   1      29.506  24.052  27.251  1.00  0.00    -0.269 OA
ATOM      6  H   UNL A   1      29.023  25.547  25.539  1.00  0.00     0.163 HD
BRANCH   4   7
ATOM      7  C   UNL A   1      31.417  23.262  26.136  1.00  0.00     0.041 A 
ATOM      8  C   UNL A   1      35.065  21.167  25.632  1.00  0.00     0.045 A 
ATOM      9  C   UNL A   1      35.000  19.930  24.996  1.00  0.00     0.049 A 
ATOM     10  C   UNL A   1      33.862  21.877  25.851  1.00  0.00     0.023 A 
ATOM     11  C   UNL A   1      33.762  19.417  24.630  1.00  0.00     0.040 A 
ATOM     12  C   UNL A   1      32.653  21.264  25.479  1.00  0.00     0.073 A 
ATOM     13  C   UNL A   1      33.824  23.178  26.390  1.00  0.00     0.013 A 
ATOM     14  C   UNL A   1      33.652  18.121  23.885  1.00  0.00     0.067 C 
ATOM     15  N   UNL A   1      32.601  20.059  24.892  1.00  0.00    -0.253 NA
ATOM     16  C   UNL A   1      31.458  21.936  25.701  1.00  0.00     0.042 A 
ATOM     17  C   UNL A   1      32.620  23.870  26.504  1.00  0.00     0.014 A 
BRANCH   8  18
ATOM     18  N   UNL A   1      36.260  21.656  26.141  1.00  0.00    -0.382 N 
ATOM     19  H   UNL A   1      36.378  21.654  27.119  1.00  0.00     0.160 HD
BRANCH  18  20
ATOM     20  C   UNL A   1      37.347  22.171  25.324  1.00  0.00     0.141 C 
BRANCH  20  21
ATOM     21  C   UNL A   1      37.436  23.701  25.447  1.00  0.00     0.181 C 
BRANCH  21  22
ATOM     22  O   UNL A   1      38.297  24.140  26.505  1.00  0.00    -0.383 OA
ATOM     23  C   UNL A   1      39.403  23.279  26.740  1.00  0.00     0.194 C 
ENDBRANCH  21  22
ENDBRANCH  20  21
ENDBRANCH  18  20
ENDBRANCH   8  18
ENDBRANCH   4   7
ENDBRANCH   2   3
ENDBRANCH   1   2
BRANCH   1  24
ATOM     24  C   UNL A   1      31.276  27.669  23.876  1.00  0.00     0.002 C 
BRANCH  24  25
ATOM     25  C   UNL A   1      31.705  27.778  25.345  1.00  0.00     0.002 C 
BRANCH  25  26
ATOM     26  C   UNL A   1      33.212  27.664  25.576  1.00  0.00     0.021 C 
BRANCH  26  27
ATOM     27  C   UNL A   1      33.974  28.943  25.257  1.00  0.00     0.116 C 
BRANCH  27  28
ATOM     28  N   UNL A   1      33.255  30.120  25.726  1.00  0.00    -0.352 N 
ATOM     29  C   UNL A   1      33.494  30.874  26.846  1.00  0.00     0.251 C 
ATOM     30  H   UNL A   1      32.499  30.411  25.167  1.00  0.00     0.163 HD
ATOM     31  O   UNL A   1      32.668  31.686  27.251  1.00  0.00    -0.269 OA
BRANCH  29  32
ATOM     32  C   UNL A   1      34.765  30.685  27.568  1.00  0.00     0.039 A 
ATOM     33  C   UNL A   1      35.645  31.760  27.711  1.00  0.00     0.014 A 
ATOM     34  C   UNL A   1      35.061  29.440  28.131  1.00  0.00     0.014 A 
ATOM     35  C   UNL A   1      36.804  31.599  28.472  1.00  0.00     0.010 A 
ATOM     36  C   UNL A   1      36.174  29.306  28.949  1.00  0.00     0.010 A 
ATOM     37  C   UNL A   1      37.060  30.381  29.122  1.00  0.00    -0.014 A 
BRANCH  37  38
ATOM     38  C   UNL A   1      38.266  30.173  29.959  1.00  0.00     0.031 A 
ATOM     39  C   UNL A   1      39.370  29.293  29.442  1.00  0.00     0.074 A 
ATOM     40  C   UNL A   1      38.330  30.692  31.200  1.00  0.00     0.049 A 
ATOM     41  N   UNL A   1      40.420  28.824  30.067  1.00  0.00    -0.248 NA
ATOM     42  C   UNL A   1      39.261  28.857  28.040  1.00  0.00     0.031 C 
ATOM     43  C   UNL A   1      37.315  31.546  31.818  1.00  0.00     0.029 A 
ATOM     44  N   UNL A   1      39.286  30.554  32.176  1.00  0.00    -0.354 N 
ATOM     45  C   UNL A   1      41.084  28.032  29.140  1.00  0.00     0.074 A 
ATOM     46  C   UNL A   1      40.290  28.030  27.932  1.00  0.00     0.031 C 
ATOM     47  C   UNL A   1      37.704  31.861  33.064  1.00  0.00     0.029 A 
ATOM     48  C   UNL A   1      38.968  31.190  33.353  1.00  0.00     0.049 A 
ATOM     49  H   UNL A   1      40.120  30.047  32.047  1.00  0.00     0.167 HD
ATOM     50  C   UNL A   1      42.266  27.386  29.275  1.00  0.00     0.037 A 
ATOM     51  C   UNL A   1      39.614  31.205  34.535  1.00  0.00     0.037 A 
ATOM     52  C   UNL A   1      43.060  27.406  30.473  1.00  0.00     0.049 A 
ATOM     53  C   UNL A   1      40.904  30.435  34.672  1.00  0.00     0.074 A 
ATOM     54  C   UNL A   1      44.277  26.792  30.713  1.00  0.00     0.029 A 
ATOM     55  N   UNL A   1      42.718  28.088  31.632  1.00  0.00    -0.354 N 
ATOM     56  N   UNL A   1      41.539  29.713  33.780  1.00  0.00    -0.248 NA
ATOM     57  C   UNL A   1      41.570  30.484  35.982  1.00  0.00     0.031 C 
ATOM     58  C   UNL A   1      44.655  27.072  32.029  1.00  0.00     0.029 A 
ATOM     59  C   UNL A   1      43.701  27.905  32.590  1.00  0.00     0.049 A 
ATOM     60  H   UNL A   1      41.900  28.621  31.755  1.00  0.00     0.167 HD
ATOM     61  C   UNL A   1      42.698  29.268  34.403  1.00  0.00     0.074 A 
ATOM     62  C   UNL A   1      42.682  29.803  35.747  1.00  0.00     0.031 C 
ATOM     63  C   UNL A   1      43.689  28.488  33.906  1.00  0.00     0.037 A 
BRANCH  50  64
ATOM     64  C   UNL A   1      42.783  26.621  28.093  1.00  0.00     0.064 A 
ATOM     65  C   UNL A   1      42.518  25.251  27.940  1.00  0.00     0.173 A 
ATOM     66  C   UNL A   1      43.500  27.269  27.076  1.00  0.00     0.173 A 
ATOM     67  F   UNL A   1      41.849  24.582  28.890  1.00  0.00    -0.203 F 
ATOM     68  C   UNL A   1      42.971  24.554  26.823  1.00  0.00     0.198 A 
ATOM     69  C   UNL A   1      43.922  26.575  25.945  1.00  0.00     0.198 A 
ATOM     70  F   UNL A   1      43.775  28.578  27.170  1.00  0.00    -0.203 F 
ATOM     71  F   UNL A   1      42.743  23.237  26.720  1.00  0.00    -0.200 F 
ATOM     72  C   UNL A   1      43.663  25.219  25.822  1.00  0.00     0.200 A 
ATOM     73  F   UNL A   1      44.578  27.222  24.970  1.00  0.00    -0.200 F 
ATOM     74  F   UNL A   1      44.084  24.549  24.739  1.00  0.00    -0.200 F 
ENDBRANCH  50  64
BRANCH  51  75
ATOM     75  C   UNL A   1      39.066  31.966  35.690  1.00  0.00     0.064 A 
ATOM     76  C   UNL A   1      39.417  33.308  35.898  1.00  0.00     0.173 A 
ATOM     77  C   UNL A   1      38.234  31.357  36.641  1.00  0.00     0.173 A 
ATOM     78  F   UNL A   1      40.227  33.932  35.029  1.00  0.00    -0.203 F 
ATOM     79  C   UNL A   1      38.994  33.997  37.034  1.00  0.00     0.198 A 
ATOM     80  C   UNL A   1      37.782  32.058  37.758  1.00  0.00     0.198 A 
ATOM     81  F   UNL A   1      37.862  30.078  36.489  1.00  0.00    -0.203 F 
ATOM     82  F   UNL A   1      39.407  35.254  37.244  1.00  0.00    -0.200 F 
ATOM     83  C   UNL A   1      38.175  33.372  37.962  1.00  0.00     0.200 A 
ATOM     84  F   UNL A   1      36.979  31.455  38.645  1.00  0.00    -0.200 F 
ATOM     85  F   UNL A   1      37.780  34.029  39.060  1.00  0.00    -0.200 F 
ENDBRANCH  51  75
BRANCH  63  86
ATOM     86  C   UNL A   1      44.881  28.233  34.781  1.00  0.00     0.064 A 
ATOM     87  C   UNL A   1      45.979  29.103  34.812  1.00  0.00     0.173 A 
ATOM     88  C   UNL A   1      44.885  27.134  35.655  1.00  0.00     0.173 A 
ATOM     89  F   UNL A   1      46.028  30.160  33.986  1.00  0.00    -0.203 F 
ATOM     90  C   UNL A   1      47.048  28.873  35.675  1.00  0.00     0.198 A 
ATOM     91  C   UNL A   1      45.940  26.925  36.538  1.00  0.00     0.198 A 
ATOM     92  F   UNL A   1      43.854  26.277  35.668  1.00  0.00    -0.203 F 
ATOM     93  F   UNL A   1      48.106  29.694  35.661  1.00  0.00    -0.200 F 
ATOM     94  C   UNL A   1      47.022  27.791  36.543  1.00  0.00     0.200 A 
ATOM     95  F   UNL A   1      45.905  25.891  37.388  1.00  0.00    -0.200 F 
ATOM     96  F   UNL A   1      48.044  27.583  37.385  1.00  0.00    -0.200 F 
ENDBRANCH  63  86
ENDBRANCH  37  38
ENDBRANCH  29  32
ENDBRANCH  27  28
ENDBRANCH  26  27
ENDBRANCH  25  26
ENDBRANCH  24  25
ENDBRANCH   1  24
TORSDOF 17
ENDMDL
