MODEL 1
REMARK VINA RESULT:      -8.6      0.000      0.000
REMARK SMILES CC[C@@H](Oc1ccccc1/C=C1/SC(=O)N(c2ccc(C)c(C)c2)C1=O)C(=O)NCCCCCCNC(=O)c1ccc(-c2c3nc(c(-c4c(F)c(F)c(F)c(F)c4F)c4ccc([nH]4)c(-c4c(F)c(F)c(F)c(F)c4F)c4nc(c(-c5c(F)c(F)c(F)c(F)c5F)c5ccc2[nH]5)C=C4)C=C3)cc1
REMARK SMILES IDX 31 1 30 2 29 3 27 4 28 5 3 7 2 8 1 9 4 10 5 11 6 12 10 13
REMARK SMILES IDX 7 14 9 15 8 16 11 17 12 18 13 19 25 20 14 21 16 22 26 23
REMARK SMILES IDX 15 24 17 25 18 26 24 27 19 28 22 29 20 30 23 31 21 32 32 33
REMARK SMILES IDX 33 34 34 35 35 36 36 37 37 38 38 40 39 41 40 42 101 43 41 44
REMARK SMILES IDX 100 45 42 46 43 47 44 48 94 49 45 50 99 51 93 52 95 53 46 54
REMARK SMILES IDX 98 55 92 56 91 57 47 59 79 60 59 61 78 62 60 63 63 64 77 65
REMARK SMILES IDX 96 66 61 67 62 68 76 70 97 71 64 72 48 73 49 74 57 75 50 76
REMARK SMILES IDX 51 77 55 78 58 79 52 80 53 81 56 82 54 83 80 84 81 85 89 86
REMARK SMILES IDX 82 87 83 88 87 89 90 90 84 91 85 92 88 93 86 94 65 95 66 96
REMARK SMILES IDX 74 97 67 98 68 99 72 100 75 101 69 102 70 103 73 104 71 105
REMARK H PARENT 29 6 36 39 95 58 63 69
REMARK Flexibility Score: inf
ROOT
ATOM      1  C   UNL A   1      44.447  21.917  24.547  1.00  0.00     0.021 C 
ENDROOT
BRANCH   1   2
ATOM      2  C   UNL A   1      43.060  22.483  24.866  1.00  0.00     0.116 C 
BRANCH   2   3
ATOM      3  N   UNL A   1      42.305  21.695  25.822  1.00  0.00    -0.353 N 
ATOM      4  C   UNL A   1      41.220  22.033  26.586  1.00  0.00     0.261 C 
ATOM      5  O   UNL A   1      40.626  21.112  27.156  1.00  0.00    -0.271 OA
ATOM      6  H   UNL A   1      42.623  20.771  25.938  1.00  0.00     0.163 HD
BRANCH   4   7
ATOM      7  C   UNL A   1      40.812  23.504  26.852  1.00  0.00     0.261 C 
BRANCH   7   8
ATOM      8  C   UNL A   1      39.310  23.631  26.536  1.00  0.00     0.052 C 
ATOM      9  C   UNL A   1      38.662  24.828  27.224  1.00  0.00     0.008 C 
ENDBRANCH   7   8
BRANCH   7  10
ATOM     10  O   UNL A   1      41.090  23.904  28.200  1.00  0.00    -0.480 OA
BRANCH  10  11
ATOM     11  C   UNL A   1      42.426  24.043  28.494  1.00  0.00     0.127 A 
ATOM     12  C   UNL A   1      42.985  23.251  29.497  1.00  0.00     0.047 A 
ATOM     13  C   UNL A   1      43.170  25.102  27.936  1.00  0.00     0.018 A 
ATOM     14  C   UNL A   1      44.299  23.483  29.913  1.00  0.00     0.004 A 
ATOM     15  C   UNL A   1      44.497  25.301  28.331  1.00  0.00     0.012 A 
ATOM     16  C   UNL A   1      45.058  24.495  29.321  1.00  0.00     0.001 A 
BRANCH  13  17
ATOM     17  C   UNL A   1      42.561  26.060  27.008  1.00  0.00     0.033 C 
ATOM     18  C   UNL A   1      41.732  27.029  27.418  1.00  0.00     0.084 C 
ATOM     19  S   UNL A   1      40.786  27.991  26.347  1.00  0.00    -0.022 SA
ATOM     20  C   UNL A   1      41.410  27.373  28.833  1.00  0.00     0.272 C 
ATOM     21  C   UNL A   1      39.806  28.630  27.662  1.00  0.00     0.298 C 
ATOM     22  N   UNL A   1      40.283  28.163  28.862  1.00  0.00    -0.236 N 
ATOM     23  O   UNL A   1      42.090  27.051  29.798  1.00  0.00    -0.268 OA
ATOM     24  O   UNL A   1      38.851  29.361  27.453  1.00  0.00    -0.260 OA
BRANCH  22  25
ATOM     25  C   UNL A   1      39.762  28.606  30.090  1.00  0.00     0.053 A 
ATOM     26  C   UNL A   1      38.993  27.746  30.864  1.00  0.00     0.027 A 
ATOM     27  C   UNL A   1      39.975  29.921  30.509  1.00  0.00     0.030 A 
ATOM     28  C   UNL A   1      38.474  28.194  32.076  1.00  0.00     0.006 A 
ATOM     29  C   UNL A   1      39.497  30.373  31.748  1.00  0.00    -0.046 A 
ATOM     30  C   UNL A   1      38.742  29.492  32.544  1.00  0.00    -0.048 A 
ATOM     31  C   UNL A   1      39.833  31.769  32.199  1.00  0.00     0.044 C 
ATOM     32  C   UNL A   1      38.141  29.920  33.854  1.00  0.00     0.044 C 
ENDBRANCH  22  25
ENDBRANCH  13  17
ENDBRANCH  10  11
ENDBRANCH   7  10
ENDBRANCH   4   7
ENDBRANCH   2   3
ENDBRANCH   1   2
BRANCH   1  33
ATOM     33  C   UNL A   1      45.399  21.742  25.743  1.00  0.00     0.002 C 
BRANCH  33  34
ATOM     34  C   UNL A   1      46.188  22.982  26.205  1.00  0.00     0.002 C 
BRANCH  34  35
ATOM     35  C   UNL A   1      46.773  23.862  25.097  1.00  0.00     0.021 C 
BRANCH  35  36
ATOM     36  C   UNL A   1      46.236  25.286  25.005  1.00  0.00     0.116 C 
BRANCH  36  37
ATOM     37  N   UNL A   1      47.271  26.237  24.628  1.00  0.00    -0.352 N 
ATOM     38  C   UNL A   1      47.501  27.547  24.975  1.00  0.00     0.251 C 
ATOM     39  H   UNL A   1      47.938  25.871  24.002  1.00  0.00     0.163 HD
ATOM     40  O   UNL A   1      48.342  28.172  24.326  1.00  0.00    -0.269 OA
BRANCH  38  41
ATOM     41  C   UNL A   1      46.795  28.250  26.083  1.00  0.00     0.039 A 
ATOM     42  C   UNL A   1      47.567  28.733  27.152  1.00  0.00     0.014 A 
ATOM     43  C   UNL A   1      45.406  28.345  26.174  1.00  0.00     0.014 A 
ATOM     44  C   UNL A   1      46.961  29.319  28.273  1.00  0.00     0.010 A 
ATOM     45  C   UNL A   1      44.805  29.011  27.250  1.00  0.00     0.010 A 
ATOM     46  C   UNL A   1      45.570  29.482  28.327  1.00  0.00    -0.014 A 
BRANCH  46  47
ATOM     47  C   UNL A   1      44.901  30.087  29.515  1.00  0.00     0.031 A 
ATOM     48  C   UNL A   1      44.517  31.546  29.515  1.00  0.00     0.074 A 
ATOM     49  C   UNL A   1      44.668  29.345  30.615  1.00  0.00     0.049 A 
ATOM     50  N   UNL A   1      43.996  32.272  30.475  1.00  0.00    -0.248 NA
ATOM     51  C   UNL A   1      44.782  32.297  28.279  1.00  0.00     0.031 C 
ATOM     52  C   UNL A   1      45.009  27.932  30.769  1.00  0.00     0.029 A 
ATOM     53  N   UNL A   1      44.095  29.682  31.819  1.00  0.00    -0.354 N 
ATOM     54  C   UNL A   1      43.899  33.563  29.968  1.00  0.00     0.074 A 
ATOM     55  C   UNL A   1      44.460  33.532  28.634  1.00  0.00     0.031 C 
ATOM     56  C   UNL A   1      44.614  27.514  31.983  1.00  0.00     0.029 A 
ATOM     57  C   UNL A   1      44.032  28.640  32.710  1.00  0.00     0.049 A 
ATOM     58  H   UNL A   1      43.762  30.586  32.022  1.00  0.00     0.167 HD
ATOM     59  C   UNL A   1      43.373  34.670  30.548  1.00  0.00     0.037 A 
ATOM     60  C   UNL A   1      43.567  28.594  33.975  1.00  0.00     0.037 A 
ATOM     61  C   UNL A   1      42.781  34.698  31.861  1.00  0.00     0.049 A 
ATOM     62  C   UNL A   1      42.993  29.836  34.602  1.00  0.00     0.074 A 
ATOM     63  C   UNL A   1      42.163  35.755  32.508  1.00  0.00     0.029 A 
ATOM     64  N   UNL A   1      42.733  33.618  32.730  1.00  0.00    -0.354 N 
ATOM     65  N   UNL A   1      42.858  31.036  34.092  1.00  0.00    -0.248 NA
ATOM     66  C   UNL A   1      42.504  29.715  35.983  1.00  0.00     0.031 C 
ATOM     67  C   UNL A   1      41.785  35.328  33.785  1.00  0.00     0.029 A 
ATOM     68  C   UNL A   1      42.119  33.990  33.915  1.00  0.00     0.049 A 
ATOM     69  H   UNL A   1      43.083  32.719  32.533  1.00  0.00     0.167 HD
ATOM     70  C   UNL A   1      42.244  31.803  35.074  1.00  0.00     0.074 A 
ATOM     71  C   UNL A   1      42.023  30.930  36.207  1.00  0.00     0.031 C 
ATOM     72  C   UNL A   1      41.896  33.112  35.037  1.00  0.00     0.037 A 
BRANCH  59  73
ATOM     73  C   UNL A   1      43.422  35.953  29.765  1.00  0.00     0.064 A 
ATOM     74  C   UNL A   1      44.453  36.890  29.945  1.00  0.00     0.173 A 
ATOM     75  C   UNL A   1      42.439  36.239  28.805  1.00  0.00     0.173 A 
ATOM     76  F   UNL A   1      45.415  36.668  30.852  1.00  0.00    -0.203 F 
ATOM     77  C   UNL A   1      44.471  38.083  29.226  1.00  0.00     0.198 A 
ATOM     78  C   UNL A   1      42.480  37.418  28.064  1.00  0.00     0.198 A 
ATOM     79  F   UNL A   1      41.438  35.374  28.583  1.00  0.00    -0.203 F 
ATOM     80  F   UNL A   1      45.430  38.988  29.460  1.00  0.00    -0.200 F 
ATOM     81  C   UNL A   1      43.488  38.344  28.284  1.00  0.00     0.200 A 
ATOM     82  F   UNL A   1      41.537  37.661  27.143  1.00  0.00    -0.200 F 
ATOM     83  F   UNL A   1      43.508  39.492  27.592  1.00  0.00    -0.200 F 
ENDBRANCH  59  73
BRANCH  60  84
ATOM     84  C   UNL A   1      43.598  27.311  34.724  1.00  0.00     0.064 A 
ATOM     85  C   UNL A   1      42.476  26.471  34.755  1.00  0.00     0.173 A 
ATOM     86  C   UNL A   1      44.745  26.893  35.415  1.00  0.00     0.173 A 
ATOM     87  F   UNL A   1      41.348  26.840  34.130  1.00  0.00    -0.203 F 
ATOM     88  C   UNL A   1      42.496  25.268  35.455  1.00  0.00     0.198 A 
ATOM     89  C   UNL A   1      44.774  25.677  36.091  1.00  0.00     0.198 A 
ATOM     90  F   UNL A   1      45.846  27.660  35.413  1.00  0.00    -0.203 F 
ATOM     91  F   UNL A   1      41.398  24.501  35.498  1.00  0.00    -0.200 F 
ATOM     92  C   UNL A   1      43.648  24.867  36.117  1.00  0.00     0.200 A 
ATOM     93  F   UNL A   1      45.892  25.286  36.717  1.00  0.00    -0.200 F 
ATOM     94  F   UNL A   1      43.670  23.705  36.782  1.00  0.00    -0.200 F 
ENDBRANCH  60  84
BRANCH  72  95
ATOM     95  C   UNL A   1      41.204  33.679  36.244  1.00  0.00     0.064 A 
ATOM     96  C   UNL A   1      39.813  33.596  36.404  1.00  0.00     0.173 A 
ATOM     97  C   UNL A   1      41.948  34.276  37.274  1.00  0.00     0.173 A 
ATOM     98  F   UNL A   1      39.055  33.048  35.443  1.00  0.00    -0.203 F 
ATOM     99  C   UNL A   1      39.191  34.112  37.539  1.00  0.00     0.198 A 
ATOM    100  C   UNL A   1      41.326  34.764  38.419  1.00  0.00     0.198 A 
ATOM    101  F   UNL A   1      43.283  34.376  37.173  1.00  0.00    -0.203 F 
ATOM    102  F   UNL A   1      37.856  34.063  37.648  1.00  0.00    -0.200 F 
ATOM    103  C   UNL A   1      39.948  34.689  38.548  1.00  0.00     0.200 A 
ATOM    104  F   UNL A   1      42.061  35.309  39.398  1.00  0.00    -0.200 F 
ATOM    105  F   UNL A   1      39.347  35.178  39.642  1.00  0.00    -0.200 F 
ENDBRANCH  72  95
ENDBRANCH  46  47
ENDBRANCH  38  41
ENDBRANCH  36  37
ENDBRANCH  35  36
ENDBRANCH  34  35
ENDBRANCH  33  34
ENDBRANCH   1  33
TORSDOF 18
ENDMDL
MODEL 2
REMARK VINA RESULT:      -8.5      0.277      7.030
REMARK SMILES CC[C@@H](Oc1ccccc1/C=C1/SC(=O)N(c2ccc(C)c(C)c2)C1=O)C(=O)NCCCCCCNC(=O)c1ccc(-c2c3nc(c(-c4c(F)c(F)c(F)c(F)c4F)c4ccc([nH]4)c(-c4c(F)c(F)c(F)c(F)c4F)c4nc(c(-c5c(F)c(F)c(F)c(F)c5F)c5ccc2[nH]5)C=C4)C=C3)cc1
REMARK SMILES IDX 31 1 30 2 29 3 27 4 28 5 3 7 2 8 1 9 4 10 5 11 6 12 10 13
REMARK SMILES IDX 7 14 9 15 8 16 11 17 12 18 13 19 25 20 14 21 16 22 26 23
REMARK SMILES IDX 15 24 17 25 18 26 24 27 19 28 22 29 20 30 23 31 21 32 32 33
REMARK SMILES IDX 33 34 34 35 35 36 36 37 37 38 38 40 39 41 40 42 101 43 41 44
REMARK SMILES IDX 100 45 42 46 43 47 44 48 94 49 45 50 99 51 93 52 95 53 46 54
REMARK SMILES IDX 98 55 92 56 91 57 47 59 79 60 59 61 78 62 60 63 63 64 77 65
REMARK SMILES IDX 96 66 61 67 62 68 76 70 97 71 64 72 48 73 49 74 57 75 50 76
REMARK SMILES IDX 51 77 55 78 58 79 52 80 53 81 56 82 54 83 80 84 81 85 89 86
REMARK SMILES IDX 82 87 83 88 87 89 90 90 84 91 85 92 88 93 86 94 65 95 66 96
REMARK SMILES IDX 74 97 67 98 68 99 72 100 75 101 69 102 70 103 73 104 71 105
REMARK H PARENT 29 6 36 39 95 58 63 69
REMARK Flexibility Score: inf
ROOT
ATOM      1  C   UNL A   1      44.446  21.949  24.634  1.00  0.00     0.021 C 
ENDROOT
BRANCH   1   2
ATOM      2  C   UNL A   1      43.030  22.444  24.944  1.00  0.00     0.116 C 
BRANCH   2   3
ATOM      3  N   UNL A   1      42.344  21.676  25.965  1.00  0.00    -0.353 N 
ATOM      4  C   UNL A   1      41.286  22.015  26.767  1.00  0.00     0.261 C 
ATOM      5  O   UNL A   1      40.747  21.102  27.400  1.00  0.00    -0.271 OA
ATOM      6  H   UNL A   1      42.694  20.766  26.103  1.00  0.00     0.163 HD
BRANCH   4   7
ATOM      7  C   UNL A   1      40.848  23.484  26.994  1.00  0.00     0.261 C 
BRANCH   7   8
ATOM      8  C   UNL A   1      39.338  23.566  26.698  1.00  0.00     0.052 C 
ATOM      9  C   UNL A   1      38.698  24.835  27.250  1.00  0.00     0.008 C 
ENDBRANCH   7   8
BRANCH   7  10
ATOM     10  O   UNL A   1      41.138  23.932  28.323  1.00  0.00    -0.480 OA
BRANCH  10  11
ATOM     11  C   UNL A   1      42.477  24.082  28.599  1.00  0.00     0.127 A 
ATOM     12  C   UNL A   1      43.052  23.305  29.605  1.00  0.00     0.047 A 
ATOM     13  C   UNL A   1      43.207  25.140  28.021  1.00  0.00     0.018 A 
ATOM     14  C   UNL A   1      44.370  23.550  30.002  1.00  0.00     0.004 A 
ATOM     15  C   UNL A   1      44.538  25.351  28.398  1.00  0.00     0.012 A 
ATOM     16  C   UNL A   1      45.115  24.560  29.390  1.00  0.00     0.001 A 
BRANCH  13  17
ATOM     17  C   UNL A   1      42.582  26.083  27.090  1.00  0.00     0.033 C 
ATOM     18  C   UNL A   1      41.744  27.046  27.497  1.00  0.00     0.084 C 
ATOM     19  S   UNL A   1      40.780  27.988  26.425  1.00  0.00    -0.022 SA
ATOM     20  C   UNL A   1      41.427  27.397  28.912  1.00  0.00     0.272 C 
ATOM     21  C   UNL A   1      39.801  28.626  27.742  1.00  0.00     0.298 C 
ATOM     22  N   UNL A   1      40.291  28.174  28.942  1.00  0.00    -0.236 N 
ATOM     23  O   UNL A   1      42.116  27.091  29.875  1.00  0.00    -0.268 OA
ATOM     24  O   UNL A   1      38.836  29.345  27.533  1.00  0.00    -0.260 OA
BRANCH  22  25
ATOM     25  C   UNL A   1      39.773  28.621  30.170  1.00  0.00     0.053 A 
ATOM     26  C   UNL A   1      38.972  27.777  30.929  1.00  0.00     0.027 A 
ATOM     27  C   UNL A   1      40.022  29.924  30.604  1.00  0.00     0.030 A 
ATOM     28  C   UNL A   1      38.455  28.228  32.141  1.00  0.00     0.006 A 
ATOM     29  C   UNL A   1      39.546  30.379  31.843  1.00  0.00    -0.046 A 
ATOM     30  C   UNL A   1      38.759  29.514  32.625  1.00  0.00    -0.048 A 
ATOM     31  C   UNL A   1      39.920  31.760  32.312  1.00  0.00     0.044 C 
ATOM     32  C   UNL A   1      38.159  29.946  33.933  1.00  0.00     0.044 C 
ENDBRANCH  22  25
ENDBRANCH  13  17
ENDBRANCH  10  11
ENDBRANCH   7  10
ENDBRANCH   4   7
ENDBRANCH   2   3
ENDBRANCH   1   2
BRANCH   1  33
ATOM     33  C   UNL A   1      45.398  21.828  25.837  1.00  0.00     0.002 C 
BRANCH  33  34
ATOM     34  C   UNL A   1      46.234  23.069  26.204  1.00  0.00     0.002 C 
BRANCH  34  35
ATOM     35  C   UNL A   1      46.751  23.907  25.031  1.00  0.00     0.021 C 
BRANCH  35  36
ATOM     36  C   UNL A   1      46.210  25.327  24.920  1.00  0.00     0.116 C 
BRANCH  36  37
ATOM     37  N   UNL A   1      47.249  26.282  24.565  1.00  0.00    -0.352 N 
ATOM     38  C   UNL A   1      47.560  27.536  25.035  1.00  0.00     0.251 C 
ATOM     39  H   UNL A   1      47.849  25.969  23.849  1.00  0.00     0.163 HD
ATOM     40  O   UNL A   1      48.371  28.204  24.391  1.00  0.00    -0.269 OA
BRANCH  38  41
ATOM     41  C   UNL A   1      46.974  28.130  26.270  1.00  0.00     0.039 A 
ATOM     42  C   UNL A   1      45.580  28.295  26.321  1.00  0.00     0.014 A 
ATOM     43  C   UNL A   1      47.740  28.641  27.318  1.00  0.00     0.014 A 
ATOM     44  C   UNL A   1      44.970  28.935  27.410  1.00  0.00     0.010 A 
ATOM     45  C   UNL A   1      47.125  29.198  28.447  1.00  0.00     0.010 A 
ATOM     46  C   UNL A   1      45.736  29.379  28.497  1.00  0.00    -0.014 A 
BRANCH  46  47
ATOM     47  C   UNL A   1      45.111  30.076  29.659  1.00  0.00     0.031 A 
ATOM     48  C   UNL A   1      44.796  29.319  30.925  1.00  0.00     0.074 A 
ATOM     49  C   UNL A   1      44.786  31.381  29.573  1.00  0.00     0.049 A 
ATOM     50  N   UNL A   1      44.189  29.729  32.013  1.00  0.00    -0.248 NA
ATOM     51  C   UNL A   1      45.190  27.903  30.962  1.00  0.00     0.031 C 
ATOM     52  C   UNL A   1      45.005  32.232  28.405  1.00  0.00     0.029 A 
ATOM     53  N   UNL A   1      44.193  32.219  30.488  1.00  0.00    -0.354 N 
ATOM     54  C   UNL A   1      44.106  28.618  32.845  1.00  0.00     0.074 A 
ATOM     55  C   UNL A   1      44.680  27.507  32.117  1.00  0.00     0.031 C 
ATOM     56  C   UNL A   1      44.581  33.476  28.681  1.00  0.00     0.029 A 
ATOM     57  C   UNL A   1      44.019  33.501  30.030  1.00  0.00     0.049 A 
ATOM     58  H   UNL A   1      43.918  31.926  31.388  1.00  0.00     0.167 HD
ATOM     59  C   UNL A   1      43.617  28.533  34.107  1.00  0.00     0.037 A 
ATOM     60  C   UNL A   1      43.462  34.576  30.622  1.00  0.00     0.037 A 
ATOM     61  C   UNL A   1      43.078  29.643  34.849  1.00  0.00     0.049 A 
ATOM     62  C   UNL A   1      42.920  34.458  32.022  1.00  0.00     0.074 A 
ATOM     63  C   UNL A   1      42.620  29.669  36.155  1.00  0.00     0.029 A 
ATOM     64  N   UNL A   1      42.925  30.927  34.349  1.00  0.00    -0.354 N 
ATOM     65  N   UNL A   1      42.896  33.415  32.816  1.00  0.00    -0.248 NA
ATOM     66  C   UNL A   1      42.327  35.669  32.607  1.00  0.00     0.031 C 
ATOM     67  C   UNL A   1      42.145  30.956  36.429  1.00  0.00     0.029 A 
ATOM     68  C   UNL A   1      42.356  31.747  35.312  1.00  0.00     0.049 A 
ATOM     69  H   UNL A   1      43.182  31.215  33.443  1.00  0.00     0.167 HD
ATOM     70  C   UNL A   1      42.317  33.849  34.001  1.00  0.00     0.074 A 
ATOM     71  C   UNL A   1      42.012  35.254  33.826  1.00  0.00     0.031 C 
ATOM     72  C   UNL A   1      42.062  33.146  35.131  1.00  0.00     0.037 A 
BRANCH  59  73
ATOM     73  C   UNL A   1      43.635  27.180  34.767  1.00  0.00     0.064 A 
ATOM     74  C   UNL A   1      42.497  26.358  34.796  1.00  0.00     0.173 A 
ATOM     75  C   UNL A   1      44.810  26.692  35.358  1.00  0.00     0.173 A 
ATOM     76  F   UNL A   1      41.346  26.778  34.250  1.00  0.00    -0.203 F 
ATOM     77  C   UNL A   1      42.525  25.117  35.430  1.00  0.00     0.198 A 
ATOM     78  C   UNL A   1      44.843  25.437  35.961  1.00  0.00     0.198 A 
ATOM     79  F   UNL A   1      45.930  27.431  35.348  1.00  0.00    -0.203 F 
ATOM     80  F   UNL A   1      41.410  24.378  35.498  1.00  0.00    -0.200 F 
ATOM     81  C   UNL A   1      43.698  24.657  36.008  1.00  0.00     0.200 A 
ATOM     82  F   UNL A   1      45.982  24.986  36.505  1.00  0.00    -0.200 F 
ATOM     83  F   UNL A   1      43.723  23.463  36.616  1.00  0.00    -0.200 F 
ENDBRANCH  59  73
BRANCH  60  84
ATOM     84  C   UNL A   1      43.418  35.874  29.900  1.00  0.00     0.064 A 
ATOM     85  C   UNL A   1      44.358  36.878  30.170  1.00  0.00     0.173 A 
ATOM     86  C   UNL A   1      42.447  36.136  28.922  1.00  0.00     0.173 A 
ATOM     87  F   UNL A   1      45.292  36.683  31.114  1.00  0.00    -0.203 F 
ATOM     88  C   UNL A   1      44.324  38.097  29.498  1.00  0.00     0.198 A 
ATOM     89  C   UNL A   1      42.430  37.344  28.230  1.00  0.00     0.198 A 
ATOM     90  F   UNL A   1      41.526  35.206  28.624  1.00  0.00    -0.203 F 
ATOM     91  F   UNL A   1      45.213  39.053  29.802  1.00  0.00    -0.200 F 
ATOM     92  C   UNL A   1      43.364  38.327  28.523  1.00  0.00     0.200 A 
ATOM     93  F   UNL A   1      41.511  37.557  27.280  1.00  0.00    -0.200 F 
ATOM     94  F   UNL A   1      43.338  39.496  27.870  1.00  0.00    -0.200 F 
ENDBRANCH  60  84
BRANCH  72  95
ATOM     95  C   UNL A   1      41.454  33.889  36.287  1.00  0.00     0.064 A 
ATOM     96  C   UNL A   1      42.234  34.656  37.164  1.00  0.00     0.173 A 
ATOM     97  C   UNL A   1      40.065  33.867  36.492  1.00  0.00     0.173 A 
ATOM     98  F   UNL A   1      43.567  34.698  37.021  1.00  0.00    -0.203 F 
ATOM     99  C   UNL A   1      41.650  35.352  38.221  1.00  0.00     0.198 A 
ATOM    100  C   UNL A   1      39.482  34.588  37.530  1.00  0.00     0.198 A 
ATOM    101  F   UNL A   1      39.272  33.154  35.678  1.00  0.00    -0.203 F 
ATOM    102  F   UNL A   1      42.420  36.039  39.074  1.00  0.00    -0.200 F 
ATOM    103  C   UNL A   1      40.274  35.323  38.398  1.00  0.00     0.200 A 
ATOM    104  F   UNL A   1      38.152  34.569  37.692  1.00  0.00    -0.200 F 
ATOM    105  F   UNL A   1      39.714  36.000  39.410  1.00  0.00    -0.200 F 
ENDBRANCH  72  95
ENDBRANCH  46  47
ENDBRANCH  38  41
ENDBRANCH  36  37
ENDBRANCH  35  36
ENDBRANCH  34  35
ENDBRANCH  33  34
ENDBRANCH   1  33
TORSDOF 18
ENDMDL
MODEL 3
REMARK VINA RESULT:      -8.3      5.435     10.742
REMARK SMILES CC[C@@H](Oc1ccccc1/C=C1/SC(=O)N(c2ccc(C)c(C)c2)C1=O)C(=O)NCCCCCCNC(=O)c1ccc(-c2c3nc(c(-c4c(F)c(F)c(F)c(F)c4F)c4ccc([nH]4)c(-c4c(F)c(F)c(F)c(F)c4F)c4nc(c(-c5c(F)c(F)c(F)c(F)c5F)c5ccc2[nH]5)C=C4)C=C3)cc1
REMARK SMILES IDX 31 1 30 2 29 3 27 4 28 5 3 7 2 8 1 9 4 10 5 11 6 12 10 13
REMARK SMILES IDX 7 14 9 15 8 16 11 17 12 18 13 19 25 20 14 21 16 22 26 23
REMARK SMILES IDX 15 24 17 25 18 26 24 27 19 28 22 29 20 30 23 31 21 32 32 33
REMARK SMILES IDX 33 34 34 35 35 36 36 37 37 38 38 40 39 41 40 42 101 43 41 44
REMARK SMILES IDX 100 45 42 46 43 47 44 48 94 49 45 50 99 51 93 52 95 53 46 54
REMARK SMILES IDX 98 55 92 56 91 57 47 59 79 60 59 61 78 62 60 63 63 64 77 65
REMARK SMILES IDX 96 66 61 67 62 68 76 70 97 71 64 72 48 73 49 74 57 75 50 76
REMARK SMILES IDX 51 77 55 78 58 79 52 80 53 81 56 82 54 83 80 84 81 85 89 86
REMARK SMILES IDX 82 87 83 88 87 89 90 90 84 91 85 92 88 93 86 94 65 95 66 96
REMARK SMILES IDX 74 97 67 98 68 99 72 100 75 101 69 102 70 103 73 104 71 105
REMARK H PARENT 29 6 36 39 95 58 63 69
REMARK Flexibility Score: inf
ROOT
ATOM      1  C   UNL A   1      34.949  30.725  27.648  1.00  0.00     0.021 C 
ENDROOT
BRANCH   1   2
ATOM      2  C   UNL A   1      34.495  29.346  27.158  1.00  0.00     0.116 C 
BRANCH   2   3
ATOM      3  N   UNL A   1      33.204  28.931  27.672  1.00  0.00    -0.353 N 
ATOM      4  C   UNL A   1      32.181  28.260  27.056  1.00  0.00     0.261 C 
ATOM      5  O   UNL A   1      31.275  27.832  27.779  1.00  0.00    -0.271 OA
ATOM      6  H   UNL A   1      33.037  29.169  28.613  1.00  0.00     0.163 HD
BRANCH   4   7
ATOM      7  C   UNL A   1      32.067  28.143  25.515  1.00  0.00     0.261 C 
BRANCH   7   8
ATOM      8  C   UNL A   1      31.722  29.542  24.970  1.00  0.00     0.052 C 
ATOM      9  C   UNL A   1      30.484  29.539  24.080  1.00  0.00     0.008 C 
ENDBRANCH   7   8
BRANCH   7  10
ATOM     10  O   UNL A   1      33.272  27.642  24.924  1.00  0.00    -0.480 OA
BRANCH  10  11
ATOM     11  C   UNL A   1      33.093  26.973  23.736  1.00  0.00     0.127 A 
ATOM     12  C   UNL A   1      33.370  27.632  22.538  1.00  0.00     0.047 A 
ATOM     13  C   UNL A   1      32.451  25.718  23.717  1.00  0.00     0.018 A 
ATOM     14  C   UNL A   1      33.050  27.023  21.321  1.00  0.00     0.004 A 
ATOM     15  C   UNL A   1      32.172  25.099  22.493  1.00  0.00     0.012 A 
ATOM     16  C   UNL A   1      32.468  25.755  21.298  1.00  0.00     0.001 A 
BRANCH  13  17
ATOM     17  C   UNL A   1      31.989  25.075  24.951  1.00  0.00     0.033 C 
ATOM     18  C   UNL A   1      32.715  24.152  25.595  1.00  0.00     0.084 C 
ATOM     19  S   UNL A   1      32.101  23.180  26.877  1.00  0.00    -0.022 SA
ATOM     20  C   UNL A   1      34.110  23.739  25.262  1.00  0.00     0.272 C 
ATOM     21  C   UNL A   1      33.484  22.092  26.818  1.00  0.00     0.298 C 
ATOM     22  N   UNL A   1      34.393  22.551  25.898  1.00  0.00    -0.236 N 
ATOM     23  O   UNL A   1      34.887  24.398  24.586  1.00  0.00    -0.268 OA
ATOM     24  O   UNL A   1      33.542  21.090  27.515  1.00  0.00    -0.260 OA
BRANCH  22  25
ATOM     25  C   UNL A   1      35.647  21.940  25.726  1.00  0.00     0.053 A 
ATOM     26  C   UNL A   1      35.733  20.701  25.104  1.00  0.00     0.027 A 
ATOM     27  C   UNL A   1      36.800  22.554  26.222  1.00  0.00     0.030 A 
ATOM     28  C   UNL A   1      36.978  20.098  24.944  1.00  0.00     0.006 A 
ATOM     29  C   UNL A   1      38.066  21.981  26.029  1.00  0.00    -0.046 A 
ATOM     30  C   UNL A   1      38.154  20.739  25.373  1.00  0.00    -0.048 A 
ATOM     31  C   UNL A   1      39.288  22.725  26.497  1.00  0.00     0.044 C 
ATOM     32  C   UNL A   1      39.466  20.030  25.185  1.00  0.00     0.044 C 
ENDBRANCH  22  25
ENDBRANCH  13  17
ENDBRANCH  10  11
ENDBRANCH   7  10
ENDBRANCH   4   7
ENDBRANCH   2   3
ENDBRANCH   1   2
BRANCH   1  33
ATOM     33  C   UNL A   1      33.836  31.764  27.871  1.00  0.00     0.002 C 
BRANCH  33  34
ATOM     34  C   UNL A   1      34.259  33.154  28.383  1.00  0.00     0.002 C 
BRANCH  34  35
ATOM     35  C   UNL A   1      35.760  33.366  28.598  1.00  0.00     0.021 C 
BRANCH  35  36
ATOM     36  C   UNL A   1      36.235  33.450  30.044  1.00  0.00     0.116 C 
BRANCH  36  37
ATOM     37  N   UNL A   1      35.909  32.248  30.797  1.00  0.00    -0.352 N 
ATOM     38  C   UNL A   1      36.553  31.044  30.951  1.00  0.00     0.251 C 
ATOM     39  H   UNL A   1      35.062  32.310  31.296  1.00  0.00     0.163 HD
ATOM     40  O   UNL A   1      35.928  30.124  31.482  1.00  0.00    -0.269 OA
BRANCH  38  41
ATOM     41  C   UNL A   1      37.954  30.788  30.512  1.00  0.00     0.039 A 
ATOM     42  C   UNL A   1      38.183  30.563  29.144  1.00  0.00     0.014 A 
ATOM     43  C   UNL A   1      39.023  30.639  31.395  1.00  0.00     0.014 A 
ATOM     44  C   UNL A   1      39.459  30.221  28.673  1.00  0.00     0.010 A 
ATOM     45  C   UNL A   1      40.316  30.389  30.916  1.00  0.00     0.010 A 
ATOM     46  C   UNL A   1      40.547  30.148  29.554  1.00  0.00    -0.014 A 
BRANCH  46  47
ATOM     47  C   UNL A   1      41.911  29.771  29.080  1.00  0.00     0.031 A 
ATOM     48  C   UNL A   1      43.019  30.794  29.049  1.00  0.00     0.074 A 
ATOM     49  C   UNL A   1      42.155  28.522  28.636  1.00  0.00     0.049 A 
ATOM     50  N   UNL A   1      44.248  30.680  28.604  1.00  0.00    -0.248 NA
ATOM     51  C   UNL A   1      42.694  32.134  29.561  1.00  0.00     0.031 C 
ATOM     52  C   UNL A   1      41.175  27.438  28.582  1.00  0.00     0.029 A 
ATOM     53  N   UNL A   1      43.305  27.956  28.139  1.00  0.00    -0.354 N 
ATOM     54  C   UNL A   1      44.827  31.935  28.757  1.00  0.00     0.074 A 
ATOM     55  C   UNL A   1      43.802  32.806  29.290  1.00  0.00     0.031 C 
ATOM     56  C   UNL A   1      41.770  26.332  28.107  1.00  0.00     0.029 A 
ATOM     57  C   UNL A   1      43.162  26.639  27.782  1.00  0.00     0.049 A 
ATOM     58  H   UNL A   1      44.152  28.451  28.047  1.00  0.00     0.167 HD
ATOM     59  C   UNL A   1      46.100  32.324  28.498  1.00  0.00     0.037 A 
ATOM     60  C   UNL A   1      44.046  25.774  27.246  1.00  0.00     0.037 A 
ATOM     61  C   UNL A   1      47.133  31.452  28.002  1.00  0.00     0.049 A 
ATOM     62  C   UNL A   1      45.453  26.228  26.961  1.00  0.00     0.074 A 
ATOM     63  C   UNL A   1      48.468  31.738  27.772  1.00  0.00     0.029 A 
ATOM     64  N   UNL A   1      46.947  30.122  27.658  1.00  0.00    -0.354 N 
ATOM     65  N   UNL A   1      46.001  27.401  27.161  1.00  0.00    -0.248 NA
ATOM     66  C   UNL A   1      46.364  25.234  26.377  1.00  0.00     0.031 C 
ATOM     67  C   UNL A   1      49.078  30.594  27.244  1.00  0.00     0.029 A 
ATOM     68  C   UNL A   1      48.136  29.580  27.195  1.00  0.00     0.049 A 
ATOM     69  H   UNL A   1      46.095  29.633  27.733  1.00  0.00     0.167 HD
ATOM     70  C   UNL A   1      47.324  27.280  26.757  1.00  0.00     0.074 A 
ATOM     71  C   UNL A   1      47.500  25.915  26.310  1.00  0.00     0.031 C 
ATOM     72  C   UNL A   1      48.303  28.217  26.758  1.00  0.00     0.037 A 
BRANCH  59  73
ATOM     73  C   UNL A   1      46.446  33.768  28.741  1.00  0.00     0.064 A 
ATOM     74  C   UNL A   1      46.904  34.218  29.990  1.00  0.00     0.173 A 
ATOM     75  C   UNL A   1      46.340  34.709  27.705  1.00  0.00     0.173 A 
ATOM     76  F   UNL A   1      47.018  33.361  31.015  1.00  0.00    -0.203 F 
ATOM     77  C   UNL A   1      47.199  35.563  30.204  1.00  0.00     0.198 A 
ATOM     78  C   UNL A   1      46.669  36.046  27.914  1.00  0.00     0.198 A 
ATOM     79  F   UNL A   1      45.920  34.332  26.488  1.00  0.00    -0.203 F 
ATOM     80  F   UNL A   1      47.574  35.978  31.420  1.00  0.00    -0.200 F 
ATOM     81  C   UNL A   1      47.086  36.474  29.165  1.00  0.00     0.200 A 
ATOM     82  F   UNL A   1      46.574  36.923  26.904  1.00  0.00    -0.200 F 
ATOM     83  F   UNL A   1      47.372  37.767  29.372  1.00  0.00    -0.200 F 
ENDBRANCH  59  73
BRANCH  60  84
ATOM     84  C   UNL A   1      43.631  24.373  26.971  1.00  0.00     0.064 A 
ATOM     85  C   UNL A   1      43.336  23.493  28.021  1.00  0.00     0.173 A 
ATOM     86  C   UNL A   1      43.511  23.889  25.660  1.00  0.00     0.173 A 
ATOM     87  F   UNL A   1      43.459  23.904  29.293  1.00  0.00    -0.203 F 
ATOM     88  C   UNL A   1      42.947  22.179  27.772  1.00  0.00     0.198 A 
ATOM     89  C   UNL A   1      43.095  22.583  25.411  1.00  0.00     0.198 A 
ATOM     90  F   UNL A   1      43.779  24.692  24.620  1.00  0.00    -0.203 F 
ATOM     91  F   UNL A   1      42.706  21.349  28.796  1.00  0.00    -0.200 F 
ATOM     92  C   UNL A   1      42.819  21.727  26.467  1.00  0.00     0.200 A 
ATOM     93  F   UNL A   1      42.959  22.154  24.150  1.00  0.00    -0.200 F 
ATOM     94  F   UNL A   1      42.436  20.466  26.228  1.00  0.00    -0.200 F 
ENDBRANCH  60  84
BRANCH  72  95
ATOM     95  C   UNL A   1      49.668  27.792  26.294  1.00  0.00     0.064 A 
ATOM     96  C   UNL A   1      50.698  27.501  27.201  1.00  0.00     0.173 A 
ATOM     97  C   UNL A   1      49.935  27.635  24.925  1.00  0.00     0.173 A 
ATOM     98  F   UNL A   1      50.499  27.649  28.519  1.00  0.00    -0.203 F 
ATOM     99  C   UNL A   1      51.952  27.092  26.752  1.00  0.00     0.198 A 
ATOM    100  C   UNL A   1      51.180  27.198  24.483  1.00  0.00     0.198 A 
ATOM    101  F   UNL A   1      48.983  27.895  24.016  1.00  0.00    -0.203 F 
ATOM    102  F   UNL A   1      52.934  26.863  27.635  1.00  0.00    -0.200 F 
ATOM    103  C   UNL A   1      52.190  26.933  25.395  1.00  0.00     0.200 A 
ATOM    104  F   UNL A   1      51.403  27.033  23.171  1.00  0.00    -0.200 F 
ATOM    105  F   UNL A   1      53.395  26.533  24.967  1.00  0.00    -0.200 F 
ENDBRANCH  72  95
ENDBRANCH  46  47
ENDBRANCH  38  41
ENDBRANCH  36  37
ENDBRANCH  35  36
ENDBRANCH  34  35
ENDBRANCH  33  34
ENDBRANCH   1  33
TORSDOF 18
ENDMDL
