MODEL 1
REMARK VINA RESULT:     -11.6      0.000      0.000
REMARK SMILES O=C(Cc1cccn(C(F)F)c1=O)NCCCCCCNC(=O)c1ccc(-c2c3nc(c(-c4c(F)c(F)c(F)c(F)c4F)c4ccc([nH]4)c(-c4c(F)c(F)c(F)c(F)c4F)c4nc(c(-c5c(F)c(F)c(F)c(F)c5F)c5ccc2[nH]5)C=C4)C=C3)cc1
REMARK SMILES IDX 17 1 16 2 15 3 14 4 1 5 2 6 3 8 4 9 5 10 12 11 6 12 8 13
REMARK SMILES IDX 13 14 7 15 9 16 10 17 11 18 18 19 19 20 20 21 21 22 22 23
REMARK SMILES IDX 23 25 24 26 25 27 86 28 26 29 85 30 27 31 28 32 29 33 79 34
REMARK SMILES IDX 30 35 84 36 78 37 80 38 31 39 83 40 77 41 76 42 32 44 64 45
REMARK SMILES IDX 44 46 63 47 45 48 48 49 62 50 81 51 46 52 47 53 61 55 82 56
REMARK SMILES IDX 49 57 33 58 34 59 42 60 35 61 36 62 40 63 43 64 37 65 38 66
REMARK SMILES IDX 41 67 39 68 65 69 66 70 74 71 67 72 68 73 72 74 75 75 69 76
REMARK SMILES IDX 70 77 73 78 71 79 50 80 51 81 59 82 52 83 53 84 57 85 60 86
REMARK SMILES IDX 54 87 55 88 58 89 56 90
REMARK H PARENT 14 7 21 24 80 43 48 54
REMARK Flexibility Score: inf
ROOT
ATOM      1  C   UNL A   1      37.036  22.342  24.652  1.00  0.00     0.002 C 
ENDROOT
BRANCH   1   2
ATOM      2  C   UNL A   1      36.068  22.626  23.493  1.00  0.00     0.021 C 
BRANCH   2   3
ATOM      3  C   UNL A   1      34.791  23.374  23.879  1.00  0.00     0.116 C 
BRANCH   3   4
ATOM      4  N   UNL A   1      33.652  22.485  23.919  1.00  0.00    -0.356 N 
ATOM      5  O   UNL A   1      33.836  21.821  26.112  1.00  0.00    -0.275 OA
ATOM      6  C   UNL A   1      33.261  21.776  25.029  1.00  0.00     0.224 C 
ATOM      7  H   UNL A   1      33.123  22.381  23.096  1.00  0.00     0.163 HD
BRANCH   6   8
ATOM      8  C   UNL A   1      32.024  20.914  24.794  1.00  0.00     0.141 C 
BRANCH   8   9
ATOM      9  C   UNL A   1      32.407  19.576  24.233  1.00  0.00     0.027 A 
ATOM     10  C   UNL A   1      32.437  19.297  22.919  1.00  0.00     0.011 A 
ATOM     11  C   UNL A   1      32.753  18.487  25.211  1.00  0.00     0.258 A 
ATOM     12  C   UNL A   1      32.824  17.995  22.441  1.00  0.00     0.019 A 
ATOM     13  N   UNL A   1      33.179  17.289  24.670  1.00  0.00    -0.258 N 
ATOM     14  O   UNL A   1      32.658  18.695  26.421  1.00  0.00    -0.269 OA
ATOM     15  C   UNL A   1      33.194  17.048  23.310  1.00  0.00     0.095 A 
BRANCH  13  16
ATOM     16  C   UNL A   1      33.593  16.250  25.579  1.00  0.00     0.451 C 
ATOM     17  F   UNL A   1      32.595  15.336  25.711  1.00  0.00    -0.185 F 
ATOM     18  F   UNL A   1      34.654  15.580  25.054  1.00  0.00    -0.185 F 
ENDBRANCH  13  16
ENDBRANCH   8   9
ENDBRANCH   6   8
ENDBRANCH   3   4
ENDBRANCH   2   3
ENDBRANCH   1   2
BRANCH   1  19
ATOM     19  C   UNL A   1      36.960  20.937  25.258  1.00  0.00     0.002 C 
BRANCH  19  20
ATOM     20  C   UNL A   1      38.145  20.023  24.948  1.00  0.00     0.021 C 
BRANCH  20  21
ATOM     21  C   UNL A   1      39.380  20.240  25.817  1.00  0.00     0.116 C 
BRANCH  21  22
ATOM     22  N   UNL A   1      40.297  19.109  25.823  1.00  0.00    -0.352 N 
ATOM     23  C   UNL A   1      41.650  19.101  26.080  1.00  0.00     0.251 C 
ATOM     24  H   UNL A   1      39.896  18.234  25.616  1.00  0.00     0.163 HD
ATOM     25  O   UNL A   1      42.305  18.071  25.949  1.00  0.00    -0.269 OA
BRANCH  23  26
ATOM     26  C   UNL A   1      42.325  20.361  26.466  1.00  0.00     0.039 A 
ATOM     27  C   UNL A   1      42.302  20.805  27.789  1.00  0.00     0.014 A 
ATOM     28  C   UNL A   1      42.940  21.135  25.477  1.00  0.00     0.014 A 
ATOM     29  C   UNL A   1      42.727  22.094  28.089  1.00  0.00     0.010 A 
ATOM     30  C   UNL A   1      43.440  22.401  25.797  1.00  0.00     0.010 A 
ATOM     31  C   UNL A   1      43.281  22.916  27.093  1.00  0.00    -0.014 A 
BRANCH  31  32
ATOM     32  C   UNL A   1      43.644  24.318  27.428  1.00  0.00     0.031 A 
ATOM     33  C   UNL A   1      45.031  24.839  27.148  1.00  0.00     0.074 A 
ATOM     34  C   UNL A   1      42.701  25.151  27.908  1.00  0.00     0.049 A 
ATOM     35  N   UNL A   1      45.510  26.046  27.321  1.00  0.00    -0.248 NA
ATOM     36  C   UNL A   1      46.007  23.882  26.605  1.00  0.00     0.031 C 
ATOM     37  C   UNL A   1      41.320  24.772  28.207  1.00  0.00     0.029 A 
ATOM     38  N   UNL A   1      42.749  26.492  28.195  1.00  0.00    -0.354 N 
ATOM     39  C   UNL A   1      46.840  25.989  26.923  1.00  0.00     0.074 A 
ATOM     40  C   UNL A   1      47.105  24.623  26.530  1.00  0.00     0.031 C 
ATOM     41  C   UNL A   1      40.636  25.865  28.576  1.00  0.00     0.029 A 
ATOM     42  C   UNL A   1      41.541  27.011  28.594  1.00  0.00     0.049 A 
ATOM     43  H   UNL A   1      43.570  27.030  28.123  1.00  0.00     0.167 HD
ATOM     44  C   UNL A   1      47.752  26.990  26.874  1.00  0.00     0.037 A 
ATOM     45  C   UNL A   1      41.199  28.266  28.938  1.00  0.00     0.037 A 
ATOM     46  C   UNL A   1      47.482  28.357  27.235  1.00  0.00     0.049 A 
ATOM     47  C   UNL A   1      42.243  29.347  28.915  1.00  0.00     0.074 A 
ATOM     48  C   UNL A   1      48.338  29.445  27.187  1.00  0.00     0.029 A 
ATOM     49  N   UNL A   1      46.265  28.825  27.704  1.00  0.00    -0.354 N 
ATOM     50  N   UNL A   1      43.493  29.279  28.530  1.00  0.00    -0.248 NA
ATOM     51  C   UNL A   1      41.829  30.676  29.387  1.00  0.00     0.031 C 
ATOM     52  C   UNL A   1      47.648  30.565  27.665  1.00  0.00     0.029 A 
ATOM     53  C   UNL A   1      46.353  30.182  27.973  1.00  0.00     0.049 A 
ATOM     54  H   UNL A   1      45.458  28.276  27.829  1.00  0.00     0.167 HD
ATOM     55  C   UNL A   1      44.015  30.552  28.709  1.00  0.00     0.074 A 
ATOM     56  C   UNL A   1      42.940  31.381  29.214  1.00  0.00     0.031 C 
ATOM     57  C   UNL A   1      45.277  30.991  28.482  1.00  0.00     0.037 A 
BRANCH  44  58
ATOM     58  C   UNL A   1      49.138  26.651  26.410  1.00  0.00     0.064 A 
ATOM     59  C   UNL A   1      49.520  26.806  25.070  1.00  0.00     0.173 A 
ATOM     60  C   UNL A   1      50.115  26.238  27.330  1.00  0.00     0.173 A 
ATOM     61  F   UNL A   1      48.621  27.189  24.151  1.00  0.00    -0.203 F 
ATOM     62  C   UNL A   1      50.827  26.546  24.665  1.00  0.00     0.198 A 
ATOM     63  C   UNL A   1      51.425  26.000  26.924  1.00  0.00     0.198 A 
ATOM     64  F   UNL A   1      49.800  26.083  28.625  1.00  0.00    -0.203 F 
ATOM     65  F   UNL A   1      51.164  26.672  23.374  1.00  0.00    -0.200 F 
ATOM     66  C   UNL A   1      51.779  26.151  25.593  1.00  0.00     0.200 A 
ATOM     67  F   UNL A   1      52.347  25.632  27.824  1.00  0.00    -0.200 F 
ATOM     68  F   UNL A   1      53.040  25.915  25.202  1.00  0.00    -0.200 F 
ENDBRANCH  44  58
BRANCH  45  69
ATOM     69  C   UNL A   1      39.798  28.563  29.326  1.00  0.00     0.064 A 
ATOM     70  C   UNL A   1      39.361  28.369  30.643  1.00  0.00     0.173 A 
ATOM     71  C   UNL A   1      38.877  29.072  28.398  1.00  0.00     0.173 A 
ATOM     72  F   UNL A   1      40.201  27.865  31.559  1.00  0.00    -0.203 F 
ATOM     73  C   UNL A   1      38.053  28.672  31.018  1.00  0.00     0.198 A 
ATOM     74  C   UNL A   1      37.578  29.397  28.780  1.00  0.00     0.198 A 
ATOM     75  F   UNL A   1      39.249  29.275  27.126  1.00  0.00    -0.203 F 
ATOM     76  F   UNL A   1      37.652  28.451  32.277  1.00  0.00    -0.200 F 
ATOM     77  C   UNL A   1      37.166  29.193  30.088  1.00  0.00     0.200 A 
ATOM     78  F   UNL A   1      36.728  29.915  27.883  1.00  0.00    -0.200 F 
ATOM     79  F   UNL A   1      35.913  29.497  30.453  1.00  0.00    -0.200 F 
ENDBRANCH  45  69
BRANCH  57  80
ATOM     80  C   UNL A   1      45.572  32.430  28.782  1.00  0.00     0.064 A 
ATOM     81  C   UNL A   1      46.107  32.819  30.018  1.00  0.00     0.173 A 
ATOM     82  C   UNL A   1      45.384  33.417  27.804  1.00  0.00     0.173 A 
ATOM     83  F   UNL A   1      46.291  31.911  30.990  1.00  0.00    -0.203 F 
ATOM     84  C   UNL A   1      46.433  34.149  30.268  1.00  0.00     0.198 A 
ATOM     85  C   UNL A   1      45.735  34.742  28.049  1.00  0.00     0.198 A 
ATOM     86  F   UNL A   1      44.881  33.092  26.603  1.00  0.00    -0.203 F 
ATOM     87  F   UNL A   1      46.917  34.504  31.467  1.00  0.00    -0.200 F 
ATOM     88  C   UNL A   1      46.256  35.107  29.281  1.00  0.00     0.200 A 
ATOM     89  F   UNL A   1      45.573  35.664  27.090  1.00  0.00    -0.200 F 
ATOM     90  F   UNL A   1      46.585  36.384  29.519  1.00  0.00    -0.200 F 
ENDBRANCH  57  80
ENDBRANCH  31  32
ENDBRANCH  23  26
ENDBRANCH  21  22
ENDBRANCH  20  21
ENDBRANCH  19  20
ENDBRANCH   1  19
TORSDOF 15
ENDMDL
MODEL 2
REMARK VINA RESULT:     -11.5      4.531      7.467
REMARK SMILES O=C(Cc1cccn(C(F)F)c1=O)NCCCCCCNC(=O)c1ccc(-c2c3nc(c(-c4c(F)c(F)c(F)c(F)c4F)c4ccc([nH]4)c(-c4c(F)c(F)c(F)c(F)c4F)c4nc(c(-c5c(F)c(F)c(F)c(F)c5F)c5ccc2[nH]5)C=C4)C=C3)cc1
REMARK SMILES IDX 17 1 16 2 15 3 14 4 1 5 2 6 3 8 4 9 5 10 12 11 6 12 8 13
REMARK SMILES IDX 13 14 7 15 9 16 10 17 11 18 18 19 19 20 20 21 21 22 22 23
REMARK SMILES IDX 23 25 24 26 25 27 86 28 26 29 85 30 27 31 28 32 29 33 79 34
REMARK SMILES IDX 30 35 84 36 78 37 80 38 31 39 83 40 77 41 76 42 32 44 64 45
REMARK SMILES IDX 44 46 63 47 45 48 48 49 62 50 81 51 46 52 47 53 61 55 82 56
REMARK SMILES IDX 49 57 33 58 34 59 42 60 35 61 36 62 40 63 43 64 37 65 38 66
REMARK SMILES IDX 41 67 39 68 65 69 66 70 74 71 67 72 68 73 72 74 75 75 69 76
REMARK SMILES IDX 70 77 73 78 71 79 50 80 51 81 59 82 52 83 53 84 57 85 60 86
REMARK SMILES IDX 54 87 55 88 58 89 56 90
REMARK H PARENT 14 7 21 24 80 43 48 54
REMARK Flexibility Score: inf
ROOT
ATOM      1  C   UNL A   1      42.707  23.422  27.741  1.00  0.00     0.002 C 
ENDROOT
BRANCH   1   2
ATOM      2  C   UNL A   1      43.865  24.030  28.548  1.00  0.00     0.021 C 
BRANCH   2   3
ATOM      3  C   UNL A   1      45.256  23.504  28.190  1.00  0.00     0.116 C 
BRANCH   3   4
ATOM      4  N   UNL A   1      45.257  22.856  26.899  1.00  0.00    -0.356 N 
ATOM      5  O   UNL A   1      47.049  23.965  25.982  1.00  0.00    -0.275 OA
ATOM      6  C   UNL A   1      46.150  23.134  25.893  1.00  0.00     0.224 C 
ATOM      7  H   UNL A   1      44.573  22.169  26.730  1.00  0.00     0.163 HD
BRANCH   6   8
ATOM      8  C   UNL A   1      45.926  22.302  24.635  1.00  0.00     0.141 C 
BRANCH   8   9
ATOM      9  C   UNL A   1      45.595  20.881  24.988  1.00  0.00     0.027 A 
ATOM     10  C   UNL A   1      46.509  19.900  25.071  1.00  0.00     0.011 A 
ATOM     11  C   UNL A   1      44.150  20.547  25.240  1.00  0.00     0.258 A 
ATOM     12  C   UNL A   1      46.132  18.556  25.427  1.00  0.00     0.019 A 
ATOM     13  N   UNL A   1      43.882  19.253  25.642  1.00  0.00    -0.258 N 
ATOM     14  O   UNL A   1      43.286  21.411  25.095  1.00  0.00    -0.269 OA
ATOM     15  C   UNL A   1      44.856  18.276  25.715  1.00  0.00     0.095 A 
BRANCH  13  16
ATOM     16  C   UNL A   1      42.518  18.919  25.968  1.00  0.00     0.451 C 
ATOM     17  F   UNL A   1      42.320  17.586  25.791  1.00  0.00    -0.185 F 
ATOM     18  F   UNL A   1      42.289  19.166  27.286  1.00  0.00    -0.185 F 
ENDBRANCH  13  16
ENDBRANCH   8   9
ENDBRANCH   6   8
ENDBRANCH   3   4
ENDBRANCH   2   3
ENDBRANCH   1   2
BRANCH   1  19
ATOM     19  C   UNL A   1      41.823  22.421  28.492  1.00  0.00     0.002 C 
BRANCH  19  20
ATOM     20  C   UNL A   1      40.706  21.783  27.665  1.00  0.00     0.021 C 
BRANCH  20  21
ATOM     21  C   UNL A   1      40.622  22.247  26.215  1.00  0.00     0.116 C 
BRANCH  21  22
ATOM     22  N   UNL A   1      39.290  22.674  25.814  1.00  0.00    -0.352 N 
ATOM     23  C   UNL A   1      38.604  23.810  26.184  1.00  0.00     0.251 C 
ATOM     24  H   UNL A   1      38.817  22.072  25.195  1.00  0.00     0.163 HD
ATOM     25  O   UNL A   1      37.441  23.980  25.832  1.00  0.00    -0.269 OA
BRANCH  23  26
ATOM     26  C   UNL A   1      39.264  24.807  27.057  1.00  0.00     0.039 A 
ATOM     27  C   UNL A   1      39.034  24.811  28.434  1.00  0.00     0.014 A 
ATOM     28  C   UNL A   1      40.078  25.785  26.479  1.00  0.00     0.014 A 
ATOM     29  C   UNL A   1      39.464  25.890  29.199  1.00  0.00     0.010 A 
ATOM     30  C   UNL A   1      40.577  26.829  27.266  1.00  0.00     0.010 A 
ATOM     31  C   UNL A   1      40.222  26.922  28.620  1.00  0.00    -0.014 A 
BRANCH  31  32
ATOM     32  C   UNL A   1      40.590  28.102  29.446  1.00  0.00     0.031 A 
ATOM     33  C   UNL A   1      42.006  28.287  29.931  1.00  0.00     0.074 A 
ATOM     34  C   UNL A   1      39.670  29.054  29.691  1.00  0.00     0.049 A 
ATOM     35  N   UNL A   1      42.522  29.280  30.612  1.00  0.00    -0.248 NA
ATOM     36  C   UNL A   1      42.967  27.220  29.611  1.00  0.00     0.031 C 
ATOM     37  C   UNL A   1      38.271  28.998  29.264  1.00  0.00     0.029 A 
ATOM     38  N   UNL A   1      39.777  30.265  30.326  1.00  0.00    -0.354 N 
ATOM     39  C   UNL A   1      43.857  28.951  30.813  1.00  0.00     0.074 A 
ATOM     40  C   UNL A   1      44.067  27.653  30.212  1.00  0.00     0.031 C 
ATOM     41  C   UNL A   1      37.667  30.149  29.594  1.00  0.00     0.029 A 
ATOM     42  C   UNL A   1      38.617  31.001  30.304  1.00  0.00     0.049 A 
ATOM     43  H   UNL A   1      40.606  30.577  30.757  1.00  0.00     0.167 HD
ATOM     44  C   UNL A   1      44.823  29.675  31.429  1.00  0.00     0.037 A 
ATOM     45  C   UNL A   1      38.347  32.222  30.800  1.00  0.00     0.037 A 
ATOM     46  C   UNL A   1      44.624  30.980  32.000  1.00  0.00     0.049 A 
ATOM     47  C   UNL A   1      39.427  32.983  31.515  1.00  0.00     0.074 A 
ATOM     48  C   UNL A   1      45.553  31.801  32.617  1.00  0.00     0.029 A 
ATOM     49  N   UNL A   1      43.415  31.658  32.021  1.00  0.00    -0.354 N 
ATOM     50  N   UNL A   1      40.685  32.663  31.691  1.00  0.00    -0.248 NA
ATOM     51  C   UNL A   1      39.045  34.271  32.112  1.00  0.00     0.031 C 
ATOM     52  C   UNL A   1      44.897  32.961  33.045  1.00  0.00     0.029 A 
ATOM     53  C   UNL A   1      43.569  32.878  32.661  1.00  0.00     0.049 A 
ATOM     54  H   UNL A   1      42.572  31.323  31.639  1.00  0.00     0.167 HD
ATOM     55  C   UNL A   1      41.246  33.706  32.414  1.00  0.00     0.074 A 
ATOM     56  C   UNL A   1      40.198  34.683  32.623  1.00  0.00     0.031 C 
ATOM     57  C   UNL A   1      42.515  33.837  32.869  1.00  0.00     0.037 A 
BRANCH  44  58
ATOM     58  C   UNL A   1      46.195  29.075  31.519  1.00  0.00     0.064 A 
ATOM     59  C   UNL A   1      46.576  28.279  32.609  1.00  0.00     0.173 A 
ATOM     60  C   UNL A   1      47.114  29.238  30.471  1.00  0.00     0.173 A 
ATOM     61  F   UNL A   1      45.738  28.102  33.642  1.00  0.00    -0.203 F 
ATOM     62  C   UNL A   1      47.832  27.679  32.652  1.00  0.00     0.198 A 
ATOM     63  C   UNL A   1      48.359  28.618  30.507  1.00  0.00     0.198 A 
ATOM     64  F   UNL A   1      46.793  29.983  29.402  1.00  0.00    -0.203 F 
ATOM     65  F   UNL A   1      48.187  26.947  33.717  1.00  0.00    -0.200 F 
ATOM     66  C   UNL A   1      48.718  27.842  31.598  1.00  0.00     0.200 A 
ATOM     67  F   UNL A   1      49.210  28.765  29.482  1.00  0.00    -0.200 F 
ATOM     68  F   UNL A   1      49.922  27.251  31.636  1.00  0.00    -0.200 F 
ENDBRANCH  44  58
BRANCH  45  69
ATOM     69  C   UNL A   1      36.991  32.800  30.626  1.00  0.00     0.064 A 
ATOM     70  C   UNL A   1      36.021  32.668  31.629  1.00  0.00     0.173 A 
ATOM     71  C   UNL A   1      36.647  33.516  29.471  1.00  0.00     0.173 A 
ATOM     72  F   UNL A   1      36.297  31.972  32.741  1.00  0.00    -0.203 F 
ATOM     73  C   UNL A   1      34.754  33.230  31.480  1.00  0.00     0.198 A 
ATOM     74  C   UNL A   1      35.389  34.099  29.335  1.00  0.00     0.198 A 
ATOM     75  F   UNL A   1      37.542  33.670  28.485  1.00  0.00    -0.203 F 
ATOM     76  F   UNL A   1      33.835  33.067  32.441  1.00  0.00    -0.200 F 
ATOM     77  C   UNL A   1      34.443  33.953  30.338  1.00  0.00     0.200 A 
ATOM     78  F   UNL A   1      35.097  34.809  28.237  1.00  0.00    -0.200 F 
ATOM     79  F   UNL A   1      33.229  34.506  30.203  1.00  0.00    -0.200 F 
ENDBRANCH  45  69
BRANCH  57  80
ATOM     80  C   UNL A   1      42.847  35.075  33.646  1.00  0.00     0.064 A 
ATOM     81  C   UNL A   1      42.796  35.088  35.047  1.00  0.00     0.173 A 
ATOM     82  C   UNL A   1      43.284  36.235  32.990  1.00  0.00     0.173 A 
ATOM     83  F   UNL A   1      42.370  34.007  35.717  1.00  0.00    -0.203 F 
ATOM     84  C   UNL A   1      43.162  36.224  35.764  1.00  0.00     0.198 A 
ATOM     85  C   UNL A   1      43.672  37.361  33.710  1.00  0.00     0.198 A 
ATOM     86  F   UNL A   1      43.355  36.268  31.650  1.00  0.00    -0.203 F 
ATOM     87  F   UNL A   1      43.080  36.225  37.101  1.00  0.00    -0.200 F 
ATOM     88  C   UNL A   1      43.608  37.355  35.096  1.00  0.00     0.200 A 
ATOM     89  F   UNL A   1      44.113  38.449  33.065  1.00  0.00    -0.200 F 
ATOM     90  F   UNL A   1      43.974  38.443  35.789  1.00  0.00    -0.200 F 
ENDBRANCH  57  80
ENDBRANCH  31  32
ENDBRANCH  23  26
ENDBRANCH  21  22
ENDBRANCH  20  21
ENDBRANCH  19  20
ENDBRANCH   1  19
TORSDOF 15
ENDMDL
MODEL 3
REMARK VINA RESULT:     -11.5      5.155     10.303
REMARK SMILES O=C(Cc1cccn(C(F)F)c1=O)NCCCCCCNC(=O)c1ccc(-c2c3nc(c(-c4c(F)c(F)c(F)c(F)c4F)c4ccc([nH]4)c(-c4c(F)c(F)c(F)c(F)c4F)c4nc(c(-c5c(F)c(F)c(F)c(F)c5F)c5ccc2[nH]5)C=C4)C=C3)cc1
REMARK SMILES IDX 17 1 16 2 15 3 14 4 1 5 2 6 3 8 4 9 5 10 12 11 6 12 8 13
REMARK SMILES IDX 13 14 7 15 9 16 10 17 11 18 18 19 19 20 20 21 21 22 22 23
REMARK SMILES IDX 23 25 24 26 25 27 86 28 26 29 85 30 27 31 28 32 29 33 79 34
REMARK SMILES IDX 30 35 84 36 78 37 80 38 31 39 83 40 77 41 76 42 32 44 64 45
REMARK SMILES IDX 44 46 63 47 45 48 48 49 62 50 81 51 46 52 47 53 61 55 82 56
REMARK SMILES IDX 49 57 33 58 34 59 42 60 35 61 36 62 40 63 43 64 37 65 38 66
REMARK SMILES IDX 41 67 39 68 65 69 66 70 74 71 67 72 68 73 72 74 75 75 69 76
REMARK SMILES IDX 70 77 73 78 71 79 50 80 51 81 59 82 52 83 53 84 57 85 60 86
REMARK SMILES IDX 54 87 55 88 58 89 56 90
REMARK H PARENT 14 7 21 24 80 43 48 54
REMARK Flexibility Score: inf
ROOT
ATOM      1  C   UNL A   1      31.001  26.736  24.602  1.00  0.00     0.002 C 
ENDROOT
BRANCH   1   2
ATOM      2  C   UNL A   1      30.838  27.631  23.363  1.00  0.00     0.021 C 
BRANCH   2   3
ATOM      3  C   UNL A   1      30.972  26.914  22.019  1.00  0.00     0.116 C 
BRANCH   3   4
ATOM      4  N   UNL A   1      31.542  25.596  22.179  1.00  0.00    -0.356 N 
ATOM      5  O   UNL A   1      33.638  26.047  21.351  1.00  0.00    -0.275 OA
ATOM      6  C   UNL A   1      32.828  25.261  21.833  1.00  0.00     0.224 C 
ATOM      7  H   UNL A   1      30.970  24.892  22.561  1.00  0.00     0.163 HD
BRANCH   6   8
ATOM      8  C   UNL A   1      33.171  23.801  22.110  1.00  0.00     0.141 C 
BRANCH   8   9
ATOM      9  C   UNL A   1      33.719  23.637  23.498  1.00  0.00     0.027 A 
ATOM     10  C   UNL A   1      35.024  23.736  23.802  1.00  0.00     0.011 A 
ATOM     11  C   UNL A   1      32.742  23.321  24.597  1.00  0.00     0.258 A 
ATOM     12  C   UNL A   1      35.489  23.580  25.156  1.00  0.00     0.019 A 
ATOM     13  N   UNL A   1      33.260  23.255  25.877  1.00  0.00    -0.258 N 
ATOM     14  O   UNL A   1      31.553  23.149  24.331  1.00  0.00    -0.269 OA
ATOM     15  C   UNL A   1      34.611  23.365  26.142  1.00  0.00     0.095 A 
BRANCH  13  16
ATOM     16  C   UNL A   1      32.340  23.032  26.963  1.00  0.00     0.451 C 
ATOM     17  F   UNL A   1      33.034  22.779  28.104  1.00  0.00    -0.185 F 
ATOM     18  F   UNL A   1      31.625  24.165  27.197  1.00  0.00    -0.185 F 
ENDBRANCH  13  16
ENDBRANCH   8   9
ENDBRANCH   6   8
ENDBRANCH   3   4
ENDBRANCH   2   3
ENDBRANCH   1   2
BRANCH   1  19
ATOM     19  C   UNL A   1      31.373  27.455  25.901  1.00  0.00     0.002 C 
BRANCH  19  20
ATOM     20  C   UNL A   1      31.527  28.972  25.791  1.00  0.00     0.021 C 
BRANCH  20  21
ATOM     21  C   UNL A   1      32.516  29.600  26.767  1.00  0.00     0.116 C 
BRANCH  21  22
ATOM     22  N   UNL A   1      32.377  31.044  26.894  1.00  0.00    -0.352 N 
ATOM     23  C   UNL A   1      33.283  31.954  27.389  1.00  0.00     0.251 C 
ATOM     24  H   UNL A   1      31.521  31.418  26.584  1.00  0.00     0.163 HD
ATOM     25  O   UNL A   1      32.976  33.135  27.520  1.00  0.00    -0.269 OA
BRANCH  23  26
ATOM     26  C   UNL A   1      34.624  31.490  27.814  1.00  0.00     0.039 A 
ATOM     27  C   UNL A   1      34.845  30.150  28.136  1.00  0.00     0.014 A 
ATOM     28  C   UNL A   1      35.657  32.423  27.944  1.00  0.00     0.014 A 
ATOM     29  C   UNL A   1      36.032  29.780  28.759  1.00  0.00     0.010 A 
ATOM     30  C   UNL A   1      36.881  32.031  28.498  1.00  0.00     0.010 A 
ATOM     31  C   UNL A   1      37.055  30.720  28.966  1.00  0.00    -0.014 A 
BRANCH  31  32
ATOM     32  C   UNL A   1      38.275  30.312  29.712  1.00  0.00     0.031 A 
ATOM     33  C   UNL A   1      38.493  30.766  31.133  1.00  0.00     0.074 A 
ATOM     34  C   UNL A   1      39.150  29.463  29.139  1.00  0.00     0.049 A 
ATOM     35  N   UNL A   1      39.466  30.464  31.956  1.00  0.00    -0.248 NA
ATOM     36  C   UNL A   1      37.489  31.676  31.706  1.00  0.00     0.031 C 
ATOM     37  C   UNL A   1      39.044  28.942  27.776  1.00  0.00     0.029 A 
ATOM     38  N   UNL A   1      40.279  28.864  29.639  1.00  0.00    -0.354 N 
ATOM     39  C   UNL A   1      39.201  31.155  33.131  1.00  0.00     0.074 A 
ATOM     40  C   UNL A   1      37.992  31.918  32.908  1.00  0.00     0.031 C 
ATOM     41  C   UNL A   1      40.028  28.055  27.570  1.00  0.00     0.029 A 
ATOM     42  C   UNL A   1      40.867  27.986  28.762  1.00  0.00     0.049 A 
ATOM     43  H   UNL A   1      40.633  29.046  30.539  1.00  0.00     0.167 HD
ATOM     44  C   UNL A   1      39.892  31.141  34.296  1.00  0.00     0.037 A 
ATOM     45  C   UNL A   1      41.960  27.213  28.901  1.00  0.00     0.037 A 
ATOM     46  C   UNL A   1      41.077  30.359  34.531  1.00  0.00     0.049 A 
ATOM     47  C   UNL A   1      42.731  27.250  30.189  1.00  0.00     0.074 A 
ATOM     48  C   UNL A   1      41.826  30.258  35.692  1.00  0.00     0.029 A 
ATOM     49  N   UNL A   1      41.682  29.539  33.592  1.00  0.00    -0.354 N 
ATOM     50  N   UNL A   1      42.464  27.902  31.293  1.00  0.00    -0.248 NA
ATOM     51  C   UNL A   1      43.965  26.452  30.246  1.00  0.00     0.031 C 
ATOM     52  C   UNL A   1      42.908  29.406  35.441  1.00  0.00     0.029 A 
ATOM     53  C   UNL A   1      42.809  28.946  34.139  1.00  0.00     0.049 A 
ATOM     54  H   UNL A   1      41.359  29.397  32.672  1.00  0.00     0.167 HD
ATOM     55  C   UNL A   1      43.489  27.594  32.176  1.00  0.00     0.074 A 
ATOM     56  C   UNL A   1      44.373  26.675  31.489  1.00  0.00     0.031 C 
ATOM     57  C   UNL A   1      43.683  28.040  33.440  1.00  0.00     0.037 A 
BRANCH  44  58
ATOM     58  C   UNL A   1      39.388  31.998  35.420  1.00  0.00     0.064 A 
ATOM     59  C   UNL A   1      38.506  31.494  36.386  1.00  0.00     0.173 A 
ATOM     60  C   UNL A   1      39.850  33.315  35.573  1.00  0.00     0.173 A 
ATOM     61  F   UNL A   1      38.028  30.246  36.279  1.00  0.00    -0.203 F 
ATOM     62  C   UNL A   1      38.093  32.283  37.458  1.00  0.00     0.198 A 
ATOM     63  C   UNL A   1      39.452  34.091  36.657  1.00  0.00     0.198 A 
ATOM     64  F   UNL A   1      40.701  33.840  34.679  1.00  0.00    -0.203 F 
ATOM     65  F   UNL A   1      37.226  31.791  38.354  1.00  0.00    -0.200 F 
ATOM     66  C   UNL A   1      38.573  33.576  37.597  1.00  0.00     0.200 A 
ATOM     67  F   UNL A   1      39.927  35.337  36.798  1.00  0.00    -0.200 F 
ATOM     68  F   UNL A   1      38.184  34.328  38.637  1.00  0.00    -0.200 F 
ENDBRANCH  44  58
BRANCH  45  69
ATOM     69  C   UNL A   1      42.380  26.331  27.783  1.00  0.00     0.064 A 
ATOM     70  C   UNL A   1      41.809  25.062  27.617  1.00  0.00     0.173 A 
ATOM     71  C   UNL A   1      43.335  26.748  26.845  1.00  0.00     0.173 A 
ATOM     72  F   UNL A   1      40.908  24.612  28.502  1.00  0.00    -0.203 F 
ATOM     73  C   UNL A   1      42.182  24.241  26.554  1.00  0.00     0.198 A 
ATOM     74  C   UNL A   1      43.688  25.937  25.769  1.00  0.00     0.198 A 
ATOM     75  F   UNL A   1      43.909  27.955  26.961  1.00  0.00    -0.203 F 
ATOM     76  F   UNL A   1      41.643  23.021  26.432  1.00  0.00    -0.200 F 
ATOM     77  C   UNL A   1      43.114  24.683  25.626  1.00  0.00     0.200 A 
ATOM     78  F   UNL A   1      44.577  26.373  24.867  1.00  0.00    -0.200 F 
ATOM     79  F   UNL A   1      43.460  23.898  24.597  1.00  0.00    -0.200 F 
ENDBRANCH  45  69
BRANCH  57  80
ATOM     80  C   UNL A   1      44.900  27.550  34.167  1.00  0.00     0.064 A 
ATOM     81  C   UNL A   1      46.099  28.276  34.146  1.00  0.00     0.173 A 
ATOM     82  C   UNL A   1      44.846  26.384  34.944  1.00  0.00     0.173 A 
ATOM     83  F   UNL A   1      46.201  29.389  33.405  1.00  0.00    -0.203 F 
ATOM     84  C   UNL A   1      47.206  27.844  34.871  1.00  0.00     0.198 A 
ATOM     85  C   UNL A   1      45.948  25.969  35.688  1.00  0.00     0.198 A 
ATOM     86  F   UNL A   1      43.718  25.660  35.001  1.00  0.00    -0.203 F 
ATOM     87  F   UNL A   1      48.352  28.538  34.815  1.00  0.00    -0.200 F 
ATOM     88  C   UNL A   1      47.127  26.698  35.648  1.00  0.00     0.200 A 
ATOM     89  F   UNL A   1      45.866  24.868  36.446  1.00  0.00    -0.200 F 
ATOM     90  F   UNL A   1      48.190  26.293  36.357  1.00  0.00    -0.200 F 
ENDBRANCH  57  80
ENDBRANCH  31  32
ENDBRANCH  23  26
ENDBRANCH  21  22
ENDBRANCH  20  21
ENDBRANCH  19  20
ENDBRANCH   1  19
TORSDOF 15
ENDMDL
