MODEL 1
REMARK VINA RESULT:     -12.1      0.000      0.000
REMARK SMILES [NH3+]Cc1ccc(C(=O)N2[C@@H](C(=O)NCCCCCCNC(=O)c3ccc(-c4c5nc(c(-c6c(F)c(F)c(F)c(F)c6F)c6ccc([nH]6)c(-c6c(F)c(F)c(F)c(F)c6F)c6nc(c(-c7c(F)c(F)c(F)c(F)c7F)c7ccc4[nH]7)C=C6)C=C5)cc3)C[C@H]3CCCC[C@@H]32)o1
REMARK SMILES IDX 15 1 14 2 13 3 11 4 12 5 10 7 9 8 92 9 86 10 87 11 91 12
REMARK SMILES IDX 88 13 90 14 89 15 7 16 8 17 6 18 3 19 4 20 93 21 5 22 2 23
REMARK SMILES IDX 1 24 16 28 17 29 18 30 19 31 20 32 21 33 22 35 23 36 24 37
REMARK SMILES IDX 85 38 25 39 84 40 26 41 27 42 28 43 78 44 29 45 83 46 77 47
REMARK SMILES IDX 79 48 30 49 82 50 76 51 75 52 31 54 63 55 43 56 62 57 44 58
REMARK SMILES IDX 47 59 61 60 80 61 45 62 46 63 60 65 81 66 48 67 32 68 33 69
REMARK SMILES IDX 41 70 34 71 35 72 39 73 42 74 36 75 37 76 40 77 38 78 64 79
REMARK SMILES IDX 65 80 73 81 66 82 67 83 71 84 74 85 68 86 69 87 72 88 70 89
REMARK SMILES IDX 49 90 50 91 58 92 51 93 52 94 56 95 59 96 53 97 54 98 57 99
REMARK SMILES IDX 55 100
REMARK H PARENT 13 6 1 25 1 26 1 27 20 34 79 53 47 64
REMARK Flexibility Score: inf
ROOT
ATOM      1  C   UNL A   1      32.296  28.435  25.723  1.00  0.00     0.021 C 
ENDROOT
BRANCH   1   2
ATOM      2  C   UNL A   1      32.904  27.292  26.542  1.00  0.00     0.116 C 
BRANCH   2   3
ATOM      3  N   UNL A   1      31.922  26.289  26.906  1.00  0.00    -0.354 N 
ATOM      4  C   UNL A   1      31.836  24.953  26.661  1.00  0.00     0.242 C 
ATOM      5  O   UNL A   1      30.837  24.382  27.122  1.00  0.00    -0.273 OA
ATOM      6  H   UNL A   1      31.170  26.643  27.435  1.00  0.00     0.163 HD
BRANCH   4   7
ATOM      7  C   UNL A   1      32.754  24.174  25.684  1.00  0.00     0.175 C 
ATOM      8  N   UNL A   1      32.371  24.079  24.267  1.00  0.00    -0.321 N 
ATOM      9  C   UNL A   1      32.021  22.717  23.919  1.00  0.00     0.089 C 
ATOM     10  C   UNL A   1      32.843  22.702  26.152  1.00  0.00     0.041 C 
ATOM     11  C   UNL A   1      32.946  21.927  24.844  1.00  0.00     0.014 C 
ATOM     12  C   UNL A   1      32.211  22.236  22.484  1.00  0.00     0.025 C 
ATOM     13  C   UNL A   1      32.557  20.460  24.859  1.00  0.00     0.006 C 
ATOM     14  C   UNL A   1      31.865  20.743  22.410  1.00  0.00     0.002 C 
ATOM     15  C   UNL A   1      32.633  19.898  23.434  1.00  0.00     0.000 C 
BRANCH   8  16
ATOM     16  C   UNL A   1      32.376  25.102  23.333  1.00  0.00     0.290 C 
ATOM     17  O   UNL A   1      33.408  25.345  22.705  1.00  0.00    -0.265 OA
BRANCH  16  18
ATOM     18  C   UNL A   1      31.192  25.947  23.250  1.00  0.00     0.192 A 
ATOM     19  C   UNL A   1      30.135  27.819  22.706  1.00  0.00     0.159 A 
ATOM     20  C   UNL A   1      29.283  27.118  23.530  1.00  0.00     0.052 A 
ATOM     21  O   UNL A   1      31.286  27.107  22.519  1.00  0.00    -0.450 OA
ATOM     22  C   UNL A   1      29.965  25.932  23.892  1.00  0.00     0.057 A 
BRANCH  19  23
ATOM     23  C   UNL A   1      30.031  29.167  22.075  1.00  0.00     0.335 C 
BRANCH  23  24
ATOM     24  N   UNL A   1      31.328  29.816  21.904  1.00  0.00    -0.351 N 
ATOM     25  H   UNL A   1      32.036  29.307  22.434  1.00  0.00     0.344 HD
ATOM     26  H   UNL A   1      31.274  30.776  22.245  1.00  0.00     0.344 HD
ATOM     27  H   UNL A   1      31.581  29.819  20.916  1.00  0.00     0.344 HD
ENDBRANCH  23  24
ENDBRANCH  19  23
ENDBRANCH  16  18
ENDBRANCH   8  16
ENDBRANCH   4   7
ENDBRANCH   2   3
ENDBRANCH   1   2
BRANCH   1  28
ATOM     28  C   UNL A   1      31.994  29.701  26.534  1.00  0.00     0.002 C 
BRANCH  28  29
ATOM     29  C   UNL A   1      31.240  30.803  25.776  1.00  0.00     0.002 C 
BRANCH  29  30
ATOM     30  C   UNL A   1      31.145  32.157  26.492  1.00  0.00     0.021 C 
BRANCH  30  31
ATOM     31  C   UNL A   1      32.448  32.647  27.119  1.00  0.00     0.116 C 
BRANCH  31  32
ATOM     32  N   UNL A   1      32.358  34.035  27.546  1.00  0.00    -0.352 N 
ATOM     33  C   UNL A   1      33.043  34.698  28.533  1.00  0.00     0.251 C 
ATOM     34  H   UNL A   1      31.706  34.582  27.050  1.00  0.00     0.163 HD
ATOM     35  O   UNL A   1      32.679  35.816  28.888  1.00  0.00    -0.269 OA
BRANCH  33  36
ATOM     36  C   UNL A   1      34.217  34.075  29.181  1.00  0.00     0.039 A 
ATOM     37  C   UNL A   1      35.496  34.428  28.742  1.00  0.00     0.014 A 
ATOM     38  C   UNL A   1      34.061  33.109  30.178  1.00  0.00     0.014 A 
ATOM     39  C   UNL A   1      36.621  33.851  29.338  1.00  0.00     0.010 A 
ATOM     40  C   UNL A   1      35.183  32.573  30.809  1.00  0.00     0.010 A 
ATOM     41  C   UNL A   1      36.472  32.936  30.392  1.00  0.00    -0.014 A 
BRANCH  41  42
ATOM     42  C   UNL A   1      37.654  32.340  31.065  1.00  0.00     0.031 A 
ATOM     43  C   UNL A   1      38.438  31.250  30.389  1.00  0.00     0.074 A 
ATOM     44  C   UNL A   1      37.982  32.738  32.308  1.00  0.00     0.049 A 
ATOM     45  N   UNL A   1      39.442  30.547  30.847  1.00  0.00    -0.248 NA
ATOM     46  C   UNL A   1      38.023  30.889  29.026  1.00  0.00     0.031 C 
ATOM     47  C   UNL A   1      37.280  33.763  33.081  1.00  0.00     0.029 A 
ATOM     48  N   UNL A   1      38.987  32.319  33.145  1.00  0.00    -0.354 N 
ATOM     49  C   UNL A   1      39.767  29.652  29.837  1.00  0.00     0.074 A 
ATOM     50  C   UNL A   1      38.829  29.872  28.758  1.00  0.00     0.031 C 
ATOM     51  C   UNL A   1      37.887  33.908  34.270  1.00  0.00     0.029 A 
ATOM     52  C   UNL A   1      38.997  32.964  34.356  1.00  0.00     0.049 A 
ATOM     53  H   UNL A   1      39.637  31.622  32.899  1.00  0.00     0.167 HD
ATOM     54  C   UNL A   1      40.769  28.740  29.807  1.00  0.00     0.037 A 
ATOM     55  C   UNL A   1      39.810  32.807  35.418  1.00  0.00     0.037 A 
ATOM     56  C   UNL A   1      41.720  28.541  30.868  1.00  0.00     0.049 A 
ATOM     57  C   UNL A   1      40.916  31.790  35.357  1.00  0.00     0.074 A 
ATOM     58  C   UNL A   1      42.797  27.673  30.914  1.00  0.00     0.029 A 
ATOM     59  N   UNL A   1      41.709  29.228  32.074  1.00  0.00    -0.354 N 
ATOM     60  N   UNL A   1      41.236  30.976  34.383  1.00  0.00    -0.248 NA
ATOM     61  C   UNL A   1      41.775  31.675  36.545  1.00  0.00     0.031 C 
ATOM     62  C   UNL A   1      43.421  27.813  32.158  1.00  0.00     0.029 A 
ATOM     63  C   UNL A   1      42.755  28.796  32.874  1.00  0.00     0.049 A 
ATOM     64  H   UNL A   1      41.056  29.921  32.324  1.00  0.00     0.167 HD
ATOM     65  C   UNL A   1      42.346  30.269  34.826  1.00  0.00     0.074 A 
ATOM     66  C   UNL A   1      42.650  30.759  36.155  1.00  0.00     0.031 C 
ATOM     67  C   UNL A   1      43.050  29.302  34.189  1.00  0.00     0.037 A 
BRANCH  54  68
ATOM     68  C   UNL A   1      40.892  27.889  28.578  1.00  0.00     0.064 A 
ATOM     69  C   UNL A   1      40.247  26.647  28.479  1.00  0.00     0.173 A 
ATOM     70  C   UNL A   1      41.630  28.336  27.472  1.00  0.00     0.173 A 
ATOM     71  F   UNL A   1      39.539  26.171  29.514  1.00  0.00    -0.203 F 
ATOM     72  C   UNL A   1      40.357  25.873  27.327  1.00  0.00     0.198 A 
ATOM     73  C   UNL A   1      41.717  27.570  26.312  1.00  0.00     0.198 A 
ATOM     74  F   UNL A   1      42.261  29.519  27.513  1.00  0.00    -0.203 F 
ATOM     75  F   UNL A   1      39.767  24.670  27.272  1.00  0.00    -0.200 F 
ATOM     76  C   UNL A   1      41.086  26.337  26.243  1.00  0.00     0.200 A 
ATOM     77  F   UNL A   1      42.413  28.024  25.261  1.00  0.00    -0.200 F 
ATOM     78  F   UNL A   1      41.186  25.592  25.133  1.00  0.00    -0.200 F 
ENDBRANCH  54  68
BRANCH  55  79
ATOM     79  C   UNL A   1      39.628  33.661  36.620  1.00  0.00     0.064 A 
ATOM     80  C   UNL A   1      40.268  34.904  36.716  1.00  0.00     0.173 A 
ATOM     81  C   UNL A   1      38.814  33.259  37.687  1.00  0.00     0.173 A 
ATOM     82  F   UNL A   1      41.075  35.319  35.727  1.00  0.00    -0.203 F 
ATOM     83  C   UNL A   1      40.111  35.708  37.841  1.00  0.00     0.198 A 
ATOM     84  C   UNL A   1      38.640  34.075  38.803  1.00  0.00     0.198 A 
ATOM     85  F   UNL A   1      38.179  32.079  37.641  1.00  0.00    -0.203 F 
ATOM     86  F   UNL A   1      40.765  36.876  37.924  1.00  0.00    -0.200 F 
ATOM     87  C   UNL A   1      39.293  35.296  38.882  1.00  0.00     0.200 A 
ATOM     88  F   UNL A   1      37.841  33.678  39.804  1.00  0.00    -0.200 F 
ATOM     89  F   UNL A   1      39.140  36.072  39.964  1.00  0.00    -0.200 F 
ENDBRANCH  55  79
BRANCH  67  90
ATOM     90  C   UNL A   1      44.237  28.734  34.904  1.00  0.00     0.064 A 
ATOM     91  C   UNL A   1      44.127  27.600  35.722  1.00  0.00     0.173 A 
ATOM     92  C   UNL A   1      45.506  29.307  34.738  1.00  0.00     0.173 A 
ATOM     93  F   UNL A   1      42.931  27.027  35.923  1.00  0.00    -0.203 F 
ATOM     94  C   UNL A   1      45.243  27.070  36.363  1.00  0.00     0.198 A 
ATOM     95  C   UNL A   1      46.625  28.762  35.362  1.00  0.00     0.198 A 
ATOM     96  F   UNL A   1      45.664  30.390  33.963  1.00  0.00    -0.203 F 
ATOM     97  F   UNL A   1      45.110  26.010  37.170  1.00  0.00    -0.200 F 
ATOM     98  C   UNL A   1      46.492  27.647  36.177  1.00  0.00     0.200 A 
ATOM     99  F   UNL A   1      47.831  29.313  35.174  1.00  0.00    -0.200 F 
ATOM    100  F   UNL A   1      47.566  27.133  36.790  1.00  0.00    -0.200 F 
ENDBRANCH  67  90
ENDBRANCH  41  42
ENDBRANCH  33  36
ENDBRANCH  31  32
ENDBRANCH  30  31
ENDBRANCH  29  30
ENDBRANCH  28  29
ENDBRANCH   1  28
TORSDOF 17
ENDMDL
MODEL 2
REMARK VINA RESULT:     -12.0      0.786      1.502
REMARK SMILES [NH3+]Cc1ccc(C(=O)N2[C@@H](C(=O)NCCCCCCNC(=O)c3ccc(-c4c5nc(c(-c6c(F)c(F)c(F)c(F)c6F)c6ccc([nH]6)c(-c6c(F)c(F)c(F)c(F)c6F)c6nc(c(-c7c(F)c(F)c(F)c(F)c7F)c7ccc4[nH]7)C=C6)C=C5)cc3)C[C@H]3CCCC[C@@H]32)o1
REMARK SMILES IDX 15 1 14 2 13 3 11 4 12 5 10 7 9 8 92 9 86 10 87 11 91 12
REMARK SMILES IDX 88 13 90 14 89 15 7 16 8 17 6 18 3 19 4 20 93 21 5 22 2 23
REMARK SMILES IDX 1 24 16 28 17 29 18 30 19 31 20 32 21 33 22 35 23 36 24 37
REMARK SMILES IDX 85 38 25 39 84 40 26 41 27 42 28 43 78 44 29 45 83 46 77 47
REMARK SMILES IDX 79 48 30 49 82 50 76 51 75 52 31 54 63 55 43 56 62 57 44 58
REMARK SMILES IDX 47 59 61 60 80 61 45 62 46 63 60 65 81 66 48 67 32 68 33 69
REMARK SMILES IDX 41 70 34 71 35 72 39 73 42 74 36 75 37 76 40 77 38 78 64 79
REMARK SMILES IDX 65 80 73 81 66 82 67 83 71 84 74 85 68 86 69 87 72 88 70 89
REMARK SMILES IDX 49 90 50 91 58 92 51 93 52 94 56 95 59 96 53 97 54 98 57 99
REMARK SMILES IDX 55 100
REMARK H PARENT 13 6 1 25 1 26 1 27 20 34 79 53 47 64
REMARK Flexibility Score: inf
ROOT
ATOM      1  C   UNL A   1      31.853  28.777  27.519  1.00  0.00     0.021 C 
ENDROOT
BRANCH   1   2
ATOM      2  C   UNL A   1      32.190  27.481  26.775  1.00  0.00     0.116 C 
BRANCH   2   3
ATOM      3  N   UNL A   1      31.101  26.523  26.809  1.00  0.00    -0.354 N 
ATOM      4  C   UNL A   1      31.030  25.198  26.508  1.00  0.00     0.242 C 
ATOM      5  O   UNL A   1      29.916  24.672  26.642  1.00  0.00    -0.273 OA
ATOM      6  H   UNL A   1      30.244  26.907  27.108  1.00  0.00     0.163 HD
BRANCH   4   7
ATOM      7  C   UNL A   1      32.157  24.389  25.814  1.00  0.00     0.175 C 
ATOM      8  N   UNL A   1      32.199  24.339  24.346  1.00  0.00    -0.321 N 
ATOM      9  C   UNL A   1      31.904  23.003  23.868  1.00  0.00     0.089 C 
ATOM     10  C   UNL A   1      32.040  22.907  26.242  1.00  0.00     0.041 C 
ATOM     11  C   UNL A   1      32.484  22.150  24.996  1.00  0.00     0.014 C 
ATOM     12  C   UNL A   1      32.481  22.537  22.535  1.00  0.00     0.025 C 
ATOM     13  C   UNL A   1      32.042  20.705  24.852  1.00  0.00     0.006 C 
ATOM     14  C   UNL A   1      32.105  21.065  22.317  1.00  0.00     0.002 C 
ATOM     15  C   UNL A   1      32.504  20.164  23.493  1.00  0.00     0.000 C 
BRANCH   8  16
ATOM     16  C   UNL A   1      32.520  25.376  23.485  1.00  0.00     0.290 C 
ATOM     17  O   UNL A   1      33.595  25.351  22.882  1.00  0.00    -0.265 OA
BRANCH  16  18
ATOM     18  C   UNL A   1      31.632  26.529  23.455  1.00  0.00     0.192 A 
ATOM     19  C   UNL A   1      29.629  27.480  23.404  1.00  0.00     0.159 A 
ATOM     20  C   UNL A   1      30.537  28.473  23.114  1.00  0.00     0.052 A 
ATOM     21  O   UNL A   1      30.287  26.304  23.629  1.00  0.00    -0.450 OA
ATOM     22  C   UNL A   1      31.814  27.862  23.128  1.00  0.00     0.057 A 
BRANCH  19  23
ATOM     23  C   UNL A   1      28.138  27.472  23.453  1.00  0.00     0.335 C 
BRANCH  23  24
ATOM     24  N   UNL A   1      27.597  26.271  24.084  1.00  0.00    -0.351 N 
ATOM     25  H   UNL A   1      28.168  25.465  23.828  1.00  0.00     0.344 HD
ATOM     26  H   UNL A   1      26.639  26.122  23.766  1.00  0.00     0.344 HD
ATOM     27  H   UNL A   1      27.606  26.384  25.097  1.00  0.00     0.344 HD
ENDBRANCH  23  24
ENDBRANCH  19  23
ENDBRANCH  16  18
ENDBRANCH   8  16
ENDBRANCH   4   7
ENDBRANCH   2   3
ENDBRANCH   1   2
BRANCH   1  28
ATOM     28  C   UNL A   1      32.409  30.045  26.860  1.00  0.00     0.002 C 
BRANCH  28  29
ATOM     29  C   UNL A   1      31.382  30.895  26.099  1.00  0.00     0.002 C 
BRANCH  29  30
ATOM     30  C   UNL A   1      31.303  32.370  26.511  1.00  0.00     0.021 C 
BRANCH  30  31
ATOM     31  C   UNL A   1      32.575  32.931  27.144  1.00  0.00     0.116 C 
BRANCH  31  32
ATOM     32  N   UNL A   1      32.389  34.293  27.623  1.00  0.00    -0.352 N 
ATOM     33  C   UNL A   1      32.991  34.947  28.668  1.00  0.00     0.251 C 
ATOM     34  H   UNL A   1      31.732  34.825  27.120  1.00  0.00     0.163 HD
ATOM     35  O   UNL A   1      32.551  36.027  29.051  1.00  0.00    -0.269 OA
BRANCH  33  36
ATOM     36  C   UNL A   1      34.167  34.359  29.345  1.00  0.00     0.039 A 
ATOM     37  C   UNL A   1      33.971  33.619  30.515  1.00  0.00     0.014 A 
ATOM     38  C   UNL A   1      35.460  34.580  28.864  1.00  0.00     0.014 A 
ATOM     39  C   UNL A   1      35.068  33.056  31.174  1.00  0.00     0.010 A 
ATOM     40  C   UNL A   1      36.548  33.974  29.491  1.00  0.00     0.010 A 
ATOM     41  C   UNL A   1      36.362  33.210  30.653  1.00  0.00    -0.014 A 
BRANCH  41  42
ATOM     42  C   UNL A   1      37.536  32.588  31.315  1.00  0.00     0.031 A 
ATOM     43  C   UNL A   1      38.284  31.474  30.637  1.00  0.00     0.074 A 
ATOM     44  C   UNL A   1      37.890  32.985  32.552  1.00  0.00     0.049 A 
ATOM     45  N   UNL A   1      39.276  30.748  31.087  1.00  0.00    -0.248 NA
ATOM     46  C   UNL A   1      37.842  31.115  29.281  1.00  0.00     0.031 C 
ATOM     47  C   UNL A   1      37.224  34.032  33.326  1.00  0.00     0.029 A 
ATOM     48  N   UNL A   1      38.894  32.545  33.379  1.00  0.00    -0.354 N 
ATOM     49  C   UNL A   1      39.565  29.838  30.080  1.00  0.00     0.074 A 
ATOM     50  C   UNL A   1      38.619  30.076  29.010  1.00  0.00     0.031 C 
ATOM     51  C   UNL A   1      37.849  34.169  34.506  1.00  0.00     0.029 A 
ATOM     52  C   UNL A   1      38.936  33.198  34.586  1.00  0.00     0.049 A 
ATOM     53  H   UNL A   1      39.523  31.831  33.129  1.00  0.00     0.167 HD
ATOM     54  C   UNL A   1      40.542  28.901  30.043  1.00  0.00     0.037 A 
ATOM     55  C   UNL A   1      39.757  33.027  35.638  1.00  0.00     0.037 A 
ATOM     56  C   UNL A   1      41.501  28.685  31.094  1.00  0.00     0.049 A 
ATOM     57  C   UNL A   1      40.836  31.982  35.570  1.00  0.00     0.074 A 
ATOM     58  C   UNL A   1      42.556  27.790  31.132  1.00  0.00     0.029 A 
ATOM     59  N   UNL A   1      41.523  29.379  32.295  1.00  0.00    -0.354 N 
ATOM     60  N   UNL A   1      41.123  31.153  34.598  1.00  0.00    -0.248 NA
ATOM     61  C   UNL A   1      41.706  31.852  36.748  1.00  0.00     0.031 C 
ATOM     62  C   UNL A   1      43.199  27.922  32.368  1.00  0.00     0.029 A 
ATOM     63  C   UNL A   1      42.567  28.925  33.085  1.00  0.00     0.049 A 
ATOM     64  H   UNL A   1      40.890  30.090  32.549  1.00  0.00     0.167 HD
ATOM     65  C   UNL A   1      42.220  30.421  35.032  1.00  0.00     0.074 A 
ATOM     66  C   UNL A   1      42.553  30.912  36.354  1.00  0.00     0.031 C 
ATOM     67  C   UNL A   1      42.891  29.433  34.393  1.00  0.00     0.037 A 
BRANCH  54  68
ATOM     68  C   UNL A   1      40.628  28.039  28.818  1.00  0.00     0.064 A 
ATOM     69  C   UNL A   1      39.919  26.833  28.720  1.00  0.00     0.173 A 
ATOM     70  C   UNL A   1      41.396  28.442  27.715  1.00  0.00     0.173 A 
ATOM     71  F   UNL A   1      39.181  26.399  29.753  1.00  0.00    -0.203 F 
ATOM     72  C   UNL A   1      39.996  26.048  27.572  1.00  0.00     0.198 A 
ATOM     73  C   UNL A   1      41.450  27.667  26.560  1.00  0.00     0.198 A 
ATOM     74  F   UNL A   1      42.088  29.590  27.756  1.00  0.00    -0.203 F 
ATOM     75  F   UNL A   1      39.344  24.879  27.518  1.00  0.00    -0.200 F 
ATOM     76  C   UNL A   1      40.755  26.469  26.491  1.00  0.00     0.200 A 
ATOM     77  F   UNL A   1      42.176  28.079  25.511  1.00  0.00    -0.200 F 
ATOM     78  F   UNL A   1      40.824  25.715  25.385  1.00  0.00    -0.200 F 
ENDBRANCH  54  68
BRANCH  55  79
ATOM     79  C   UNL A   1      39.612  33.893  36.836  1.00  0.00     0.064 A 
ATOM     80  C   UNL A   1      40.250  35.139  36.898  1.00  0.00     0.173 A 
ATOM     81  C   UNL A   1      38.836  33.499  37.935  1.00  0.00     0.173 A 
ATOM     82  F   UNL A   1      41.021  35.547  35.878  1.00  0.00    -0.203 F 
ATOM     83  C   UNL A   1      40.127  35.955  38.019  1.00  0.00     0.198 A 
ATOM     84  C   UNL A   1      38.696  34.326  39.047  1.00  0.00     0.198 A 
ATOM     85  F   UNL A   1      38.205  32.317  37.922  1.00  0.00    -0.203 F 
ATOM     86  F   UNL A   1      40.779  37.125  38.068  1.00  0.00    -0.200 F 
ATOM     87  C   UNL A   1      39.347  35.551  39.091  1.00  0.00     0.200 A 
ATOM     88  F   UNL A   1      37.932  33.937  40.078  1.00  0.00    -0.200 F 
ATOM     89  F   UNL A   1      39.226  36.337  40.170  1.00  0.00    -0.200 F 
ENDBRANCH  55  79
BRANCH  67  90
ATOM     90  C   UNL A   1      44.072  28.838  35.098  1.00  0.00     0.064 A 
ATOM     91  C   UNL A   1      45.360  29.371  34.947  1.00  0.00     0.173 A 
ATOM     92  C   UNL A   1      43.905  27.748  35.965  1.00  0.00     0.173 A 
ATOM     93  F   UNL A   1      45.571  30.403  34.117  1.00  0.00    -0.203 F 
ATOM     94  C   UNL A   1      46.445  28.821  35.626  1.00  0.00     0.198 A 
ATOM     95  C   UNL A   1      44.987  27.216  36.660  1.00  0.00     0.198 A 
ATOM     96  F   UNL A   1      42.692  27.207  36.146  1.00  0.00    -0.203 F 
ATOM     97  F   UNL A   1      47.673  29.320  35.439  1.00  0.00    -0.200 F 
ATOM     98  C   UNL A   1      46.256  27.749  36.487  1.00  0.00     0.200 A 
ATOM     99  F   UNL A   1      44.803  26.187  37.498  1.00  0.00    -0.200 F 
ATOM    100  F   UNL A   1      47.299  27.225  37.144  1.00  0.00    -0.200 F 
ENDBRANCH  67  90
ENDBRANCH  41  42
ENDBRANCH  33  36
ENDBRANCH  31  32
ENDBRANCH  30  31
ENDBRANCH  29  30
ENDBRANCH  28  29
ENDBRANCH   1  28
TORSDOF 17
ENDMDL
MODEL 3
REMARK VINA RESULT:     -11.9      2.113      3.967
REMARK SMILES [NH3+]Cc1ccc(C(=O)N2[C@@H](C(=O)NCCCCCCNC(=O)c3ccc(-c4c5nc(c(-c6c(F)c(F)c(F)c(F)c6F)c6ccc([nH]6)c(-c6c(F)c(F)c(F)c(F)c6F)c6nc(c(-c7c(F)c(F)c(F)c(F)c7F)c7ccc4[nH]7)C=C6)C=C5)cc3)C[C@H]3CCCC[C@@H]32)o1
REMARK SMILES IDX 15 1 14 2 13 3 11 4 12 5 10 7 9 8 92 9 86 10 87 11 91 12
REMARK SMILES IDX 88 13 90 14 89 15 7 16 8 17 6 18 3 19 4 20 93 21 5 22 2 23
REMARK SMILES IDX 1 24 16 28 17 29 18 30 19 31 20 32 21 33 22 35 23 36 24 37
REMARK SMILES IDX 85 38 25 39 84 40 26 41 27 42 28 43 78 44 29 45 83 46 77 47
REMARK SMILES IDX 79 48 30 49 82 50 76 51 75 52 31 54 63 55 43 56 62 57 44 58
REMARK SMILES IDX 47 59 61 60 80 61 45 62 46 63 60 65 81 66 48 67 32 68 33 69
REMARK SMILES IDX 41 70 34 71 35 72 39 73 42 74 36 75 37 76 40 77 38 78 64 79
REMARK SMILES IDX 65 80 73 81 66 82 67 83 71 84 74 85 68 86 69 87 72 88 70 89
REMARK SMILES IDX 49 90 50 91 58 92 51 93 52 94 56 95 59 96 53 97 54 98 57 99
REMARK SMILES IDX 55 100
REMARK H PARENT 13 6 1 25 1 26 1 27 20 34 79 53 47 64
REMARK Flexibility Score: inf
ROOT
ATOM      1  C   UNL A   1      33.700  25.585  25.710  1.00  0.00     0.021 C 
ENDROOT
BRANCH   1   2
ATOM      2  C   UNL A   1      32.436  24.764  25.980  1.00  0.00     0.116 C 
BRANCH   2   3
ATOM      3  N   UNL A   1      31.525  24.762  24.851  1.00  0.00    -0.354 N 
ATOM      4  C   UNL A   1      31.393  23.940  23.775  1.00  0.00     0.242 C 
ATOM      5  O   UNL A   1      30.495  24.235  22.975  1.00  0.00    -0.273 OA
ATOM      6  H   UNL A   1      30.874  25.502  24.865  1.00  0.00     0.163 HD
BRANCH   4   7
ATOM      7  C   UNL A   1      32.405  22.831  23.382  1.00  0.00     0.175 C 
ATOM      8  N   UNL A   1      32.840  21.868  24.404  1.00  0.00    -0.321 N 
ATOM      9  C   UNL A   1      34.239  22.056  24.726  1.00  0.00     0.089 C 
ATOM     10  C   UNL A   1      33.716  23.500  22.908  1.00  0.00     0.041 C 
ATOM     11  C   UNL A   1      34.792  22.530  23.382  1.00  0.00     0.014 C 
ATOM     12  C   UNL A   1      35.063  20.871  25.220  1.00  0.00     0.025 C 
ATOM     13  C   UNL A   1      36.204  23.064  23.544  1.00  0.00     0.006 C 
ATOM     14  C   UNL A   1      36.522  21.314  25.388  1.00  0.00     0.002 C 
ATOM     15  C   UNL A   1      37.101  21.962  24.124  1.00  0.00     0.000 C 
BRANCH   8  16
ATOM     16  C   UNL A   1      32.079  20.862  24.979  1.00  0.00     0.290 C 
ATOM     17  O   UNL A   1      31.354  21.125  25.940  1.00  0.00    -0.265 OA
BRANCH  16  18
ATOM     18  C   UNL A   1      32.295  19.500  24.511  1.00  0.00     0.192 A 
ATOM     19  C   UNL A   1      32.747  17.352  24.824  1.00  0.00     0.159 A 
ATOM     20  C   UNL A   1      32.865  17.580  23.471  1.00  0.00     0.052 A 
ATOM     21  O   UNL A   1      32.384  18.507  25.457  1.00  0.00    -0.450 OA
ATOM     22  C   UNL A   1      32.595  18.955  23.274  1.00  0.00     0.057 A 
BRANCH  19  23
ATOM     23  C   UNL A   1      32.989  16.139  25.658  1.00  0.00     0.335 C 
BRANCH  23  24
ATOM     24  N   UNL A   1      32.017  15.077  25.412  1.00  0.00    -0.351 N 
ATOM     25  H   UNL A   1      32.264  14.582  24.555  1.00  0.00     0.344 HD
ATOM     26  H   UNL A   1      31.087  15.484  25.314  1.00  0.00     0.344 HD
ATOM     27  H   UNL A   1      32.022  14.423  26.195  1.00  0.00     0.344 HD
ENDBRANCH  23  24
ENDBRANCH  19  23
ENDBRANCH  16  18
ENDBRANCH   8  16
ENDBRANCH   4   7
ENDBRANCH   2   3
ENDBRANCH   1   2
BRANCH   1  28
ATOM     28  C   UNL A   1      33.597  27.058  26.127  1.00  0.00     0.002 C 
BRANCH  28  29
ATOM     29  C   UNL A   1      32.288  27.453  26.825  1.00  0.00     0.002 C 
BRANCH  29  30
ATOM     30  C   UNL A   1      31.818  28.894  26.591  1.00  0.00     0.021 C 
BRANCH  30  31
ATOM     31  C   UNL A   1      32.842  29.803  25.914  1.00  0.00     0.116 C 
BRANCH  31  32
ATOM     32  N   UNL A   1      32.584  31.210  26.186  1.00  0.00    -0.352 N 
ATOM     33  C   UNL A   1      33.157  32.046  27.110  1.00  0.00     0.251 C 
ATOM     34  H   UNL A   1      31.893  31.624  25.620  1.00  0.00     0.163 HD
ATOM     35  O   UNL A   1      32.661  33.146  27.335  1.00  0.00    -0.269 OA
BRANCH  33  36
ATOM     36  C   UNL A   1      34.371  31.631  27.848  1.00  0.00     0.039 A 
ATOM     37  C   UNL A   1      35.426  32.539  27.975  1.00  0.00     0.014 A 
ATOM     38  C   UNL A   1      34.492  30.339  28.366  1.00  0.00     0.014 A 
ATOM     39  C   UNL A   1      36.583  32.169  28.665  1.00  0.00     0.010 A 
ATOM     40  C   UNL A   1      35.624  29.989  29.101  1.00  0.00     0.010 A 
ATOM     41  C   UNL A   1      36.681  30.899  29.254  1.00  0.00    -0.014 A 
BRANCH  41  42
ATOM     42  C   UNL A   1      37.885  30.499  30.024  1.00  0.00     0.031 A 
ATOM     43  C   UNL A   1      38.895  29.567  29.417  1.00  0.00     0.074 A 
ATOM     44  C   UNL A   1      38.036  30.927  31.292  1.00  0.00     0.049 A 
ATOM     45  N   UNL A   1      39.962  29.034  29.958  1.00  0.00    -0.248 NA
ATOM     46  C   UNL A   1      38.663  29.162  28.023  1.00  0.00     0.031 C 
ATOM     47  C   UNL A   1      37.109  31.808  32.003  1.00  0.00     0.029 A 
ATOM     48  N   UNL A   1      39.023  30.669  32.211  1.00  0.00    -0.354 N 
ATOM     49  C   UNL A   1      40.516  28.222  28.979  1.00  0.00     0.074 A 
ATOM     50  C   UNL A   1      39.648  28.299  27.824  1.00  0.00     0.031 C 
ATOM     51  C   UNL A   1      37.581  32.034  33.239  1.00  0.00     0.029 A 
ATOM     52  C   UNL A   1      38.823  31.289  33.420  1.00  0.00     0.049 A 
ATOM     53  H   UNL A   1      39.799  30.095  32.020  1.00  0.00     0.167 HD
ATOM     54  C   UNL A   1      41.656  27.491  29.034  1.00  0.00     0.037 A 
ATOM     55  C   UNL A   1      39.558  31.254  34.547  1.00  0.00     0.037 A 
ATOM     56  C   UNL A   1      42.534  27.439  30.172  1.00  0.00     0.049 A 
ATOM     57  C   UNL A   1      40.820  30.437  34.579  1.00  0.00     0.074 A 
ATOM     58  C   UNL A   1      43.734  26.763  30.308  1.00  0.00     0.029 A 
ATOM     59  N   UNL A   1      42.307  28.096  31.373  1.00  0.00    -0.354 N 
ATOM     60  N   UNL A   1      41.354  29.703  33.635  1.00  0.00    -0.248 NA
ATOM     61  C   UNL A   1      41.584  30.449  35.836  1.00  0.00     0.031 C 
ATOM     62  C   UNL A   1      44.219  26.987  31.602  1.00  0.00     0.029 A 
ATOM     63  C   UNL A   1      43.339  27.832  32.259  1.00  0.00     0.049 A 
ATOM     64  H   UNL A   1      41.527  28.665  31.567  1.00  0.00     0.167 HD
ATOM     65  C   UNL A   1      42.526  29.186  34.171  1.00  0.00     0.074 A 
ATOM     66  C   UNL A   1      42.630  29.700  35.521  1.00  0.00     0.031 C 
ATOM     67  C   UNL A   1      43.433  28.361  33.595  1.00  0.00     0.037 A 
BRANCH  54  68
ATOM     68  C   UNL A   1      42.023  26.692  27.818  1.00  0.00     0.064 A 
ATOM     69  C   UNL A   1      42.919  27.187  26.860  1.00  0.00     0.173 A 
ATOM     70  C   UNL A   1      41.505  25.402  27.630  1.00  0.00     0.173 A 
ATOM     71  F   UNL A   1      43.432  28.420  26.989  1.00  0.00    -0.203 F 
ATOM     72  C   UNL A   1      43.264  26.430  25.743  1.00  0.00     0.198 A 
ATOM     73  C   UNL A   1      41.871  24.638  26.524  1.00  0.00     0.198 A 
ATOM     74  F   UNL A   1      40.649  24.880  28.521  1.00  0.00    -0.203 F 
ATOM     75  F   UNL A   1      44.088  26.941  24.818  1.00  0.00    -0.200 F 
ATOM     76  C   UNL A   1      42.744  25.154  25.580  1.00  0.00     0.200 A 
ATOM     77  F   UNL A   1      41.377  23.402  26.373  1.00  0.00    -0.200 F 
ATOM     78  F   UNL A   1      43.081  24.425  24.507  1.00  0.00    -0.200 F 
ENDBRANCH  54  68
BRANCH  55  79
ATOM     79  C   UNL A   1      39.135  32.046  35.729  1.00  0.00     0.064 A 
ATOM     80  C   UNL A   1      39.568  33.369  35.894  1.00  0.00     0.173 A 
ATOM     81  C   UNL A   1      38.292  31.506  36.710  1.00  0.00     0.173 A 
ATOM     82  F   UNL A   1      40.394  33.920  34.992  1.00  0.00    -0.203 F 
ATOM     83  C   UNL A   1      39.184  34.118  37.003  1.00  0.00     0.198 A 
ATOM     84  C   UNL A   1      37.890  32.264  37.807  1.00  0.00     0.198 A 
ATOM     85  F   UNL A   1      37.849  30.245  36.595  1.00  0.00    -0.203 F 
ATOM     86  F   UNL A   1      39.643  35.368  37.156  1.00  0.00    -0.200 F 
ATOM     87  C   UNL A   1      38.341  33.567  37.956  1.00  0.00     0.200 A 
ATOM     88  F   UNL A   1      37.067  31.731  38.722  1.00  0.00    -0.200 F 
ATOM     89  F   UNL A   1      37.969  34.289  39.023  1.00  0.00    -0.200 F 
ENDBRANCH  55  79
BRANCH  67  90
ATOM     90  C   UNL A   1      44.635  27.988  34.409  1.00  0.00     0.064 A 
ATOM     91  C   UNL A   1      44.652  26.835  35.206  1.00  0.00     0.173 A 
ATOM     92  C   UNL A   1      45.796  28.773  34.358  1.00  0.00     0.173 A 
ATOM     93  F   UNL A   1      43.559  26.062  35.298  1.00  0.00    -0.203 F 
ATOM     94  C   UNL A   1      45.783  26.491  35.940  1.00  0.00     0.198 A 
ATOM     95  C   UNL A   1      46.934  28.414  35.075  1.00  0.00     0.198 A 
ATOM     96  F   UNL A   1      45.831  29.883  33.606  1.00  0.00    -0.203 F 
ATOM     97  F   UNL A   1      45.766  25.406  36.726  1.00  0.00    -0.200 F 
ATOM     98  C   UNL A   1      46.926  27.276  35.868  1.00  0.00     0.200 A 
ATOM     99  F   UNL A   1      48.039  29.167  34.997  1.00  0.00    -0.200 F 
ATOM    100  F   UNL A   1      48.016  26.940  36.570  1.00  0.00    -0.200 F 
ENDBRANCH  67  90
ENDBRANCH  41  42
ENDBRANCH  33  36
ENDBRANCH  31  32
ENDBRANCH  30  31
ENDBRANCH  29  30
ENDBRANCH  28  29
ENDBRANCH   1  28
TORSDOF 17
ENDMDL
