MODEL 1
REMARK VINA RESULT:     -12.0      0.000      0.000
REMARK SMILES COc1cccc(NC(=O)[C@@H]2[C@@H](C(=O)NCCCCCCNC(=O)c3ccc(-c4c5nc(c(-c6c(F)c(F)c(F)c(F)c6F)c6ccc([nH]6)c(-c6c(F)c(F)c(F)c(F)c6F)c6nc(c(-c7c(F)c(F)c(F)c(F)c7F)c7ccc4[nH]7)C=C6)C=C5)cc3)[C@H]3C=C[C@@H]2C3)c1
REMARK SMILES IDX 18 1 17 2 16 3 15 4 13 5 14 6 12 8 11 9 91 10 88 11 90 12
REMARK SMILES IDX 92 13 89 14 9 15 8 16 10 18 7 19 3 20 4 21 93 22 5 23 6 24
REMARK SMILES IDX 2 25 1 26 19 27 20 28 21 29 22 30 23 31 24 33 25 34 26 35
REMARK SMILES IDX 87 36 27 37 86 38 28 39 29 40 30 41 80 42 31 43 85 44 79 45
REMARK SMILES IDX 81 46 32 47 84 48 78 49 77 50 33 52 65 53 45 54 64 55 46 56
REMARK SMILES IDX 49 57 63 58 82 59 47 60 48 61 62 63 83 64 50 65 34 66 35 67
REMARK SMILES IDX 43 68 36 69 37 70 41 71 44 72 38 73 39 74 42 75 40 76 66 77
REMARK SMILES IDX 67 78 75 79 68 80 69 81 73 82 76 83 70 84 71 85 74 86 72 87
REMARK SMILES IDX 51 88 52 89 60 90 53 91 54 92 58 93 61 94 55 95 56 96 59 97
REMARK SMILES IDX 57 98
REMARK H PARENT 15 7 8 17 22 32 81 51 49 62
REMARK Flexibility Score: inf
ROOT
ATOM      1  C   UNL A   1      32.553  26.278  26.165  1.00  0.00     0.002 C 
ENDROOT
BRANCH   1   2
ATOM      2  C   UNL A   1      33.963  26.184  25.593  1.00  0.00     0.021 C 
BRANCH   2   3
ATOM      3  C   UNL A   1      34.650  24.829  25.658  1.00  0.00     0.116 C 
BRANCH   3   4
ATOM      4  N   UNL A   1      35.376  24.453  24.476  1.00  0.00    -0.356 N 
ATOM      5  C   UNL A   1      35.455  23.264  23.830  1.00  0.00     0.224 C 
ATOM      6  O   UNL A   1      36.121  23.284  22.785  1.00  0.00    -0.275 OA
ATOM      7  H   UNL A   1      35.903  25.178  24.070  1.00  0.00     0.163 HD
BRANCH   5   8
ATOM      8  C   UNL A   1      34.756  21.955  24.223  1.00  0.00     0.098 C 
ATOM      9  C   UNL A   1      33.216  22.187  24.355  1.00  0.00     0.099 C 
ATOM     10  C   UNL A   1      32.821  21.209  25.493  1.00  0.00     0.025 C 
ATOM     11  C   UNL A   1      35.058  21.094  25.484  1.00  0.00     0.025 C 
ATOM     12  C   UNL A   1      33.272  21.812  26.790  1.00  0.00    -0.027 C 
ATOM     13  C   UNL A   1      33.889  20.107  25.366  1.00  0.00     0.017 C 
ATOM     14  C   UNL A   1      34.604  21.709  26.804  1.00  0.00    -0.027 C 
BRANCH   9  15
ATOM     15  C   UNL A   1      32.345  21.850  23.165  1.00  0.00     0.228 C 
ATOM     16  N   UNL A   1      31.636  22.840  22.525  1.00  0.00    -0.326 N 
ATOM     17  H   UNL A   1      31.012  22.488  21.849  1.00  0.00     0.169 HD
ATOM     18  O   UNL A   1      32.153  20.684  22.812  1.00  0.00    -0.274 OA
BRANCH  16  19
ATOM     19  C   UNL A   1      31.604  24.253  22.621  1.00  0.00     0.044 A 
ATOM     20  C   UNL A   1      32.739  26.351  22.105  1.00  0.00     0.120 A 
ATOM     21  C   UNL A   1      31.732  27.071  22.738  1.00  0.00     0.046 A 
ATOM     22  C   UNL A   1      32.684  24.951  22.054  1.00  0.00     0.072 A 
ATOM     23  C   UNL A   1      30.664  26.397  23.308  1.00  0.00     0.006 A 
ATOM     24  C   UNL A   1      30.612  25.002  23.258  1.00  0.00     0.026 A 
BRANCH  20  25
ATOM     25  O   UNL A   1      33.786  27.098  21.639  1.00  0.00    -0.497 OA
ATOM     26  C   UNL A   1      34.028  28.291  22.375  1.00  0.00     0.278 C 
ENDBRANCH  20  25
ENDBRANCH  16  19
ENDBRANCH   9  15
ENDBRANCH   5   8
ENDBRANCH   3   4
ENDBRANCH   2   3
ENDBRANCH   1   2
BRANCH   1  27
ATOM     27  C   UNL A   1      32.221  27.532  26.976  1.00  0.00     0.002 C 
BRANCH  27  28
ATOM     28  C   UNL A   1      31.792  28.774  26.190  1.00  0.00     0.021 C 
BRANCH  28  29
ATOM     29  C   UNL A   1      32.904  29.744  25.798  1.00  0.00     0.116 C 
BRANCH  29  30
ATOM     30  N   UNL A   1      32.645  31.106  26.227  1.00  0.00    -0.352 N 
ATOM     31  C   UNL A   1      33.268  31.858  27.188  1.00  0.00     0.251 C 
ATOM     32  H   UNL A   1      31.911  31.560  25.753  1.00  0.00     0.163 HD
ATOM     33  O   UNL A   1      32.804  32.958  27.497  1.00  0.00    -0.269 OA
BRANCH  31  34
ATOM     34  C   UNL A   1      34.477  31.360  27.878  1.00  0.00     0.039 A 
ATOM     35  C   UNL A   1      35.571  32.220  28.015  1.00  0.00     0.014 A 
ATOM     36  C   UNL A   1      34.558  30.049  28.357  1.00  0.00     0.014 A 
ATOM     37  C   UNL A   1      36.724  31.783  28.668  1.00  0.00     0.010 A 
ATOM     38  C   UNL A   1      35.680  29.638  29.074  1.00  0.00     0.010 A 
ATOM     39  C   UNL A   1      36.780  30.495  29.228  1.00  0.00    -0.014 A 
BRANCH  39  40
ATOM     40  C   UNL A   1      37.992  30.028  29.950  1.00  0.00     0.031 A 
ATOM     41  C   UNL A   1      38.277  30.519  31.345  1.00  0.00     0.074 A 
ATOM     42  C   UNL A   1      38.853  29.190  29.342  1.00  0.00     0.049 A 
ATOM     43  N   UNL A   1      39.303  30.268  32.120  1.00  0.00    -0.248 NA
ATOM     44  C   UNL A   1      37.291  31.435  31.938  1.00  0.00     0.031 C 
ATOM     45  C   UNL A   1      38.709  28.672  27.980  1.00  0.00     0.029 A 
ATOM     46  N   UNL A   1      40.025  28.630  29.787  1.00  0.00    -0.354 N 
ATOM     47  C   UNL A   1      39.084  30.990  33.285  1.00  0.00     0.074 A 
ATOM     48  C   UNL A   1      37.865  31.746  33.090  1.00  0.00     0.031 C 
ATOM     49  C   UNL A   1      39.739  27.856  27.708  1.00  0.00     0.029 A 
ATOM     50  C   UNL A   1      40.635  27.820  28.860  1.00  0.00     0.049 A 
ATOM     51  H   UNL A   1      40.394  28.795  30.684  1.00  0.00     0.167 HD
ATOM     52  C   UNL A   1      39.813  30.999  34.427  1.00  0.00     0.037 A 
ATOM     53  C   UNL A   1      41.791  27.131  28.930  1.00  0.00     0.037 A 
ATOM     54  C   UNL A   1      41.020  30.240  34.623  1.00  0.00     0.049 A 
ATOM     55  C   UNL A   1      42.596  27.182  30.203  1.00  0.00     0.074 A 
ATOM     56  C   UNL A   1      41.824  30.168  35.747  1.00  0.00     0.029 A 
ATOM     57  N   UNL A   1      41.597  29.416  33.667  1.00  0.00    -0.354 N 
ATOM     58  N   UNL A   1      42.350  27.828  31.317  1.00  0.00    -0.248 NA
ATOM     59  C   UNL A   1      43.836  26.394  30.231  1.00  0.00     0.031 C 
ATOM     60  C   UNL A   1      42.909  29.334  35.458  1.00  0.00     0.029 A 
ATOM     61  C   UNL A   1      42.751  28.839  34.173  1.00  0.00     0.049 A 
ATOM     62  H   UNL A   1      41.239  29.263  32.763  1.00  0.00     0.167 HD
ATOM     63  C   UNL A   1      43.377  27.492  32.189  1.00  0.00     0.074 A 
ATOM     64  C   UNL A   1      44.241  26.573  31.480  1.00  0.00     0.031 C 
ATOM     65  C   UNL A   1      43.587  27.908  33.462  1.00  0.00     0.037 A 
BRANCH  52  66
ATOM     66  C   UNL A   1      39.314  31.849  35.561  1.00  0.00     0.064 A 
ATOM     67  C   UNL A   1      38.432  31.337  36.527  1.00  0.00     0.173 A 
ATOM     68  C   UNL A   1      39.748  33.175  35.711  1.00  0.00     0.173 A 
ATOM     69  F   UNL A   1      37.977  30.079  36.425  1.00  0.00    -0.203 F 
ATOM     70  C   UNL A   1      37.982  32.128  37.580  1.00  0.00     0.198 A 
ATOM     71  C   UNL A   1      39.321  33.952  36.785  1.00  0.00     0.198 A 
ATOM     72  F   UNL A   1      40.595  33.714  34.822  1.00  0.00    -0.203 F 
ATOM     73  F   UNL A   1      37.100  31.631  38.460  1.00  0.00    -0.200 F 
ATOM     74  C   UNL A   1      38.433  33.432  37.714  1.00  0.00     0.200 A 
ATOM     75  F   UNL A   1      39.770  35.208  36.922  1.00  0.00    -0.200 F 
ATOM     76  F   UNL A   1      38.006  34.189  38.734  1.00  0.00    -0.200 F 
ENDBRANCH  52  66
BRANCH  53  77
ATOM     77  C   UNL A   1      42.255  26.320  27.773  1.00  0.00     0.064 A 
ATOM     78  C   UNL A   1      41.758  25.027  27.551  1.00  0.00     0.173 A 
ATOM     79  C   UNL A   1      43.231  26.801  26.889  1.00  0.00     0.173 A 
ATOM     80  F   UNL A   1      40.837  24.513  28.379  1.00  0.00    -0.203 F 
ATOM     81  C   UNL A   1      42.248  24.235  26.515  1.00  0.00     0.198 A 
ATOM     82  C   UNL A   1      43.695  26.020  25.832  1.00  0.00     0.198 A 
ATOM     83  F   UNL A   1      43.736  28.034  27.051  1.00  0.00    -0.203 F 
ATOM     84  F   UNL A   1      41.803  22.979  26.369  1.00  0.00    -0.200 F 
ATOM     85  C   UNL A   1      43.213  24.733  25.654  1.00  0.00     0.200 A 
ATOM     86  F   UNL A   1      44.616  26.513  24.992  1.00  0.00    -0.200 F 
ATOM     87  F   UNL A   1      43.688  23.969  24.662  1.00  0.00    -0.200 F 
ENDBRANCH  53  77
BRANCH  65  88
ATOM     88  C   UNL A   1      44.763  27.322  34.191  1.00  0.00     0.064 A 
ATOM     89  C   UNL A   1      46.021  27.942  34.192  1.00  0.00     0.173 A 
ATOM     90  C   UNL A   1      44.619  26.129  34.920  1.00  0.00     0.173 A 
ATOM     91  F   UNL A   1      46.216  29.075  33.501  1.00  0.00    -0.203 F 
ATOM     92  C   UNL A   1      47.100  27.370  34.862  1.00  0.00     0.198 A 
ATOM     93  C   UNL A   1      45.690  25.581  35.617  1.00  0.00     0.198 A 
ATOM     94  F   UNL A   1      43.435  25.501  34.960  1.00  0.00    -0.203 F 
ATOM     95  F   UNL A   1      48.309  27.948  34.797  1.00  0.00    -0.200 F 
ATOM     96  C   UNL A   1      46.932  26.195  35.579  1.00  0.00     0.200 A 
ATOM     97  F   UNL A   1      45.522  24.454  36.323  1.00  0.00    -0.200 F 
ATOM     98  F   UNL A   1      47.971  25.649  36.226  1.00  0.00    -0.200 F 
ENDBRANCH  65  88
ENDBRANCH  39  40
ENDBRANCH  31  34
ENDBRANCH  29  30
ENDBRANCH  28  29
ENDBRANCH  27  28
ENDBRANCH   1  27
TORSDOF 16
ENDMDL
MODEL 2
REMARK VINA RESULT:     -11.9      2.065      8.012
REMARK SMILES COc1cccc(NC(=O)[C@@H]2[C@@H](C(=O)NCCCCCCNC(=O)c3ccc(-c4c5nc(c(-c6c(F)c(F)c(F)c(F)c6F)c6ccc([nH]6)c(-c6c(F)c(F)c(F)c(F)c6F)c6nc(c(-c7c(F)c(F)c(F)c(F)c7F)c7ccc4[nH]7)C=C6)C=C5)cc3)[C@H]3C=C[C@@H]2C3)c1
REMARK SMILES IDX 18 1 17 2 16 3 15 4 13 5 14 6 12 8 11 9 91 10 88 11 90 12
REMARK SMILES IDX 92 13 89 14 9 15 8 16 10 18 7 19 3 20 4 21 93 22 5 23 6 24
REMARK SMILES IDX 2 25 1 26 19 27 20 28 21 29 22 30 23 31 24 33 25 34 26 35
REMARK SMILES IDX 87 36 27 37 86 38 28 39 29 40 30 41 80 42 31 43 85 44 79 45
REMARK SMILES IDX 81 46 32 47 84 48 78 49 77 50 33 52 65 53 45 54 64 55 46 56
REMARK SMILES IDX 49 57 63 58 82 59 47 60 48 61 62 63 83 64 50 65 34 66 35 67
REMARK SMILES IDX 43 68 36 69 37 70 41 71 44 72 38 73 39 74 42 75 40 76 66 77
REMARK SMILES IDX 67 78 75 79 68 80 69 81 73 82 76 83 70 84 71 85 74 86 72 87
REMARK SMILES IDX 51 88 52 89 60 90 53 91 54 92 58 93 61 94 55 95 56 96 59 97
REMARK SMILES IDX 57 98
REMARK H PARENT 15 7 8 17 22 32 81 51 49 62
REMARK Flexibility Score: inf
ROOT
ATOM      1  C   UNL A   1      31.817  29.936  26.551  1.00  0.00     0.002 C 
ENDROOT
BRANCH   1   2
ATOM      2  C   UNL A   1      33.248  29.493  26.272  1.00  0.00     0.021 C 
BRANCH   2   3
ATOM      3  C   UNL A   1      33.783  28.320  27.079  1.00  0.00     0.116 C 
BRANCH   3   4
ATOM      4  N   UNL A   1      34.304  27.229  26.303  1.00  0.00    -0.356 N 
ATOM      5  C   UNL A   1      33.667  26.244  25.625  1.00  0.00     0.224 C 
ATOM      6  O   UNL A   1      34.412  25.484  24.990  1.00  0.00    -0.275 OA
ATOM      7  H   UNL A   1      35.287  27.191  26.256  1.00  0.00     0.163 HD
BRANCH   5   8
ATOM      8  C   UNL A   1      32.150  26.035  25.516  1.00  0.00     0.098 C 
ATOM      9  C   UNL A   1      31.830  24.517  25.321  1.00  0.00     0.099 C 
ATOM     10  C   UNL A   1      30.570  24.549  24.417  1.00  0.00     0.025 C 
ATOM     11  C   UNL A   1      31.203  26.697  24.473  1.00  0.00     0.025 C 
ATOM     12  C   UNL A   1      31.016  24.886  23.025  1.00  0.00    -0.027 C 
ATOM     13  C   UNL A   1      29.930  25.899  24.789  1.00  0.00     0.017 C 
ATOM     14  C   UNL A   1      31.357  26.178  23.047  1.00  0.00    -0.027 C 
BRANCH   9  15
ATOM     15  C   UNL A   1      31.470  23.707  26.547  1.00  0.00     0.228 C 
ATOM     16  N   UNL A   1      32.124  22.526  26.810  1.00  0.00    -0.326 N 
ATOM     17  H   UNL A   1      31.725  22.026  27.559  1.00  0.00     0.169 HD
ATOM     18  O   UNL A   1      30.518  24.011  27.269  1.00  0.00    -0.274 OA
BRANCH  16  19
ATOM     19  C   UNL A   1      33.244  21.868  26.246  1.00  0.00     0.044 A 
ATOM     20  C   UNL A   1      34.032  19.997  24.891  1.00  0.00     0.120 A 
ATOM     21  C   UNL A   1      35.350  20.402  25.067  1.00  0.00     0.046 A 
ATOM     22  C   UNL A   1      32.985  20.715  25.484  1.00  0.00     0.072 A 
ATOM     23  C   UNL A   1      35.624  21.532  25.822  1.00  0.00     0.006 A 
ATOM     24  C   UNL A   1      34.579  22.246  26.414  1.00  0.00     0.026 A 
BRANCH  20  25
ATOM     25  O   UNL A   1      33.869  18.831  24.194  1.00  0.00    -0.497 OA
ATOM     26  C   UNL A   1      32.569  18.654  23.644  1.00  0.00     0.278 C 
ENDBRANCH  20  25
ENDBRANCH  16  19
ENDBRANCH   9  15
ENDBRANCH   5   8
ENDBRANCH   3   4
ENDBRANCH   2   3
ENDBRANCH   1   2
BRANCH   1  27
ATOM     27  C   UNL A   1      31.290  31.118  25.734  1.00  0.00     0.002 C 
BRANCH  27  28
ATOM     28  C   UNL A   1      31.133  32.453  26.466  1.00  0.00     0.021 C 
BRANCH  28  29
ATOM     29  C   UNL A   1      32.368  32.971  27.198  1.00  0.00     0.116 C 
BRANCH  29  30
ATOM     30  N   UNL A   1      32.237  34.352  27.626  1.00  0.00    -0.352 N 
ATOM     31  C   UNL A   1      32.929  35.045  28.584  1.00  0.00     0.251 C 
ATOM     32  H   UNL A   1      31.546  34.871  27.155  1.00  0.00     0.163 HD
ATOM     33  O   UNL A   1      32.569  36.183  28.893  1.00  0.00    -0.269 OA
BRANCH  31  34
ATOM     34  C   UNL A   1      34.090  34.439  29.270  1.00  0.00     0.039 A 
ATOM     35  C   UNL A   1      33.898  33.864  30.530  1.00  0.00     0.014 A 
ATOM     36  C   UNL A   1      35.369  34.465  28.705  1.00  0.00     0.014 A 
ATOM     37  C   UNL A   1      34.973  33.277  31.200  1.00  0.00     0.010 A 
ATOM     38  C   UNL A   1      36.425  33.814  29.340  1.00  0.00     0.010 A 
ATOM     39  C   UNL A   1      36.242  33.223  30.600  1.00  0.00    -0.014 A 
BRANCH  39  40
ATOM     40  C   UNL A   1      37.387  32.577  31.291  1.00  0.00     0.031 A 
ATOM     41  C   UNL A   1      38.120  31.436  30.636  1.00  0.00     0.074 A 
ATOM     42  C   UNL A   1      37.747  32.991  32.521  1.00  0.00     0.049 A 
ATOM     43  N   UNL A   1      39.110  30.712  31.097  1.00  0.00    -0.248 NA
ATOM     44  C   UNL A   1      37.663  31.040  29.295  1.00  0.00     0.031 C 
ATOM     45  C   UNL A   1      37.093  34.060  33.278  1.00  0.00     0.029 A 
ATOM     46  N   UNL A   1      38.749  32.559  33.356  1.00  0.00    -0.354 N 
ATOM     47  C   UNL A   1      39.391  29.781  30.105  1.00  0.00     0.074 A 
ATOM     48  C   UNL A   1      38.424  29.985  29.048  1.00  0.00     0.031 C 
ATOM     49  C   UNL A   1      37.722  34.215  34.454  1.00  0.00     0.029 A 
ATOM     50  C   UNL A   1      38.798  33.233  34.552  1.00  0.00     0.049 A 
ATOM     51  H   UNL A   1      39.370  31.834  33.120  1.00  0.00     0.167 HD
ATOM     52  C   UNL A   1      40.386  28.863  30.062  1.00  0.00     0.037 A 
ATOM     53  C   UNL A   1      39.617  33.072  35.610  1.00  0.00     0.037 A 
ATOM     54  C   UNL A   1      41.353  28.667  31.110  1.00  0.00     0.049 A 
ATOM     55  C   UNL A   1      40.697  32.023  35.547  1.00  0.00     0.074 A 
ATOM     56  C   UNL A   1      42.408  27.774  31.158  1.00  0.00     0.029 A 
ATOM     57  N   UNL A   1      41.382  29.382  32.299  1.00  0.00    -0.354 N 
ATOM     58  N   UNL A   1      40.985  31.185  34.580  1.00  0.00    -0.248 NA
ATOM     59  C   UNL A   1      41.574  31.908  36.719  1.00  0.00     0.031 C 
ATOM     60  C   UNL A   1      43.051  27.919  32.392  1.00  0.00     0.029 A 
ATOM     61  C   UNL A   1      42.433  28.944  33.090  1.00  0.00     0.049 A 
ATOM     62  H   UNL A   1      40.751  30.097  32.544  1.00  0.00     0.167 HD
ATOM     63  C   UNL A   1      42.098  30.476  35.009  1.00  0.00     0.074 A 
ATOM     64  C   UNL A   1      42.443  30.992  36.317  1.00  0.00     0.031 C 
ATOM     65  C   UNL A   1      42.776  29.484  34.379  1.00  0.00     0.037 A 
BRANCH  52  66
ATOM     66  C   UNL A   1      40.486  28.005  28.832  1.00  0.00     0.064 A 
ATOM     67  C   UNL A   1      39.783  26.793  28.726  1.00  0.00     0.173 A 
ATOM     68  C   UNL A   1      41.258  28.410  27.734  1.00  0.00     0.173 A 
ATOM     69  F   UNL A   1      39.039  26.353  29.753  1.00  0.00    -0.203 F 
ATOM     70  C   UNL A   1      39.873  26.009  27.580  1.00  0.00     0.198 A 
ATOM     71  C   UNL A   1      41.319  27.638  26.576  1.00  0.00     0.198 A 
ATOM     72  F   UNL A   1      41.945  29.561  27.777  1.00  0.00    -0.203 F 
ATOM     73  F   UNL A   1      39.234  24.831  27.524  1.00  0.00    -0.200 F 
ATOM     74  C   UNL A   1      40.634  26.435  26.503  1.00  0.00     0.200 A 
ATOM     75  F   UNL A   1      42.042  28.059  25.529  1.00  0.00    -0.200 F 
ATOM     76  F   UNL A   1      40.712  25.683  25.396  1.00  0.00    -0.200 F 
ENDBRANCH  52  66
BRANCH  53  77
ATOM     77  C   UNL A   1      39.466  33.931  36.814  1.00  0.00     0.064 A 
ATOM     78  C   UNL A   1      40.095  35.183  36.894  1.00  0.00     0.173 A 
ATOM     79  C   UNL A   1      38.725  33.506  37.927  1.00  0.00     0.173 A 
ATOM     80  F   UNL A   1      40.831  35.628  35.864  1.00  0.00    -0.203 F 
ATOM     81  C   UNL A   1      40.021  35.955  38.051  1.00  0.00     0.198 A 
ATOM     82  C   UNL A   1      38.624  34.295  39.070  1.00  0.00     0.198 A 
ATOM     83  F   UNL A   1      38.097  32.320  37.902  1.00  0.00    -0.203 F 
ATOM     84  F   UNL A   1      40.688  37.115  38.122  1.00  0.00    -0.200 F 
ATOM     85  C   UNL A   1      39.282  35.513  39.137  1.00  0.00     0.200 A 
ATOM     86  F   UNL A   1      37.894  33.869  40.112  1.00  0.00    -0.200 F 
ATOM     87  F   UNL A   1      39.216  36.252  40.252  1.00  0.00    -0.200 F 
ENDBRANCH  53  77
BRANCH  65  88
ATOM     88  C   UNL A   1      43.994  28.938  35.068  1.00  0.00     0.064 A 
ATOM     89  C   UNL A   1      45.268  29.492  34.876  1.00  0.00     0.173 A 
ATOM     90  C   UNL A   1      43.877  27.853  35.953  1.00  0.00     0.173 A 
ATOM     91  F   UNL A   1      45.437  30.520  34.032  1.00  0.00    -0.203 F 
ATOM     92  C   UNL A   1      46.385  28.956  35.514  1.00  0.00     0.198 A 
ATOM     93  C   UNL A   1      44.989  27.345  36.615  1.00  0.00     0.198 A 
ATOM     94  F   UNL A   1      42.680  27.292  36.179  1.00  0.00    -0.203 F 
ATOM     95  F   UNL A   1      47.601  29.463  35.267  1.00  0.00    -0.200 F 
ATOM     96  C   UNL A   1      46.243  27.888  36.388  1.00  0.00     0.200 A 
ATOM     97  F   UNL A   1      44.848  26.323  37.471  1.00  0.00    -0.200 F 
ATOM     98  F   UNL A   1      47.319  27.378  37.003  1.00  0.00    -0.200 F 
ENDBRANCH  65  88
ENDBRANCH  39  40
ENDBRANCH  31  34
ENDBRANCH  29  30
ENDBRANCH  28  29
ENDBRANCH  27  28
ENDBRANCH   1  27
TORSDOF 16
ENDMDL
MODEL 3
REMARK VINA RESULT:     -11.9      0.609      7.349
REMARK SMILES COc1cccc(NC(=O)[C@@H]2[C@@H](C(=O)NCCCCCCNC(=O)c3ccc(-c4c5nc(c(-c6c(F)c(F)c(F)c(F)c6F)c6ccc([nH]6)c(-c6c(F)c(F)c(F)c(F)c6F)c6nc(c(-c7c(F)c(F)c(F)c(F)c7F)c7ccc4[nH]7)C=C6)C=C5)cc3)[C@H]3C=C[C@@H]2C3)c1
REMARK SMILES IDX 18 1 17 2 16 3 15 4 13 5 14 6 12 8 11 9 91 10 88 11 90 12
REMARK SMILES IDX 92 13 89 14 9 15 8 16 10 18 7 19 3 20 4 21 93 22 5 23 6 24
REMARK SMILES IDX 2 25 1 26 19 27 20 28 21 29 22 30 23 31 24 33 25 34 26 35
REMARK SMILES IDX 87 36 27 37 86 38 28 39 29 40 30 41 80 42 31 43 85 44 79 45
REMARK SMILES IDX 81 46 32 47 84 48 78 49 77 50 33 52 65 53 45 54 64 55 46 56
REMARK SMILES IDX 49 57 63 58 82 59 47 60 48 61 62 63 83 64 50 65 34 66 35 67
REMARK SMILES IDX 43 68 36 69 37 70 41 71 44 72 38 73 39 74 42 75 40 76 66 77
REMARK SMILES IDX 67 78 75 79 68 80 69 81 73 82 76 83 70 84 71 85 74 86 72 87
REMARK SMILES IDX 51 88 52 89 60 90 53 91 54 92 58 93 61 94 55 95 56 96 59 97
REMARK SMILES IDX 57 98
REMARK H PARENT 15 7 8 17 22 32 81 51 49 62
REMARK Flexibility Score: inf
ROOT
ATOM      1  C   UNL A   1      32.759  25.814  26.001  1.00  0.00     0.002 C 
ENDROOT
BRANCH   1   2
ATOM      2  C   UNL A   1      34.127  25.889  25.333  1.00  0.00     0.021 C 
BRANCH   2   3
ATOM      3  C   UNL A   1      35.086  24.735  25.580  1.00  0.00     0.116 C 
BRANCH   3   4
ATOM      4  N   UNL A   1      35.694  24.181  24.402  1.00  0.00    -0.356 N 
ATOM      5  C   UNL A   1      35.561  22.959  23.832  1.00  0.00     0.224 C 
ATOM      6  O   UNL A   1      36.178  22.812  22.767  1.00  0.00    -0.275 OA
ATOM      7  H   UNL A   1      36.308  24.789  23.932  1.00  0.00     0.163 HD
BRANCH   5   8
ATOM      8  C   UNL A   1      34.687  21.800  24.331  1.00  0.00     0.098 C 
ATOM      9  C   UNL A   1      33.185  22.233  24.356  1.00  0.00     0.099 C 
ATOM     10  C   UNL A   1      32.625  21.451  25.573  1.00  0.00     0.025 C 
ATOM     11  C   UNL A   1      34.828  21.063  25.695  1.00  0.00     0.025 C 
ATOM     12  C   UNL A   1      33.100  22.143  26.816  1.00  0.00    -0.027 C 
ATOM     13  C   UNL A   1      33.548  20.219  25.626  1.00  0.00     0.017 C 
ATOM     14  C   UNL A   1      34.406  21.880  26.912  1.00  0.00    -0.027 C 
BRANCH   9  15
ATOM     15  C   UNL A   1      32.324  21.868  23.167  1.00  0.00     0.228 C 
ATOM     16  N   UNL A   1      31.621  22.843  22.497  1.00  0.00    -0.326 N 
ATOM     17  H   UNL A   1      31.003  22.475  21.824  1.00  0.00     0.169 HD
ATOM     18  O   UNL A   1      32.134  20.694  22.840  1.00  0.00    -0.274 OA
BRANCH  16  19
ATOM     19  C   UNL A   1      31.589  24.258  22.558  1.00  0.00     0.044 A 
ATOM     20  C   UNL A   1      32.744  26.341  22.029  1.00  0.00     0.120 A 
ATOM     21  C   UNL A   1      31.720  27.077  22.614  1.00  0.00     0.046 A 
ATOM     22  C   UNL A   1      32.688  24.941  22.009  1.00  0.00     0.072 A 
ATOM     23  C   UNL A   1      30.633  26.419  23.166  1.00  0.00     0.006 A 
ATOM     24  C   UNL A   1      30.579  25.023  23.147  1.00  0.00     0.026 A 
BRANCH  20  25
ATOM     25  O   UNL A   1      33.807  27.076  21.578  1.00  0.00    -0.497 OA
ATOM     26  C   UNL A   1      34.020  28.292  22.285  1.00  0.00     0.278 C 
ENDBRANCH  20  25
ENDBRANCH  16  19
ENDBRANCH   9  15
ENDBRANCH   5   8
ENDBRANCH   3   4
ENDBRANCH   2   3
ENDBRANCH   1   2
BRANCH   1  27
ATOM     27  C   UNL A   1      32.338  27.017  26.847  1.00  0.00     0.002 C 
BRANCH  27  28
ATOM     28  C   UNL A   1      31.809  28.242  26.097  1.00  0.00     0.021 C 
BRANCH  28  29
ATOM     29  C   UNL A   1      32.852  29.260  25.645  1.00  0.00     0.116 C 
BRANCH  29  30
ATOM     30  N   UNL A   1      32.488  30.628  25.966  1.00  0.00    -0.352 N 
ATOM     31  C   UNL A   1      33.026  31.488  26.886  1.00  0.00     0.251 C 
ATOM     32  H   UNL A   1      31.740  30.995  25.441  1.00  0.00     0.163 HD
ATOM     33  O   UNL A   1      32.478  32.572  27.102  1.00  0.00    -0.269 OA
BRANCH  31  34
ATOM     34  C   UNL A   1      34.243  31.127  27.644  1.00  0.00     0.039 A 
ATOM     35  C   UNL A   1      35.178  32.128  27.923  1.00  0.00     0.014 A 
ATOM     36  C   UNL A   1      34.490  29.812  28.048  1.00  0.00     0.014 A 
ATOM     37  C   UNL A   1      36.334  31.821  28.644  1.00  0.00     0.010 A 
ATOM     38  C   UNL A   1      35.606  29.521  28.830  1.00  0.00     0.010 A 
ATOM     39  C   UNL A   1      36.547  30.519  29.127  1.00  0.00    -0.014 A 
BRANCH  39  40
ATOM     40  C   UNL A   1      37.759  30.187  29.919  1.00  0.00     0.031 A 
ATOM     41  C   UNL A   1      38.799  29.256  29.353  1.00  0.00     0.074 A 
ATOM     42  C   UNL A   1      37.910  30.693  31.157  1.00  0.00     0.049 A 
ATOM     43  N   UNL A   1      39.899  28.806  29.906  1.00  0.00    -0.248 NA
ATOM     44  C   UNL A   1      38.559  28.743  27.996  1.00  0.00     0.031 C 
ATOM     45  C   UNL A   1      36.956  31.575  31.833  1.00  0.00     0.029 A 
ATOM     46  N   UNL A   1      38.920  30.533  32.075  1.00  0.00    -0.354 N 
ATOM     47  C   UNL A   1      40.477  27.963  28.966  1.00  0.00     0.074 A 
ATOM     48  C   UNL A   1      39.574  27.907  27.837  1.00  0.00     0.031 C 
ATOM     49  C   UNL A   1      37.435  31.896  33.045  1.00  0.00     0.029 A 
ATOM     50  C   UNL A   1      38.710  31.214  33.250  1.00  0.00     0.049 A 
ATOM     51  H   UNL A   1      39.718  29.983  31.906  1.00  0.00     0.167 HD
ATOM     52  C   UNL A   1      41.668  27.320  29.023  1.00  0.00     0.037 A 
ATOM     53  C   UNL A   1      39.459  31.275  34.368  1.00  0.00     0.037 A 
ATOM     54  C   UNL A   1      42.570  27.384  30.143  1.00  0.00     0.049 A 
ATOM     55  C   UNL A   1      40.766  30.526  34.415  1.00  0.00     0.074 A 
ATOM     56  C   UNL A   1      43.806  26.781  30.294  1.00  0.00     0.029 A 
ATOM     57  N   UNL A   1      42.330  28.098  31.308  1.00  0.00    -0.354 N 
ATOM     58  N   UNL A   1      41.326  29.774  33.498  1.00  0.00    -0.248 NA
ATOM     59  C   UNL A   1      41.552  30.647  35.650  1.00  0.00     0.031 C 
ATOM     60  C   UNL A   1      44.297  27.097  31.565  1.00  0.00     0.029 A 
ATOM     61  C   UNL A   1      43.392  27.945  32.185  1.00  0.00     0.049 A 
ATOM     62  H   UNL A   1      41.525  28.637  31.485  1.00  0.00     0.167 HD
ATOM     63  C   UNL A   1      42.543  29.369  34.027  1.00  0.00     0.074 A 
ATOM     64  C   UNL A   1      42.648  29.971  35.339  1.00  0.00     0.031 C 
ATOM     65  C   UNL A   1      43.491  28.570  33.478  1.00  0.00     0.037 A 
BRANCH  52  66
ATOM     66  C   UNL A   1      42.071  26.498  27.831  1.00  0.00     0.064 A 
ATOM     67  C   UNL A   1      42.943  27.006  26.854  1.00  0.00     0.173 A 
ATOM     68  C   UNL A   1      41.615  25.181  27.678  1.00  0.00     0.173 A 
ATOM     69  F   UNL A   1      43.399  28.265  26.945  1.00  0.00    -0.203 F 
ATOM     70  C   UNL A   1      43.319  26.236  25.757  1.00  0.00     0.198 A 
ATOM     71  C   UNL A   1      42.020  24.402  26.596  1.00  0.00     0.198 A 
ATOM     72  F   UNL A   1      40.785  24.642  28.584  1.00  0.00    -0.203 F 
ATOM     73  F   UNL A   1      44.111  26.762  24.811  1.00  0.00    -0.200 F 
ATOM     74  C   UNL A   1      42.864  24.933  25.633  1.00  0.00     0.200 A 
ATOM     75  F   UNL A   1      41.593  23.137  26.486  1.00  0.00    -0.200 F 
ATOM     76  F   UNL A   1      43.235  24.189  24.581  1.00  0.00    -0.200 F 
ENDBRANCH  52  66
BRANCH  53  77
ATOM     77  C   UNL A   1      39.008  32.084  35.531  1.00  0.00     0.064 A 
ATOM     78  C   UNL A   1      39.344  33.442  35.642  1.00  0.00     0.173 A 
ATOM     79  C   UNL A   1      38.269  31.512  36.577  1.00  0.00     0.173 A 
ATOM     80  F   UNL A   1      40.066  34.032  34.677  1.00  0.00    -0.203 F 
ATOM     81  C   UNL A   1      38.991  34.183  36.767  1.00  0.00     0.198 A 
ATOM     82  C   UNL A   1      37.887  32.263  37.686  1.00  0.00     0.198 A 
ATOM     83  F   UNL A   1      37.915  30.218  36.519  1.00  0.00    -0.203 F 
ATOM     84  F   UNL A   1      39.384  35.459  36.875  1.00  0.00    -0.200 F 
ATOM     85  C   UNL A   1      38.260  33.595  37.787  1.00  0.00     0.200 A 
ATOM     86  F   UNL A   1      37.166  31.693  38.662  1.00  0.00    -0.200 F 
ATOM     87  F   UNL A   1      37.926  34.305  38.872  1.00  0.00    -0.200 F 
ENDBRANCH  53  77
BRANCH  65  88
ATOM     88  C   UNL A   1      44.750  28.352  34.269  1.00  0.00     0.064 A 
ATOM     89  C   UNL A   1      44.882  27.294  35.180  1.00  0.00     0.173 A 
ATOM     90  C   UNL A   1      45.850  29.208  34.093  1.00  0.00     0.173 A 
ATOM     91  F   UNL A   1      43.857  26.455  35.395  1.00  0.00    -0.203 F 
ATOM     92  C   UNL A   1      46.054  27.123  35.913  1.00  0.00     0.198 A 
ATOM     93  C   UNL A   1      47.031  29.012  34.801  1.00  0.00     0.198 A 
ATOM     94  F   UNL A   1      45.780  30.230  33.228  1.00  0.00    -0.203 F 
ATOM     95  F   UNL A   1      46.135  26.142  36.823  1.00  0.00    -0.200 F 
ATOM     96  C   UNL A   1      47.129  27.977  35.718  1.00  0.00     0.200 A 
ATOM     97  F   UNL A   1      48.074  29.828  34.600  1.00  0.00    -0.200 F 
ATOM     98  F   UNL A   1      48.257  27.808  36.423  1.00  0.00    -0.200 F 
ENDBRANCH  65  88
ENDBRANCH  39  40
ENDBRANCH  31  34
ENDBRANCH  29  30
ENDBRANCH  28  29
ENDBRANCH  27  28
ENDBRANCH   1  27
TORSDOF 16
ENDMDL
