MODEL 1
REMARK VINA RESULT:     -13.5      0.000      0.000
REMARK SMILES O=C(NCCCCCCNC(=O)c1nnn(-c2cccc(C(F)(F)F)c2)c1[C@@H]1COc2ccccc2O1)c1ccc(-c2c3nc(c(-c4c(F)c(F)c(F)c(F)c4F)c4ccc([nH]4)c(-c4c(F)c(F)c(F)c(F)c4F)c4nc(c(-c5c(F)c(F)c(F)c(F)c5F)c5ccc2[nH]5)C=C4)C=C3)cc1
REMARK SMILES IDX 6 1 5 2 4 3 3 4 1 5 2 6 38 8 39 9 100 10 40 11 99 12 41 13
REMARK SMILES IDX 42 14 43 15 93 16 44 17 98 18 92 19 94 20 45 21 97 22 91 23
REMARK SMILES IDX 90 24 46 26 78 27 58 28 77 29 59 30 62 31 76 32 95 33 60 34
REMARK SMILES IDX 61 35 75 37 96 38 63 39 47 40 48 41 56 42 49 43 50 44 54 45
REMARK SMILES IDX 57 46 51 47 52 48 55 49 53 50 79 51 80 52 88 53 81 54 82 55
REMARK SMILES IDX 86 56 89 57 83 58 84 59 87 60 85 61 64 62 65 63 73 64 66 65
REMARK SMILES IDX 67 66 71 67 74 68 68 69 69 70 72 71 70 72 7 73 8 74 9 75
REMARK SMILES IDX 10 76 11 77 12 79 13 80 14 81 27 82 15 83 16 84 28 85 29 86
REMARK SMILES IDX 37 87 30 88 36 89 31 90 35 91 32 92 34 93 33 94 17 95 18 96
REMARK SMILES IDX 26 97 19 98 21 99 20 100 22 101 23 102 24 103 25 104
REMARK H PARENT 3 7 94 25 62 36 10 78
REMARK Flexibility Score: inf
ROOT
ATOM      1  C   UNL A   1      34.384  29.766  27.398  1.00  0.00     0.002 C 
ENDROOT
BRANCH   1   2
ATOM      2  C   UNL A   1      33.669  31.117  27.541  1.00  0.00     0.021 C 
BRANCH   2   3
ATOM      3  C   UNL A   1      34.501  32.249  28.139  1.00  0.00     0.116 C 
BRANCH   3   4
ATOM      4  N   UNL A   1      34.444  32.342  29.584  1.00  0.00    -0.352 N 
ATOM      5  O   UNL A   1      34.883  32.266  31.751  1.00  0.00    -0.269 OA
ATOM      6  C   UNL A   1      35.265  31.974  30.614  1.00  0.00     0.251 C 
ATOM      7  H   UNL A   1      33.616  32.772  29.900  1.00  0.00     0.163 HD
BRANCH   6   8
ATOM      8  C   UNL A   1      36.538  31.221  30.469  1.00  0.00     0.039 A 
ATOM      9  C   UNL A   1      37.810  31.788  30.389  1.00  0.00     0.014 A 
ATOM     10  C   UNL A   1      36.425  29.817  30.469  1.00  0.00     0.014 A 
ATOM     11  C   UNL A   1      38.937  30.976  30.254  1.00  0.00     0.010 A 
ATOM     12  C   UNL A   1      37.548  29.002  30.356  1.00  0.00     0.010 A 
ATOM     13  C   UNL A   1      38.807  29.584  30.228  1.00  0.00    -0.014 A 
BRANCH  13  14
ATOM     14  C   UNL A   1      40.026  28.771  30.234  1.00  0.00     0.031 A 
ATOM     15  C   UNL A   1      40.645  28.537  31.577  1.00  0.00     0.074 A 
ATOM     16  C   UNL A   1      40.486  28.102  29.157  1.00  0.00     0.049 A 
ATOM     17  N   UNL A   1      41.871  28.733  31.954  1.00  0.00    -0.248 NA
ATOM     18  C   UNL A   1      39.763  28.055  32.652  1.00  0.00     0.031 C 
ATOM     19  C   UNL A   1      39.840  27.949  27.851  1.00  0.00     0.029 A 
ATOM     20  N   UNL A   1      41.596  27.315  29.047  1.00  0.00    -0.354 N 
ATOM     21  C   UNL A   1      41.952  28.269  33.267  1.00  0.00     0.074 A 
ATOM     22  C   UNL A   1      40.609  27.950  33.677  1.00  0.00     0.031 C 
ATOM     23  C   UNL A   1      40.455  26.961  27.164  1.00  0.00     0.029 A 
ATOM     24  C   UNL A   1      41.606  26.501  27.924  1.00  0.00     0.049 A 
ATOM     25  H   UNL A   1      42.326  27.323  29.709  1.00  0.00     0.167 HD
ATOM     26  C   UNL A   1      43.141  28.013  33.883  1.00  0.00     0.037 A 
ATOM     27  C   UNL A   1      42.456  25.476  27.669  1.00  0.00     0.037 A 
ATOM     28  C   UNL A   1      44.233  28.700  33.254  1.00  0.00     0.049 A 
ATOM     29  C   UNL A   1      43.646  25.638  28.535  1.00  0.00     0.074 A 
ATOM     30  C   UNL A   1      44.547  30.027  33.032  1.00  0.00     0.029 A 
ATOM     31  N   UNL A   1      45.094  27.988  32.460  1.00  0.00    -0.354 N 
ATOM     32  N   UNL A   1      44.541  26.573  28.393  1.00  0.00    -0.248 NA
ATOM     33  C   UNL A   1      43.645  24.963  29.825  1.00  0.00     0.031 C 
ATOM     34  C   UNL A   1      45.199  30.045  31.764  1.00  0.00     0.029 A 
ATOM     35  C   UNL A   1      45.270  28.725  31.318  1.00  0.00     0.049 A 
ATOM     36  H   UNL A   1      45.504  27.117  32.668  1.00  0.00     0.167 HD
ATOM     37  C   UNL A   1      44.920  26.894  29.687  1.00  0.00     0.074 A 
ATOM     38  C   UNL A   1      44.422  25.801  30.514  1.00  0.00     0.031 C 
ATOM     39  C   UNL A   1      45.358  28.147  30.000  1.00  0.00     0.037 A 
BRANCH  26  40
ATOM     40  C   UNL A   1      43.354  26.904  34.882  1.00  0.00     0.064 A 
ATOM     41  C   UNL A   1      43.562  27.209  36.242  1.00  0.00     0.173 A 
ATOM     42  C   UNL A   1      43.651  25.577  34.503  1.00  0.00     0.173 A 
ATOM     43  F   UNL A   1      43.343  28.450  36.704  1.00  0.00    -0.203 F 
ATOM     44  C   UNL A   1      44.083  26.272  37.138  1.00  0.00     0.198 A 
ATOM     45  C   UNL A   1      44.121  24.630  35.412  1.00  0.00     0.198 A 
ATOM     46  F   UNL A   1      43.603  25.181  33.225  1.00  0.00    -0.203 F 
ATOM     47  F   UNL A   1      44.375  26.641  38.394  1.00  0.00    -0.200 F 
ATOM     48  C   UNL A   1      44.365  24.983  36.722  1.00  0.00     0.200 A 
ATOM     49  F   UNL A   1      44.411  23.392  34.984  1.00  0.00    -0.200 F 
ATOM     50  F   UNL A   1      44.918  24.101  37.565  1.00  0.00    -0.200 F 
ENDBRANCH  26  40
BRANCH  27  51
ATOM     51  C   UNL A   1      42.187  24.218  26.934  1.00  0.00     0.064 A 
ATOM     52  C   UNL A   1      43.134  23.674  26.051  1.00  0.00     0.173 A 
ATOM     53  C   UNL A   1      41.111  23.382  27.292  1.00  0.00     0.173 A 
ATOM     54  F   UNL A   1      44.214  24.385  25.697  1.00  0.00    -0.203 F 
ATOM     55  C   UNL A   1      43.021  22.364  25.572  1.00  0.00     0.198 A 
ATOM     56  C   UNL A   1      40.995  22.080  26.806  1.00  0.00     0.198 A 
ATOM     57  F   UNL A   1      40.205  23.778  28.197  1.00  0.00    -0.203 F 
ATOM     58  F   UNL A   1      43.978  21.857  24.780  1.00  0.00    -0.200 F 
ATOM     59  C   UNL A   1      41.956  21.567  25.957  1.00  0.00     0.200 A 
ATOM     60  F   UNL A   1      39.980  21.308  27.216  1.00  0.00    -0.200 F 
ATOM     61  F   UNL A   1      41.879  20.293  25.546  1.00  0.00    -0.200 F 
ENDBRANCH  27  51
BRANCH  39  62
ATOM     62  C   UNL A   1      45.689  29.077  28.868  1.00  0.00     0.064 A 
ATOM     63  C   UNL A   1      44.735  29.863  28.197  1.00  0.00     0.173 A 
ATOM     64  C   UNL A   1      47.037  29.283  28.544  1.00  0.00     0.173 A 
ATOM     65  F   UNL A   1      43.439  29.808  28.527  1.00  0.00    -0.203 F 
ATOM     66  C   UNL A   1      45.113  30.771  27.210  1.00  0.00     0.198 A 
ATOM     67  C   UNL A   1      47.414  30.218  27.585  1.00  0.00     0.198 A 
ATOM     68  F   UNL A   1      47.996  28.607  29.197  1.00  0.00    -0.203 F 
ATOM     69  F   UNL A   1      44.182  31.497  26.573  1.00  0.00    -0.200 F 
ATOM     70  C   UNL A   1      46.452  30.952  26.909  1.00  0.00     0.200 A 
ATOM     71  F   UNL A   1      48.714  30.430  27.337  1.00  0.00    -0.200 F 
ATOM     72  F   UNL A   1      46.819  31.856  25.990  1.00  0.00    -0.200 F 
ENDBRANCH  39  62
ENDBRANCH  13  14
ENDBRANCH   6   8
ENDBRANCH   3   4
ENDBRANCH   2   3
ENDBRANCH   1   2
BRANCH   1  73
ATOM     73  C   UNL A   1      33.759  28.733  26.450  1.00  0.00     0.002 C 
BRANCH  73  74
ATOM     74  C   UNL A   1      33.228  29.256  25.117  1.00  0.00     0.021 C 
BRANCH  74  75
ATOM     75  C   UNL A   1      31.715  29.260  24.937  1.00  0.00     0.116 C 
BRANCH  75  76
ATOM     76  N   UNL A   1      31.217  28.761  23.681  1.00  0.00    -0.351 N 
ATOM     77  C   UNL A   1      31.005  27.505  23.150  1.00  0.00     0.273 C 
ATOM     78  H   UNL A   1      30.972  29.482  23.058  1.00  0.00     0.163 HD
ATOM     79  O   UNL A   1      30.573  27.545  21.990  1.00  0.00    -0.267 OA
BRANCH  77  80
ATOM     80  C   UNL A   1      31.241  26.187  23.792  1.00  0.00     0.178 A 
ATOM     81  N   UNL A   1      30.124  25.367  23.918  1.00  0.00    -0.124 NA
ATOM     82  C   UNL A   1      32.330  25.466  24.299  1.00  0.00     0.122 A 
ATOM     83  N   UNL A   1      30.477  24.207  24.438  1.00  0.00    -0.061 NA
ATOM     84  N   UNL A   1      31.766  24.294  24.791  1.00  0.00    -0.213 N 
BRANCH  82  85
ATOM     85  C   UNL A   1      33.807  25.658  24.163  1.00  0.00     0.262 C 
ATOM     86  C   UNL A   1      34.272  25.114  22.793  1.00  0.00     0.281 C 
ATOM     87  O   UNL A   1      34.566  25.181  25.279  1.00  0.00    -0.477 OA
ATOM     88  O   UNL A   1      34.523  23.712  22.831  1.00  0.00    -0.485 OA
ATOM     89  C   UNL A   1      35.542  24.277  24.943  1.00  0.00     0.162 A 
ATOM     90  C   UNL A   1      35.484  23.503  23.782  1.00  0.00     0.161 A 
ATOM     91  C   UNL A   1      36.584  24.091  25.843  1.00  0.00     0.050 A 
ATOM     92  C   UNL A   1      36.403  22.488  23.551  1.00  0.00     0.050 A 
ATOM     93  C   UNL A   1      37.548  23.112  25.587  1.00  0.00     0.004 A 
ATOM     94  C   UNL A   1      37.445  22.298  24.455  1.00  0.00     0.004 A 
ENDBRANCH  82  85
BRANCH  84  95
ATOM     95  C   UNL A   1      32.357  23.280  25.566  1.00  0.00     0.067 A 
ATOM     96  C   UNL A   1      32.603  23.502  26.922  1.00  0.00     0.028 A 
ATOM     97  C   UNL A   1      32.563  22.022  24.988  1.00  0.00     0.041 A 
ATOM     98  C   UNL A   1      32.957  22.420  27.729  1.00  0.00     0.003 A 
ATOM     99  C   UNL A   1      32.947  20.939  25.792  1.00  0.00     0.058 A 
ATOM    100  C   UNL A   1      33.111  21.146  27.172  1.00  0.00     0.013 A 
BRANCH  99 101
ATOM    101  C   UNL A   1      33.096  19.560  25.201  1.00  0.00     0.416 C 
ATOM    102  F   UNL A   1      32.309  19.367  24.106  1.00  0.00    -0.166 F 
ATOM    103  F   UNL A   1      34.371  19.303  24.796  1.00  0.00    -0.166 F 
ATOM    104  F   UNL A   1      32.775  18.561  26.071  1.00  0.00    -0.166 F 
ENDBRANCH  99 101
ENDBRANCH  84  95
ENDBRANCH  77  80
ENDBRANCH  75  76
ENDBRANCH  74  75
ENDBRANCH  73  74
ENDBRANCH   1  73
TORSDOF 16
ENDMDL
MODEL 2
REMARK VINA RESULT:     -13.5      3.491      8.778
REMARK SMILES O=C(NCCCCCCNC(=O)c1nnn(-c2cccc(C(F)(F)F)c2)c1[C@@H]1COc2ccccc2O1)c1ccc(-c2c3nc(c(-c4c(F)c(F)c(F)c(F)c4F)c4ccc([nH]4)c(-c4c(F)c(F)c(F)c(F)c4F)c4nc(c(-c5c(F)c(F)c(F)c(F)c5F)c5ccc2[nH]5)C=C4)C=C3)cc1
REMARK SMILES IDX 6 1 5 2 4 3 3 4 1 5 2 6 38 8 39 9 100 10 40 11 99 12 41 13
REMARK SMILES IDX 42 14 43 15 93 16 44 17 98 18 92 19 94 20 45 21 97 22 91 23
REMARK SMILES IDX 90 24 46 26 78 27 58 28 77 29 59 30 62 31 76 32 95 33 60 34
REMARK SMILES IDX 61 35 75 37 96 38 63 39 47 40 48 41 56 42 49 43 50 44 54 45
REMARK SMILES IDX 57 46 51 47 52 48 55 49 53 50 79 51 80 52 88 53 81 54 82 55
REMARK SMILES IDX 86 56 89 57 83 58 84 59 87 60 85 61 64 62 65 63 73 64 66 65
REMARK SMILES IDX 67 66 71 67 74 68 68 69 69 70 72 71 70 72 7 73 8 74 9 75
REMARK SMILES IDX 10 76 11 77 12 79 13 80 14 81 27 82 15 83 16 84 28 85 29 86
REMARK SMILES IDX 37 87 30 88 36 89 31 90 35 91 32 92 34 93 33 94 17 95 18 96
REMARK SMILES IDX 26 97 19 98 21 99 20 100 22 101 23 102 24 103 25 104
REMARK H PARENT 3 7 94 25 62 36 10 78
REMARK Flexibility Score: inf
ROOT
ATOM      1  C   UNL A   1      38.350  22.841  26.084  1.00  0.00     0.002 C 
ENDROOT
BRANCH   1   2
ATOM      2  C   UNL A   1      38.940  21.462  25.754  1.00  0.00     0.021 C 
BRANCH   2   3
ATOM      3  C   UNL A   1      40.290  21.147  26.394  1.00  0.00     0.116 C 
BRANCH   3   4
ATOM      4  N   UNL A   1      41.440  21.555  25.612  1.00  0.00    -0.352 N 
ATOM      5  O   UNL A   1      43.193  22.618  24.785  1.00  0.00    -0.269 OA
ATOM      6  C   UNL A   1      42.263  22.646  25.595  1.00  0.00     0.251 C 
ATOM      7  H   UNL A   1      41.686  20.889  24.930  1.00  0.00     0.163 HD
BRANCH   6   8
ATOM      8  C   UNL A   1      42.095  23.861  26.435  1.00  0.00     0.039 A 
ATOM      9  C   UNL A   1      42.540  24.006  27.749  1.00  0.00     0.014 A 
ATOM     10  C   UNL A   1      41.479  24.962  25.806  1.00  0.00     0.014 A 
ATOM     11  C   UNL A   1      42.323  25.200  28.438  1.00  0.00     0.010 A 
ATOM     12  C   UNL A   1      41.281  26.161  26.483  1.00  0.00     0.010 A 
ATOM     13  C   UNL A   1      41.686  26.275  27.810  1.00  0.00    -0.014 A 
BRANCH  13  14
ATOM     14  C   UNL A   1      41.613  27.553  28.523  1.00  0.00     0.031 A 
ATOM     15  C   UNL A   1      42.726  28.516  28.247  1.00  0.00     0.074 A 
ATOM     16  C   UNL A   1      40.541  27.953  29.237  1.00  0.00     0.049 A 
ATOM     17  N   UNL A   1      43.494  29.137  29.088  1.00  0.00    -0.248 NA
ATOM     18  C   UNL A   1      43.048  28.789  26.836  1.00  0.00     0.031 C 
ATOM     19  C   UNL A   1      39.240  27.291  29.351  1.00  0.00     0.029 A 
ATOM     20  N   UNL A   1      40.360  29.115  29.931  1.00  0.00    -0.354 N 
ATOM     21  C   UNL A   1      44.299  29.985  28.327  1.00  0.00     0.074 A 
ATOM     22  C   UNL A   1      44.048  29.664  26.946  1.00  0.00     0.031 C 
ATOM     23  C   UNL A   1      38.348  28.154  29.887  1.00  0.00     0.029 A 
ATOM     24  C   UNL A   1      39.039  29.375  30.265  1.00  0.00     0.049 A 
ATOM     25  H   UNL A   1      41.102  29.717  30.171  1.00  0.00     0.167 HD
ATOM     26  C   UNL A   1      44.999  31.019  28.874  1.00  0.00     0.037 A 
ATOM     27  C   UNL A   1      38.536  30.537  30.752  1.00  0.00     0.037 A 
ATOM     28  C   UNL A   1      45.202  30.847  30.284  1.00  0.00     0.049 A 
ATOM     29  C   UNL A   1      39.660  31.331  31.301  1.00  0.00     0.074 A 
ATOM     30  C   UNL A   1      45.840  29.902  31.065  1.00  0.00     0.029 A 
ATOM     31  N   UNL A   1      44.449  31.587  31.157  1.00  0.00    -0.354 N 
ATOM     32  N   UNL A   1      40.321  31.025  32.381  1.00  0.00    -0.248 NA
ATOM     33  C   UNL A   1      40.307  32.292  30.421  1.00  0.00     0.031 C 
ATOM     34  C   UNL A   1      45.047  29.804  32.247  1.00  0.00     0.029 A 
ATOM     35  C   UNL A   1      44.004  30.720  32.120  1.00  0.00     0.049 A 
ATOM     36  H   UNL A   1      44.263  32.553  31.103  1.00  0.00     0.167 HD
ATOM     37  C   UNL A   1      41.625  31.412  32.113  1.00  0.00     0.074 A 
ATOM     38  C   UNL A   1      41.534  32.281  30.945  1.00  0.00     0.031 C 
ATOM     39  C   UNL A   1      42.680  30.771  32.692  1.00  0.00     0.037 A 
BRANCH  26  40
ATOM     40  C   UNL A   1      45.246  32.334  28.178  1.00  0.00     0.064 A 
ATOM     41  C   UNL A   1      44.173  33.215  27.934  1.00  0.00     0.173 A 
ATOM     42  C   UNL A   1      46.441  32.623  27.486  1.00  0.00     0.173 A 
ATOM     43  F   UNL A   1      42.979  33.014  28.513  1.00  0.00    -0.203 F 
ATOM     44  C   UNL A   1      44.275  34.269  27.022  1.00  0.00     0.198 A 
ATOM     45  C   UNL A   1      46.556  33.707  26.617  1.00  0.00     0.198 A 
ATOM     46  F   UNL A   1      47.502  31.808  27.540  1.00  0.00    -0.203 F 
ATOM     47  F   UNL A   1      43.195  35.009  26.734  1.00  0.00    -0.200 F 
ATOM     48  C   UNL A   1      45.466  34.513  26.362  1.00  0.00     0.200 A 
ATOM     49  F   UNL A   1      47.712  33.913  25.969  1.00  0.00    -0.200 F 
ATOM     50  F   UNL A   1      45.550  35.486  25.446  1.00  0.00    -0.200 F 
ENDBRANCH  26  40
BRANCH  27  51
ATOM     51  C   UNL A   1      37.197  31.128  30.525  1.00  0.00     0.064 A 
ATOM     52  C   UNL A   1      36.356  31.461  31.598  1.00  0.00     0.173 A 
ATOM     53  C   UNL A   1      36.830  31.631  29.261  1.00  0.00     0.173 A 
ATOM     54  F   UNL A   1      36.659  31.063  32.842  1.00  0.00    -0.203 F 
ATOM     55  C   UNL A   1      35.226  32.267  31.421  1.00  0.00     0.198 A 
ATOM     56  C   UNL A   1      35.698  32.426  29.085  1.00  0.00     0.198 A 
ATOM     57  F   UNL A   1      37.615  31.443  28.191  1.00  0.00    -0.203 F 
ATOM     58  F   UNL A   1      34.481  32.616  32.481  1.00  0.00    -0.200 F 
ATOM     59  C   UNL A   1      34.903  32.755  30.166  1.00  0.00     0.200 A 
ATOM     60  F   UNL A   1      35.418  32.922  27.871  1.00  0.00    -0.200 F 
ATOM     61  F   UNL A   1      33.855  33.576  30.006  1.00  0.00    -0.200 F 
ENDBRANCH  27  51
BRANCH  39  62
ATOM     62  C   UNL A   1      42.394  29.838  33.833  1.00  0.00     0.064 A 
ATOM     63  C   UNL A   1      41.978  28.505  33.668  1.00  0.00     0.173 A 
ATOM     64  C   UNL A   1      42.683  30.266  35.136  1.00  0.00     0.173 A 
ATOM     65  F   UNL A   1      41.789  27.986  32.448  1.00  0.00    -0.203 F 
ATOM     66  C   UNL A   1      41.807  27.661  34.763  1.00  0.00     0.198 A 
ATOM     67  C   UNL A   1      42.549  29.409  36.224  1.00  0.00     0.198 A 
ATOM     68  F   UNL A   1      43.145  31.509  35.348  1.00  0.00    -0.203 F 
ATOM     69  F   UNL A   1      41.394  26.398  34.580  1.00  0.00    -0.200 F 
ATOM     70  C   UNL A   1      42.099  28.111  36.039  1.00  0.00     0.200 A 
ATOM     71  F   UNL A   1      42.886  29.832  37.450  1.00  0.00    -0.200 F 
ATOM     72  F   UNL A   1      41.977  27.286  37.088  1.00  0.00    -0.200 F 
ENDBRANCH  39  62
ENDBRANCH  13  14
ENDBRANCH   6   8
ENDBRANCH   3   4
ENDBRANCH   2   3
ENDBRANCH   1   2
BRANCH   1  73
ATOM     73  C   UNL A   1      37.015  23.214  25.426  1.00  0.00     0.002 C 
BRANCH  73  74
ATOM     74  C   UNL A   1      36.078  22.062  25.070  1.00  0.00     0.021 C 
BRANCH  74  75
ATOM     75  C   UNL A   1      35.271  21.457  26.213  1.00  0.00     0.116 C 
BRANCH  75  76
ATOM     76  N   UNL A   1      34.050  20.785  25.850  1.00  0.00    -0.351 N 
ATOM     77  C   UNL A   1      32.919  21.138  25.142  1.00  0.00     0.273 C 
ATOM     78  H   UNL A   1      34.014  19.860  26.184  1.00  0.00     0.163 HD
ATOM     79  O   UNL A   1      32.082  20.227  25.094  1.00  0.00    -0.267 OA
BRANCH  77  80
ATOM     80  C   UNL A   1      32.620  22.434  24.479  1.00  0.00     0.178 A 
ATOM     81  N   UNL A   1      31.924  22.352  23.278  1.00  0.00    -0.124 NA
ATOM     82  C   UNL A   1      32.807  23.797  24.746  1.00  0.00     0.122 A 
ATOM     83  N   UNL A   1      31.664  23.565  22.828  1.00  0.00    -0.061 NA
ATOM     84  N   UNL A   1      32.295  24.438  23.624  1.00  0.00    -0.213 N 
BRANCH  82  85
ATOM     85  C   UNL A   1      33.190  24.528  25.993  1.00  0.00     0.262 C 
ATOM     86  C   UNL A   1      31.959  24.636  26.922  1.00  0.00     0.281 C 
ATOM     87  O   UNL A   1      33.868  25.767  25.761  1.00  0.00    -0.477 OA
ATOM     88  O   UNL A   1      31.137  25.754  26.595  1.00  0.00    -0.485 OA
ATOM     89  C   UNL A   1      33.274  26.849  26.362  1.00  0.00     0.162 A 
ATOM     90  C   UNL A   1      31.919  26.871  26.702  1.00  0.00     0.161 A 
ATOM     91  C   UNL A   1      34.054  27.980  26.566  1.00  0.00     0.050 A 
ATOM     92  C   UNL A   1      31.316  28.033  27.162  1.00  0.00     0.050 A 
ATOM     93  C   UNL A   1      33.466  29.136  27.086  1.00  0.00     0.004 A 
ATOM     94  C   UNL A   1      32.096  29.169  27.362  1.00  0.00     0.004 A 
ENDBRANCH  82  85
BRANCH  84  95
ATOM     95  C   UNL A   1      32.372  25.795  23.262  1.00  0.00     0.067 A 
ATOM     96  C   UNL A   1      33.535  26.285  22.665  1.00  0.00     0.028 A 
ATOM     97  C   UNL A   1      31.230  26.595  23.389  1.00  0.00     0.041 A 
ATOM     98  C   UNL A   1      33.514  27.557  22.092  1.00  0.00     0.003 A 
ATOM     99  C   UNL A   1      31.216  27.884  22.839  1.00  0.00     0.058 A 
ATOM    100  C   UNL A   1      32.359  28.344  22.163  1.00  0.00     0.013 A 
BRANCH  99 101
ATOM    101  C   UNL A   1      29.968  28.729  22.896  1.00  0.00     0.416 C 
ATOM    102  F   UNL A   1      29.786  29.476  21.772  1.00  0.00    -0.166 F 
ATOM    103  F   UNL A   1      28.839  27.980  23.037  1.00  0.00    -0.166 F 
ATOM    104  F   UNL A   1      29.960  29.611  23.935  1.00  0.00    -0.166 F 
ENDBRANCH  99 101
ENDBRANCH  84  95
ENDBRANCH  77  80
ENDBRANCH  75  76
ENDBRANCH  74  75
ENDBRANCH  73  74
ENDBRANCH   1  73
TORSDOF 16
ENDMDL
MODEL 3
REMARK VINA RESULT:     -13.3      1.847      2.946
REMARK SMILES O=C(NCCCCCCNC(=O)c1nnn(-c2cccc(C(F)(F)F)c2)c1[C@@H]1COc2ccccc2O1)c1ccc(-c2c3nc(c(-c4c(F)c(F)c(F)c(F)c4F)c4ccc([nH]4)c(-c4c(F)c(F)c(F)c(F)c4F)c4nc(c(-c5c(F)c(F)c(F)c(F)c5F)c5ccc2[nH]5)C=C4)C=C3)cc1
REMARK SMILES IDX 6 1 5 2 4 3 3 4 1 5 2 6 38 8 39 9 100 10 40 11 99 12 41 13
REMARK SMILES IDX 42 14 43 15 93 16 44 17 98 18 92 19 94 20 45 21 97 22 91 23
REMARK SMILES IDX 90 24 46 26 78 27 58 28 77 29 59 30 62 31 76 32 95 33 60 34
REMARK SMILES IDX 61 35 75 37 96 38 63 39 47 40 48 41 56 42 49 43 50 44 54 45
REMARK SMILES IDX 57 46 51 47 52 48 55 49 53 50 79 51 80 52 88 53 81 54 82 55
REMARK SMILES IDX 86 56 89 57 83 58 84 59 87 60 85 61 64 62 65 63 73 64 66 65
REMARK SMILES IDX 67 66 71 67 74 68 68 69 69 70 72 71 70 72 7 73 8 74 9 75
REMARK SMILES IDX 10 76 11 77 12 79 13 80 14 81 27 82 15 83 16 84 28 85 29 86
REMARK SMILES IDX 37 87 30 88 36 89 31 90 35 91 32 92 34 93 33 94 17 95 18 96
REMARK SMILES IDX 26 97 19 98 21 99 20 100 22 101 23 102 24 103 25 104
REMARK H PARENT 3 7 94 25 62 36 10 78
REMARK Flexibility Score: inf
ROOT
ATOM      1  C   UNL A   1      32.184  29.338  27.229  1.00  0.00     0.002 C 
ENDROOT
BRANCH   1   2
ATOM      2  C   UNL A   1      33.711  29.480  27.309  1.00  0.00     0.021 C 
BRANCH   2   3
ATOM      3  C   UNL A   1      34.246  30.910  27.295  1.00  0.00     0.116 C 
BRANCH   3   4
ATOM      4  N   UNL A   1      34.302  31.547  28.595  1.00  0.00    -0.352 N 
ATOM      5  O   UNL A   1      34.926  32.327  30.569  1.00  0.00    -0.269 OA
ATOM      6  C   UNL A   1      35.234  31.641  29.591  1.00  0.00     0.251 C 
ATOM      7  H   UNL A   1      33.470  32.025  28.815  1.00  0.00     0.163 HD
BRANCH   6   8
ATOM      8  C   UNL A   1      36.552  30.951  29.600  1.00  0.00     0.039 A 
ATOM      9  C   UNL A   1      37.795  31.577  29.510  1.00  0.00     0.014 A 
ATOM     10  C   UNL A   1      36.512  29.554  29.770  1.00  0.00     0.014 A 
ATOM     11  C   UNL A   1      38.968  30.821  29.529  1.00  0.00     0.010 A 
ATOM     12  C   UNL A   1      37.679  28.798  29.813  1.00  0.00     0.010 A 
ATOM     13  C   UNL A   1      38.912  29.431  29.672  1.00  0.00    -0.014 A 
BRANCH  13  14
ATOM     14  C   UNL A   1      40.169  28.697  29.836  1.00  0.00     0.031 A 
ATOM     15  C   UNL A   1      40.663  28.560  31.242  1.00  0.00     0.074 A 
ATOM     16  C   UNL A   1      40.772  28.013  28.842  1.00  0.00     0.049 A 
ATOM     17  N   UNL A   1      41.832  28.848  31.727  1.00  0.00    -0.248 NA
ATOM     18  C   UNL A   1      39.707  28.071  32.249  1.00  0.00     0.031 C 
ATOM     19  C   UNL A   1      40.270  27.764  27.489  1.00  0.00     0.029 A 
ATOM     20  N   UNL A   1      41.932  27.293  28.880  1.00  0.00    -0.354 N 
ATOM     21  C   UNL A   1      41.808  28.447  33.063  1.00  0.00     0.074 A 
ATOM     22  C   UNL A   1      40.451  28.062  33.355  1.00  0.00     0.031 C 
ATOM     23  C   UNL A   1      41.007  26.787  26.914  1.00  0.00     0.029 A 
ATOM     24  C   UNL A   1      42.101  26.434  27.804  1.00  0.00     0.049 A 
ATOM     25  H   UNL A   1      42.590  27.375  29.608  1.00  0.00     0.167 HD
ATOM     26  C   UNL A   1      42.942  28.293  33.803  1.00  0.00     0.037 A 
ATOM     27  C   UNL A   1      43.030  25.453  27.683  1.00  0.00     0.037 A 
ATOM     28  C   UNL A   1      44.050  29.019  33.251  1.00  0.00     0.049 A 
ATOM     29  C   UNL A   1      44.116  25.727  28.652  1.00  0.00     0.074 A 
ATOM     30  C   UNL A   1      44.307  30.352  32.995  1.00  0.00     0.029 A 
ATOM     31  N   UNL A   1      45.025  28.328  32.580  1.00  0.00    -0.354 N 
ATOM     32  N   UNL A   1      44.965  26.709  28.552  1.00  0.00    -0.248 NA
ATOM     33  C   UNL A   1      44.025  25.109  29.967  1.00  0.00     0.031 C 
ATOM     34  C   UNL A   1      45.080  30.356  31.797  1.00  0.00     0.029 A 
ATOM     35  C   UNL A   1      45.272  29.025  31.426  1.00  0.00     0.049 A 
ATOM     36  H   UNL A   1      45.462  27.495  32.869  1.00  0.00     0.167 HD
ATOM     37  C   UNL A   1      45.194  27.108  29.860  1.00  0.00     0.074 A 
ATOM     38  C   UNL A   1      44.680  26.022  30.687  1.00  0.00     0.031 C 
ATOM     39  C   UNL A   1      45.525  28.399  30.152  1.00  0.00     0.037 A 
BRANCH  26  40
ATOM     40  C   UNL A   1      43.118  27.242  34.871  1.00  0.00     0.064 A 
ATOM     41  C   UNL A   1      43.424  27.625  36.192  1.00  0.00     0.173 A 
ATOM     42  C   UNL A   1      43.285  25.872  34.579  1.00  0.00     0.173 A 
ATOM     43  F   UNL A   1      43.333  28.909  36.570  1.00  0.00    -0.203 F 
ATOM     44  C   UNL A   1      43.915  26.712  37.130  1.00  0.00     0.198 A 
ATOM     45  C   UNL A   1      43.725  24.954  35.533  1.00  0.00     0.198 A 
ATOM     46  F   UNL A   1      43.135  25.392  33.338  1.00  0.00    -0.203 F 
ATOM     47  F   UNL A   1      44.304  27.143  38.339  1.00  0.00    -0.200 F 
ATOM     48  C   UNL A   1      44.068  25.378  36.798  1.00  0.00     0.200 A 
ATOM     49  F   UNL A   1      43.888  23.669  35.185  1.00  0.00    -0.200 F 
ATOM     50  F   UNL A   1      44.592  24.514  37.677  1.00  0.00    -0.200 F 
ENDBRANCH  26  40
BRANCH  27  51
ATOM     51  C   UNL A   1      42.910  24.151  26.988  1.00  0.00     0.064 A 
ATOM     52  C   UNL A   1      43.452  23.955  25.707  1.00  0.00     0.173 A 
ATOM     53  C   UNL A   1      42.501  22.993  27.679  1.00  0.00     0.173 A 
ATOM     54  F   UNL A   1      43.910  25.000  25.002  1.00  0.00    -0.203 F 
ATOM     55  C   UNL A   1      43.596  22.676  25.160  1.00  0.00     0.198 A 
ATOM     56  C   UNL A   1      42.637  21.719  27.128  1.00  0.00     0.198 A 
ATOM     57  F   UNL A   1      42.054  23.067  28.940  1.00  0.00    -0.203 F 
ATOM     58  F   UNL A   1      44.177  22.524  23.961  1.00  0.00    -0.200 F 
ATOM     59  C   UNL A   1      43.196  21.559  25.875  1.00  0.00     0.200 A 
ATOM     60  F   UNL A   1      42.279  20.645  27.845  1.00  0.00    -0.200 F 
ATOM     61  F   UNL A   1      43.389  20.330  25.376  1.00  0.00    -0.200 F 
ENDBRANCH  27  51
BRANCH  39  62
ATOM     62  C   UNL A   1      45.913  29.298  29.014  1.00  0.00     0.064 A 
ATOM     63  C   UNL A   1      44.988  30.017  28.235  1.00  0.00     0.173 A 
ATOM     64  C   UNL A   1      47.274  29.548  28.793  1.00  0.00     0.173 A 
ATOM     65  F   UNL A   1      43.672  29.920  28.460  1.00  0.00    -0.203 F 
ATOM     66  C   UNL A   1      45.412  30.901  27.245  1.00  0.00     0.198 A 
ATOM     67  C   UNL A   1      47.694  30.461  27.830  1.00  0.00     0.198 A 
ATOM     68  F   UNL A   1      48.201  28.938  29.550  1.00  0.00    -0.203 F 
ATOM     69  F   UNL A   1      44.510  31.563  26.505  1.00  0.00    -0.200 F 
ATOM     70  C   UNL A   1      46.764  31.127  27.048  1.00  0.00     0.200 A 
ATOM     71  F   UNL A   1      49.000  30.718  27.681  1.00  0.00    -0.200 F 
ATOM     72  F   UNL A   1      47.170  32.011  26.126  1.00  0.00    -0.200 F 
ENDBRANCH  39  62
ENDBRANCH  13  14
ENDBRANCH   6   8
ENDBRANCH   3   4
ENDBRANCH   2   3
ENDBRANCH   1   2
BRANCH   1  73
ATOM     73  C   UNL A   1      31.570  29.082  25.846  1.00  0.00     0.002 C 
BRANCH  73  74
ATOM     74  C   UNL A   1      31.149  27.647  25.536  1.00  0.00     0.021 C 
BRANCH  74  75
ATOM     75  C   UNL A   1      31.696  26.559  26.454  1.00  0.00     0.116 C 
BRANCH  75  76
ATOM     76  N   UNL A   1      30.812  25.460  26.741  1.00  0.00    -0.351 N 
ATOM     77  C   UNL A   1      30.972  24.098  26.898  1.00  0.00     0.273 C 
ATOM     78  H   UNL A   1      29.876  25.745  26.850  1.00  0.00     0.163 HD
ATOM     79  O   UNL A   1      29.903  23.514  27.120  1.00  0.00    -0.267 OA
BRANCH  77  80
ATOM     80  C   UNL A   1      32.228  23.309  26.821  1.00  0.00     0.178 A 
ATOM     81  N   UNL A   1      32.528  22.539  27.940  1.00  0.00    -0.124 NA
ATOM     82  C   UNL A   1      33.237  23.064  25.880  1.00  0.00     0.122 A 
ATOM     83  N   UNL A   1      33.625  21.839  27.720  1.00  0.00    -0.061 NA
ATOM     84  N   UNL A   1      34.133  22.236  26.547  1.00  0.00    -0.213 N 
BRANCH  82  85
ATOM     85  C   UNL A   1      33.320  23.330  24.411  1.00  0.00     0.262 C 
ATOM     86  C   UNL A   1      34.623  24.103  24.102  1.00  0.00     0.281 C 
ATOM     87  O   UNL A   1      32.138  23.915  23.853  1.00  0.00    -0.477 OA
ATOM     88  O   UNL A   1      34.468  25.508  24.283  1.00  0.00    -0.485 OA
ATOM     89  C   UNL A   1      32.360  25.093  23.186  1.00  0.00     0.162 A 
ATOM     90  C   UNL A   1      33.462  25.911  23.449  1.00  0.00     0.161 A 
ATOM     91  C   UNL A   1      31.403  25.502  22.266  1.00  0.00     0.050 A 
ATOM     92  C   UNL A   1      33.573  27.168  22.871  1.00  0.00     0.050 A 
ATOM     93  C   UNL A   1      31.540  26.741  21.635  1.00  0.00     0.004 A 
ATOM     94  C   UNL A   1      32.611  27.581  21.954  1.00  0.00     0.004 A 
ENDBRANCH  82  85
BRANCH  84  95
ATOM     95  C   UNL A   1      35.416  21.815  26.154  1.00  0.00     0.067 A 
ATOM     96  C   UNL A   1      35.553  20.704  25.319  1.00  0.00     0.028 A 
ATOM     97  C   UNL A   1      36.522  22.600  26.501  1.00  0.00     0.041 A 
ATOM     98  C   UNL A   1      36.796  20.443  24.741  1.00  0.00     0.003 A 
ATOM     99  C   UNL A   1      37.777  22.324  25.943  1.00  0.00     0.058 A 
ATOM    100  C   UNL A   1      37.895  21.256  25.037  1.00  0.00     0.013 A 
BRANCH  99 101
ATOM    101  C   UNL A   1      38.962  23.208  26.244  1.00  0.00     0.416 C 
ATOM    102  F   UNL A   1      38.810  24.473  25.764  1.00  0.00    -0.166 F 
ATOM    103  F   UNL A   1      39.189  23.337  27.581  1.00  0.00    -0.166 F 
ATOM    104  F   UNL A   1      40.129  22.746  25.713  1.00  0.00    -0.166 F 
ENDBRANCH  99 101
ENDBRANCH  84  95
ENDBRANCH  77  80
ENDBRANCH  75  76
ENDBRANCH  74  75
ENDBRANCH  73  74
ENDBRANCH   1  73
TORSDOF 16
ENDMDL
