MODEL 1
REMARK VINA RESULT:     -10.1      0.000      0.000
REMARK SMILES CCN(C(=O)N(CCOC)CC(=O)NCCCCCCNC(=O)c1ccc(-c2c3nc(c(-c4c(F)c(F)c(F)c(F)c4F)c4ccc([nH]4)c(-c4c(F)c(F)c(F)c(F)c4F)c4nc(c(-c5c(F)c(F)c(F)c(F)c5F)c5ccc2[nH]5)C=C4)C=C3)cc1)C1CCCC1
REMARK SMILES IDX 16 1 15 2 14 3 12 4 13 5 11 7 6 8 4 9 5 10 3 11 2 12 1 13
REMARK SMILES IDX 87 14 88 15 91 16 89 17 90 18 7 19 8 20 9 21 10 22 17 23
REMARK SMILES IDX 18 24 19 25 20 26 21 27 22 28 23 30 24 31 25 32 86 33 26 34
REMARK SMILES IDX 85 35 27 36 28 37 29 38 79 39 30 40 84 41 78 42 80 43 31 44
REMARK SMILES IDX 83 45 77 46 76 47 32 49 64 50 44 51 63 52 45 53 48 54 62 55
REMARK SMILES IDX 81 56 46 57 47 58 61 60 82 61 49 62 33 63 34 64 42 65 35 66
REMARK SMILES IDX 36 67 40 68 43 69 37 70 38 71 41 72 39 73 65 74 66 75 74 76
REMARK SMILES IDX 67 77 68 78 72 79 75 80 69 81 70 82 73 83 71 84 50 85 51 86
REMARK SMILES IDX 59 87 52 88 53 89 57 90 60 91 54 92 55 93 58 94 56 95
REMARK H PARENT 14 6 21 29 80 48 48 59
REMARK Flexibility Score: inf
ROOT
ATOM      1  C   UNL A   1      35.041  31.022  28.164  1.00  0.00     0.021 C 
ENDROOT
BRANCH   1   2
ATOM      2  C   UNL A   1      34.040  30.469  27.162  1.00  0.00     0.116 C 
BRANCH   2   3
ATOM      3  N   UNL A   1      32.988  29.682  27.749  1.00  0.00    -0.355 N 
ATOM      4  C   UNL A   1      31.970  28.999  27.147  1.00  0.00     0.239 C 
ATOM      5  O   UNL A   1      31.374  28.172  27.849  1.00  0.00    -0.273 OA
ATOM      6  H   UNL A   1      33.005  29.626  28.732  1.00  0.00     0.163 HD
BRANCH   4   7
ATOM      7  C   UNL A   1      31.689  29.058  25.625  1.00  0.00     0.221 C 
BRANCH   7   8
ATOM      8  N   UNL A   1      31.662  27.836  24.798  1.00  0.00    -0.313 N 
BRANCH   8   9
ATOM      9  C   UNL A   1      32.869  27.152  24.820  1.00  0.00     0.320 C 
ATOM     10  O   UNL A   1      33.874  27.740  24.398  1.00  0.00    -0.248 OA
BRANCH   9  11
ATOM     11  N   UNL A   1      33.012  25.855  25.293  1.00  0.00    -0.322 N 
BRANCH  11  12
ATOM     12  C   UNL A   1      32.139  25.130  26.218  1.00  0.00     0.118 C 
ATOM     13  C   UNL A   1      31.057  24.311  25.516  1.00  0.00     0.027 C 
ENDBRANCH  11  12
BRANCH  11  14
ATOM     14  C   UNL A   1      34.270  25.196  24.861  1.00  0.00     0.087 C 
ATOM     15  C   UNL A   1      34.960  24.183  25.782  1.00  0.00     0.025 C 
ATOM     16  C   UNL A   1      34.087  24.388  23.570  1.00  0.00     0.025 C 
ATOM     17  C   UNL A   1      35.952  23.477  24.862  1.00  0.00     0.002 C 
ATOM     18  C   UNL A   1      35.326  23.505  23.469  1.00  0.00     0.002 C 
ENDBRANCH  11  14
ENDBRANCH   9  11
ENDBRANCH   8   9
BRANCH   8  19
ATOM     19  C   UNL A   1      30.592  27.812  23.780  1.00  0.00     0.150 C 
BRANCH  19  20
ATOM     20  C   UNL A   1      30.555  28.999  22.795  1.00  0.00     0.181 C 
BRANCH  20  21
ATOM     21  O   UNL A   1      29.357  28.995  22.014  1.00  0.00    -0.383 OA
ATOM     22  C   UNL A   1      28.156  28.999  22.768  1.00  0.00     0.194 C 
ENDBRANCH  20  21
ENDBRANCH  19  20
ENDBRANCH   8  19
ENDBRANCH   7   8
ENDBRANCH   4   7
ENDBRANCH   2   3
ENDBRANCH   1   2
BRANCH   1  23
ATOM     23  C   UNL A   1      34.534  32.198  28.999  1.00  0.00     0.002 C 
BRANCH  23  24
ATOM     24  C   UNL A   1      34.283  33.504  28.236  1.00  0.00     0.002 C 
BRANCH  24  25
ATOM     25  C   UNL A   1      33.139  34.379  28.754  1.00  0.00     0.021 C 
BRANCH  25  26
ATOM     26  C   UNL A   1      33.553  35.721  29.349  1.00  0.00     0.116 C 
BRANCH  26  27
ATOM     27  N   UNL A   1      32.661  36.176  30.400  1.00  0.00    -0.352 N 
ATOM     28  C   UNL A   1      32.683  35.900  31.747  1.00  0.00     0.251 C 
ATOM     29  H   UNL A   1      31.932  36.769  30.106  1.00  0.00     0.163 HD
ATOM     30  O   UNL A   1      31.776  36.276  32.476  1.00  0.00    -0.269 OA
BRANCH  28  31
ATOM     31  C   UNL A   1      33.803  35.117  32.312  1.00  0.00     0.039 A 
ATOM     32  C   UNL A   1      33.594  33.773  32.635  1.00  0.00     0.014 A 
ATOM     33  C   UNL A   1      35.054  35.704  32.513  1.00  0.00     0.014 A 
ATOM     34  C   UNL A   1      34.662  32.995  33.088  1.00  0.00     0.010 A 
ATOM     35  C   UNL A   1      36.131  34.914  32.905  1.00  0.00     0.010 A 
ATOM     36  C   UNL A   1      35.946  33.550  33.189  1.00  0.00    -0.014 A 
BRANCH  36  37
ATOM     37  C   UNL A   1      37.126  32.743  33.589  1.00  0.00     0.031 A 
ATOM     38  C   UNL A   1      37.819  33.038  34.889  1.00  0.00     0.074 A 
ATOM     39  C   UNL A   1      37.638  31.832  32.739  1.00  0.00     0.049 A 
ATOM     40  N   UNL A   1      38.970  32.603  35.334  1.00  0.00    -0.248 NA
ATOM     41  C   UNL A   1      37.136  33.975  35.795  1.00  0.00     0.031 C 
ATOM     42  C   UNL A   1      37.067  31.470  31.441  1.00  0.00     0.029 A 
ATOM     43  N   UNL A   1      38.773  31.065  32.829  1.00  0.00    -0.354 N 
ATOM     44  C   UNL A   1      39.163  33.235  36.555  1.00  0.00     0.074 A 
ATOM     45  C   UNL A   1      38.031  34.110  36.764  1.00  0.00     0.031 C 
ATOM     46  C   UNL A   1      37.855  30.553  30.856  1.00  0.00     0.029 A 
ATOM     47  C   UNL A   1      39.008  30.300  31.713  1.00  0.00     0.049 A 
ATOM     48  H   UNL A   1      39.363  31.064  33.617  1.00  0.00     0.167 HD
ATOM     49  C   UNL A   1      40.189  33.086  37.426  1.00  0.00     0.037 A 
ATOM     50  C   UNL A   1      40.052  29.506  31.404  1.00  0.00     0.037 A 
ATOM     51  C   UNL A   1      41.296  32.189  37.225  1.00  0.00     0.049 A 
ATOM     52  C   UNL A   1      41.188  29.370  32.383  1.00  0.00     0.074 A 
ATOM     53  C   UNL A   1      42.358  31.927  38.073  1.00  0.00     0.029 A 
ATOM     54  N   UNL A   1      41.479  31.403  36.098  1.00  0.00    -0.354 N 
ATOM     55  N   UNL A   1      41.345  29.943  33.550  1.00  0.00    -0.248 NA
ATOM     56  C   UNL A   1      42.292  28.478  32.000  1.00  0.00     0.031 C 
ATOM     57  C   UNL A   1      43.207  31.014  37.439  1.00  0.00     0.029 A 
ATOM     58  C   UNL A   1      42.647  30.669  36.219  1.00  0.00     0.049 A 
ATOM     59  H   UNL A   1      40.869  31.372  35.324  1.00  0.00     0.167 HD
ATOM     60  C   UNL A   1      42.542  29.455  34.058  1.00  0.00     0.074 A 
ATOM     61  C   UNL A   1      43.072  28.538  33.071  1.00  0.00     0.031 C 
ATOM     62  C   UNL A   1      43.145  29.740  35.238  1.00  0.00     0.037 A 
BRANCH  49  63
ATOM     63  C   UNL A   1      40.167  33.919  38.674  1.00  0.00     0.064 A 
ATOM     64  C   UNL A   1      40.813  35.162  38.743  1.00  0.00     0.173 A 
ATOM     65  C   UNL A   1      39.461  33.484  39.806  1.00  0.00     0.173 A 
ATOM     66  F   UNL A   1      41.512  35.618  37.693  1.00  0.00    -0.203 F 
ATOM     67  C   UNL A   1      40.777  35.925  39.907  1.00  0.00     0.198 A 
ATOM     68  C   UNL A   1      39.401  34.263  40.958  1.00  0.00     0.198 A 
ATOM     69  F   UNL A   1      38.821  32.305  39.792  1.00  0.00    -0.203 F 
ATOM     70  F   UNL A   1      41.443  37.086  39.966  1.00  0.00    -0.200 F 
ATOM     71  C   UNL A   1      40.066  35.478  41.010  1.00  0.00     0.200 A 
ATOM     72  F   UNL A   1      38.701  33.836  42.018  1.00  0.00    -0.200 F 
ATOM     73  F   UNL A   1      40.026  36.217  42.128  1.00  0.00    -0.200 F 
ENDBRANCH  49  63
BRANCH  50  74
ATOM     74  C   UNL A   1      40.070  28.771  30.112  1.00  0.00     0.064 A 
ATOM     75  C   UNL A   1      40.695  29.319  28.983  1.00  0.00     0.173 A 
ATOM     76  C   UNL A   1      39.465  27.513  29.976  1.00  0.00     0.173 A 
ATOM     77  F   UNL A   1      41.268  30.530  29.059  1.00  0.00    -0.203 F 
ATOM     78  C   UNL A   1      40.697  28.647  27.763  1.00  0.00     0.198 A 
ATOM     79  C   UNL A   1      39.492  26.829  28.762  1.00  0.00     0.198 A 
ATOM     80  F   UNL A   1      38.856  26.943  31.026  1.00  0.00    -0.203 F 
ATOM     81  F   UNL A   1      41.264  29.215  26.689  1.00  0.00    -0.200 F 
ATOM     82  C   UNL A   1      40.101  27.400  27.655  1.00  0.00     0.200 A 
ATOM     83  F   UNL A   1      38.927  25.618  28.666  1.00  0.00    -0.200 F 
ATOM     84  F   UNL A   1      40.107  26.751  26.482  1.00  0.00    -0.200 F 
ENDBRANCH  50  74
BRANCH  62  85
ATOM     85  C   UNL A   1      44.417  29.012  35.562  1.00  0.00     0.064 A 
ATOM     86  C   UNL A   1      44.412  27.784  36.236  1.00  0.00     0.173 A 
ATOM     87  C   UNL A   1      45.649  29.518  35.118  1.00  0.00     0.173 A 
ATOM     88  F   UNL A   1      43.261  27.268  36.692  1.00  0.00    -0.203 F 
ATOM     89  C   UNL A   1      45.599  27.092  36.464  1.00  0.00     0.198 A 
ATOM     90  C   UNL A   1      46.828  28.811  35.325  1.00  0.00     0.198 A 
ATOM     91  F   UNL A   1      45.702  30.687  34.463  1.00  0.00    -0.203 F 
ATOM     92  F   UNL A   1      45.577  25.933  37.137  1.00  0.00    -0.200 F 
ATOM     93  C   UNL A   1      46.803  27.600  36.000  1.00  0.00     0.200 A 
ATOM     94  F   UNL A   1      47.989  29.297  34.862  1.00  0.00    -0.200 F 
ATOM     95  F   UNL A   1      47.941  26.922  36.204  1.00  0.00    -0.200 F 
ENDBRANCH  62  85
ENDBRANCH  36  37
ENDBRANCH  28  31
ENDBRANCH  26  27
ENDBRANCH  25  26
ENDBRANCH  24  25
ENDBRANCH  23  24
ENDBRANCH   1  23
TORSDOF 21
ENDMDL
MODEL 2
REMARK VINA RESULT:      -9.7      6.277     10.901
REMARK SMILES CCN(C(=O)N(CCOC)CC(=O)NCCCCCCNC(=O)c1ccc(-c2c3nc(c(-c4c(F)c(F)c(F)c(F)c4F)c4ccc([nH]4)c(-c4c(F)c(F)c(F)c(F)c4F)c4nc(c(-c5c(F)c(F)c(F)c(F)c5F)c5ccc2[nH]5)C=C4)C=C3)cc1)C1CCCC1
REMARK SMILES IDX 16 1 15 2 14 3 12 4 13 5 11 7 6 8 4 9 5 10 3 11 2 12 1 13
REMARK SMILES IDX 87 14 88 15 91 16 89 17 90 18 7 19 8 20 9 21 10 22 17 23
REMARK SMILES IDX 18 24 19 25 20 26 21 27 22 28 23 30 24 31 25 32 86 33 26 34
REMARK SMILES IDX 85 35 27 36 28 37 29 38 79 39 30 40 84 41 78 42 80 43 31 44
REMARK SMILES IDX 83 45 77 46 76 47 32 49 64 50 44 51 63 52 45 53 48 54 62 55
REMARK SMILES IDX 81 56 46 57 47 58 61 60 82 61 49 62 33 63 34 64 42 65 35 66
REMARK SMILES IDX 36 67 40 68 43 69 37 70 38 71 41 72 39 73 65 74 66 75 74 76
REMARK SMILES IDX 67 77 68 78 72 79 75 80 69 81 70 82 73 83 71 84 50 85 51 86
REMARK SMILES IDX 59 87 52 88 53 89 57 90 60 91 54 92 55 93 58 94 56 95
REMARK H PARENT 14 6 21 29 80 48 48 59
REMARK Flexibility Score: inf
ROOT
ATOM      1  C   UNL A   1      35.899  23.006  25.801  1.00  0.00     0.021 C 
ENDROOT
BRANCH   1   2
ATOM      2  C   UNL A   1      35.462  24.177  24.934  1.00  0.00     0.116 C 
BRANCH   2   3
ATOM      3  N   UNL A   1      34.861  23.796  23.682  1.00  0.00    -0.355 N 
ATOM      4  C   UNL A   1      33.804  24.348  23.019  1.00  0.00     0.239 C 
ATOM      5  O   UNL A   1      33.668  24.019  21.833  1.00  0.00    -0.273 OA
ATOM      6  H   UNL A   1      35.276  23.021  23.238  1.00  0.00     0.163 HD
BRANCH   4   7
ATOM      7  C   UNL A   1      32.935  25.490  23.603  1.00  0.00     0.221 C 
BRANCH   7   8
ATOM      8  N   UNL A   1      31.686  25.209  24.336  1.00  0.00    -0.313 N 
BRANCH   8   9
ATOM      9  C   UNL A   1      30.885  26.334  24.474  1.00  0.00     0.320 C 
ATOM     10  O   UNL A   1      29.732  26.174  24.898  1.00  0.00    -0.248 OA
BRANCH   9  11
ATOM     11  N   UNL A   1      31.305  27.621  24.169  1.00  0.00    -0.322 N 
BRANCH  11  12
ATOM     12  C   UNL A   1      31.363  28.265  22.856  1.00  0.00     0.118 C 
ATOM     13  C   UNL A   1      30.084  29.016  22.491  1.00  0.00     0.027 C 
ENDBRANCH  11  12
BRANCH  11  14
ATOM     14  C   UNL A   1      31.847  28.366  25.334  1.00  0.00     0.087 C 
ATOM     15  C   UNL A   1      31.674  27.805  26.750  1.00  0.00     0.025 C 
ATOM     16  C   UNL A   1      33.367  28.556  25.243  1.00  0.00     0.025 C 
ATOM     17  C   UNL A   1      32.660  28.620  27.582  1.00  0.00     0.002 C 
ATOM     18  C   UNL A   1      33.801  28.992  26.639  1.00  0.00     0.002 C 
ENDBRANCH  11  14
ENDBRANCH   9  11
ENDBRANCH   8   9
BRANCH   8  19
ATOM     19  C   UNL A   1      31.724  23.983  25.158  1.00  0.00     0.150 C 
BRANCH  19  20
ATOM     20  C   UNL A   1      32.083  24.165  26.648  1.00  0.00     0.181 C 
BRANCH  20  21
ATOM     21  O   UNL A   1      31.244  23.371  27.490  1.00  0.00    -0.383 OA
ATOM     22  C   UNL A   1      30.024  22.959  26.895  1.00  0.00     0.194 C 
ENDBRANCH  20  21
ENDBRANCH  19  20
ENDBRANCH   8  19
ENDBRANCH   7   8
ENDBRANCH   4   7
ENDBRANCH   2   3
ENDBRANCH   1   2
BRANCH   1  23
ATOM     23  C   UNL A   1      37.268  22.422  25.452  1.00  0.00     0.002 C 
BRANCH  23  24
ATOM     24  C   UNL A   1      37.260  21.205  24.519  1.00  0.00     0.002 C 
BRANCH  24  25
ATOM     25  C   UNL A   1      38.051  19.984  24.995  1.00  0.00     0.021 C 
BRANCH  25  26
ATOM     26  C   UNL A   1      39.261  20.285  25.872  1.00  0.00     0.116 C 
BRANCH  26  27
ATOM     27  N   UNL A   1      40.241  19.213  25.876  1.00  0.00    -0.352 N 
ATOM     28  C   UNL A   1      41.601  19.271  26.073  1.00  0.00     0.251 C 
ATOM     29  H   UNL A   1      39.879  18.312  25.713  1.00  0.00     0.163 HD
ATOM     30  O   UNL A   1      42.296  18.276  25.922  1.00  0.00    -0.269 OA
BRANCH  28  31
ATOM     31  C   UNL A   1      42.229  20.558  26.443  1.00  0.00     0.039 A 
ATOM     32  C   UNL A   1      42.766  21.363  25.435  1.00  0.00     0.014 A 
ATOM     33  C   UNL A   1      42.279  20.969  27.777  1.00  0.00     0.014 A 
ATOM     34  C   UNL A   1      43.286  22.620  25.755  1.00  0.00     0.010 A 
ATOM     35  C   UNL A   1      42.740  22.245  28.086  1.00  0.00     0.010 A 
ATOM     36  C   UNL A   1      43.241  23.085  27.077  1.00  0.00    -0.014 A 
BRANCH  36  37
ATOM     37  C   UNL A   1      43.708  24.444  27.453  1.00  0.00     0.031 A 
ATOM     38  C   UNL A   1      42.714  25.461  27.936  1.00  0.00     0.074 A 
ATOM     39  C   UNL A   1      44.993  24.792  27.251  1.00  0.00     0.049 A 
ATOM     40  N   UNL A   1      42.866  26.748  28.120  1.00  0.00    -0.248 NA
ATOM     41  C   UNL A   1      41.358  24.967  28.220  1.00  0.00     0.031 C 
ATOM     42  C   UNL A   1      46.048  23.901  26.769  1.00  0.00     0.029 A 
ATOM     43  N   UNL A   1      45.624  26.003  27.400  1.00  0.00    -0.354 N 
ATOM     44  C   UNL A   1      41.620  27.220  28.510  1.00  0.00     0.074 A 
ATOM     45  C   UNL A   1      40.716  26.092  28.502  1.00  0.00     0.031 C 
ATOM     46  C   UNL A   1      47.193  24.593  26.660  1.00  0.00     0.029 A 
ATOM     47  C   UNL A   1      46.943  25.986  27.017  1.00  0.00     0.049 A 
ATOM     48  H   UNL A   1      45.174  26.807  27.747  1.00  0.00     0.167 HD
ATOM     49  C   UNL A   1      41.270  28.482  28.856  1.00  0.00     0.037 A 
ATOM     50  C   UNL A   1      47.841  26.987  26.936  1.00  0.00     0.037 A 
ATOM     51  C   UNL A   1      42.183  29.593  28.893  1.00  0.00     0.049 A 
ATOM     52  C   UNL A   1      47.421  28.384  27.311  1.00  0.00     0.074 A 
ATOM     53  C   UNL A   1      41.937  30.899  29.281  1.00  0.00     0.029 A 
ATOM     54  N   UNL A   1      43.520  29.526  28.534  1.00  0.00    -0.354 N 
ATOM     55  N   UNL A   1      46.251  28.815  27.714  1.00  0.00    -0.248 NA
ATOM     56  C   UNL A   1      48.447  29.433  27.218  1.00  0.00     0.031 C 
ATOM     57  C   UNL A   1      43.116  31.632  29.115  1.00  0.00     0.029 A 
ATOM     58  C   UNL A   1      44.108  30.772  28.673  1.00  0.00     0.049 A 
ATOM     59  H   UNL A   1      43.984  28.714  28.225  1.00  0.00     0.167 HD
ATOM     60  C   UNL A   1      46.407  30.172  27.958  1.00  0.00     0.074 A 
ATOM     61  C   UNL A   1      47.786  30.496  27.659  1.00  0.00     0.031 C 
ATOM     62  C   UNL A   1      45.491  31.069  28.396  1.00  0.00     0.037 A 
BRANCH  49  63
ATOM     63  C   UNL A   1      39.834  28.730  29.215  1.00  0.00     0.064 A 
ATOM     64  C   UNL A   1      39.353  28.521  30.516  1.00  0.00     0.173 A 
ATOM     65  C   UNL A   1      38.935  29.218  28.255  1.00  0.00     0.173 A 
ATOM     66  F   UNL A   1      40.169  28.044  31.469  1.00  0.00    -0.203 F 
ATOM     67  C   UNL A   1      38.020  28.763  30.836  1.00  0.00     0.198 A 
ATOM     68  C   UNL A   1      37.610  29.489  28.584  1.00  0.00     0.198 A 
ATOM     69  F   UNL A   1      39.344  29.441  26.997  1.00  0.00    -0.203 F 
ATOM     70  F   UNL A   1      37.571  28.508  32.072  1.00  0.00    -0.200 F 
ATOM     71  C   UNL A   1      37.151  29.253  29.871  1.00  0.00     0.200 A 
ATOM     72  F   UNL A   1      36.776  29.976  27.655  1.00  0.00    -0.200 F 
ATOM     73  F   UNL A   1      35.869  29.492  30.181  1.00  0.00    -0.200 F 
ENDBRANCH  49  63
BRANCH  50  74
ATOM     74  C   UNL A   1      49.229  26.705  26.487  1.00  0.00     0.064 A 
ATOM     75  C   UNL A   1      49.599  26.880  25.146  1.00  0.00     0.173 A 
ATOM     76  C   UNL A   1      50.212  26.255  27.381  1.00  0.00     0.173 A 
ATOM     77  F   UNL A   1      48.689  27.288  24.250  1.00  0.00    -0.203 F 
ATOM     78  C   UNL A   1      50.893  26.598  24.713  1.00  0.00     0.198 A 
ATOM     79  C   UNL A   1      51.512  25.999  26.952  1.00  0.00     0.198 A 
ATOM     80  F   UNL A   1      49.910  26.074  28.675  1.00  0.00    -0.203 F 
ATOM     81  F   UNL A   1      51.207  26.732  23.417  1.00  0.00    -0.200 F 
ATOM     82  C   UNL A   1      51.850  26.163  25.617  1.00  0.00     0.200 A 
ATOM     83  F   UNL A   1      52.438  25.593  27.832  1.00  0.00    -0.200 F 
ATOM     84  F   UNL A   1      53.096  25.895  25.201  1.00  0.00    -0.200 F 
ENDBRANCH  50  74
BRANCH  62  85
ATOM     85  C   UNL A   1      45.954  32.476  28.636  1.00  0.00     0.064 A 
ATOM     86  C   UNL A   1      45.867  33.461  27.642  1.00  0.00     0.173 A 
ATOM     87  C   UNL A   1      46.414  32.857  29.906  1.00  0.00     0.173 A 
ATOM     88  F   UNL A   1      45.447  33.141  26.410  1.00  0.00    -0.203 F 
ATOM     89  C   UNL A   1      46.237  34.777  27.910  1.00  0.00     0.198 A 
ATOM     90  C   UNL A   1      46.757  34.178  30.175  1.00  0.00     0.198 A 
ATOM     91  F   UNL A   1      46.509  31.952  30.890  1.00  0.00    -0.203 F 
ATOM     92  F   UNL A   1      46.175  35.698  26.938  1.00  0.00    -0.200 F 
ATOM     93  C   UNL A   1      46.671  35.136  29.177  1.00  0.00     0.200 A 
ATOM     94  F   UNL A   1      47.163  34.526  31.405  1.00  0.00    -0.200 F 
ATOM     95  F   UNL A   1      47.008  36.407  29.436  1.00  0.00    -0.200 F 
ENDBRANCH  62  85
ENDBRANCH  36  37
ENDBRANCH  28  31
ENDBRANCH  26  27
ENDBRANCH  25  26
ENDBRANCH  24  25
ENDBRANCH  23  24
ENDBRANCH   1  23
TORSDOF 21
ENDMDL
MODEL 3
REMARK VINA RESULT:      -9.6      6.184     10.702
REMARK SMILES CCN(C(=O)N(CCOC)CC(=O)NCCCCCCNC(=O)c1ccc(-c2c3nc(c(-c4c(F)c(F)c(F)c(F)c4F)c4ccc([nH]4)c(-c4c(F)c(F)c(F)c(F)c4F)c4nc(c(-c5c(F)c(F)c(F)c(F)c5F)c5ccc2[nH]5)C=C4)C=C3)cc1)C1CCCC1
REMARK SMILES IDX 16 1 15 2 14 3 12 4 13 5 11 7 6 8 4 9 5 10 3 11 2 12 1 13
REMARK SMILES IDX 87 14 88 15 91 16 89 17 90 18 7 19 8 20 9 21 10 22 17 23
REMARK SMILES IDX 18 24 19 25 20 26 21 27 22 28 23 30 24 31 25 32 86 33 26 34
REMARK SMILES IDX 85 35 27 36 28 37 29 38 79 39 30 40 84 41 78 42 80 43 31 44
REMARK SMILES IDX 83 45 77 46 76 47 32 49 64 50 44 51 63 52 45 53 48 54 62 55
REMARK SMILES IDX 81 56 46 57 47 58 61 60 82 61 49 62 33 63 34 64 42 65 35 66
REMARK SMILES IDX 36 67 40 68 43 69 37 70 38 71 41 72 39 73 65 74 66 75 74 76
REMARK SMILES IDX 67 77 68 78 72 79 75 80 69 81 70 82 73 83 71 84 50 85 51 86
REMARK SMILES IDX 59 87 52 88 53 89 57 90 60 91 54 92 55 93 58 94 56 95
REMARK H PARENT 14 6 21 29 80 48 48 59
REMARK Flexibility Score: inf
ROOT
ATOM      1  C   UNL A   1      34.850  21.198  25.187  1.00  0.00     0.021 C 
ENDROOT
BRANCH   1   2
ATOM      2  C   UNL A   1      33.561  21.435  24.415  1.00  0.00     0.116 C 
BRANCH   2   3
ATOM      3  N   UNL A   1      32.366  21.314  25.207  1.00  0.00    -0.355 N 
ATOM      4  C   UNL A   1      31.581  22.287  25.755  1.00  0.00     0.239 C 
ATOM      5  O   UNL A   1      30.460  21.934  26.143  1.00  0.00    -0.273 OA
ATOM      6  H   UNL A   1      32.068  20.391  25.378  1.00  0.00     0.163 HD
BRANCH   4   7
ATOM      7  C   UNL A   1      31.938  23.794  25.711  1.00  0.00     0.221 C 
BRANCH   7   8
ATOM      8  N   UNL A   1      31.374  24.690  24.683  1.00  0.00    -0.313 N 
BRANCH   8   9
ATOM      9  C   UNL A   1      30.591  25.697  25.227  1.00  0.00     0.320 C 
ATOM     10  O   UNL A   1      29.839  25.401  26.167  1.00  0.00    -0.248 OA
BRANCH   9  11
ATOM     11  N   UNL A   1      30.608  27.013  24.785  1.00  0.00    -0.322 N 
BRANCH  11  12
ATOM     12  C   UNL A   1      29.926  27.583  23.622  1.00  0.00     0.118 C 
ATOM     13  C   UNL A   1      28.414  27.365  23.639  1.00  0.00     0.027 C 
ENDBRANCH  11  12
BRANCH  11  14
ATOM     14  C   UNL A   1      31.524  27.892  25.555  1.00  0.00     0.087 C 
ATOM     15  C   UNL A   1      31.606  27.765  27.080  1.00  0.00     0.025 C 
ATOM     16  C   UNL A   1      32.988  27.713  25.135  1.00  0.00     0.025 C 
ATOM     17  C   UNL A   1      32.878  28.528  27.437  1.00  0.00     0.002 C 
ATOM     18  C   UNL A   1      33.807  28.385  26.233  1.00  0.00     0.002 C 
ENDBRANCH  11  14
ENDBRANCH   9  11
ENDBRANCH   8   9
BRANCH   8  19
ATOM     19  C   UNL A   1      31.346  24.117  23.323  1.00  0.00     0.150 C 
BRANCH  19  20
ATOM     20  C   UNL A   1      32.113  24.896  22.233  1.00  0.00     0.181 C 
BRANCH  20  21
ATOM     21  O   UNL A   1      33.463  24.441  22.114  1.00  0.00    -0.383 OA
ATOM     22  C   UNL A   1      34.322  24.848  23.166  1.00  0.00     0.194 C 
ENDBRANCH  20  21
ENDBRANCH  19  20
ENDBRANCH   8  19
ENDBRANCH   7   8
ENDBRANCH   4   7
ENDBRANCH   2   3
ENDBRANCH   1   2
BRANCH   1  23
ATOM     23  C   UNL A   1      35.978  22.182  24.875  1.00  0.00     0.002 C 
BRANCH  23  24
ATOM     24  C   UNL A   1      37.256  21.573  24.286  1.00  0.00     0.002 C 
BRANCH  24  25
ATOM     25  C   UNL A   1      37.777  20.306  24.969  1.00  0.00     0.021 C 
BRANCH  25  26
ATOM     26  C   UNL A   1      38.945  20.508  25.928  1.00  0.00     0.116 C 
BRANCH  26  27
ATOM     27  N   UNL A   1      39.904  19.418  25.893  1.00  0.00    -0.352 N 
ATOM     28  C   UNL A   1      41.271  19.450  26.044  1.00  0.00     0.251 C 
ATOM     29  H   UNL A   1      39.520  18.525  25.736  1.00  0.00     0.163 HD
ATOM     30  O   UNL A   1      41.941  18.443  25.865  1.00  0.00    -0.269 OA
BRANCH  28  31
ATOM     31  C   UNL A   1      41.935  20.722  26.401  1.00  0.00     0.039 A 
ATOM     32  C   UNL A   1      42.269  21.619  25.383  1.00  0.00     0.014 A 
ATOM     33  C   UNL A   1      42.217  21.030  27.733  1.00  0.00     0.014 A 
ATOM     34  C   UNL A   1      42.819  22.862  25.706  1.00  0.00     0.010 A 
ATOM     35  C   UNL A   1      42.706  22.292  28.059  1.00  0.00     0.010 A 
ATOM     36  C   UNL A   1      43.004  23.222  27.049  1.00  0.00    -0.014 A 
BRANCH  36  37
ATOM     37  C   UNL A   1      43.510  24.561  27.445  1.00  0.00     0.031 A 
ATOM     38  C   UNL A   1      42.551  25.586  27.979  1.00  0.00     0.074 A 
ATOM     39  C   UNL A   1      44.796  24.888  27.218  1.00  0.00     0.049 A 
ATOM     40  N   UNL A   1      42.735  26.865  28.190  1.00  0.00    -0.248 NA
ATOM     41  C   UNL A   1      41.192  25.113  28.287  1.00  0.00     0.031 C 
ATOM     42  C   UNL A   1      45.818  23.987  26.686  1.00  0.00     0.029 A 
ATOM     43  N   UNL A   1      45.456  26.081  27.379  1.00  0.00    -0.354 N 
ATOM     44  C   UNL A   1      41.509  27.353  28.625  1.00  0.00     0.074 A 
ATOM     45  C   UNL A   1      40.582  26.243  28.613  1.00  0.00     0.031 C 
ATOM     46  C   UNL A   1      46.975  24.658  26.564  1.00  0.00     0.029 A 
ATOM     47  C   UNL A   1      46.764  26.046  26.961  1.00  0.00     0.049 A 
ATOM     48  H   UNL A   1      45.033  26.886  27.758  1.00  0.00     0.167 HD
ATOM     49  C   UNL A   1      41.195  28.612  29.010  1.00  0.00     0.037 A 
ATOM     50  C   UNL A   1      47.680  27.030  26.881  1.00  0.00     0.037 A 
ATOM     51  C   UNL A   1      42.132  29.703  29.050  1.00  0.00     0.049 A 
ATOM     52  C   UNL A   1      47.301  28.426  27.301  1.00  0.00     0.074 A 
ATOM     53  C   UNL A   1      41.924  31.003  29.476  1.00  0.00     0.029 A 
ATOM     54  N   UNL A   1      43.458  29.618  28.654  1.00  0.00    -0.354 N 
ATOM     55  N   UNL A   1      46.151  28.871  27.745  1.00  0.00    -0.248 NA
ATOM     56  C   UNL A   1      48.346  29.456  27.207  1.00  0.00     0.031 C 
ATOM     57  C   UNL A   1      43.114  31.716  29.297  1.00  0.00     0.029 A 
ATOM     58  C   UNL A   1      44.076  30.847  28.808  1.00  0.00     0.049 A 
ATOM     59  H   UNL A   1      43.896  28.804  28.313  1.00  0.00     0.167 HD
ATOM     60  C   UNL A   1      46.342  30.218  28.019  1.00  0.00     0.074 A 
ATOM     61  C   UNL A   1      47.720  30.520  27.690  1.00  0.00     0.031 C 
ATOM     62  C   UNL A   1      45.456  31.122  28.501  1.00  0.00     0.037 A 
BRANCH  49  63
ATOM     63  C   UNL A   1      39.775  28.881  29.413  1.00  0.00     0.064 A 
ATOM     64  C   UNL A   1      38.802  29.262  28.477  1.00  0.00     0.173 A 
ATOM     65  C   UNL A   1      39.372  28.721  30.748  1.00  0.00     0.173 A 
ATOM     66  F   UNL A   1      39.137  29.441  27.191  1.00  0.00    -0.203 F 
ATOM     67  C   UNL A   1      37.487  29.502  28.866  1.00  0.00     0.198 A 
ATOM     68  C   UNL A   1      38.050  28.931  31.129  1.00  0.00     0.198 A 
ATOM     69  F   UNL A   1      40.261  28.352  31.683  1.00  0.00    -0.203 F 
ATOM     70  F   UNL A   1      36.587  29.914  27.964  1.00  0.00    -0.200 F 
ATOM     71  C   UNL A   1      37.111  29.329  30.190  1.00  0.00     0.200 A 
ATOM     72  F   UNL A   1      37.685  28.749  32.406  1.00  0.00    -0.200 F 
ATOM     73  F   UNL A   1      35.842  29.553  30.563  1.00  0.00    -0.200 F 
ENDBRANCH  49  63
BRANCH  50  74
ATOM     74  C   UNL A   1      49.050  26.731  26.388  1.00  0.00     0.064 A 
ATOM     75  C   UNL A   1      49.388  26.928  25.042  1.00  0.00     0.173 A 
ATOM     76  C   UNL A   1      50.048  26.243  27.246  1.00  0.00     0.173 A 
ATOM     77  F   UNL A   1      48.462  27.373  24.180  1.00  0.00    -0.203 F 
ATOM     78  C   UNL A   1      50.664  26.630  24.568  1.00  0.00     0.198 A 
ATOM     79  C   UNL A   1      51.331  25.971  26.776  1.00  0.00     0.198 A 
ATOM     80  F   UNL A   1      49.777  26.040  28.544  1.00  0.00    -0.203 F 
ATOM     81  F   UNL A   1      50.945  26.785  23.267  1.00  0.00    -0.200 F 
ATOM     82  C   UNL A   1      51.636  26.158  25.436  1.00  0.00     0.200 A 
ATOM     83  F   UNL A   1      52.271  25.528  27.622  1.00  0.00    -0.200 F 
ATOM     84  F   UNL A   1      52.864  25.874  24.981  1.00  0.00    -0.200 F 
ENDBRANCH  50  74
BRANCH  62  85
ATOM     85  C   UNL A   1      45.955  32.513  28.764  1.00  0.00     0.064 A 
ATOM     86  C   UNL A   1      46.573  32.859  29.973  1.00  0.00     0.173 A 
ATOM     87  C   UNL A   1      45.883  33.488  27.756  1.00  0.00     0.173 A 
ATOM     88  F   UNL A   1      46.653  31.966  30.970  1.00  0.00    -0.203 F 
ATOM     89  C   UNL A   1      47.092  34.137  30.168  1.00  0.00     0.198 A 
ATOM     90  C   UNL A   1      46.426  34.754  27.946  1.00  0.00     0.198 A 
ATOM     91  F   UNL A   1      45.306  33.202  26.580  1.00  0.00    -0.203 F 
ATOM     92  F   UNL A   1      47.654  34.457  31.342  1.00  0.00    -0.200 F 
ATOM     93  C   UNL A   1      47.027  35.079  29.152  1.00  0.00     0.200 A 
ATOM     94  F   UNL A   1      46.375  35.659  26.957  1.00  0.00    -0.200 F 
ATOM     95  F   UNL A   1      47.545  36.301  29.336  1.00  0.00    -0.200 F 
ENDBRANCH  62  85
ENDBRANCH  36  37
ENDBRANCH  28  31
ENDBRANCH  26  27
ENDBRANCH  25  26
ENDBRANCH  24  25
ENDBRANCH  23  24
ENDBRANCH   1  23
TORSDOF 21
ENDMDL
