MODEL 1
REMARK VINA RESULT:     -11.1      0.000      0.000
REMARK SMILES C[C@H](NC(=O)OC(C)(C)C)C(=O)N[C@@H](C)C(=O)N1CCC[C@H]1C(=O)NCCCCCCNC(=O)c1ccc(-c2c3nc(c(-c4c(F)c(F)c(F)c(F)c4F)c4ccc([nH]4)c(-c4c(F)c(F)c(F)c(F)c4F)c4nc(c(-c5c(F)c(F)c(F)c(F)c5F)c5ccc2[nH]5)C=C4)C=C3)cc1
REMARK SMILES IDX 26 1 25 2 23 3 24 4 22 6 18 7 19 8 20 9 21 10 16 11 17 12
REMARK SMILES IDX 14 13 15 14 13 15 11 16 12 17 2 19 1 20 3 21 4 22 5 24 6 25
REMARK SMILES IDX 7 26 8 27 9 28 10 29 27 30 28 31 29 32 30 33 31 34 32 35
REMARK SMILES IDX 33 36 34 38 35 39 36 40 97 41 37 42 96 43 38 44 39 45 40 46
REMARK SMILES IDX 90 47 41 48 95 49 89 50 91 51 42 52 94 53 88 54 87 55 43 57
REMARK SMILES IDX 75 58 55 59 74 60 56 61 59 62 73 63 92 64 57 65 58 66 72 68
REMARK SMILES IDX 93 69 60 70 44 71 45 72 53 73 46 74 47 75 51 76 54 77 48 78
REMARK SMILES IDX 49 79 52 80 50 81 76 82 77 83 85 84 78 85 79 86 83 87 86 88
REMARK SMILES IDX 80 89 81 90 84 91 82 92 61 93 62 94 70 95 63 96 64 97 68 98
REMARK SMILES IDX 71 99 65 100 66 101 69 102 67 103
REMARK H PARENT 25 5 13 18 3 23 32 37 91 56 59 67
REMARK Flexibility Score: inf
ROOT
ATOM      1  C   UNL A   1      34.313  30.664  27.366  1.00  0.00     0.116 C 
ENDROOT
BRANCH   1   2
ATOM      2  N   UNL A   1      32.986  30.743  26.795  1.00  0.00    -0.354 N 
ATOM      3  C   UNL A   1      32.353  30.004  25.846  1.00  0.00     0.242 C 
ATOM      4  O   UNL A   1      31.231  30.405  25.508  1.00  0.00    -0.273 OA
ATOM      5  H   UNL A   1      32.437  31.473  27.163  1.00  0.00     0.163 HD
BRANCH   3   6
ATOM      6  C   UNL A   1      32.843  28.623  25.345  1.00  0.00     0.174 C 
ATOM      7  N   UNL A   1      31.911  27.625  24.813  1.00  0.00    -0.329 N 
ATOM      8  C   UNL A   1      32.191  27.342  23.417  1.00  0.00     0.120 C 
ATOM      9  C   UNL A   1      33.663  27.671  23.272  1.00  0.00     0.024 C 
ATOM     10  C   UNL A   1      33.855  28.853  24.212  1.00  0.00     0.037 C 
BRANCH   7  11
ATOM     11  C   UNL A   1      31.062  26.994  25.688  1.00  0.00     0.245 C 
ATOM     12  O   UNL A   1      31.091  27.302  26.886  1.00  0.00    -0.272 OA
BRANCH  11  13
ATOM     13  C   UNL A   1      30.162  25.822  25.244  1.00  0.00     0.168 C 
ATOM     14  C   UNL A   1      28.944  26.335  24.485  1.00  0.00     0.041 C 
BRANCH  13  15
ATOM     15  N   UNL A   1      29.783  24.857  26.266  1.00  0.00    -0.343 N 
ATOM     16  C   UNL A   1      30.354  23.666  26.597  1.00  0.00     0.243 C 
ATOM     17  O   UNL A   1      29.862  23.084  27.571  1.00  0.00    -0.273 OA
ATOM     18  H   UNL A   1      28.995  25.104  26.801  1.00  0.00     0.164 HD
BRANCH  16  19
ATOM     19  C   UNL A   1      31.653  23.119  25.950  1.00  0.00     0.171 C 
ATOM     20  C   UNL A   1      31.349  22.635  24.536  1.00  0.00     0.042 C 
BRANCH  19  21
ATOM     21  N   UNL A   1      32.479  22.243  26.787  1.00  0.00    -0.310 N 
ATOM     22  C   UNL A   1      33.786  22.307  27.168  1.00  0.00     0.408 C 
ATOM     23  H   UNL A   1      31.998  21.462  27.143  1.00  0.00     0.167 HD
ATOM     24  O   UNL A   1      34.275  21.415  27.847  1.00  0.00    -0.225 OA
BRANCH  22  25
ATOM     25  O   UNL A   1      34.442  23.383  26.689  1.00  0.00    -0.444 OA
BRANCH  25  26
ATOM     26  C   UNL A   1      35.349  23.288  25.559  1.00  0.00     0.106 C 
ATOM     27  C   UNL A   1      36.784  23.618  25.975  1.00  0.00     0.056 C 
ATOM     28  C   UNL A   1      35.272  21.919  24.871  1.00  0.00     0.056 C 
ATOM     29  C   UNL A   1      34.857  24.365  24.579  1.00  0.00     0.056 C 
ENDBRANCH  25  26
ENDBRANCH  22  25
ENDBRANCH  19  21
ENDBRANCH  16  19
ENDBRANCH  13  15
ENDBRANCH  11  13
ENDBRANCH   7  11
ENDBRANCH   3   6
ENDBRANCH   1   2
BRANCH   1  30
ATOM     30  C   UNL A   1      34.506  31.713  28.461  1.00  0.00     0.021 C 
BRANCH  30  31
ATOM     31  C   UNL A   1      35.254  32.968  27.995  1.00  0.00     0.002 C 
BRANCH  31  32
ATOM     32  C   UNL A   1      35.329  34.099  29.029  1.00  0.00     0.002 C 
BRANCH  32  33
ATOM     33  C   UNL A   1      34.252  35.180  28.891  1.00  0.00     0.021 C 
BRANCH  33  34
ATOM     34  C   UNL A   1      32.889  34.790  29.452  1.00  0.00     0.116 C 
BRANCH  34  35
ATOM     35  N   UNL A   1      32.467  35.682  30.520  1.00  0.00    -0.352 N 
ATOM     36  C   UNL A   1      32.883  35.740  31.825  1.00  0.00     0.251 C 
ATOM     37  H   UNL A   1      31.782  36.343  30.268  1.00  0.00     0.163 HD
ATOM     38  O   UNL A   1      32.258  36.407  32.644  1.00  0.00    -0.269 OA
BRANCH  36  39
ATOM     39  C   UNL A   1      34.082  34.989  32.252  1.00  0.00     0.039 A 
ATOM     40  C   UNL A   1      33.941  33.654  32.639  1.00  0.00     0.014 A 
ATOM     41  C   UNL A   1      35.336  35.606  32.299  1.00  0.00     0.014 A 
ATOM     42  C   UNL A   1      35.066  32.922  33.025  1.00  0.00     0.010 A 
ATOM     43  C   UNL A   1      36.466  34.857  32.617  1.00  0.00     0.010 A 
ATOM     44  C   UNL A   1      36.341  33.510  32.989  1.00  0.00    -0.014 A 
BRANCH  44  45
ATOM     45  C   UNL A   1      37.554  32.732  33.344  1.00  0.00     0.031 A 
ATOM     46  C   UNL A   1      38.284  33.016  34.628  1.00  0.00     0.074 A 
ATOM     47  C   UNL A   1      38.029  31.811  32.485  1.00  0.00     0.049 A 
ATOM     48  N   UNL A   1      39.395  32.494  35.082  1.00  0.00    -0.248 NA
ATOM     49  C   UNL A   1      37.698  34.041  35.507  1.00  0.00     0.031 C 
ATOM     50  C   UNL A   1      37.432  31.474  31.191  1.00  0.00     0.029 A 
ATOM     51  N   UNL A   1      39.128  30.993  32.565  1.00  0.00    -0.354 N 
ATOM     52  C   UNL A   1      39.645  33.132  36.290  1.00  0.00     0.074 A 
ATOM     53  C   UNL A   1      38.602  34.117  36.472  1.00  0.00     0.031 C 
ATOM     54  C   UNL A   1      38.158  30.507  30.611  1.00  0.00     0.029 A 
ATOM     55  C   UNL A   1      39.293  30.182  31.470  1.00  0.00     0.049 A 
ATOM     56  H   UNL A   1      39.742  30.990  33.335  1.00  0.00     0.167 HD
ATOM     57  C   UNL A   1      40.640  32.898  37.178  1.00  0.00     0.037 A 
ATOM     58  C   UNL A   1      40.255  29.283  31.188  1.00  0.00     0.037 A 
ATOM     59  C   UNL A   1      41.665  31.901  37.002  1.00  0.00     0.049 A 
ATOM     60  C   UNL A   1      41.361  29.058  32.184  1.00  0.00     0.074 A 
ATOM     61  C   UNL A   1      42.690  31.555  37.864  1.00  0.00     0.029 A 
ATOM     62  N   UNL A   1      41.792  31.090  35.883  1.00  0.00    -0.354 N 
ATOM     63  N   UNL A   1      41.554  29.623  33.351  1.00  0.00    -0.248 NA
ATOM     64  C   UNL A   1      42.382  28.064  31.824  1.00  0.00     0.031 C 
ATOM     65  C   UNL A   1      43.464  30.566  37.249  1.00  0.00     0.029 A 
ATOM     66  C   UNL A   1      42.893  30.259  36.025  1.00  0.00     0.049 A 
ATOM     67  H   UNL A   1      41.191  31.104  35.104  1.00  0.00     0.167 HD
ATOM     68  C   UNL A   1      42.695  29.034  33.877  1.00  0.00     0.074 A 
ATOM     69  C   UNL A   1      43.144  28.055  32.909  1.00  0.00     0.031 C 
ATOM     70  C   UNL A   1      43.317  29.282  35.056  1.00  0.00     0.037 A 
BRANCH  57  71
ATOM     71  C   UNL A   1      40.667  33.730  38.428  1.00  0.00     0.064 A 
ATOM     72  C   UNL A   1      39.905  33.386  39.555  1.00  0.00     0.173 A 
ATOM     73  C   UNL A   1      41.491  34.862  38.515  1.00  0.00     0.173 A 
ATOM     74  F   UNL A   1      39.092  32.320  39.520  1.00  0.00    -0.203 F 
ATOM     75  C   UNL A   1      39.947  34.158  40.713  1.00  0.00     0.198 A 
ATOM     76  C   UNL A   1      41.554  35.614  39.685  1.00  0.00     0.198 A 
ATOM     77  F   UNL A   1      42.244  35.233  37.469  1.00  0.00    -0.203 F 
ATOM     78  F   UNL A   1      39.175  33.836  41.759  1.00  0.00    -0.200 F 
ATOM     79  C   UNL A   1      40.777  35.267  40.779  1.00  0.00     0.200 A 
ATOM     80  F   UNL A   1      42.367  36.678  39.753  1.00  0.00    -0.200 F 
ATOM     81  F   UNL A   1      40.823  36.004  41.897  1.00  0.00    -0.200 F 
ENDBRANCH  57  71
BRANCH  58  82
ATOM     82  C   UNL A   1      40.207  28.511  29.920  1.00  0.00     0.064 A 
ATOM     83  C   UNL A   1      39.546  27.276  29.856  1.00  0.00     0.173 A 
ATOM     84  C   UNL A   1      40.829  28.979  28.754  1.00  0.00     0.173 A 
ATOM     85  F   UNL A   1      38.954  26.776  30.950  1.00  0.00    -0.203 F 
ATOM     86  C   UNL A   1      39.531  26.527  28.681  1.00  0.00     0.198 A 
ATOM     87  C   UNL A   1      40.787  28.243  27.571  1.00  0.00     0.198 A 
ATOM     88  F   UNL A   1      41.471  30.156  28.760  1.00  0.00    -0.203 F 
ATOM     89  F   UNL A   1      38.936  25.326  28.662  1.00  0.00    -0.200 F 
ATOM     90  C   UNL A   1      40.147  27.013  27.539  1.00  0.00     0.200 A 
ATOM     91  F   UNL A   1      41.372  28.722  26.464  1.00  0.00    -0.200 F 
ATOM     92  F   UNL A   1      40.132  26.293  26.408  1.00  0.00    -0.200 F 
ENDBRANCH  58  82
BRANCH  70  93
ATOM     93  C   UNL A   1      44.527  28.456  35.382  1.00  0.00     0.064 A 
ATOM     94  C   UNL A   1      44.425  27.236  36.066  1.00  0.00     0.173 A 
ATOM     95  C   UNL A   1      45.803  28.874  34.970  1.00  0.00     0.173 A 
ATOM     96  F   UNL A   1      43.231  26.800  36.495  1.00  0.00    -0.203 F 
ATOM     97  C   UNL A   1      45.559  26.478  36.351  1.00  0.00     0.198 A 
ATOM     98  C   UNL A   1      46.929  28.099  35.229  1.00  0.00     0.198 A 
ATOM     99  F   UNL A   1      45.953  30.030  34.306  1.00  0.00    -0.203 F 
ATOM    100  F   UNL A   1      45.444  25.341  37.051  1.00  0.00    -0.200 F 
ATOM    101  C   UNL A   1      46.808  26.906  35.925  1.00  0.00     0.200 A 
ATOM    102  F   UNL A   1      48.133  28.507  34.804  1.00  0.00    -0.200 F 
ATOM    103  F   UNL A   1      47.896  26.173  36.195  1.00  0.00    -0.200 F 
ENDBRANCH  70  93
ENDBRANCH  44  45
ENDBRANCH  36  39
ENDBRANCH  34  35
ENDBRANCH  33  34
ENDBRANCH  32  33
ENDBRANCH  31  32
ENDBRANCH  30  31
ENDBRANCH   1  30
TORSDOF 20
ENDMDL
MODEL 2
REMARK VINA RESULT:     -10.9      6.212     11.997
REMARK SMILES C[C@H](NC(=O)OC(C)(C)C)C(=O)N[C@@H](C)C(=O)N1CCC[C@H]1C(=O)NCCCCCCNC(=O)c1ccc(-c2c3nc(c(-c4c(F)c(F)c(F)c(F)c4F)c4ccc([nH]4)c(-c4c(F)c(F)c(F)c(F)c4F)c4nc(c(-c5c(F)c(F)c(F)c(F)c5F)c5ccc2[nH]5)C=C4)C=C3)cc1
REMARK SMILES IDX 26 1 25 2 23 3 24 4 22 6 18 7 19 8 20 9 21 10 16 11 17 12
REMARK SMILES IDX 14 13 15 14 13 15 11 16 12 17 2 19 1 20 3 21 4 22 5 24 6 25
REMARK SMILES IDX 7 26 8 27 9 28 10 29 27 30 28 31 29 32 30 33 31 34 32 35
REMARK SMILES IDX 33 36 34 38 35 39 36 40 97 41 37 42 96 43 38 44 39 45 40 46
REMARK SMILES IDX 90 47 41 48 95 49 89 50 91 51 42 52 94 53 88 54 87 55 43 57
REMARK SMILES IDX 75 58 55 59 74 60 56 61 59 62 73 63 92 64 57 65 58 66 72 68
REMARK SMILES IDX 93 69 60 70 44 71 45 72 53 73 46 74 47 75 51 76 54 77 48 78
REMARK SMILES IDX 49 79 52 80 50 81 76 82 77 83 85 84 78 85 79 86 83 87 86 88
REMARK SMILES IDX 80 89 81 90 84 91 82 92 61 93 62 94 70 95 63 96 64 97 68 98
REMARK SMILES IDX 71 99 65 100 66 101 69 102 67 103
REMARK H PARENT 25 5 13 18 3 23 32 37 91 56 59 67
REMARK Flexibility Score: inf
ROOT
ATOM      1  C   UNL A   1      38.926  23.176  26.529  1.00  0.00     0.116 C 
ENDROOT
BRANCH   1   2
ATOM      2  N   UNL A   1      38.130  23.457  25.354  1.00  0.00    -0.354 N 
ATOM      3  C   UNL A   1      37.080  22.809  24.784  1.00  0.00     0.242 C 
ATOM      4  O   UNL A   1      36.683  23.269  23.705  1.00  0.00    -0.273 OA
ATOM      5  H   UNL A   1      38.402  24.273  24.876  1.00  0.00     0.163 HD
BRANCH   3   6
ATOM      6  C   UNL A   1      36.248  21.709  25.487  1.00  0.00     0.174 C 
ATOM      7  N   UNL A   1      34.791  21.643  25.349  1.00  0.00    -0.329 N 
ATOM      8  C   UNL A   1      34.385  20.414  24.691  1.00  0.00     0.120 C 
ATOM      9  C   UNL A   1      35.512  19.451  25.001  1.00  0.00     0.024 C 
ATOM     10  C   UNL A   1      36.748  20.341  24.998  1.00  0.00     0.037 C 
BRANCH   7  11
ATOM     11  C   UNL A   1      34.033  22.601  25.975  1.00  0.00     0.245 C 
ATOM     12  O   UNL A   1      34.032  22.658  27.210  1.00  0.00    -0.272 OA
BRANCH  11  13
ATOM     13  C   UNL A   1      33.083  23.527  25.187  1.00  0.00     0.168 C 
ATOM     14  C   UNL A   1      31.631  23.116  25.398  1.00  0.00     0.041 C 
BRANCH  13  15
ATOM     15  N   UNL A   1      33.378  23.730  23.776  1.00  0.00    -0.343 N 
ATOM     16  C   UNL A   1      33.047  24.763  22.955  1.00  0.00     0.243 C 
ATOM     17  O   UNL A   1      33.502  24.708  21.806  1.00  0.00    -0.273 OA
ATOM     18  H   UNL A   1      33.898  23.010  23.352  1.00  0.00     0.164 HD
BRANCH  16  19
ATOM     19  C   UNL A   1      32.309  26.044  23.427  1.00  0.00     0.171 C 
ATOM     20  C   UNL A   1      30.808  25.866  23.224  1.00  0.00     0.042 C 
BRANCH  19  21
ATOM     21  N   UNL A   1      32.889  27.323  23.006  1.00  0.00    -0.310 N 
ATOM     22  C   UNL A   1      33.536  28.306  23.693  1.00  0.00     0.408 C 
ATOM     23  H   UNL A   1      32.794  27.506  22.043  1.00  0.00     0.167 HD
ATOM     24  O   UNL A   1      33.895  29.325  23.122  1.00  0.00    -0.225 OA
BRANCH  22  25
ATOM     25  O   UNL A   1      33.674  28.050  25.011  1.00  0.00    -0.444 OA
BRANCH  25  26
ATOM     26  C   UNL A   1      32.871  28.728  26.012  1.00  0.00     0.106 C 
ATOM     27  C   UNL A   1      33.750  29.540  26.966  1.00  0.00     0.056 C 
ATOM     28  C   UNL A   1      31.781  29.604  25.381  1.00  0.00     0.056 C 
ATOM     29  C   UNL A   1      32.201  27.592  26.801  1.00  0.00     0.056 C 
ENDBRANCH  25  26
ENDBRANCH  22  25
ENDBRANCH  19  21
ENDBRANCH  16  19
ENDBRANCH  13  15
ENDBRANCH  11  13
ENDBRANCH   7  11
ENDBRANCH   3   6
ENDBRANCH   1   2
BRANCH   1  30
ATOM     30  C   UNL A   1      39.649  21.836  26.400  1.00  0.00     0.021 C 
BRANCH  30  31
ATOM     31  C   UNL A   1      41.175  21.939  26.509  1.00  0.00     0.002 C 
BRANCH  31  32
ATOM     32  C   UNL A   1      41.804  21.093  27.624  1.00  0.00     0.002 C 
BRANCH  32  33
ATOM     33  C   UNL A   1      42.276  19.700  27.198  1.00  0.00     0.021 C 
BRANCH  33  34
ATOM     34  C   UNL A   1      42.017  19.366  25.732  1.00  0.00     0.116 C 
BRANCH  34  35
ATOM     35  N   UNL A   1      43.201  18.826  25.083  1.00  0.00    -0.352 N 
ATOM     36  C   UNL A   1      44.319  19.475  24.626  1.00  0.00     0.251 C 
ATOM     37  H   UNL A   1      43.200  17.850  24.953  1.00  0.00     0.163 HD
ATOM     38  O   UNL A   1      45.120  18.891  23.902  1.00  0.00    -0.269 OA
BRANCH  36  39
ATOM     39  C   UNL A   1      44.558  20.886  24.995  1.00  0.00     0.039 A 
ATOM     40  C   UNL A   1      44.069  21.894  24.162  1.00  0.00     0.014 A 
ATOM     41  C   UNL A   1      45.287  21.213  26.143  1.00  0.00     0.014 A 
ATOM     42  C   UNL A   1      44.265  23.233  24.507  1.00  0.00     0.010 A 
ATOM     43  C   UNL A   1      45.423  22.546  26.522  1.00  0.00     0.010 A 
ATOM     44  C   UNL A   1      44.919  23.569  25.704  1.00  0.00    -0.014 A 
BRANCH  44  45
ATOM     45  C   UNL A   1      45.091  24.985  26.113  1.00  0.00     0.031 A 
ATOM     46  C   UNL A   1      46.440  25.641  26.015  1.00  0.00     0.074 A 
ATOM     47  C   UNL A   1      44.045  25.661  26.624  1.00  0.00     0.049 A 
ATOM     48  N   UNL A   1      46.807  26.842  26.384  1.00  0.00    -0.248 NA
ATOM     49  C   UNL A   1      47.529  24.829  25.449  1.00  0.00     0.031 C 
ATOM     50  C   UNL A   1      42.696  25.121  26.807  1.00  0.00     0.029 A 
ATOM     51  N   UNL A   1      43.952  26.948  27.093  1.00  0.00    -0.354 N 
ATOM     52  C   UNL A   1      48.164  26.926  26.105  1.00  0.00     0.074 A 
ATOM     53  C   UNL A   1      48.570  25.637  25.587  1.00  0.00     0.031 C 
ATOM     54  C   UNL A   1      41.908  26.074  27.327  1.00  0.00     0.029 A 
ATOM     55  C   UNL A   1      42.701  27.279  27.552  1.00  0.00     0.049 A 
ATOM     56  H   UNL A   1      44.712  27.574  27.102  1.00  0.00     0.167 HD
ATOM     57  C   UNL A   1      48.991  27.989  26.243  1.00  0.00     0.037 A 
ATOM     58  C   UNL A   1      42.249  28.423  28.098  1.00  0.00     0.037 A 
ATOM     59  C   UNL A   1      48.578  29.276  26.740  1.00  0.00     0.049 A 
ATOM     60  C   UNL A   1      43.195  29.582  28.260  1.00  0.00     0.074 A 
ATOM     61  C   UNL A   1      49.328  30.431  26.875  1.00  0.00     0.029 A 
ATOM     62  N   UNL A   1      47.298  29.577  27.184  1.00  0.00    -0.354 N 
ATOM     63  N   UNL A   1      44.462  29.670  27.935  1.00  0.00    -0.248 NA
ATOM     64  C   UNL A   1      42.644  30.806  28.860  1.00  0.00     0.031 C 
ATOM     65  C   UNL A   1      48.516  31.418  27.442  1.00  0.00     0.029 A 
ATOM     66  C   UNL A   1      47.244  30.893  27.614  1.00  0.00     0.049 A 
ATOM     67  H   UNL A   1      46.542  28.948  27.194  1.00  0.00     0.167 HD
ATOM     68  C   UNL A   1      44.851  30.962  28.260  1.00  0.00     0.074 A 
ATOM     69  C   UNL A   1      43.682  31.628  28.795  1.00  0.00     0.031 C 
ATOM     70  C   UNL A   1      46.068  31.544  28.131  1.00  0.00     0.037 A 
BRANCH  57  71
ATOM     71  C   UNL A   1      50.428  27.809  25.844  1.00  0.00     0.064 A 
ATOM     72  C   UNL A   1      51.428  27.561  26.796  1.00  0.00     0.173 A 
ATOM     73  C   UNL A   1      50.804  27.846  24.493  1.00  0.00     0.173 A 
ATOM     74  F   UNL A   1      51.123  27.527  28.102  1.00  0.00    -0.203 F 
ATOM     75  C   UNL A   1      52.755  27.383  26.413  1.00  0.00     0.198 A 
ATOM     76  C   UNL A   1      52.126  27.637  24.111  1.00  0.00     0.198 A 
ATOM     77  F   UNL A   1      49.886  28.074  23.542  1.00  0.00    -0.203 F 
ATOM     78  F   UNL A   1      53.700  27.196  27.344  1.00  0.00    -0.200 F 
ATOM     79  C   UNL A   1      53.101  27.414  25.071  1.00  0.00     0.200 A 
ATOM     80  F   UNL A   1      52.458  27.654  22.813  1.00  0.00    -0.200 F 
ATOM     81  F   UNL A   1      54.377  27.235  24.703  1.00  0.00    -0.200 F 
ENDBRANCH  57  71
BRANCH  58  82
ATOM     82  C   UNL A   1      40.827  28.540  28.513  1.00  0.00     0.064 A 
ATOM     83  C   UNL A   1      39.850  28.988  27.612  1.00  0.00     0.173 A 
ATOM     84  C   UNL A   1      40.415  28.223  29.816  1.00  0.00     0.173 A 
ATOM     85  F   UNL A   1      40.198  29.324  26.361  1.00  0.00    -0.203 F 
ATOM     86  C   UNL A   1      38.522  29.139  28.005  1.00  0.00     0.198 A 
ATOM     87  C   UNL A   1      39.081  28.345  30.199  1.00  0.00     0.198 A 
ATOM     88  F   UNL A   1      41.309  27.786  30.715  1.00  0.00    -0.203 F 
ATOM     89  F   UNL A   1      37.619  29.619  27.138  1.00  0.00    -0.200 F 
ATOM     90  C   UNL A   1      38.138  28.813  29.296  1.00  0.00     0.200 A 
ATOM     91  F   UNL A   1      38.710  28.016  31.444  1.00  0.00    -0.200 F 
ATOM     92  F   UNL A   1      36.860  28.958  29.674  1.00  0.00    -0.200 F 
ENDBRANCH  58  82
BRANCH  70  93
ATOM     93  C   UNL A   1      46.188  32.984  28.537  1.00  0.00     0.064 A 
ATOM     94  C   UNL A   1      45.925  34.028  27.639  1.00  0.00     0.173 A 
ATOM     95  C   UNL A   1      46.536  33.322  29.855  1.00  0.00     0.173 A 
ATOM     96  F   UNL A   1      45.605  33.759  26.365  1.00  0.00    -0.203 F 
ATOM     97  C   UNL A   1      46.032  35.359  28.037  1.00  0.00     0.198 A 
ATOM     98  C   UNL A   1      46.612  34.651  30.258  1.00  0.00     0.198 A 
ATOM     99  F   UNL A   1      46.791  32.360  30.754  1.00  0.00    -0.203 F 
ATOM    100  F   UNL A   1      45.826  36.341  27.149  1.00  0.00    -0.200 F 
ATOM    101  C   UNL A   1      46.368  35.669  29.348  1.00  0.00     0.200 A 
ATOM    102  F   UNL A   1      46.922  34.949  31.527  1.00  0.00    -0.200 F 
ATOM    103  F   UNL A   1      46.464  36.950  29.730  1.00  0.00    -0.200 F 
ENDBRANCH  70  93
ENDBRANCH  44  45
ENDBRANCH  36  39
ENDBRANCH  34  35
ENDBRANCH  33  34
ENDBRANCH  32  33
ENDBRANCH  31  32
ENDBRANCH  30  31
ENDBRANCH   1  30
TORSDOF 20
ENDMDL
MODEL 3
REMARK VINA RESULT:     -10.8      5.698     10.670
REMARK SMILES C[C@H](NC(=O)OC(C)(C)C)C(=O)N[C@@H](C)C(=O)N1CCC[C@H]1C(=O)NCCCCCCNC(=O)c1ccc(-c2c3nc(c(-c4c(F)c(F)c(F)c(F)c4F)c4ccc([nH]4)c(-c4c(F)c(F)c(F)c(F)c4F)c4nc(c(-c5c(F)c(F)c(F)c(F)c5F)c5ccc2[nH]5)C=C4)C=C3)cc1
REMARK SMILES IDX 26 1 25 2 23 3 24 4 22 6 18 7 19 8 20 9 21 10 16 11 17 12
REMARK SMILES IDX 14 13 15 14 13 15 11 16 12 17 2 19 1 20 3 21 4 22 5 24 6 25
REMARK SMILES IDX 7 26 8 27 9 28 10 29 27 30 28 31 29 32 30 33 31 34 32 35
REMARK SMILES IDX 33 36 34 38 35 39 36 40 97 41 37 42 96 43 38 44 39 45 40 46
REMARK SMILES IDX 90 47 41 48 95 49 89 50 91 51 42 52 94 53 88 54 87 55 43 57
REMARK SMILES IDX 75 58 55 59 74 60 56 61 59 62 73 63 92 64 57 65 58 66 72 68
REMARK SMILES IDX 93 69 60 70 44 71 45 72 53 73 46 74 47 75 51 76 54 77 48 78
REMARK SMILES IDX 49 79 52 80 50 81 76 82 77 83 85 84 78 85 79 86 83 87 86 88
REMARK SMILES IDX 80 89 81 90 84 91 82 92 61 93 62 94 70 95 63 96 64 97 68 98
REMARK SMILES IDX 71 99 65 100 66 101 69 102 67 103
REMARK H PARENT 25 5 13 18 3 23 32 37 91 56 59 67
REMARK Flexibility Score: inf
ROOT
ATOM      1  C   UNL A   1      34.565  21.427  26.530  1.00  0.00     0.116 C 
ENDROOT
BRANCH   1   2
ATOM      2  N   UNL A   1      33.442  22.048  27.199  1.00  0.00    -0.354 N 
ATOM      3  C   UNL A   1      32.279  22.576  26.734  1.00  0.00     0.242 C 
ATOM      4  O   UNL A   1      31.562  23.129  27.579  1.00  0.00    -0.273 OA
ATOM      5  H   UNL A   1      33.540  22.097  28.177  1.00  0.00     0.163 HD
BRANCH   3   6
ATOM      6  C   UNL A   1      31.722  22.342  25.309  1.00  0.00     0.174 C 
ATOM      7  N   UNL A   1      32.102  23.202  24.186  1.00  0.00    -0.329 N 
ATOM      8  C   UNL A   1      32.814  22.448  23.169  1.00  0.00     0.120 C 
ATOM      9  C   UNL A   1      32.316  21.030  23.359  1.00  0.00     0.024 C 
ATOM     10  C   UNL A   1      32.115  20.925  24.864  1.00  0.00     0.037 C 
BRANCH   7  11
ATOM     11  C   UNL A   1      31.617  24.485  24.153  1.00  0.00     0.245 C 
ATOM     12  O   UNL A   1      30.636  24.742  23.445  1.00  0.00    -0.272 OA
BRANCH  11  13
ATOM     13  C   UNL A   1      32.335  25.644  24.876  1.00  0.00     0.168 C 
ATOM     14  C   UNL A   1      33.822  25.347  25.027  1.00  0.00     0.041 C 
BRANCH  13  15
ATOM     15  N   UNL A   1      31.755  26.100  26.131  1.00  0.00    -0.343 N 
ATOM     16  C   UNL A   1      31.851  27.310  26.748  1.00  0.00     0.243 C 
ATOM     17  O   UNL A   1      31.182  27.444  27.780  1.00  0.00    -0.273 OA
ATOM     18  H   UNL A   1      31.208  25.433  26.604  1.00  0.00     0.164 HD
BRANCH  16  19
ATOM     19  C   UNL A   1      32.585  28.535  26.144  1.00  0.00     0.171 C 
ATOM     20  C   UNL A   1      34.018  28.573  26.663  1.00  0.00     0.042 C 
BRANCH  19  21
ATOM     21  N   UNL A   1      31.846  29.802  26.143  1.00  0.00    -0.310 N 
ATOM     22  C   UNL A   1      31.167  30.466  25.165  1.00  0.00     0.408 C 
ATOM     23  H   UNL A   1      31.837  30.259  27.015  1.00  0.00     0.167 HD
ATOM     24  O   UNL A   1      30.659  31.553  25.396  1.00  0.00    -0.225 OA
BRANCH  22  25
ATOM     25  O   UNL A   1      31.171  29.833  23.974  1.00  0.00    -0.444 OA
BRANCH  25  26
ATOM     26  C   UNL A   1      29.941  29.529  23.264  1.00  0.00     0.106 C 
ATOM     27  C   UNL A   1      29.527  28.072  23.477  1.00  0.00     0.056 C 
ATOM     28  C   UNL A   1      28.805  30.489  23.640  1.00  0.00     0.056 C 
ATOM     29  C   UNL A   1      30.293  29.732  21.781  1.00  0.00     0.056 C 
ENDBRANCH  25  26
ENDBRANCH  22  25
ENDBRANCH  19  21
ENDBRANCH  16  19
ENDBRANCH  13  15
ENDBRANCH  11  13
ENDBRANCH   7  11
ENDBRANCH   3   6
ENDBRANCH   1   2
BRANCH   1  30
ATOM     30  C   UNL A   1      35.618  22.464  26.139  1.00  0.00     0.021 C 
BRANCH  30  31
ATOM     31  C   UNL A   1      36.795  21.887  25.344  1.00  0.00     0.002 C 
BRANCH  31  32
ATOM     32  C   UNL A   1      36.654  20.408  24.957  1.00  0.00     0.002 C 
BRANCH  32  33
ATOM     33  C   UNL A   1      37.972  19.643  24.817  1.00  0.00     0.021 C 
BRANCH  33  34
ATOM     34  C   UNL A   1      39.092  20.140  25.726  1.00  0.00     0.116 C 
BRANCH  34  35
ATOM     35  N   UNL A   1      40.132  19.139  25.900  1.00  0.00    -0.352 N 
ATOM     36  C   UNL A   1      41.479  19.304  26.095  1.00  0.00     0.251 C 
ATOM     37  H   UNL A   1      39.823  18.204  25.876  1.00  0.00     0.163 HD
ATOM     38  O   UNL A   1      42.240  18.346  25.997  1.00  0.00    -0.269 OA
BRANCH  36  39
ATOM     39  C   UNL A   1      42.022  20.641  26.414  1.00  0.00     0.039 A 
ATOM     40  C   UNL A   1      42.289  21.528  25.368  1.00  0.00     0.014 A 
ATOM     41  C   UNL A   1      42.293  21.009  27.735  1.00  0.00     0.014 A 
ATOM     42  C   UNL A   1      42.780  22.805  25.652  1.00  0.00     0.010 A 
ATOM     43  C   UNL A   1      42.717  22.304  28.022  1.00  0.00     0.010 A 
ATOM     44  C   UNL A   1      42.970  23.212  26.982  1.00  0.00    -0.014 A 
BRANCH  44  45
ATOM     45  C   UNL A   1      43.442  24.582  27.305  1.00  0.00     0.031 A 
ATOM     46  C   UNL A   1      42.479  25.606  27.836  1.00  0.00     0.074 A 
ATOM     47  C   UNL A   1      44.724  24.917  27.066  1.00  0.00     0.049 A 
ATOM     48  N   UNL A   1      42.682  26.870  28.113  1.00  0.00    -0.248 NA
ATOM     49  C   UNL A   1      41.097  25.157  28.064  1.00  0.00     0.031 C 
ATOM     50  C   UNL A   1      45.743  24.023  26.514  1.00  0.00     0.029 A 
ATOM     51  N   UNL A   1      45.388  26.104  27.248  1.00  0.00    -0.354 N 
ATOM     52  C   UNL A   1      41.456  27.365  28.536  1.00  0.00     0.074 A 
ATOM     53  C   UNL A   1      40.502  26.283  28.428  1.00  0.00     0.031 C 
ATOM     54  C   UNL A   1      46.907  24.685  26.424  1.00  0.00     0.029 A 
ATOM     55  C   UNL A   1      46.708  26.060  26.873  1.00  0.00     0.049 A 
ATOM     56  H   UNL A   1      44.958  26.911  27.612  1.00  0.00     0.167 HD
ATOM     57  C   UNL A   1      41.160  28.603  28.998  1.00  0.00     0.037 A 
ATOM     58  C   UNL A   1      47.649  27.023  26.882  1.00  0.00     0.037 A 
ATOM     59  C   UNL A   1      42.118  29.671  29.123  1.00  0.00     0.049 A 
ATOM     60  C   UNL A   1      47.287  28.396  27.382  1.00  0.00     0.074 A 
ATOM     61  C   UNL A   1      41.927  30.948  29.623  1.00  0.00     0.029 A 
ATOM     62  N   UNL A   1      43.449  29.585  28.743  1.00  0.00    -0.354 N 
ATOM     63  N   UNL A   1      46.139  28.837  27.838  1.00  0.00    -0.248 NA
ATOM     64  C   UNL A   1      48.355  29.406  27.372  1.00  0.00     0.031 C 
ATOM     65  C   UNL A   1      43.131  31.648  29.505  1.00  0.00     0.029 A 
ATOM     66  C   UNL A   1      44.086  30.793  28.978  1.00  0.00     0.049 A 
ATOM     67  H   UNL A   1      43.877  28.785  28.362  1.00  0.00     0.167 HD
ATOM     68  C   UNL A   1      46.354  30.159  28.197  1.00  0.00     0.074 A 
ATOM     69  C   UNL A   1      47.746  30.448  27.920  1.00  0.00     0.031 C 
ATOM     70  C   UNL A   1      45.476  31.058  28.708  1.00  0.00     0.037 A 
BRANCH  57  71
ATOM     71  C   UNL A   1      39.740  28.870  29.411  1.00  0.00     0.064 A 
ATOM     72  C   UNL A   1      38.793  29.370  28.504  1.00  0.00     0.173 A 
ATOM     73  C   UNL A   1      39.311  28.586  30.716  1.00  0.00     0.173 A 
ATOM     74  F   UNL A   1      39.155  29.668  27.247  1.00  0.00    -0.203 F 
ATOM     75  C   UNL A   1      37.477  29.602  28.895  1.00  0.00     0.198 A 
ATOM     76  C   UNL A   1      37.987  28.790  31.096  1.00  0.00     0.198 A 
ATOM     77  F   UNL A   1      40.174  28.101  31.622  1.00  0.00    -0.203 F 
ATOM     78  F   UNL A   1      36.604  30.124  28.025  1.00  0.00    -0.200 F 
ATOM     79  C   UNL A   1      37.074  29.304  30.188  1.00  0.00     0.200 A 
ATOM     80  F   UNL A   1      37.594  28.489  32.341  1.00  0.00    -0.200 F 
ATOM     81  F   UNL A   1      35.805  29.519  30.561  1.00  0.00    -0.200 F 
ENDBRANCH  57  71
BRANCH  58  82
ATOM     82  C   UNL A   1      49.031  26.721  26.428  1.00  0.00     0.064 A 
ATOM     83  C   UNL A   1      49.414  26.943  25.097  1.00  0.00     0.173 A 
ATOM     84  C   UNL A   1      49.990  26.191  27.303  1.00  0.00     0.173 A 
ATOM     85  F   UNL A   1      48.526  27.427  24.217  1.00  0.00    -0.203 F 
ATOM     86  C   UNL A   1      50.696  26.624  24.654  1.00  0.00     0.198 A 
ATOM     87  C   UNL A   1      51.281  25.901  26.865  1.00  0.00     0.198 A 
ATOM     88  F   UNL A   1      49.676  25.964  28.587  1.00  0.00    -0.203 F 
ATOM     89  F   UNL A   1      51.020  26.798  23.365  1.00  0.00    -0.200 F 
ATOM     90  C   UNL A   1      51.630  26.108  25.539  1.00  0.00     0.200 A 
ATOM     91  F   UNL A   1      52.186  25.416  27.728  1.00  0.00    -0.200 F 
ATOM     92  F   UNL A   1      52.863  25.802  25.113  1.00  0.00    -0.200 F 
ENDBRANCH  58  82
BRANCH  70  93
ATOM     93  C   UNL A   1      46.004  32.423  29.039  1.00  0.00     0.064 A 
ATOM     94  C   UNL A   1      45.965  33.474  28.111  1.00  0.00     0.173 A 
ATOM     95  C   UNL A   1      46.525  32.692  30.315  1.00  0.00     0.173 A 
ATOM     96  F   UNL A   1      45.492  33.264  26.873  1.00  0.00    -0.203 F 
ATOM     97  C   UNL A   1      46.451  34.737  28.439  1.00  0.00     0.198 A 
ATOM     98  C   UNL A   1      46.981  33.963  30.649  1.00  0.00     0.198 A 
ATOM     99  F   UNL A   1      46.579  31.723  31.240  1.00  0.00    -0.203 F 
ATOM    100  F   UNL A   1      46.449  35.713  27.521  1.00  0.00    -0.200 F 
ATOM    101  C   UNL A   1      46.951  34.983  29.710  1.00  0.00     0.200 A 
ATOM    102  F   UNL A   1      47.451  34.203  31.882  1.00  0.00    -0.200 F 
ATOM    103  F   UNL A   1      47.413  36.201  30.026  1.00  0.00    -0.200 F 
ENDBRANCH  70  93
ENDBRANCH  44  45
ENDBRANCH  36  39
ENDBRANCH  34  35
ENDBRANCH  33  34
ENDBRANCH  32  33
ENDBRANCH  31  32
ENDBRANCH  30  31
ENDBRANCH   1  30
TORSDOF 20
ENDMDL
