MODEL 1
REMARK VINA RESULT:     -12.2      0.000      0.000
REMARK SMILES NS(=O)(=O)c1ccc(C#Cc2cc(Cl)cc3c2O[C@H](C(F)(F)F)C(C(=O)NCCCCCCNC(=O)c2ccc(-c4c5nc(c(-c6c(F)c(F)c(F)c(F)c6F)c6ccc([nH]6)c(-c6c(F)c(F)c(F)c(F)c6F)c6nc(c(-c7c(F)c(F)c(F)c(F)c7F)c7ccc4[nH]7)C=C6)C=C5)cc2)=C3)cc1
REMARK SMILES IDX 29 1 28 2 27 3 25 4 26 5 24 7 11 8 12 9 17 10 13 11 16 12
REMARK SMILES IDX 18 13 14 14 15 15 100 16 19 17 10 18 9 19 8 20 5 21 6 22
REMARK SMILES IDX 102 23 7 24 101 25 2 26 3 27 4 28 1 29 20 32 21 33 22 34
REMARK SMILES IDX 23 35 30 36 31 37 32 38 33 39 34 40 35 41 36 43 37 44 38 45
REMARK SMILES IDX 99 46 39 47 98 48 40 49 41 50 42 51 92 52 43 53 97 54 91 55
REMARK SMILES IDX 93 56 44 57 96 58 90 59 89 60 45 62 77 63 57 64 76 65 58 66
REMARK SMILES IDX 61 67 75 68 94 69 59 70 60 71 74 73 95 74 62 75 46 76 47 77
REMARK SMILES IDX 55 78 48 79 49 80 53 81 56 82 50 83 51 84 54 85 52 86 78 87
REMARK SMILES IDX 79 88 87 89 80 90 81 91 85 92 88 93 82 94 83 95 86 96 84 97
REMARK SMILES IDX 63 98 64 99 72 100 65 101 66 102 70 103 73 104 67 105 68 106
REMARK SMILES IDX 71 107 69 108
REMARK H PARENT 27 6 1 30 1 31 34 42 93 61 61 72
REMARK Flexibility Score: inf
ROOT
ATOM      1  C   UNL A   1      38.216  19.701  25.368  1.00  0.00     0.021 C 
ENDROOT
BRANCH   1   2
ATOM      2  C   UNL A   1      37.099  20.298  24.522  1.00  0.00     0.116 C 
BRANCH   2   3
ATOM      3  N   UNL A   1      35.795  20.068  25.117  1.00  0.00    -0.352 N 
ATOM      4  C   UNL A   1      34.636  20.755  25.267  1.00  0.00     0.251 C 
ATOM      5  O   UNL A   1      33.724  20.146  25.834  1.00  0.00    -0.270 OA
ATOM      6  H   UNL A   1      35.735  19.172  25.520  1.00  0.00     0.163 HD
BRANCH   4   7
ATOM      7  C   UNL A   1      34.415  22.156  24.805  1.00  0.00     0.067 C 
ATOM      8  C   UNL A   1      33.425  26.049  23.566  1.00  0.00     0.069 A 
ATOM      9  C   UNL A   1      33.041  26.281  22.247  1.00  0.00     0.041 A 
ATOM     10  C   UNL A   1      33.743  24.746  23.971  1.00  0.00     0.143 A 
ATOM     11  C   UNL A   1      32.960  25.209  21.357  1.00  0.00     0.043 A 
ATOM     12  C   UNL A   1      33.641  23.668  23.088  1.00  0.00     0.020 A 
ATOM     13  O   UNL A   1      34.103  24.583  25.277  1.00  0.00    -0.474 OA
ATOM     14  Cl  UNL A   1      32.476  25.493  19.729  1.00  0.00    -0.084 Cl
ATOM     15  C   UNL A   1      33.249  23.904  21.769  1.00  0.00     0.032 A 
ATOM     16  C   UNL A   1      33.889  22.314  23.576  1.00  0.00     0.025 C 
ATOM     17  C   UNL A   1      34.774  23.355  25.627  1.00  0.00     0.314 C 
BRANCH   8  18
ATOM     18  C   UNL A   1      33.481  27.128  24.510  1.00  0.00    -0.058 C 
ATOM     19  C   UNL A   1      33.565  28.079  25.244  1.00  0.00    -0.062 C 
BRANCH  19  20
ATOM     20  C   UNL A   1      33.651  29.229  26.089  1.00  0.00     0.025 A 
ATOM     21  C   UNL A   1      33.842  31.545  27.638  1.00  0.00     0.082 A 
ATOM     22  C   UNL A   1      34.886  30.613  27.650  1.00  0.00     0.023 A 
ATOM     23  C   UNL A   1      32.694  31.313  26.878  1.00  0.00     0.023 A 
ATOM     24  C   UNL A   1      34.787  29.453  26.875  1.00  0.00     0.018 A 
ATOM     25  C   UNL A   1      32.602  30.153  26.103  1.00  0.00     0.018 A 
BRANCH  21  26
ATOM     26  S   UNL A   1      34.061  33.049  28.543  1.00  0.00     0.238 S 
ATOM     27  O   UNL A   1      34.684  32.729  29.806  1.00  0.00    -0.207 OA
ATOM     28  O   UNL A   1      32.847  33.824  28.440  1.00  0.00    -0.207 OA
BRANCH  26  29
ATOM     29  N   UNL A   1      35.225  33.907  27.684  1.00  0.00    -0.225 NA
ATOM     30  H   UNL A   1      36.134  33.786  28.129  1.00  0.00     0.137 HD
ATOM     31  H   UNL A   1      34.979  34.897  27.675  1.00  0.00     0.137 HD
ENDBRANCH  26  29
ENDBRANCH  21  26
ENDBRANCH  19  20
ENDBRANCH   8  18
BRANCH  17  32
ATOM     32  C   UNL A   1      36.295  23.592  25.684  1.00  0.00     0.429 C 
ATOM     33  F   UNL A   1      36.840  23.474  24.448  1.00  0.00    -0.167 F 
ATOM     34  F   UNL A   1      36.615  24.833  26.121  1.00  0.00    -0.167 F 
ATOM     35  F   UNL A   1      36.926  22.716  26.496  1.00  0.00    -0.167 F 
ENDBRANCH  17  32
ENDBRANCH   4   7
ENDBRANCH   2   3
ENDBRANCH   1   2
BRANCH   1  36
ATOM     36  C   UNL A   1      39.305  20.719  25.711  1.00  0.00     0.002 C 
BRANCH  36  37
ATOM     37  C   UNL A   1      40.460  20.159  26.554  1.00  0.00     0.002 C 
BRANCH  37  38
ATOM     38  C   UNL A   1      41.849  20.629  26.126  1.00  0.00     0.021 C 
BRANCH  38  39
ATOM     39  C   UNL A   1      42.955  19.639  26.461  1.00  0.00     0.116 C 
BRANCH  39  40
ATOM     40  N   UNL A   1      43.546  19.057  25.264  1.00  0.00    -0.352 N 
ATOM     41  C   UNL A   1      44.355  19.650  24.326  1.00  0.00     0.251 C 
ATOM     42  H   UNL A   1      43.338  18.107  25.107  1.00  0.00     0.163 HD
ATOM     43  O   UNL A   1      44.614  19.092  23.268  1.00  0.00    -0.269 OA
BRANCH  41  44
ATOM     44  C   UNL A   1      44.871  21.001  24.611  1.00  0.00     0.039 A 
ATOM     45  C   UNL A   1      45.648  21.215  25.751  1.00  0.00     0.014 A 
ATOM     46  C   UNL A   1      44.479  22.067  23.800  1.00  0.00     0.014 A 
ATOM     47  C   UNL A   1      45.854  22.511  26.195  1.00  0.00     0.010 A 
ATOM     48  C   UNL A   1      44.786  23.369  24.194  1.00  0.00     0.010 A 
ATOM     49  C   UNL A   1      45.422  23.604  25.425  1.00  0.00    -0.014 A 
BRANCH  49  50
ATOM     50  C   UNL A   1      45.633  24.984  25.925  1.00  0.00     0.031 A 
ATOM     51  C   UNL A   1      44.492  25.773  26.509  1.00  0.00     0.074 A 
ATOM     52  C   UNL A   1      46.869  25.514  25.878  1.00  0.00     0.049 A 
ATOM     53  N   UNL A   1      44.477  27.012  26.931  1.00  0.00    -0.248 NA
ATOM     54  C   UNL A   1      43.197  25.085  26.633  1.00  0.00     0.031 C 
ATOM     55  C   UNL A   1      48.059  24.830  25.371  1.00  0.00     0.029 A 
ATOM     56  N   UNL A   1      47.333  26.742  26.273  1.00  0.00    -0.354 N 
ATOM     57  C   UNL A   1      43.176  27.256  27.354  1.00  0.00     0.074 A 
ATOM     58  C   UNL A   1      42.419  26.049  27.105  1.00  0.00     0.031 C 
ATOM     59  C   UNL A   1      49.123  25.631  25.518  1.00  0.00     0.029 A 
ATOM     60  C   UNL A   1      48.677  26.913  26.050  1.00  0.00     0.049 A 
ATOM     61  H   UNL A   1      46.760  27.433  26.676  1.00  0.00     0.167 HD
ATOM     62  C   UNL A   1      42.668  28.382  27.910  1.00  0.00     0.037 A 
ATOM     63  C   UNL A   1      49.460  27.995  26.221  1.00  0.00     0.037 A 
ATOM     64  C   UNL A   1      43.436  29.576  28.164  1.00  0.00     0.049 A 
ATOM     65  C   UNL A   1      48.849  29.257  26.759  1.00  0.00     0.074 A 
ATOM     66  C   UNL A   1      43.015  30.768  28.729  1.00  0.00     0.029 A 
ATOM     67  N   UNL A   1      44.784  29.731  27.872  1.00  0.00    -0.354 N 
ATOM     68  N   UNL A   1      47.618  29.481  27.148  1.00  0.00    -0.248 NA
ATOM     69  C   UNL A   1      49.738  30.418  26.879  1.00  0.00     0.031 C 
ATOM     70  C   UNL A   1      44.087  31.663  28.717  1.00  0.00     0.029 A 
ATOM     71  C   UNL A   1      45.200  31.008  28.216  1.00  0.00     0.049 A 
ATOM     72  H   UNL A   1      45.360  29.037  27.478  1.00  0.00     0.167 HD
ATOM     73  C   UNL A   1      47.589  30.797  27.584  1.00  0.00     0.074 A 
ATOM     74  C   UNL A   1      48.934  31.315  27.431  1.00  0.00     0.031 C 
ATOM     75  C   UNL A   1      46.542  31.513  28.064  1.00  0.00     0.037 A 
BRANCH  62  76
ATOM     76  C   UNL A   1      41.210  28.398  28.276  1.00  0.00     0.064 A 
ATOM     77  C   UNL A   1      40.760  27.981  29.538  1.00  0.00     0.173 A 
ATOM     78  C   UNL A   1      40.258  28.918  27.383  1.00  0.00     0.173 A 
ATOM     79  F   UNL A   1      41.622  27.462  30.425  1.00  0.00    -0.203 F 
ATOM     80  C   UNL A   1      39.414  28.072  29.887  1.00  0.00     0.198 A 
ATOM     81  C   UNL A   1      38.920  29.038  27.747  1.00  0.00     0.198 A 
ATOM     82  F   UNL A   1      40.632  29.336  26.164  1.00  0.00    -0.203 F 
ATOM     83  F   UNL A   1      39.003  27.634  31.084  1.00  0.00    -0.200 F 
ATOM     84  C   UNL A   1      38.498  28.612  28.997  1.00  0.00     0.200 A 
ATOM     85  F   UNL A   1      38.040  29.578  26.892  1.00  0.00    -0.200 F 
ATOM     86  F   UNL A   1      37.208  28.720  29.343  1.00  0.00    -0.200 F 
ENDBRANCH  62  76
BRANCH  63  87
ATOM     87  C   UNL A   1      50.902  27.916  25.874  1.00  0.00     0.064 A 
ATOM     88  C   UNL A   1      51.332  28.086  24.553  1.00  0.00     0.173 A 
ATOM     89  C   UNL A   1      51.880  27.701  26.859  1.00  0.00     0.173 A 
ATOM     90  F   UNL A   1      50.434  28.275  23.575  1.00  0.00    -0.203 F 
ATOM     91  C   UNL A   1      52.686  28.037  24.226  1.00  0.00     0.198 A 
ATOM     92  C   UNL A   1      53.235  27.688  26.536  1.00  0.00     0.198 A 
ATOM     93  F   UNL A   1      51.522  27.538  28.141  1.00  0.00    -0.203 F 
ATOM     94  F   UNL A   1      53.068  28.165  22.948  1.00  0.00    -0.200 F 
ATOM     95  C   UNL A   1      53.636  27.850  25.219  1.00  0.00     0.200 A 
ATOM     96  F   UNL A   1      54.149  27.531  27.502  1.00  0.00    -0.200 F 
ATOM     97  F   UNL A   1      54.938  27.822  24.906  1.00  0.00    -0.200 F 
ENDBRANCH  63  87
BRANCH  75  98
ATOM     98  C   UNL A   1      46.810  32.929  28.491  1.00  0.00     0.064 A 
ATOM     99  C   UNL A   1      47.245  33.239  29.788  1.00  0.00     0.173 A 
ATOM    100  C   UNL A   1      46.675  33.985  27.575  1.00  0.00     0.173 A 
ATOM    101  F   UNL A   1      47.379  32.270  30.705  1.00  0.00    -0.203 F 
ATOM    102  C   UNL A   1      47.507  34.555  30.160  1.00  0.00     0.198 A 
ATOM    103  C   UNL A   1      46.976  35.294  27.940  1.00  0.00     0.198 A 
ATOM    104  F   UNL A   1      46.272  33.746  26.318  1.00  0.00    -0.203 F 
ATOM    105  F   UNL A   1      47.867  34.833  31.420  1.00  0.00    -0.200 F 
ATOM    106  C   UNL A   1      47.382  35.580  29.234  1.00  0.00     0.200 A 
ATOM    107  F   UNL A   1      46.875  36.280  27.037  1.00  0.00    -0.200 F 
ATOM    108  F   UNL A   1      47.646  36.844  29.590  1.00  0.00    -0.200 F 
ENDBRANCH  75  98
ENDBRANCH  49  50
ENDBRANCH  41  44
ENDBRANCH  39  40
ENDBRANCH  38  39
ENDBRANCH  37  38
ENDBRANCH  36  37
ENDBRANCH   1  36
TORSDOF 18
ENDMDL
MODEL 2
REMARK VINA RESULT:     -12.2      0.358      6.850
REMARK SMILES NS(=O)(=O)c1ccc(C#Cc2cc(Cl)cc3c2O[C@H](C(F)(F)F)C(C(=O)NCCCCCCNC(=O)c2ccc(-c4c5nc(c(-c6c(F)c(F)c(F)c(F)c6F)c6ccc([nH]6)c(-c6c(F)c(F)c(F)c(F)c6F)c6nc(c(-c7c(F)c(F)c(F)c(F)c7F)c7ccc4[nH]7)C=C6)C=C5)cc2)=C3)cc1
REMARK SMILES IDX 29 1 28 2 27 3 25 4 26 5 24 7 11 8 12 9 17 10 13 11 16 12
REMARK SMILES IDX 18 13 14 14 15 15 100 16 19 17 10 18 9 19 8 20 5 21 6 22
REMARK SMILES IDX 102 23 7 24 101 25 2 26 3 27 4 28 1 29 20 32 21 33 22 34
REMARK SMILES IDX 23 35 30 36 31 37 32 38 33 39 34 40 35 41 36 43 37 44 38 45
REMARK SMILES IDX 99 46 39 47 98 48 40 49 41 50 42 51 92 52 43 53 97 54 91 55
REMARK SMILES IDX 93 56 44 57 96 58 90 59 89 60 45 62 77 63 57 64 76 65 58 66
REMARK SMILES IDX 61 67 75 68 94 69 59 70 60 71 74 73 95 74 62 75 46 76 47 77
REMARK SMILES IDX 55 78 48 79 49 80 53 81 56 82 50 83 51 84 54 85 52 86 78 87
REMARK SMILES IDX 79 88 87 89 80 90 81 91 85 92 88 93 82 94 83 95 86 96 84 97
REMARK SMILES IDX 63 98 64 99 72 100 65 101 66 102 70 103 73 104 67 105 68 106
REMARK SMILES IDX 71 107 69 108
REMARK H PARENT 27 6 1 30 1 31 34 42 93 61 61 72
REMARK Flexibility Score: inf
ROOT
ATOM      1  C   UNL A   1      37.989  19.423  25.029  1.00  0.00     0.021 C 
ENDROOT
BRANCH   1   2
ATOM      2  C   UNL A   1      36.865  20.182  24.336  1.00  0.00     0.116 C 
BRANCH   2   3
ATOM      3  N   UNL A   1      35.595  19.999  25.015  1.00  0.00    -0.352 N 
ATOM      4  C   UNL A   1      34.470  20.723  25.233  1.00  0.00     0.251 C 
ATOM      5  O   UNL A   1      33.578  20.149  25.863  1.00  0.00    -0.270 OA
ATOM      6  H   UNL A   1      35.533  19.108  25.430  1.00  0.00     0.163 HD
BRANCH   4   7
ATOM      7  C   UNL A   1      34.263  22.127  24.772  1.00  0.00     0.067 C 
ATOM      8  C   UNL A   1      33.314  26.032  23.537  1.00  0.00     0.069 A 
ATOM      9  C   UNL A   1      32.932  26.269  22.218  1.00  0.00     0.041 A 
ATOM     10  C   UNL A   1      33.619  24.725  23.941  1.00  0.00     0.143 A 
ATOM     11  C   UNL A   1      32.839  25.198  21.328  1.00  0.00     0.043 A 
ATOM     12  C   UNL A   1      33.505  23.649  23.057  1.00  0.00     0.020 A 
ATOM     13  O   UNL A   1      33.979  24.556  25.246  1.00  0.00    -0.474 OA
ATOM     14  Cl  UNL A   1      32.356  25.490  19.701  1.00  0.00    -0.084 Cl
ATOM     15  C   UNL A   1      33.114  23.890  21.739  1.00  0.00     0.032 A 
ATOM     16  C   UNL A   1      33.738  22.292  23.544  1.00  0.00     0.025 C 
ATOM     17  C   UNL A   1      34.636  23.321  25.595  1.00  0.00     0.314 C 
BRANCH   8  18
ATOM     18  C   UNL A   1      33.383  27.109  24.483  1.00  0.00    -0.058 C 
ATOM     19  C   UNL A   1      33.482  28.057  25.218  1.00  0.00    -0.062 C 
BRANCH  19  20
ATOM     20  C   UNL A   1      33.586  29.204  26.065  1.00  0.00     0.025 A 
ATOM     21  C   UNL A   1      33.812  31.515  27.618  1.00  0.00     0.082 A 
ATOM     22  C   UNL A   1      34.861  30.589  27.593  1.00  0.00     0.023 A 
ATOM     23  C   UNL A   1      32.642  31.279  26.893  1.00  0.00     0.023 A 
ATOM     24  C   UNL A   1      34.745  29.432  26.817  1.00  0.00     0.018 A 
ATOM     25  C   UNL A   1      32.534  30.122  26.116  1.00  0.00     0.018 A 
BRANCH  21  26
ATOM     26  S   UNL A   1      34.049  33.017  28.522  1.00  0.00     0.238 S 
ATOM     27  O   UNL A   1      34.557  32.678  29.831  1.00  0.00    -0.207 OA
ATOM     28  O   UNL A   1      32.894  33.858  28.321  1.00  0.00    -0.207 OA
BRANCH  26  29
ATOM     29  N   UNL A   1      35.322  33.795  27.745  1.00  0.00    -0.225 NA
ATOM     30  H   UNL A   1      35.876  34.308  28.430  1.00  0.00     0.137 HD
ATOM     31  H   UNL A   1      34.950  34.444  27.052  1.00  0.00     0.137 HD
ENDBRANCH  26  29
ENDBRANCH  21  26
ENDBRANCH  19  20
ENDBRANCH   8  18
BRANCH  17  32
ATOM     32  C   UNL A   1      36.160  23.542  25.651  1.00  0.00     0.429 C 
ATOM     33  F   UNL A   1      36.740  22.641  26.483  1.00  0.00    -0.167 F 
ATOM     34  F   UNL A   1      36.756  23.381  24.446  1.00  0.00    -0.167 F 
ATOM     35  F   UNL A   1      36.490  24.776  26.090  1.00  0.00    -0.167 F 
ENDBRANCH  17  32
ENDBRANCH   4   7
ENDBRANCH   2   3
ENDBRANCH   1   2
BRANCH   1  36
ATOM     36  C   UNL A   1      39.112  20.343  25.509  1.00  0.00     0.002 C 
BRANCH  36  37
ATOM     37  C   UNL A   1      40.328  19.611  26.099  1.00  0.00     0.002 C 
BRANCH  37  38
ATOM     38  C   UNL A   1      41.618  20.430  26.118  1.00  0.00     0.021 C 
BRANCH  38  39
ATOM     39  C   UNL A   1      42.845  19.618  26.502  1.00  0.00     0.116 C 
BRANCH  39  40
ATOM     40  N   UNL A   1      43.481  19.010  25.341  1.00  0.00    -0.352 N 
ATOM     41  C   UNL A   1      44.304  19.590  24.407  1.00  0.00     0.251 C 
ATOM     42  H   UNL A   1      43.297  18.052  25.209  1.00  0.00     0.163 HD
ATOM     43  O   UNL A   1      44.604  19.004  23.374  1.00  0.00    -0.269 OA
BRANCH  41  44
ATOM     44  C   UNL A   1      44.785  20.960  24.661  1.00  0.00     0.039 A 
ATOM     45  C   UNL A   1      45.621  21.204  25.752  1.00  0.00     0.014 A 
ATOM     46  C   UNL A   1      44.304  22.009  23.877  1.00  0.00     0.014 A 
ATOM     47  C   UNL A   1      45.804  22.508  26.185  1.00  0.00     0.010 A 
ATOM     48  C   UNL A   1      44.584  23.323  24.254  1.00  0.00     0.010 A 
ATOM     49  C   UNL A   1      45.285  23.582  25.444  1.00  0.00    -0.014 A 
BRANCH  49  50
ATOM     50  C   UNL A   1      45.473  24.970  25.932  1.00  0.00     0.031 A 
ATOM     51  C   UNL A   1      46.815  25.644  25.835  1.00  0.00     0.074 A 
ATOM     52  C   UNL A   1      44.417  25.634  26.436  1.00  0.00     0.049 A 
ATOM     53  N   UNL A   1      47.179  26.825  26.270  1.00  0.00    -0.248 NA
ATOM     54  C   UNL A   1      47.892  24.897  25.166  1.00  0.00     0.031 C 
ATOM     55  C   UNL A   1      43.059  25.098  26.545  1.00  0.00     0.029 A 
ATOM     56  N   UNL A   1      44.314  26.905  26.940  1.00  0.00    -0.354 N 
ATOM     57  C   UNL A   1      48.523  26.954  25.944  1.00  0.00     0.074 A 
ATOM     58  C   UNL A   1      48.923  25.720  25.305  1.00  0.00     0.031 C 
ATOM     59  C   UNL A   1      42.252  26.042  27.046  1.00  0.00     0.029 A 
ATOM     60  C   UNL A   1      43.049  27.218  27.373  1.00  0.00     0.049 A 
ATOM     61  H   UNL A   1      45.072  27.530  26.989  1.00  0.00     0.167 HD
ATOM     62  C   UNL A   1      49.341  28.015  26.149  1.00  0.00     0.037 A 
ATOM     63  C   UNL A   1      42.587  28.317  27.997  1.00  0.00     0.037 A 
ATOM     64  C   UNL A   1      48.928  29.246  26.776  1.00  0.00     0.049 A 
ATOM     65  C   UNL A   1      43.538  29.442  28.289  1.00  0.00     0.074 A 
ATOM     66  C   UNL A   1      49.680  30.381  27.024  1.00  0.00     0.029 A 
ATOM     67  N   UNL A   1      47.650  29.504  27.253  1.00  0.00    -0.354 N 
ATOM     68  N   UNL A   1      44.808  29.553  27.985  1.00  0.00    -0.248 NA
ATOM     69  C   UNL A   1      42.991  30.595  29.014  1.00  0.00     0.031 C 
ATOM     70  C   UNL A   1      48.879  31.298  27.709  1.00  0.00     0.029 A 
ATOM     71  C   UNL A   1      47.603  30.769  27.821  1.00  0.00     0.049 A 
ATOM     72  H   UNL A   1      46.889  28.883  27.196  1.00  0.00     0.167 HD
ATOM     73  C   UNL A   1      45.206  30.796  28.455  1.00  0.00     0.074 A 
ATOM     74  C   UNL A   1      44.035  31.411  29.047  1.00  0.00     0.031 C 
ATOM     75  C   UNL A   1      46.432  31.373  28.404  1.00  0.00     0.037 A 
BRANCH  62  76
ATOM     76  C   UNL A   1      50.774  27.901  25.707  1.00  0.00     0.064 A 
ATOM     77  C   UNL A   1      51.801  27.575  26.606  1.00  0.00     0.173 A 
ATOM     78  C   UNL A   1      51.112  28.036  24.350  1.00  0.00     0.173 A 
ATOM     79  F   UNL A   1      51.538  27.448  27.915  1.00  0.00    -0.203 F 
ATOM     80  C   UNL A   1      53.112  27.400  26.165  1.00  0.00     0.198 A 
ATOM     81  C   UNL A   1      52.417  27.829  23.910  1.00  0.00     0.198 A 
ATOM     82  F   UNL A   1      50.170  28.344  23.445  1.00  0.00    -0.203 F 
ATOM     83  F   UNL A   1      54.082  27.125  27.048  1.00  0.00    -0.200 F 
ATOM     84  C   UNL A   1      53.416  27.515  24.817  1.00  0.00     0.200 A 
ATOM     85  F   UNL A   1      52.704  27.921  22.604  1.00  0.00    -0.200 F 
ATOM     86  F   UNL A   1      54.673  27.325  24.394  1.00  0.00    -0.200 F 
ENDBRANCH  62  76
BRANCH  63  87
ATOM     87  C   UNL A   1      41.154  28.392  28.383  1.00  0.00     0.064 A 
ATOM     88  C   UNL A   1      40.724  27.934  29.633  1.00  0.00     0.173 A 
ATOM     89  C   UNL A   1      40.194  28.950  27.524  1.00  0.00     0.173 A 
ATOM     90  F   UNL A   1      41.600  27.375  30.481  1.00  0.00    -0.203 F 
ATOM     91  C   UNL A   1      39.385  28.023  30.010  1.00  0.00     0.198 A 
ATOM     92  C   UNL A   1      38.863  29.072  27.915  1.00  0.00     0.198 A 
ATOM     93  F   UNL A   1      40.555  29.409  26.317  1.00  0.00    -0.203 F 
ATOM     94  F   UNL A   1      38.992  27.542  31.197  1.00  0.00    -0.200 F 
ATOM     95  C   UNL A   1      38.459  28.602  29.155  1.00  0.00     0.200 A 
ATOM     96  F   UNL A   1      37.977  29.653  27.096  1.00  0.00    -0.200 F 
ATOM     97  F   UNL A   1      37.175  28.704  29.526  1.00  0.00    -0.200 F 
ENDBRANCH  63  87
BRANCH  75  98
ATOM     98  C   UNL A   1      46.569  32.756  28.977  1.00  0.00     0.064 A 
ATOM     99  C   UNL A   1      46.942  32.968  30.313  1.00  0.00     0.173 A 
ATOM    100  C   UNL A   1      46.372  33.884  28.165  1.00  0.00     0.173 A 
ATOM    101  F   UNL A   1      47.131  31.925  31.135  1.00  0.00    -0.203 F 
ATOM    102  C   UNL A   1      47.082  34.257  30.821  1.00  0.00     0.198 A 
ATOM    103  C   UNL A   1      46.552  35.170  28.666  1.00  0.00     0.198 A 
ATOM    104  F   UNL A   1      46.024  33.741  26.877  1.00  0.00    -0.203 F 
ATOM    105  F   UNL A   1      47.384  34.435  32.114  1.00  0.00    -0.200 F 
ATOM    106  C   UNL A   1      46.897  35.356  29.996  1.00  0.00     0.200 A 
ATOM    107  F   UNL A   1      46.393  36.230  27.861  1.00  0.00    -0.200 F 
ATOM    108  F   UNL A   1      47.046  36.595  30.483  1.00  0.00    -0.200 F 
ENDBRANCH  75  98
ENDBRANCH  49  50
ENDBRANCH  41  44
ENDBRANCH  39  40
ENDBRANCH  38  39
ENDBRANCH  37  38
ENDBRANCH  36  37
ENDBRANCH   1  36
TORSDOF 18
ENDMDL
MODEL 3
REMARK VINA RESULT:     -12.1      5.581     12.142
REMARK SMILES NS(=O)(=O)c1ccc(C#Cc2cc(Cl)cc3c2O[C@H](C(F)(F)F)C(C(=O)NCCCCCCNC(=O)c2ccc(-c4c5nc(c(-c6c(F)c(F)c(F)c(F)c6F)c6ccc([nH]6)c(-c6c(F)c(F)c(F)c(F)c6F)c6nc(c(-c7c(F)c(F)c(F)c(F)c7F)c7ccc4[nH]7)C=C6)C=C5)cc2)=C3)cc1
REMARK SMILES IDX 29 1 28 2 27 3 25 4 26 5 24 7 11 8 12 9 17 10 13 11 16 12
REMARK SMILES IDX 18 13 14 14 15 15 100 16 19 17 10 18 9 19 8 20 5 21 6 22
REMARK SMILES IDX 102 23 7 24 101 25 2 26 3 27 4 28 1 29 20 32 21 33 22 34
REMARK SMILES IDX 23 35 30 36 31 37 32 38 33 39 34 40 35 41 36 43 37 44 38 45
REMARK SMILES IDX 99 46 39 47 98 48 40 49 41 50 42 51 92 52 43 53 97 54 91 55
REMARK SMILES IDX 93 56 44 57 96 58 90 59 89 60 45 62 77 63 57 64 76 65 58 66
REMARK SMILES IDX 61 67 75 68 94 69 59 70 60 71 74 73 95 74 62 75 46 76 47 77
REMARK SMILES IDX 55 78 48 79 49 80 53 81 56 82 50 83 51 84 54 85 52 86 78 87
REMARK SMILES IDX 79 88 87 89 80 90 81 91 85 92 88 93 82 94 83 95 86 96 84 97
REMARK SMILES IDX 63 98 64 99 72 100 65 101 66 102 70 103 73 104 67 105 68 106
REMARK SMILES IDX 71 107 69 108
REMARK H PARENT 27 6 1 30 1 31 34 42 93 61 61 72
REMARK Flexibility Score: inf
ROOT
ATOM      1  C   UNL A   1      37.457  33.081  36.040  1.00  0.00     0.021 C 
ENDROOT
BRANCH   1   2
ATOM      2  C   UNL A   1      37.244  32.845  34.551  1.00  0.00     0.116 C 
BRANCH   2   3
ATOM      3  N   UNL A   1      38.273  33.487  33.753  1.00  0.00    -0.352 N 
ATOM      4  C   UNL A   1      38.821  33.328  32.523  1.00  0.00     0.251 C 
ATOM      5  O   UNL A   1      39.689  34.150  32.215  1.00  0.00    -0.270 OA
ATOM      6  H   UNL A   1      38.684  34.241  34.234  1.00  0.00     0.163 HD
BRANCH   4   7
ATOM      7  C   UNL A   1      38.449  32.250  31.561  1.00  0.00     0.067 C 
ATOM      8  C   UNL A   1      37.542  29.429  28.580  1.00  0.00     0.069 A 
ATOM      9  C   UNL A   1      36.348  29.529  27.870  1.00  0.00     0.041 A 
ATOM     10  C   UNL A   1      37.840  30.380  29.564  1.00  0.00     0.143 A 
ATOM     11  C   UNL A   1      35.478  30.588  28.136  1.00  0.00     0.043 A 
ATOM     12  C   UNL A   1      36.980  31.453  29.818  1.00  0.00     0.020 A 
ATOM     13  O   UNL A   1      39.027  30.232  30.219  1.00  0.00    -0.474 OA
ATOM     14  Cl  UNL A   1      34.007  30.718  27.251  1.00  0.00    -0.084 Cl
ATOM     15  C   UNL A   1      35.788  31.554  29.098  1.00  0.00     0.032 A 
ATOM     16  C   UNL A   1      37.373  32.475  30.785  1.00  0.00     0.025 C 
ATOM     17  C   UNL A   1      39.193  30.955  31.456  1.00  0.00     0.314 C 
BRANCH   8  18
ATOM     18  C   UNL A   1      38.472  28.372  28.300  1.00  0.00    -0.058 C 
ATOM     19  C   UNL A   1      39.210  27.437  28.120  1.00  0.00    -0.062 C 
BRANCH  19  20
ATOM     20  C   UNL A   1      40.057  26.306  27.901  1.00  0.00     0.025 A 
ATOM     21  C   UNL A   1      41.801  24.176  27.434  1.00  0.00     0.082 A 
ATOM     22  C   UNL A   1      40.749  24.420  26.544  1.00  0.00     0.023 A 
ATOM     23  C   UNL A   1      41.970  24.974  28.568  1.00  0.00     0.023 A 
ATOM     24  C   UNL A   1      39.876  25.486  26.781  1.00  0.00     0.018 A 
ATOM     25  C   UNL A   1      41.095  26.040  28.797  1.00  0.00     0.018 A 
BRANCH  21  26
ATOM     26  S   UNL A   1      42.947  22.889  27.033  1.00  0.00     0.238 S 
ATOM     27  O   UNL A   1      44.279  23.446  27.061  1.00  0.00    -0.207 OA
ATOM     28  O   UNL A   1      42.428  22.151  25.906  1.00  0.00    -0.207 OA
BRANCH  26  29
ATOM     29  N   UNL A   1      42.884  21.831  28.339  1.00  0.00    -0.225 NA
ATOM     30  H   UNL A   1      43.723  21.251  28.348  1.00  0.00     0.137 HD
ATOM     31  H   UNL A   1      42.060  21.237  28.255  1.00  0.00     0.137 HD
ENDBRANCH  26  29
ENDBRANCH  21  26
ENDBRANCH  19  20
ENDBRANCH   8  18
BRANCH  17  32
ATOM     32  C   UNL A   1      38.912  30.019  32.647  1.00  0.00     0.429 C 
ATOM     33  F   UNL A   1      39.252  28.742  32.337  1.00  0.00    -0.167 F 
ATOM     34  F   UNL A   1      39.630  30.344  33.749  1.00  0.00    -0.167 F 
ATOM     35  F   UNL A   1      37.612  30.020  33.011  1.00  0.00    -0.167 F 
ENDBRANCH  17  32
ENDBRANCH   4   7
ENDBRANCH   2   3
ENDBRANCH   1   2
BRANCH   1  36
ATOM     36  C   UNL A   1      38.850  33.627  36.358  1.00  0.00     0.002 C 
BRANCH  36  37
ATOM     37  C   UNL A   1      39.426  33.162  37.704  1.00  0.00     0.002 C 
BRANCH  37  38
ATOM     38  C   UNL A   1      39.349  34.200  38.823  1.00  0.00     0.021 C 
BRANCH  38  39
ATOM     39  C   UNL A   1      38.914  35.577  38.343  1.00  0.00     0.116 C 
BRANCH  39  40
ATOM     40  N   UNL A   1      39.774  36.632  38.863  1.00  0.00    -0.352 N 
ATOM     41  C   UNL A   1      41.057  36.957  38.496  1.00  0.00     0.251 C 
ATOM     42  H   UNL A   1      39.382  37.188  39.575  1.00  0.00     0.163 HD
ATOM     43  O   UNL A   1      41.728  37.739  39.158  1.00  0.00    -0.269 OA
BRANCH  41  44
ATOM     44  C   UNL A   1      41.624  36.303  37.303  1.00  0.00     0.039 A 
ATOM     45  C   UNL A   1      40.988  36.453  36.069  1.00  0.00     0.014 A 
ATOM     46  C   UNL A   1      42.720  35.451  37.446  1.00  0.00     0.014 A 
ATOM     47  C   UNL A   1      41.313  35.593  35.032  1.00  0.00     0.010 A 
ATOM     48  C   UNL A   1      43.117  34.667  36.363  1.00  0.00     0.010 A 
ATOM     49  C   UNL A   1      42.378  34.687  35.167  1.00  0.00    -0.014 A 
BRANCH  49  50
ATOM     50  C   UNL A   1      42.701  33.761  34.055  1.00  0.00     0.031 A 
ATOM     51  C   UNL A   1      42.963  34.286  32.669  1.00  0.00     0.074 A 
ATOM     52  C   UNL A   1      42.788  32.443  34.307  1.00  0.00     0.049 A 
ATOM     53  N   UNL A   1      43.193  33.621  31.564  1.00  0.00    -0.248 NA
ATOM     54  C   UNL A   1      42.964  35.747  32.496  1.00  0.00     0.031 C 
ATOM     55  C   UNL A   1      42.594  31.822  35.619  1.00  0.00     0.029 A 
ATOM     56  N   UNL A   1      43.074  31.388  33.479  1.00  0.00    -0.354 N 
ATOM     57  C   UNL A   1      43.349  34.576  30.568  1.00  0.00     0.074 A 
ATOM     58  C   UNL A   1      43.153  35.868  31.189  1.00  0.00     0.031 C 
ATOM     59  C   UNL A   1      42.802  30.503  35.515  1.00  0.00     0.029 A 
ATOM     60  C   UNL A   1      43.059  30.174  34.119  1.00  0.00     0.049 A 
ATOM     61  H   UNL A   1      43.269  31.491  32.520  1.00  0.00     0.167 HD
ATOM     62  C   UNL A   1      43.642  34.388  29.259  1.00  0.00     0.037 A 
ATOM     63  C   UNL A   1      43.202  28.928  33.631  1.00  0.00     0.037 A 
ATOM     64  C   UNL A   1      43.846  33.095  28.654  1.00  0.00     0.049 A 
ATOM     65  C   UNL A   1      43.440  28.746  32.159  1.00  0.00     0.074 A 
ATOM     66  C   UNL A   1      44.153  32.800  27.336  1.00  0.00     0.029 A 
ATOM     67  N   UNL A   1      43.767  31.883  29.324  1.00  0.00    -0.354 N 
ATOM     68  N   UNL A   1      43.578  29.653  31.224  1.00  0.00    -0.248 NA
ATOM     69  C   UNL A   1      43.539  27.363  31.675  1.00  0.00     0.031 C 
ATOM     70  C   UNL A   1      44.193  31.410  27.196  1.00  0.00     0.029 A 
ATOM     71  C   UNL A   1      43.988  30.837  28.441  1.00  0.00     0.049 A 
ATOM     72  H   UNL A   1      43.582  31.780  30.285  1.00  0.00     0.167 HD
ATOM     73  C   UNL A   1      43.807  28.957  30.047  1.00  0.00     0.074 A 
ATOM     74  C   UNL A   1      43.811  27.548  30.391  1.00  0.00     0.031 C 
ATOM     75  C   UNL A   1      43.994  29.439  28.794  1.00  0.00     0.037 A 
BRANCH  62  76
ATOM     76  C   UNL A   1      43.749  35.600  28.374  1.00  0.00     0.064 A 
ATOM     77  C   UNL A   1      42.614  36.224  27.834  1.00  0.00     0.173 A 
ATOM     78  C   UNL A   1      44.999  36.195  28.134  1.00  0.00     0.173 A 
ATOM     79  F   UNL A   1      41.398  35.691  28.020  1.00  0.00    -0.203 F 
ATOM     80  C   UNL A   1      42.727  37.389  27.078  1.00  0.00     0.198 A 
ATOM     81  C   UNL A   1      45.104  37.377  27.406  1.00  0.00     0.198 A 
ATOM     82  F   UNL A   1      46.117  35.644  28.629  1.00  0.00    -0.203 F 
ATOM     83  F   UNL A   1      41.633  37.947  26.543  1.00  0.00    -0.200 F 
ATOM     84  C   UNL A   1      43.970  37.972  26.876  1.00  0.00     0.200 A 
ATOM     85  F   UNL A   1      46.304  37.948  27.228  1.00  0.00    -0.200 F 
ATOM     86  F   UNL A   1      44.073  39.104  26.168  1.00  0.00    -0.200 F 
ENDBRANCH  62  76
BRANCH  63  87
ATOM     87  C   UNL A   1      43.120  27.766  34.554  1.00  0.00     0.064 A 
ATOM     88  C   UNL A   1      41.929  27.043  34.692  1.00  0.00     0.173 A 
ATOM     89  C   UNL A   1      44.235  27.337  35.291  1.00  0.00     0.173 A 
ATOM     90  F   UNL A   1      40.831  27.426  34.024  1.00  0.00    -0.203 F 
ATOM     91  C   UNL A   1      41.853  25.939  35.539  1.00  0.00     0.198 A 
ATOM     92  C   UNL A   1      44.168  26.212  36.108  1.00  0.00     0.198 A 
ATOM     93  F   UNL A   1      45.402  27.992  35.190  1.00  0.00    -0.203 F 
ATOM     94  F   UNL A   1      40.691  25.287  35.682  1.00  0.00    -0.200 F 
ATOM     95  C   UNL A   1      42.975  25.518  36.236  1.00  0.00     0.200 A 
ATOM     96  F   UNL A   1      45.261  25.796  36.762  1.00  0.00    -0.200 F 
ATOM     97  F   UNL A   1      42.906  24.445  37.035  1.00  0.00    -0.200 F 
ENDBRANCH  63  87
BRANCH  75  98
ATOM     98  C   UNL A   1      44.250  28.442  27.699  1.00  0.00     0.064 A 
ATOM     99  C   UNL A   1      43.255  28.085  26.777  1.00  0.00     0.173 A 
ATOM    100  C   UNL A   1      45.523  27.870  27.543  1.00  0.00     0.173 A 
ATOM    101  F   UNL A   1      42.018  28.592  26.888  1.00  0.00    -0.203 F 
ATOM    102  C   UNL A   1      43.516  27.173  25.758  1.00  0.00     0.198 A 
ATOM    103  C   UNL A   1      45.792  26.990  26.499  1.00  0.00     0.198 A 
ATOM    104  F   UNL A   1      46.516  28.183  28.389  1.00  0.00    -0.203 F 
ATOM    105  F   UNL A   1      42.535  26.805  24.923  1.00  0.00    -0.200 F 
ATOM    106  C   UNL A   1      44.786  26.634  25.614  1.00  0.00     0.200 A 
ATOM    107  F   UNL A   1      47.025  26.486  26.349  1.00  0.00    -0.200 F 
ATOM    108  F   UNL A   1      45.039  25.766  24.625  1.00  0.00    -0.200 F 
ENDBRANCH  75  98
ENDBRANCH  49  50
ENDBRANCH  41  44
ENDBRANCH  39  40
ENDBRANCH  38  39
ENDBRANCH  37  38
ENDBRANCH  36  37
ENDBRANCH   1  36
TORSDOF 18
ENDMDL
