MODEL 1
REMARK VINA RESULT:     -11.7      0.000      0.000
REMARK SMILES O=C(NCCCCCCNC(=O)c1cc(Cl)cc(S(=O)(=O)N[C@@H]2CONC2=O)c1F)c1ccc(-c2c3nc(c(-c4c(F)c(F)c(F)c(F)c4F)c4ccc([nH]4)c(-c4c(F)c(F)c(F)c(F)c4F)c4nc(c(-c5c(F)c(F)c(F)c(F)c5F)c5ccc2[nH]5)C=C4)C=C3)cc1
REMARK SMILES IDX 7 1 6 2 5 3 4 4 3 5 1 6 2 7 31 9 32 10 93 11 33 12 92 13
REMARK SMILES IDX 34 14 35 15 36 16 86 17 37 18 91 19 85 20 87 21 38 22 90 23
REMARK SMILES IDX 84 24 83 25 39 27 71 28 51 29 70 30 52 31 55 32 69 33 88 34
REMARK SMILES IDX 53 35 54 36 68 38 89 39 56 40 40 41 41 42 49 43 42 44 43 45
REMARK SMILES IDX 47 46 50 47 44 48 45 49 48 50 46 51 72 52 73 53 81 54 74 55
REMARK SMILES IDX 75 56 79 57 82 58 76 59 77 60 80 61 78 62 57 63 58 64 66 65
REMARK SMILES IDX 59 66 60 67 64 68 67 69 61 70 62 71 65 72 63 73 8 74 9 75
REMARK SMILES IDX 10 76 11 77 12 79 13 80 14 81 29 82 15 83 18 84 30 85 16 86
REMARK SMILES IDX 17 87 19 88 20 89 21 90 22 91 23 93 24 94 27 95 25 96 26 97
REMARK SMILES IDX 28 98
REMARK H PARENT 3 8 87 26 55 37 10 78 22 92 26 99
REMARK Flexibility Score: inf
ROOT
ATOM      1  C   UNL A   1      45.333  24.327  33.171  1.00  0.00     0.002 C 
ENDROOT
BRANCH   1   2
ATOM      2  C   UNL A   1      45.460  23.281  34.283  1.00  0.00     0.002 C 
BRANCH   2   3
ATOM      3  C   UNL A   1      46.756  23.314  35.094  1.00  0.00     0.021 C 
BRANCH   3   4
ATOM      4  C   UNL A   1      47.616  24.558  34.912  1.00  0.00     0.116 C 
BRANCH   4   5
ATOM      5  N   UNL A   1      47.863  25.269  36.154  1.00  0.00    -0.352 N 
ATOM      6  O   UNL A   1      47.660  26.934  37.664  1.00  0.00    -0.269 OA
ATOM      7  C   UNL A   1      47.247  26.396  36.642  1.00  0.00     0.251 C 
ATOM      8  H   UNL A   1      48.572  24.893  36.725  1.00  0.00     0.163 HD
BRANCH   7   9
ATOM      9  C   UNL A   1      46.097  26.981  35.917  1.00  0.00     0.039 A 
ATOM     10  C   UNL A   1      44.810  26.456  36.064  1.00  0.00     0.014 A 
ATOM     11  C   UNL A   1      46.312  28.086  35.088  1.00  0.00     0.014 A 
ATOM     12  C   UNL A   1      43.765  26.958  35.295  1.00  0.00     0.010 A 
ATOM     13  C   UNL A   1      45.246  28.638  34.373  1.00  0.00     0.010 A 
ATOM     14  C   UNL A   1      43.967  28.065  34.454  1.00  0.00    -0.014 A 
BRANCH  14  15
ATOM     15  C   UNL A   1      42.811  28.657  33.738  1.00  0.00     0.031 A 
ATOM     16  C   UNL A   1      41.872  29.610  34.422  1.00  0.00     0.074 A 
ATOM     17  C   UNL A   1      42.621  28.331  32.445  1.00  0.00     0.049 A 
ATOM     18  N   UNL A   1      40.818  30.217  33.938  1.00  0.00    -0.248 NA
ATOM     19  C   UNL A   1      42.145  29.920  35.834  1.00  0.00     0.031 C 
ATOM     20  C   UNL A   1      43.458  27.399  31.684  1.00  0.00     0.029 A 
ATOM     21  N   UNL A   1      41.679  28.746  31.539  1.00  0.00    -0.354 N 
ATOM     22  C   UNL A   1      40.292  30.964  34.983  1.00  0.00     0.074 A 
ATOM     23  C   UNL A   1      41.131  30.721  36.138  1.00  0.00     0.031 C 
ATOM     24  C   UNL A   1      43.015  27.342  30.420  1.00  0.00     0.029 A 
ATOM     25  C   UNL A   1      41.832  28.186  30.295  1.00  0.00     0.049 A 
ATOM     26  H   UNL A   1      40.962  29.384  31.761  1.00  0.00     0.167 HD
ATOM     27  C   UNL A   1      39.212  31.782  34.974  1.00  0.00     0.037 A 
ATOM     28  C   UNL A   1      41.091  28.321  29.181  1.00  0.00     0.037 A 
ATOM     29  C   UNL A   1      38.393  32.036  33.815  1.00  0.00     0.049 A 
ATOM     30  C   UNL A   1      39.893  29.226  29.207  1.00  0.00     0.074 A 
ATOM     31  C   UNL A   1      37.306  32.885  33.696  1.00  0.00     0.029 A 
ATOM     32  N   UNL A   1      38.569  31.438  32.576  1.00  0.00    -0.354 N 
ATOM     33  N   UNL A   1      39.434  29.960  30.190  1.00  0.00    -0.248 NA
ATOM     34  C   UNL A   1      39.109  29.320  27.969  1.00  0.00     0.031 C 
ATOM     35  C   UNL A   1      36.798  32.768  32.399  1.00  0.00     0.029 A 
ATOM     36  C   UNL A   1      37.597  31.883  31.694  1.00  0.00     0.049 A 
ATOM     37  H   UNL A   1      39.280  30.793  32.355  1.00  0.00     0.167 HD
ATOM     38  C   UNL A   1      38.318  30.613  29.689  1.00  0.00     0.074 A 
ATOM     39  C   UNL A   1      38.184  30.206  28.306  1.00  0.00     0.031 C 
ATOM     40  C   UNL A   1      37.478  31.468  30.320  1.00  0.00     0.037 A 
BRANCH  27  41
ATOM     41  C   UNL A   1      38.835  32.465  36.256  1.00  0.00     0.064 A 
ATOM     42  C   UNL A   1      38.094  31.809  37.249  1.00  0.00     0.173 A 
ATOM     43  C   UNL A   1      39.286  33.766  36.526  1.00  0.00     0.173 A 
ATOM     44  F   UNL A   1      37.631  30.568  37.037  1.00  0.00    -0.203 F 
ATOM     45  C   UNL A   1      37.812  32.433  38.462  1.00  0.00     0.198 A 
ATOM     46  C   UNL A   1      39.022  34.378  37.748  1.00  0.00     0.198 A 
ATOM     47  F   UNL A   1      40.005  34.435  35.612  1.00  0.00    -0.203 F 
ATOM     48  F   UNL A   1      37.080  31.797  39.387  1.00  0.00    -0.200 F 
ATOM     49  C   UNL A   1      38.282  33.713  38.714  1.00  0.00     0.200 A 
ATOM     50  F   UNL A   1      39.489  35.611  37.995  1.00  0.00    -0.200 F 
ATOM     51  F   UNL A   1      38.022  34.306  39.887  1.00  0.00    -0.200 F 
ENDBRANCH  27  41
BRANCH  28  52
ATOM     52  C   UNL A   1      41.462  27.574  27.952  1.00  0.00     0.064 A 
ATOM     53  C   UNL A   1      40.848  26.355  27.633  1.00  0.00     0.173 A 
ATOM     54  C   UNL A   1      42.435  28.066  27.069  1.00  0.00     0.173 A 
ATOM     55  F   UNL A   1      39.926  25.836  28.457  1.00  0.00    -0.203 F 
ATOM     56  C   UNL A   1      41.206  25.649  26.488  1.00  0.00     0.198 A 
ATOM     57  C   UNL A   1      42.770  27.374  25.909  1.00  0.00     0.198 A 
ATOM     58  F   UNL A   1      43.048  29.230  27.327  1.00  0.00    -0.203 F 
ATOM     59  F   UNL A   1      40.634  24.465  26.229  1.00  0.00    -0.200 F 
ATOM     60  C   UNL A   1      42.161  26.162  25.623  1.00  0.00     0.200 A 
ATOM     61  F   UNL A   1      43.681  27.881  25.068  1.00  0.00    -0.200 F 
ATOM     62  F   UNL A   1      42.500  25.484  24.518  1.00  0.00    -0.200 F 
ENDBRANCH  28  52
BRANCH  40  63
ATOM     63  C   UNL A   1      36.353  32.037  29.508  1.00  0.00     0.064 A 
ATOM     64  C   UNL A   1      35.289  31.236  29.069  1.00  0.00     0.173 A 
ATOM     65  C   UNL A   1      36.328  33.402  29.185  1.00  0.00     0.173 A 
ATOM     66  F   UNL A   1      35.277  29.922  29.338  1.00  0.00    -0.203 F 
ATOM     67  C   UNL A   1      34.253  31.777  28.312  1.00  0.00     0.198 A 
ATOM     68  C   UNL A   1      35.278  33.944  28.452  1.00  0.00     0.198 A 
ATOM     69  F   UNL A   1      37.322  34.209  29.586  1.00  0.00    -0.203 F 
ATOM     70  F   UNL A   1      33.271  30.984  27.862  1.00  0.00    -0.200 F 
ATOM     71  C   UNL A   1      34.245  33.131  28.010  1.00  0.00     0.200 A 
ATOM     72  F   UNL A   1      35.266  35.254  28.169  1.00  0.00    -0.200 F 
ATOM     73  F   UNL A   1      33.246  33.650  27.284  1.00  0.00    -0.200 F 
ENDBRANCH  40  63
ENDBRANCH  14  15
ENDBRANCH   7   9
ENDBRANCH   4   5
ENDBRANCH   3   4
ENDBRANCH   2   3
ENDBRANCH   1   2
BRANCH   1  74
ATOM     74  C   UNL A   1      44.139  24.170  32.224  1.00  0.00     0.021 C 
BRANCH  74  75
ATOM     75  C   UNL A   1      44.348  23.207  31.063  1.00  0.00     0.116 C 
BRANCH  75  76
ATOM     76  N   UNL A   1      43.119  22.931  30.342  1.00  0.00    -0.352 N 
ATOM     77  C   UNL A   1      42.812  23.149  29.024  1.00  0.00     0.254 C 
ATOM     78  H   UNL A   1      42.398  22.528  30.879  1.00  0.00     0.163 HD
ATOM     79  O   UNL A   1      41.676  22.928  28.614  1.00  0.00    -0.269 OA
BRANCH  77  80
ATOM     80  C   UNL A   1      43.817  23.661  28.073  1.00  0.00     0.078 A 
ATOM     81  C   UNL A   1      44.385  24.918  28.308  1.00  0.00     0.037 A 
ATOM     82  C   UNL A   1      44.127  22.966  26.905  1.00  0.00     0.156 A 
ATOM     83  C   UNL A   1      45.286  25.448  27.385  1.00  0.00     0.043 A 
ATOM     84  C   UNL A   1      45.013  23.503  25.983  1.00  0.00     0.120 A 
ATOM     85  F   UNL A   1      43.549  21.784  26.682  1.00  0.00    -0.205 F 
ATOM     86  Cl  UNL A   1      46.008  26.978  27.685  1.00  0.00    -0.084 Cl
ATOM     87  C   UNL A   1      45.604  24.750  26.220  1.00  0.00     0.045 A 
BRANCH  84  88
ATOM     88  S   UNL A   1      45.418  22.661  24.488  1.00  0.00     0.244 S 
ATOM     89  O   UNL A   1      44.176  22.379  23.805  1.00  0.00    -0.207 OA
ATOM     90  O   UNL A   1      46.472  23.437  23.876  1.00  0.00    -0.207 OA
BRANCH  88  91
ATOM     91  N   UNL A   1      46.094  21.209  24.890  1.00  0.00    -0.196 NA
ATOM     92  H   UNL A   1      46.101  21.195  25.910  1.00  0.00     0.142 HD
BRANCH  91  93
ATOM     93  C   UNL A   1      45.619  19.873  24.494  1.00  0.00     0.189 C 
ATOM     94  C   UNL A   1      44.168  19.508  24.768  1.00  0.00     0.224 C 
ATOM     95  C   UNL A   1      46.355  18.848  25.319  1.00  0.00     0.264 C 
ATOM     96  O   UNL A   1      44.133  18.213  25.390  1.00  0.00    -0.271 OA
ATOM     97  N   UNL A   1      45.454  17.941  25.793  1.00  0.00    -0.233 N 
ATOM     98  O   UNL A   1      47.556  18.845  25.551  1.00  0.00    -0.271 OA
ATOM     99  H   UNL A   1      45.701  17.174  26.360  1.00  0.00     0.199 HD
ENDBRANCH  91  93
ENDBRANCH  88  91
ENDBRANCH  84  88
ENDBRANCH  77  80
ENDBRANCH  75  76
ENDBRANCH  74  75
ENDBRANCH   1  74
TORSDOF 16
ENDMDL
MODEL 2
REMARK VINA RESULT:     -11.5      3.190      8.424
REMARK SMILES O=C(NCCCCCCNC(=O)c1cc(Cl)cc(S(=O)(=O)N[C@@H]2CONC2=O)c1F)c1ccc(-c2c3nc(c(-c4c(F)c(F)c(F)c(F)c4F)c4ccc([nH]4)c(-c4c(F)c(F)c(F)c(F)c4F)c4nc(c(-c5c(F)c(F)c(F)c(F)c5F)c5ccc2[nH]5)C=C4)C=C3)cc1
REMARK SMILES IDX 7 1 6 2 5 3 4 4 3 5 1 6 2 7 31 9 32 10 93 11 33 12 92 13
REMARK SMILES IDX 34 14 35 15 36 16 86 17 37 18 91 19 85 20 87 21 38 22 90 23
REMARK SMILES IDX 84 24 83 25 39 27 71 28 51 29 70 30 52 31 55 32 69 33 88 34
REMARK SMILES IDX 53 35 54 36 68 38 89 39 56 40 40 41 41 42 49 43 42 44 43 45
REMARK SMILES IDX 47 46 50 47 44 48 45 49 48 50 46 51 72 52 73 53 81 54 74 55
REMARK SMILES IDX 75 56 79 57 82 58 76 59 77 60 80 61 78 62 57 63 58 64 66 65
REMARK SMILES IDX 59 66 60 67 64 68 67 69 61 70 62 71 65 72 63 73 8 74 9 75
REMARK SMILES IDX 10 76 11 77 12 79 13 80 14 81 29 82 15 83 18 84 30 85 16 86
REMARK SMILES IDX 17 87 19 88 20 89 21 90 22 91 23 93 24 94 27 95 25 96 26 97
REMARK SMILES IDX 28 98
REMARK H PARENT 3 8 87 26 55 37 10 78 22 92 26 99
REMARK Flexibility Score: inf
ROOT
ATOM      1  C   UNL A   1      42.938  22.864  29.326  1.00  0.00     0.002 C 
ENDROOT
BRANCH   1   2
ATOM      2  C   UNL A   1      42.384  23.586  28.094  1.00  0.00     0.002 C 
BRANCH   2   3
ATOM      3  C   UNL A   1      41.768  22.698  27.012  1.00  0.00     0.021 C 
BRANCH   3   4
ATOM      4  C   UNL A   1      40.393  22.127  27.332  1.00  0.00     0.116 C 
BRANCH   4   5
ATOM      5  N   UNL A   1      39.373  22.521  26.376  1.00  0.00    -0.352 N 
ATOM      6  O   UNL A   1      37.814  23.861  25.444  1.00  0.00    -0.269 OA
ATOM      7  C   UNL A   1      38.739  23.733  26.240  1.00  0.00     0.251 C 
ATOM      8  H   UNL A   1      39.097  21.824  25.738  1.00  0.00     0.163 HD
BRANCH   7   9
ATOM      9  C   UNL A   1      39.154  24.881  27.075  1.00  0.00     0.039 A 
ATOM     10  C   UNL A   1      38.795  24.958  28.424  1.00  0.00     0.014 A 
ATOM     11  C   UNL A   1      39.933  25.889  26.499  1.00  0.00     0.014 A 
ATOM     12  C   UNL A   1      39.112  26.095  29.160  1.00  0.00     0.010 A 
ATOM     13  C   UNL A   1      40.315  26.996  27.261  1.00  0.00     0.010 A 
ATOM     14  C   UNL A   1      39.889  27.119  28.593  1.00  0.00    -0.014 A 
BRANCH  14  15
ATOM     15  C   UNL A   1      40.315  28.263  29.436  1.00  0.00     0.031 A 
ATOM     16  C   UNL A   1      41.695  28.328  30.026  1.00  0.00     0.074 A 
ATOM     17  C   UNL A   1      39.436  29.259  29.656  1.00  0.00     0.049 A 
ATOM     18  N   UNL A   1      42.225  29.258  30.780  1.00  0.00    -0.248 NA
ATOM     19  C   UNL A   1      42.599  27.203  29.739  1.00  0.00     0.031 C 
ATOM     20  C   UNL A   1      38.061  29.293  29.150  1.00  0.00     0.029 A 
ATOM     21  N   UNL A   1      39.563  30.437  30.349  1.00  0.00    -0.354 N 
ATOM     22  C   UNL A   1      43.512  28.827  31.074  1.00  0.00     0.074 A 
ATOM     23  C   UNL A   1      43.680  27.540  30.432  1.00  0.00     0.031 C 
ATOM     24  C   UNL A   1      37.485  30.446  29.518  1.00  0.00     0.029 A 
ATOM     25  C   UNL A   1      38.427  31.207  30.330  1.00  0.00     0.049 A 
ATOM     26  H   UNL A   1      40.389  30.702  30.814  1.00  0.00     0.167 HD
ATOM     27  C   UNL A   1      44.464  29.454  31.805  1.00  0.00     0.037 A 
ATOM     28  C   UNL A   1      38.164  32.388  30.919  1.00  0.00     0.037 A 
ATOM     29  C   UNL A   1      44.296  30.746  32.423  1.00  0.00     0.049 A 
ATOM     30  C   UNL A   1      39.238  33.051  31.733  1.00  0.00     0.074 A 
ATOM     31  C   UNL A   1      45.220  31.484  33.145  1.00  0.00     0.029 A 
ATOM     32  N   UNL A   1      43.125  31.489  32.397  1.00  0.00    -0.354 N 
ATOM     33  N   UNL A   1      40.464  32.653  31.964  1.00  0.00    -0.248 NA
ATOM     34  C   UNL A   1      38.889  34.328  32.369  1.00  0.00     0.031 C 
ATOM     35  C   UNL A   1      44.595  32.652  33.591  1.00  0.00     0.029 A 
ATOM     36  C   UNL A   1      43.296  32.667  33.108  1.00  0.00     0.049 A 
ATOM     37  H   UNL A   1      42.295  31.221  31.940  1.00  0.00     0.167 HD
ATOM     38  C   UNL A   1      41.039  33.632  32.760  1.00  0.00     0.074 A 
ATOM     39  C   UNL A   1      40.034  34.657  32.951  1.00  0.00     0.031 C 
ATOM     40  C   UNL A   1      42.285  33.676  33.289  1.00  0.00     0.037 A 
BRANCH  27  41
ATOM     41  C   UNL A   1      45.780  28.759  31.993  1.00  0.00     0.064 A 
ATOM     42  C   UNL A   1      46.019  27.921  33.092  1.00  0.00     0.173 A 
ATOM     43  C   UNL A   1      46.787  28.870  31.022  1.00  0.00     0.173 A 
ATOM     44  F   UNL A   1      45.092  27.787  34.053  1.00  0.00    -0.203 F 
ATOM     45  C   UNL A   1      47.220  27.227  33.216  1.00  0.00     0.198 A 
ATOM     46  C   UNL A   1      47.977  28.158  31.137  1.00  0.00     0.198 A 
ATOM     47  F   UNL A   1      46.606  29.653  29.948  1.00  0.00    -0.203 F 
ATOM     48  F   UNL A   1      47.438  26.452  34.287  1.00  0.00    -0.200 F 
ATOM     49  C   UNL A   1      48.195  27.339  32.235  1.00  0.00     0.200 A 
ATOM     50  F   UNL A   1      48.913  28.257  30.182  1.00  0.00    -0.200 F 
ATOM     51  F   UNL A   1      49.344  26.660  32.349  1.00  0.00    -0.200 F 
ENDBRANCH  27  41
BRANCH  28  52
ATOM     52  C   UNL A   1      36.825  33.010  30.762  1.00  0.00     0.064 A 
ATOM     53  C   UNL A   1      36.480  33.700  29.592  1.00  0.00     0.173 A 
ATOM     54  C   UNL A   1      35.861  32.924  31.777  1.00  0.00     0.173 A 
ATOM     55  F   UNL A   1      37.376  33.825  28.601  1.00  0.00    -0.203 F 
ATOM     56  C   UNL A   1      35.229  34.295  29.451  1.00  0.00     0.198 A 
ATOM     57  C   UNL A   1      34.600  33.493  31.623  1.00  0.00     0.198 A 
ATOM     58  F   UNL A   1      36.140  32.270  32.915  1.00  0.00    -0.203 F 
ATOM     59  F   UNL A   1      34.941  34.986  28.339  1.00  0.00    -0.200 F 
ATOM     60  C   UNL A   1      34.288  34.185  30.464  1.00  0.00     0.200 A 
ATOM     61  F   UNL A   1      33.688  33.370  32.597  1.00  0.00    -0.200 F 
ATOM     62  F   UNL A   1      33.082  34.753  30.324  1.00  0.00    -0.200 F 
ENDBRANCH  28  52
BRANCH  40  63
ATOM     63  C   UNL A   1      42.635  34.885  34.104  1.00  0.00     0.064 A 
ATOM     64  C   UNL A   1      42.520  34.883  35.502  1.00  0.00     0.173 A 
ATOM     65  C   UNL A   1      43.112  36.049  33.483  1.00  0.00     0.173 A 
ATOM     66  F   UNL A   1      42.052  33.799  36.139  1.00  0.00    -0.203 F 
ATOM     67  C   UNL A   1      42.845  36.013  36.246  1.00  0.00     0.198 A 
ATOM     68  C   UNL A   1      43.461  37.167  34.233  1.00  0.00     0.198 A 
ATOM     69  F   UNL A   1      43.243  36.098  32.149  1.00  0.00    -0.203 F 
ATOM     70  F   UNL A   1      42.680  36.006  37.577  1.00  0.00    -0.200 F 
ATOM     71  C   UNL A   1      43.320  37.152  35.613  1.00  0.00     0.200 A 
ATOM     72  F   UNL A   1      43.930  38.263  33.620  1.00  0.00    -0.200 F 
ATOM     73  F   UNL A   1      43.634  38.238  36.332  1.00  0.00    -0.200 F 
ENDBRANCH  40  63
ENDBRANCH  14  15
ENDBRANCH   7   9
ENDBRANCH   4   5
ENDBRANCH   3   4
ENDBRANCH   2   3
ENDBRANCH   1   2
BRANCH   1  74
ATOM     74  C   UNL A   1      44.415  23.111  29.650  1.00  0.00     0.021 C 
BRANCH  74  75
ATOM     75  C   UNL A   1      44.731  24.468  30.266  1.00  0.00     0.116 C 
BRANCH  75  76
ATOM     76  N   UNL A   1      46.077  24.917  29.959  1.00  0.00    -0.352 N 
ATOM     77  C   UNL A   1      46.624  25.272  28.754  1.00  0.00     0.254 C 
ATOM     78  H   UNL A   1      46.686  24.975  30.730  1.00  0.00     0.163 HD
ATOM     79  O   UNL A   1      47.819  25.545  28.680  1.00  0.00    -0.269 OA
BRANCH  77  80
ATOM     80  C   UNL A   1      45.812  25.324  27.523  1.00  0.00     0.078 A 
ATOM     81  C   UNL A   1      45.049  26.468  27.270  1.00  0.00     0.037 A 
ATOM     82  C   UNL A   1      45.717  24.223  26.673  1.00  0.00     0.156 A 
ATOM     83  C   UNL A   1      44.223  26.509  26.147  1.00  0.00     0.043 A 
ATOM     84  C   UNL A   1      44.884  24.262  25.565  1.00  0.00     0.120 A 
ATOM     85  F   UNL A   1      46.428  23.128  26.950  1.00  0.00    -0.205 F 
ATOM     86  Cl  UNL A   1      43.305  27.923  25.817  1.00  0.00    -0.084 Cl
ATOM     87  C   UNL A   1      44.133  25.411  25.291  1.00  0.00     0.045 A 
BRANCH  84  88
ATOM     88  S   UNL A   1      44.726  22.884  24.476  1.00  0.00     0.244 S 
ATOM     89  O   UNL A   1      43.405  22.949  23.893  1.00  0.00    -0.207 OA
ATOM     90  O   UNL A   1      45.923  22.888  23.667  1.00  0.00    -0.207 OA
BRANCH  88  91
ATOM     91  N   UNL A   1      44.792  21.508  25.385  1.00  0.00    -0.196 NA
ATOM     92  H   UNL A   1      44.073  21.629  26.099  1.00  0.00     0.142 HD
BRANCH  91  93
ATOM     93  C   UNL A   1      44.625  20.125  24.908  1.00  0.00     0.189 C 
ATOM     94  C   UNL A   1      43.623  19.228  25.619  1.00  0.00     0.224 C 
ATOM     95  C   UNL A   1      45.918  19.387  25.141  1.00  0.00     0.264 C 
ATOM     96  O   UNL A   1      44.257  17.970  25.899  1.00  0.00    -0.271 OA
ATOM     97  N   UNL A   1      45.635  18.177  25.702  1.00  0.00    -0.233 N 
ATOM     98  O   UNL A   1      47.039  19.813  24.895  1.00  0.00    -0.271 OA
ATOM     99  H   UNL A   1      46.324  17.516  25.945  1.00  0.00     0.199 HD
ENDBRANCH  91  93
ENDBRANCH  88  91
ENDBRANCH  84  88
ENDBRANCH  77  80
ENDBRANCH  75  76
ENDBRANCH  74  75
ENDBRANCH   1  74
TORSDOF 16
ENDMDL
MODEL 3
REMARK VINA RESULT:     -11.5      3.952      8.622
REMARK SMILES O=C(NCCCCCCNC(=O)c1cc(Cl)cc(S(=O)(=O)N[C@@H]2CONC2=O)c1F)c1ccc(-c2c3nc(c(-c4c(F)c(F)c(F)c(F)c4F)c4ccc([nH]4)c(-c4c(F)c(F)c(F)c(F)c4F)c4nc(c(-c5c(F)c(F)c(F)c(F)c5F)c5ccc2[nH]5)C=C4)C=C3)cc1
REMARK SMILES IDX 7 1 6 2 5 3 4 4 3 5 1 6 2 7 31 9 32 10 93 11 33 12 92 13
REMARK SMILES IDX 34 14 35 15 36 16 86 17 37 18 91 19 85 20 87 21 38 22 90 23
REMARK SMILES IDX 84 24 83 25 39 27 71 28 51 29 70 30 52 31 55 32 69 33 88 34
REMARK SMILES IDX 53 35 54 36 68 38 89 39 56 40 40 41 41 42 49 43 42 44 43 45
REMARK SMILES IDX 47 46 50 47 44 48 45 49 48 50 46 51 72 52 73 53 81 54 74 55
REMARK SMILES IDX 75 56 79 57 82 58 76 59 77 60 80 61 78 62 57 63 58 64 66 65
REMARK SMILES IDX 59 66 60 67 64 68 67 69 61 70 62 71 65 72 63 73 8 74 9 75
REMARK SMILES IDX 10 76 11 77 12 79 13 80 14 81 29 82 15 83 18 84 30 85 16 86
REMARK SMILES IDX 17 87 19 88 20 89 21 90 22 91 23 93 24 94 27 95 25 96 26 97
REMARK SMILES IDX 28 98
REMARK H PARENT 3 8 87 26 55 37 10 78 22 92 26 99
REMARK Flexibility Score: inf
ROOT
ATOM      1  C   UNL A   1      34.174  25.350  25.631  1.00  0.00     0.002 C 
ENDROOT
BRANCH   1   2
ATOM      2  C   UNL A   1      33.469  26.616  26.126  1.00  0.00     0.002 C 
BRANCH   2   3
ATOM      3  C   UNL A   1      33.202  27.693  25.073  1.00  0.00     0.021 C 
BRANCH   3   4
ATOM      4  C   UNL A   1      34.008  28.976  25.223  1.00  0.00     0.116 C 
BRANCH   4   5
ATOM      5  N   UNL A   1      33.235  30.078  25.768  1.00  0.00    -0.352 N 
ATOM      6  O   UNL A   1      32.661  31.666  27.265  1.00  0.00    -0.269 OA
ATOM      7  C   UNL A   1      33.484  30.841  26.883  1.00  0.00     0.251 C 
ATOM      8  H   UNL A   1      32.418  30.310  25.269  1.00  0.00     0.163 HD
BRANCH   7   9
ATOM      9  C   UNL A   1      34.740  30.649  27.643  1.00  0.00     0.039 A 
ATOM     10  C   UNL A   1      35.012  29.440  28.289  1.00  0.00     0.014 A 
ATOM     11  C   UNL A   1      35.667  31.695  27.691  1.00  0.00     0.014 A 
ATOM     12  C   UNL A   1      36.151  29.320  29.080  1.00  0.00     0.010 A 
ATOM     13  C   UNL A   1      36.847  31.546  28.425  1.00  0.00     0.010 A 
ATOM     14  C   UNL A   1      37.089  30.364  29.143  1.00  0.00    -0.014 A 
BRANCH  14  15
ATOM     15  C   UNL A   1      38.352  30.165  29.895  1.00  0.00     0.031 A 
ATOM     16  C   UNL A   1      38.534  30.723  31.278  1.00  0.00     0.074 A 
ATOM     17  C   UNL A   1      39.339  29.456  29.315  1.00  0.00     0.049 A 
ATOM     18  N   UNL A   1      39.573  30.635  32.071  1.00  0.00    -0.248 NA
ATOM     19  C   UNL A   1      37.410  31.485  31.845  1.00  0.00     0.031 C 
ATOM     20  C   UNL A   1      39.281  28.883  27.968  1.00  0.00     0.029 A 
ATOM     21  N   UNL A   1      40.576  29.086  29.779  1.00  0.00    -0.354 N 
ATOM     22  C   UNL A   1      39.239  31.341  33.219  1.00  0.00     0.074 A 
ATOM     23  C   UNL A   1      37.906  31.870  33.015  1.00  0.00     0.031 C 
ATOM     24  C   UNL A   1      40.412  28.205  27.728  1.00  0.00     0.029 A 
ATOM     25  C   UNL A   1      41.297  28.342  28.879  1.00  0.00     0.049 A 
ATOM     26  H   UNL A   1      40.913  29.331  30.671  1.00  0.00     0.167 HD
ATOM     27  C   UNL A   1      39.976  31.522  34.341  1.00  0.00     0.037 A 
ATOM     28  C   UNL A   1      42.543  27.841  28.961  1.00  0.00     0.037 A 
ATOM     29  C   UNL A   1      41.294  30.975  34.545  1.00  0.00     0.049 A 
ATOM     30  C   UNL A   1      43.339  28.069  30.214  1.00  0.00     0.074 A 
ATOM     31  C   UNL A   1      42.102  31.064  35.667  1.00  0.00     0.029 A 
ATOM     32  N   UNL A   1      42.000  30.240  33.604  1.00  0.00    -0.354 N 
ATOM     33  N   UNL A   1      42.993  28.700  31.309  1.00  0.00    -0.248 NA
ATOM     34  C   UNL A   1      44.700  27.517  30.241  1.00  0.00     0.031 C 
ATOM     35  C   UNL A   1      43.312  30.421  35.389  1.00  0.00     0.029 A 
ATOM     36  C   UNL A   1      43.242  29.889  34.112  1.00  0.00     0.049 A 
ATOM     37  H   UNL A   1      41.668  30.001  32.708  1.00  0.00     0.167 HD
ATOM     38  C   UNL A   1      44.084  28.611  32.161  1.00  0.00     0.074 A 
ATOM     39  C   UNL A   1      45.095  27.843  31.464  1.00  0.00     0.031 C 
ATOM     40  C   UNL A   1      44.236  29.124  33.405  1.00  0.00     0.037 A 
BRANCH  27  41
ATOM     41  C   UNL A   1      39.390  32.353  35.443  1.00  0.00     0.064 A 
ATOM     42  C   UNL A   1      38.587  31.788  36.444  1.00  0.00     0.173 A 
ATOM     43  C   UNL A   1      39.699  33.719  35.544  1.00  0.00     0.173 A 
ATOM     44  F   UNL A   1      38.255  30.489  36.390  1.00  0.00    -0.203 F 
ATOM     45  C   UNL A   1      38.108  32.560  37.500  1.00  0.00     0.198 A 
ATOM     46  C   UNL A   1      39.237  34.482  36.612  1.00  0.00     0.198 A 
ATOM     47  F   UNL A   1      40.469  34.307  34.616  1.00  0.00    -0.203 F 
ATOM     48  F   UNL A   1      37.322  32.005  38.432  1.00  0.00    -0.200 F 
ATOM     49  C   UNL A   1      38.440  33.904  37.588  1.00  0.00     0.200 A 
ATOM     50  F   UNL A   1      39.570  35.778  36.702  1.00  0.00    -0.200 F 
ATOM     51  F   UNL A   1      37.990  34.642  38.612  1.00  0.00    -0.200 F 
ENDBRANCH  27  41
BRANCH  28  52
ATOM     52  C   UNL A   1      43.111  27.080  27.820  1.00  0.00     0.064 A 
ATOM     53  C   UNL A   1      42.951  25.692  27.724  1.00  0.00     0.173 A 
ATOM     54  C   UNL A   1      43.822  27.727  26.798  1.00  0.00     0.173 A 
ATOM     55  F   UNL A   1      42.295  25.027  28.687  1.00  0.00    -0.203 F 
ATOM     56  C   UNL A   1      43.495  24.977  26.660  1.00  0.00     0.198 A 
ATOM     57  C   UNL A   1      44.339  27.016  25.719  1.00  0.00     0.198 A 
ATOM     58  F   UNL A   1      43.998  29.056  26.840  1.00  0.00    -0.203 F 
ATOM     59  F   UNL A   1      43.364  23.644  26.615  1.00  0.00    -0.200 F 
ATOM     60  C   UNL A   1      44.183  25.641  25.655  1.00  0.00     0.200 A 
ATOM     61  F   UNL A   1      44.988  27.664  24.742  1.00  0.00    -0.200 F 
ATOM     62  F   UNL A   1      44.701  24.953  24.629  1.00  0.00    -0.200 F 
ENDBRANCH  28  52
BRANCH  40  63
ATOM     63  C   UNL A   1      45.536  28.848  34.099  1.00  0.00     0.064 A 
ATOM     64  C   UNL A   1      46.631  29.715  33.973  1.00  0.00     0.173 A 
ATOM     65  C   UNL A   1      45.680  27.717  34.917  1.00  0.00     0.173 A 
ATOM     66  F   UNL A   1      46.547  30.800  33.188  1.00  0.00    -0.203 F 
ATOM     67  C   UNL A   1      47.834  29.444  34.620  1.00  0.00     0.198 A 
ATOM     68  C   UNL A   1      46.875  27.465  35.583  1.00  0.00     0.198 A 
ATOM     69  F   UNL A   1      44.660  26.861  35.071  1.00  0.00    -0.203 F 
ATOM     70  F   UNL A   1      48.883  30.260  34.446  1.00  0.00    -0.200 F 
ATOM     71  C   UNL A   1      47.953  28.324  35.429  1.00  0.00     0.200 A 
ATOM     72  F   UNL A   1      46.986  26.387  36.372  1.00  0.00    -0.200 F 
ATOM     73  F   UNL A   1      49.111  28.067  36.052  1.00  0.00    -0.200 F 
ENDBRANCH  40  63
ENDBRANCH  14  15
ENDBRANCH   7   9
ENDBRANCH   4   5
ENDBRANCH   3   4
ENDBRANCH   2   3
ENDBRANCH   1   2
BRANCH   1  74
ATOM     74  C   UNL A   1      33.661  24.022  26.199  1.00  0.00     0.021 C 
BRANCH  74  75
ATOM     75  C   UNL A   1      34.540  22.809  25.920  1.00  0.00     0.116 C 
BRANCH  75  76
ATOM     76  N   UNL A   1      35.118  22.837  24.588  1.00  0.00    -0.352 N 
ATOM     77  C   UNL A   1      36.434  22.857  24.208  1.00  0.00     0.254 C 
ATOM     78  H   UNL A   1      34.467  22.842  23.848  1.00  0.00     0.163 HD
ATOM     79  O   UNL A   1      36.728  22.970  23.021  1.00  0.00    -0.269 OA
BRANCH  77  80
ATOM     80  C   UNL A   1      37.524  22.761  25.198  1.00  0.00     0.078 A 
ATOM     81  C   UNL A   1      37.829  23.885  25.972  1.00  0.00     0.037 A 
ATOM     82  C   UNL A   1      38.310  21.614  25.297  1.00  0.00     0.156 A 
ATOM     83  C   UNL A   1      38.899  23.834  26.864  1.00  0.00     0.043 A 
ATOM     84  C   UNL A   1      39.383  21.573  26.176  1.00  0.00     0.120 A 
ATOM     85  F   UNL A   1      38.024  20.563  24.525  1.00  0.00    -0.205 F 
ATOM     86  Cl  UNL A   1      39.260  25.203  27.838  1.00  0.00    -0.084 Cl
ATOM     87  C   UNL A   1      39.682  22.685  26.972  1.00  0.00     0.045 A 
BRANCH  84  88
ATOM     88  S   UNL A   1      40.409  20.146  26.319  1.00  0.00     0.244 S 
ATOM     89  O   UNL A   1      40.778  20.022  27.710  1.00  0.00    -0.207 OA
ATOM     90  O   UNL A   1      39.714  19.095  25.612  1.00  0.00    -0.207 OA
BRANCH  88  91
ATOM     91  N   UNL A   1      41.795  20.430  25.469  1.00  0.00    -0.196 NA
ATOM     92  H   UNL A   1      41.792  21.434  25.287  1.00  0.00     0.142 HD
BRANCH  91  93
ATOM     93  C   UNL A   1      43.171  20.124  25.895  1.00  0.00     0.189 C 
ATOM     94  C   UNL A   1      44.321  20.843  25.205  1.00  0.00     0.224 C 
ATOM     95  C   UNL A   1      43.461  18.684  25.556  1.00  0.00     0.264 C 
ATOM     96  O   UNL A   1      45.310  19.868  24.835  1.00  0.00    -0.271 OA
ATOM     97  N   UNL A   1      44.685  18.613  24.961  1.00  0.00    -0.233 N 
ATOM     98  O   UNL A   1      42.710  17.738  25.755  1.00  0.00    -0.271 OA
ATOM     99  H   UNL A   1      45.091  17.772  24.650  1.00  0.00     0.199 HD
ENDBRANCH  91  93
ENDBRANCH  88  91
ENDBRANCH  84  88
ENDBRANCH  77  80
ENDBRANCH  75  76
ENDBRANCH  74  75
ENDBRANCH   1  74
TORSDOF 16
ENDMDL
