MODEL 1
REMARK VINA RESULT:     -11.7      0.000      0.000
REMARK SMILES [NH3+][C@H]1C=C[C@@H](C(=O)N2CCC(CC(=O)NCCCCCCNC(=O)c3ccc(-c4c5nc(c(-c6c(F)c(F)c(F)c(F)c6F)c6ccc([nH]6)c(-c6c(F)c(F)c(F)c(F)c6F)c6nc(c(-c7c(F)c(F)c(F)c(F)c7F)c7ccc4[nH]7)C=C6)C=C5)cc3)CC2)C1
REMARK SMILES IDX 18 1 17 2 16 3 15 4 13 5 14 6 12 8 11 9 6 10 7 11 8 12 9 13
REMARK SMILES IDX 89 14 10 15 88 16 5 17 2 18 3 19 90 20 4 21 1 22 19 26 20 27
REMARK SMILES IDX 21 28 22 29 23 30 24 32 25 33 26 34 87 35 27 36 86 37 28 38
REMARK SMILES IDX 29 39 30 40 80 41 31 42 85 43 79 44 81 45 32 46 84 47 78 48
REMARK SMILES IDX 77 49 33 51 65 52 45 53 64 54 46 55 49 56 63 57 82 58 47 59
REMARK SMILES IDX 48 60 62 62 83 63 50 64 34 65 35 66 43 67 36 68 37 69 41 70
REMARK SMILES IDX 44 71 38 72 39 73 42 74 40 75 66 76 67 77 75 78 68 79 69 80
REMARK SMILES IDX 73 81 76 82 70 83 71 84 74 85 72 86 51 87 52 88 60 89 53 90
REMARK SMILES IDX 54 91 58 92 61 93 55 94 56 95 59 96 57 97
REMARK H PARENT 15 7 1 23 1 24 1 25 22 31 81 50 49 61
REMARK Flexibility Score: inf
ROOT
ATOM      1  C   UNL A   1      34.362  32.074  28.843  1.00  0.00     0.002 C 
ENDROOT
BRANCH   1   2
ATOM      2  C   UNL A   1      34.763  31.097  27.739  1.00  0.00     0.021 C 
BRANCH   2   3
ATOM      3  C   UNL A   1      33.592  30.560  26.910  1.00  0.00     0.116 C 
BRANCH   3   4
ATOM      4  N   UNL A   1      32.873  29.534  27.647  1.00  0.00    -0.356 N 
ATOM      5  C   UNL A   1      32.003  28.580  27.208  1.00  0.00     0.220 C 
ATOM      6  O   UNL A   1      31.404  27.904  28.047  1.00  0.00    -0.275 OA
ATOM      7  H   UNL A   1      33.040  29.527  28.617  1.00  0.00     0.163 HD
BRANCH   5   8
ATOM      8  C   UNL A   1      31.785  28.350  25.724  1.00  0.00     0.103 C 
BRANCH   8   9
ATOM      9  C   UNL A   1      32.844  27.448  25.064  1.00  0.00     0.002 C 
ATOM     10  C   UNL A   1      33.006  23.566  24.628  1.00  0.00     0.229 C 
ATOM     11  O   UNL A   1      32.168  23.522  25.531  1.00  0.00    -0.274 OA
ATOM     12  N   UNL A   1      33.678  24.742  24.315  1.00  0.00    -0.342 N 
ATOM     13  C   UNL A   1      34.353  25.419  25.406  1.00  0.00     0.120 C 
ATOM     14  C   UNL A   1      33.154  25.631  23.289  1.00  0.00     0.120 C 
ATOM     15  C   UNL A   1      33.453  26.456  26.064  1.00  0.00     0.026 C 
ATOM     16  C   UNL A   1      32.217  26.687  23.879  1.00  0.00     0.026 C 
BRANCH  10  17
ATOM     17  C   UNL A   1      33.532  22.283  23.969  1.00  0.00     0.107 C 
ATOM     18  C   UNL A   1      33.575  19.976  24.853  1.00  0.00     0.205 C 
ATOM     19  C   UNL A   1      32.406  20.211  23.959  1.00  0.00     0.033 C 
ATOM     20  C   UNL A   1      34.318  21.321  24.865  1.00  0.00     0.087 C 
ATOM     21  C   UNL A   1      32.391  21.450  23.461  1.00  0.00    -0.012 C 
BRANCH  18  22
ATOM     22  N   UNL A   1      33.150  19.581  26.185  1.00  0.00    -0.352 N 
ATOM     23  H   UNL A   1      32.347  18.957  26.115  1.00  0.00     0.345 HD
ATOM     24  H   UNL A   1      32.890  20.412  26.718  1.00  0.00     0.345 HD
ATOM     25  H   UNL A   1      33.916  19.100  26.657  1.00  0.00     0.345 HD
ENDBRANCH  18  22
ENDBRANCH  10  17
ENDBRANCH   8   9
ENDBRANCH   5   8
ENDBRANCH   3   4
ENDBRANCH   2   3
ENDBRANCH   1   2
BRANCH   1  26
ATOM     26  C   UNL A   1      34.489  33.554  28.478  1.00  0.00     0.002 C 
BRANCH  26  27
ATOM     27  C   UNL A   1      33.211  34.387  28.629  1.00  0.00     0.021 C 
BRANCH  27  28
ATOM     28  C   UNL A   1      33.421  35.832  29.075  1.00  0.00     0.116 C 
BRANCH  28  29
ATOM     29  N   UNL A   1      32.603  36.178  30.225  1.00  0.00    -0.352 N 
ATOM     30  C   UNL A   1      32.706  35.774  31.532  1.00  0.00     0.251 C 
ATOM     31  H   UNL A   1      31.860  36.798  30.037  1.00  0.00     0.163 HD
ATOM     32  O   UNL A   1      31.802  36.014  32.326  1.00  0.00    -0.269 OA
BRANCH  30  33
ATOM     33  C   UNL A   1      33.903  35.036  31.988  1.00  0.00     0.039 A 
ATOM     34  C   UNL A   1      33.771  33.689  32.336  1.00  0.00     0.014 A 
ATOM     35  C   UNL A   1      35.140  35.675  32.107  1.00  0.00     0.014 A 
ATOM     36  C   UNL A   1      34.892  32.967  32.752  1.00  0.00     0.010 A 
ATOM     37  C   UNL A   1      36.269  34.940  32.461  1.00  0.00     0.010 A 
ATOM     38  C   UNL A   1      36.156  33.581  32.792  1.00  0.00    -0.014 A 
BRANCH  38  39
ATOM     39  C   UNL A   1      37.366  32.817  33.184  1.00  0.00     0.031 A 
ATOM     40  C   UNL A   1      38.063  33.119  34.480  1.00  0.00     0.074 A 
ATOM     41  C   UNL A   1      37.872  31.894  32.344  1.00  0.00     0.049 A 
ATOM     42  N   UNL A   1      39.168  32.610  34.966  1.00  0.00    -0.248 NA
ATOM     43  C   UNL A   1      37.451  34.150  35.334  1.00  0.00     0.031 C 
ATOM     44  C   UNL A   1      37.313  31.545  31.037  1.00  0.00     0.029 A 
ATOM     45  N   UNL A   1      38.979  31.091  32.457  1.00  0.00    -0.354 N 
ATOM     46  C   UNL A   1      39.390  33.267  36.169  1.00  0.00     0.074 A 
ATOM     47  C   UNL A   1      38.334  34.245  36.318  1.00  0.00     0.031 C 
ATOM     48  C   UNL A   1      38.069  30.587  30.479  1.00  0.00     0.029 A 
ATOM     49  C   UNL A   1      39.183  30.278  31.369  1.00  0.00     0.049 A 
ATOM     50  H   UNL A   1      39.572  31.098  33.244  1.00  0.00     0.167 HD
ATOM     51  C   UNL A   1      40.374  33.059  37.076  1.00  0.00     0.037 A 
ATOM     52  C   UNL A   1      40.162  29.390  31.117  1.00  0.00     0.037 A 
ATOM     53  C   UNL A   1      41.408  32.067  36.937  1.00  0.00     0.049 A 
ATOM     54  C   UNL A   1      41.241  29.173  32.145  1.00  0.00     0.074 A 
ATOM     55  C   UNL A   1      42.415  31.736  37.828  1.00  0.00     0.029 A 
ATOM     56  N   UNL A   1      41.568  31.244  35.831  1.00  0.00    -0.354 N 
ATOM     57  N   UNL A   1      41.403  29.753  33.309  1.00  0.00    -0.248 NA
ATOM     58  C   UNL A   1      42.268  28.173  31.825  1.00  0.00     0.031 C 
ATOM     59  C   UNL A   1      43.207  30.743  37.245  1.00  0.00     0.029 A 
ATOM     60  C   UNL A   1      42.667  30.420  36.010  1.00  0.00     0.049 A 
ATOM     61  H   UNL A   1      40.986  31.246  35.038  1.00  0.00     0.167 HD
ATOM     62  C   UNL A   1      42.531  29.172  33.872  1.00  0.00     0.074 A 
ATOM     63  C   UNL A   1      43.005  28.182  32.927  1.00  0.00     0.031 C 
ATOM     64  C   UNL A   1      43.120  29.434  35.063  1.00  0.00     0.037 A 
BRANCH  51  65
ATOM     65  C   UNL A   1      40.378  33.920  38.306  1.00  0.00     0.064 A 
ATOM     66  C   UNL A   1      39.679  33.550  39.464  1.00  0.00     0.173 A 
ATOM     67  C   UNL A   1      41.117  35.113  38.339  1.00  0.00     0.173 A 
ATOM     68  F   UNL A   1      38.947  32.425  39.481  1.00  0.00    -0.203 F 
ATOM     69  C   UNL A   1      39.695  34.355  40.600  1.00  0.00     0.198 A 
ATOM     70  C   UNL A   1      41.155  35.901  39.486  1.00  0.00     0.198 A 
ATOM     71  F   UNL A   1      41.809  35.511  37.260  1.00  0.00    -0.203 F 
ATOM     72  F   UNL A   1      38.980  34.005  41.679  1.00  0.00    -0.200 F 
ATOM     73  C   UNL A   1      40.439  35.525  40.613  1.00  0.00     0.200 A 
ATOM     74  F   UNL A   1      41.883  37.026  39.501  1.00  0.00    -0.200 F 
ATOM     75  F   UNL A   1      40.459  36.297  41.709  1.00  0.00    -0.200 F 
ENDBRANCH  51  65
BRANCH  52  76
ATOM     76  C   UNL A   1      40.153  28.615  29.850  1.00  0.00     0.064 A 
ATOM     77  C   UNL A   1      39.507  27.374  29.773  1.00  0.00     0.173 A 
ATOM     78  C   UNL A   1      40.784  29.097  28.694  1.00  0.00     0.173 A 
ATOM     79  F   UNL A   1      38.906  26.862  30.858  1.00  0.00    -0.203 F 
ATOM     80  C   UNL A   1      39.509  26.634  28.593  1.00  0.00     0.198 A 
ATOM     81  C   UNL A   1      40.764  28.368  27.507  1.00  0.00     0.198 A 
ATOM     82  F   UNL A   1      41.412  30.281  28.716  1.00  0.00    -0.203 F 
ATOM     83  F   UNL A   1      38.923  25.429  28.558  1.00  0.00    -0.200 F 
ATOM     84  C   UNL A   1      40.133  27.134  27.459  1.00  0.00     0.200 A 
ATOM     85  F   UNL A   1      41.356  28.860  26.411  1.00  0.00    -0.200 F 
ATOM     86  F   UNL A   1      40.133  26.422  26.323  1.00  0.00    -0.200 F 
ENDBRANCH  52  76
BRANCH  64  87
ATOM     87  C   UNL A   1      44.324  28.615  35.429  1.00  0.00     0.064 A 
ATOM     88  C   UNL A   1      45.622  29.026  35.095  1.00  0.00     0.173 A 
ATOM     89  C   UNL A   1      44.176  27.423  36.153  1.00  0.00     0.173 A 
ATOM     90  F   UNL A   1      45.814  30.150  34.387  1.00  0.00    -0.203 F 
ATOM     91  C   UNL A   1      46.728  28.261  35.451  1.00  0.00     0.198 A 
ATOM     92  C   UNL A   1      45.286  26.675  36.534  1.00  0.00     0.198 A 
ATOM     93  F   UNL A   1      42.956  26.990  36.503  1.00  0.00    -0.203 F 
ATOM     94  F   UNL A   1      47.957  28.647  35.083  1.00  0.00    -0.200 F 
ATOM     95  C   UNL A   1      46.561  27.090  36.178  1.00  0.00     0.200 A 
ATOM     96  F   UNL A   1      45.123  25.551  37.246  1.00  0.00    -0.200 F 
ATOM     97  F   UNL A   1      47.627  26.358  36.526  1.00  0.00    -0.200 F 
ENDBRANCH  64  87
ENDBRANCH  38  39
ENDBRANCH  30  33
ENDBRANCH  28  29
ENDBRANCH  27  28
ENDBRANCH  26  27
ENDBRANCH   1  26
TORSDOF 16
ENDMDL
MODEL 2
REMARK VINA RESULT:     -11.5      1.751      7.746
REMARK SMILES [NH3+][C@H]1C=C[C@@H](C(=O)N2CCC(CC(=O)NCCCCCCNC(=O)c3ccc(-c4c5nc(c(-c6c(F)c(F)c(F)c(F)c6F)c6ccc([nH]6)c(-c6c(F)c(F)c(F)c(F)c6F)c6nc(c(-c7c(F)c(F)c(F)c(F)c7F)c7ccc4[nH]7)C=C6)C=C5)cc3)CC2)C1
REMARK SMILES IDX 18 1 17 2 16 3 15 4 13 5 14 6 12 8 11 9 6 10 7 11 8 12 9 13
REMARK SMILES IDX 89 14 10 15 88 16 5 17 2 18 3 19 90 20 4 21 1 22 19 26 20 27
REMARK SMILES IDX 21 28 22 29 23 30 24 32 25 33 26 34 87 35 27 36 86 37 28 38
REMARK SMILES IDX 29 39 30 40 80 41 31 42 85 43 79 44 81 45 32 46 84 47 78 48
REMARK SMILES IDX 77 49 33 51 65 52 45 53 64 54 46 55 49 56 63 57 82 58 47 59
REMARK SMILES IDX 48 60 62 62 83 63 50 64 34 65 35 66 43 67 36 68 37 69 41 70
REMARK SMILES IDX 44 71 38 72 39 73 42 74 40 75 66 76 67 77 75 78 68 79 69 80
REMARK SMILES IDX 73 81 76 82 70 83 71 84 74 85 72 86 51 87 52 88 60 89 53 90
REMARK SMILES IDX 54 91 58 92 61 93 55 94 56 95 59 96 57 97
REMARK H PARENT 15 7 1 23 1 24 1 25 22 31 81 50 49 61
REMARK Flexibility Score: inf
ROOT
ATOM      1  C   UNL A   1      31.994  29.764  26.642  1.00  0.00     0.002 C 
ENDROOT
BRANCH   1   2
ATOM      2  C   UNL A   1      32.713  28.691  25.826  1.00  0.00     0.021 C 
BRANCH   2   3
ATOM      3  C   UNL A   1      31.801  27.875  24.905  1.00  0.00     0.116 C 
BRANCH   3   4
ATOM      4  N   UNL A   1      32.399  27.733  23.588  1.00  0.00    -0.356 N 
ATOM      5  C   UNL A   1      33.383  26.895  23.154  1.00  0.00     0.220 C 
ATOM      6  O   UNL A   1      33.827  27.055  22.015  1.00  0.00    -0.275 OA
ATOM      7  H   UNL A   1      32.037  28.337  22.901  1.00  0.00     0.163 HD
BRANCH   5   8
ATOM      8  C   UNL A   1      33.912  25.787  24.046  1.00  0.00     0.103 C 
BRANCH   8   9
ATOM      9  C   UNL A   1      33.085  24.488  23.994  1.00  0.00     0.002 C 
ATOM     10  C   UNL A   1      34.070  20.781  24.746  1.00  0.00     0.229 C 
ATOM     11  O   UNL A   1      35.235  21.156  24.600  1.00  0.00    -0.274 OA
ATOM     12  N   UNL A   1      32.994  21.589  24.398  1.00  0.00    -0.342 N 
ATOM     13  C   UNL A   1      32.987  22.121  23.049  1.00  0.00     0.120 C 
ATOM     14  C   UNL A   1      32.386  22.461  25.390  1.00  0.00     0.120 C 
ATOM     15  C   UNL A   1      33.656  23.488  22.982  1.00  0.00     0.026 C 
ATOM     16  C   UNL A   1      33.030  23.850  25.396  1.00  0.00     0.026 C 
BRANCH  10  17
ATOM     17  C   UNL A   1      33.744  19.319  25.085  1.00  0.00     0.107 C 
ATOM     18  C   UNL A   1      32.586  17.618  23.717  1.00  0.00     0.205 C 
ATOM     19  C   UNL A   1      34.069  17.491  23.631  1.00  0.00     0.033 C 
ATOM     20  C   UNL A   1      32.363  18.806  24.666  1.00  0.00     0.087 C 
ATOM     21  C   UNL A   1      34.699  18.395  24.386  1.00  0.00    -0.012 C 
BRANCH  18  22
ATOM     22  N   UNL A   1      31.999  17.852  22.410  1.00  0.00    -0.352 N 
ATOM     23  H   UNL A   1      31.589  18.785  22.383  1.00  0.00     0.345 HD
ATOM     24  H   UNL A   1      31.274  17.156  22.234  1.00  0.00     0.345 HD
ATOM     25  H   UNL A   1      32.722  17.777  21.694  1.00  0.00     0.345 HD
ENDBRANCH  18  22
ENDBRANCH  10  17
ENDBRANCH   8   9
ENDBRANCH   5   8
ENDBRANCH   3   4
ENDBRANCH   2   3
ENDBRANCH   1   2
BRANCH   1  26
ATOM     26  C   UNL A   1      31.384  30.903  25.823  1.00  0.00     0.002 C 
BRANCH  26  27
ATOM     27  C   UNL A   1      31.203  32.231  26.565  1.00  0.00     0.021 C 
BRANCH  27  28
ATOM     28  C   UNL A   1      32.467  32.800  27.206  1.00  0.00     0.116 C 
BRANCH  28  29
ATOM     29  N   UNL A   1      32.311  34.193  27.590  1.00  0.00    -0.352 N 
ATOM     30  C   UNL A   1      32.954  34.914  28.564  1.00  0.00     0.251 C 
ATOM     31  H   UNL A   1      31.641  34.696  27.073  1.00  0.00     0.163 HD
ATOM     32  O   UNL A   1      32.548  36.028  28.878  1.00  0.00    -0.269 OA
BRANCH  30  33
ATOM     33  C   UNL A   1      34.135  34.348  29.250  1.00  0.00     0.039 A 
ATOM     34  C   UNL A   1      33.944  33.621  30.429  1.00  0.00     0.014 A 
ATOM     35  C   UNL A   1      35.425  34.560  28.757  1.00  0.00     0.014 A 
ATOM     36  C   UNL A   1      35.043  33.060  31.083  1.00  0.00     0.010 A 
ATOM     37  C   UNL A   1      36.513  33.948  29.374  1.00  0.00     0.010 A 
ATOM     38  C   UNL A   1      36.334  33.197  30.546  1.00  0.00    -0.014 A 
BRANCH  38  39
ATOM     39  C   UNL A   1      37.507  32.567  31.201  1.00  0.00     0.031 A 
ATOM     40  C   UNL A   1      38.234  31.439  30.525  1.00  0.00     0.074 A 
ATOM     41  C   UNL A   1      37.879  32.969  32.431  1.00  0.00     0.049 A 
ATOM     42  N   UNL A   1      39.235  30.717  30.963  1.00  0.00    -0.248 NA
ATOM     43  C   UNL A   1      37.757  31.053  29.188  1.00  0.00     0.031 C 
ATOM     44  C   UNL A   1      37.223  34.022  33.209  1.00  0.00     0.029 A 
ATOM     45  N   UNL A   1      38.891  32.532  33.248  1.00  0.00    -0.354 N 
ATOM     46  C   UNL A   1      39.496  29.786  29.967  1.00  0.00     0.074 A 
ATOM     47  C   UNL A   1      38.518  30.001  28.921  1.00  0.00     0.031 C 
ATOM     48  C   UNL A   1      37.860  34.160  34.382  1.00  0.00     0.029 A 
ATOM     49  C   UNL A   1      38.945  33.186  34.455  1.00  0.00     0.049 A 
ATOM     50  H   UNL A   1      39.517  31.816  32.995  1.00  0.00     0.167 HD
ATOM     51  C   UNL A   1      40.474  28.850  29.918  1.00  0.00     0.037 A 
ATOM     52  C   UNL A   1      39.772  33.015  35.502  1.00  0.00     0.037 A 
ATOM     53  C   UNL A   1      41.462  28.657  30.947  1.00  0.00     0.049 A 
ATOM     54  C   UNL A   1      40.855  31.972  35.421  1.00  0.00     0.074 A 
ATOM     55  C   UNL A   1      42.531  27.778  30.966  1.00  0.00     0.029 A 
ATOM     56  N   UNL A   1      41.500  29.356  32.145  1.00  0.00    -0.354 N 
ATOM     57  N   UNL A   1      41.132  31.142  34.445  1.00  0.00    -0.248 NA
ATOM     58  C   UNL A   1      41.743  31.848  36.585  1.00  0.00     0.031 C 
ATOM     59  C   UNL A   1      43.191  27.916  32.190  1.00  0.00     0.029 A 
ATOM     60  C   UNL A   1      42.562  28.915  32.917  1.00  0.00     0.049 A 
ATOM     61  H   UNL A   1      40.865  30.062  32.407  1.00  0.00     0.167 HD
ATOM     62  C   UNL A   1      42.240  30.418  34.863  1.00  0.00     0.074 A 
ATOM     63  C   UNL A   1      42.594  30.917  36.176  1.00  0.00     0.031 C 
ATOM     64  C   UNL A   1      42.905  29.429  34.219  1.00  0.00     0.037 A 
BRANCH  51  65
ATOM     65  C   UNL A   1      40.527  27.964  28.708  1.00  0.00     0.064 A 
ATOM     66  C   UNL A   1      41.284  28.308  27.578  1.00  0.00     0.173 A 
ATOM     67  C   UNL A   1      39.843  26.739  28.690  1.00  0.00     0.173 A 
ATOM     68  F   UNL A   1      41.948  29.474  27.540  1.00  0.00    -0.203 F 
ATOM     69  C   UNL A   1      41.330  27.474  26.464  1.00  0.00     0.198 A 
ATOM     70  C   UNL A   1      39.914  25.894  27.586  1.00  0.00     0.198 A 
ATOM     71  F   UNL A   1      39.109  26.358  29.747  1.00  0.00    -0.203 F 
ATOM     72  F   UNL A   1      42.021  27.847  25.377  1.00  0.00    -0.200 F 
ATOM     73  C   UNL A   1      40.652  26.265  26.472  1.00  0.00     0.200 A 
ATOM     74  F   UNL A   1      39.267  24.720  27.599  1.00  0.00    -0.200 F 
ATOM     75  F   UNL A   1      40.701  25.460  25.401  1.00  0.00    -0.200 F 
ENDBRANCH  51  65
BRANCH  52  76
ATOM     76  C   UNL A   1      39.629  33.870  36.708  1.00  0.00     0.064 A 
ATOM     77  C   UNL A   1      40.278  35.110  36.789  1.00  0.00     0.173 A 
ATOM     78  C   UNL A   1      38.845  33.470  37.799  1.00  0.00     0.173 A 
ATOM     79  F   UNL A   1      41.056  35.526  35.779  1.00  0.00    -0.203 F 
ATOM     80  C   UNL A   1      40.163  35.909  37.924  1.00  0.00     0.198 A 
ATOM     81  C   UNL A   1      38.709  34.282  38.923  1.00  0.00     0.198 A 
ATOM     82  F   UNL A   1      38.200  32.295  37.767  1.00  0.00    -0.203 F 
ATOM     83  F   UNL A   1      40.830  37.069  37.995  1.00  0.00    -0.200 F 
ATOM     84  C   UNL A   1      39.374  35.497  38.989  1.00  0.00     0.200 A 
ATOM     85  F   UNL A   1      37.936  33.886  39.943  1.00  0.00    -0.200 F 
ATOM     86  F   UNL A   1      39.262  36.268  40.079  1.00  0.00    -0.200 F 
ENDBRANCH  52  76
BRANCH  64  87
ATOM     87  C   UNL A   1      44.103  28.843  34.907  1.00  0.00     0.064 A 
ATOM     88  C   UNL A   1      45.382  29.397  34.754  1.00  0.00     0.173 A 
ATOM     89  C   UNL A   1      43.961  27.737  35.758  1.00  0.00     0.173 A 
ATOM     90  F   UNL A   1      45.572  30.445  33.939  1.00  0.00    -0.203 F 
ATOM     91  C   UNL A   1      46.481  28.848  35.409  1.00  0.00     0.198 A 
ATOM     92  C   UNL A   1      45.057  27.209  36.434  1.00  0.00     0.198 A 
ATOM     93  F   UNL A   1      42.757  27.175  35.943  1.00  0.00    -0.203 F 
ATOM     94  F   UNL A   1      47.703  29.363  35.214  1.00  0.00    -0.200 F 
ATOM     95  C   UNL A   1      46.317  27.760  36.254  1.00  0.00     0.200 A 
ATOM     96  F   UNL A   1      44.894  26.165  37.259  1.00  0.00    -0.200 F 
ATOM     97  F   UNL A   1      47.374  27.238  36.889  1.00  0.00    -0.200 F 
ENDBRANCH  64  87
ENDBRANCH  38  39
ENDBRANCH  30  33
ENDBRANCH  28  29
ENDBRANCH  27  28
ENDBRANCH  26  27
ENDBRANCH   1  26
TORSDOF 16
ENDMDL
MODEL 3
REMARK VINA RESULT:     -11.5      2.678      8.249
REMARK SMILES [NH3+][C@H]1C=C[C@@H](C(=O)N2CCC(CC(=O)NCCCCCCNC(=O)c3ccc(-c4c5nc(c(-c6c(F)c(F)c(F)c(F)c6F)c6ccc([nH]6)c(-c6c(F)c(F)c(F)c(F)c6F)c6nc(c(-c7c(F)c(F)c(F)c(F)c7F)c7ccc4[nH]7)C=C6)C=C5)cc3)CC2)C1
REMARK SMILES IDX 18 1 17 2 16 3 15 4 13 5 14 6 12 8 11 9 6 10 7 11 8 12 9 13
REMARK SMILES IDX 89 14 10 15 88 16 5 17 2 18 3 19 90 20 4 21 1 22 19 26 20 27
REMARK SMILES IDX 21 28 22 29 23 30 24 32 25 33 26 34 87 35 27 36 86 37 28 38
REMARK SMILES IDX 29 39 30 40 80 41 31 42 85 43 79 44 81 45 32 46 84 47 78 48
REMARK SMILES IDX 77 49 33 51 65 52 45 53 64 54 46 55 49 56 63 57 82 58 47 59
REMARK SMILES IDX 48 60 62 62 83 63 50 64 34 65 35 66 43 67 36 68 37 69 41 70
REMARK SMILES IDX 44 71 38 72 39 73 42 74 40 75 66 76 67 77 75 78 68 79 69 80
REMARK SMILES IDX 73 81 76 82 70 83 71 84 74 85 72 86 51 87 52 88 60 89 53 90
REMARK SMILES IDX 54 91 58 92 61 93 55 94 56 95 59 96 57 97
REMARK H PARENT 15 7 1 23 1 24 1 25 22 31 81 50 49 61
REMARK Flexibility Score: inf
ROOT
ATOM      1  C   UNL A   1      30.652  27.204  24.904  1.00  0.00     0.002 C 
ENDROOT
BRANCH   1   2
ATOM      2  C   UNL A   1      30.314  28.202  23.797  1.00  0.00     0.021 C 
BRANCH   2   3
ATOM      3  C   UNL A   1      30.509  27.666  22.376  1.00  0.00     0.116 C 
BRANCH   3   4
ATOM      4  N   UNL A   1      31.913  27.708  22.002  1.00  0.00    -0.356 N 
ATOM      5  C   UNL A   1      32.824  26.700  21.887  1.00  0.00     0.220 C 
ATOM      6  O   UNL A   1      34.004  26.998  21.690  1.00  0.00    -0.275 OA
ATOM      7  H   UNL A   1      32.261  28.606  21.800  1.00  0.00     0.163 HD
BRANCH   5   8
ATOM      8  C   UNL A   1      32.396  25.248  21.991  1.00  0.00     0.103 C 
BRANCH   8   9
ATOM      9  C   UNL A   1      32.820  24.558  23.302  1.00  0.00     0.002 C 
ATOM     10  C   UNL A   1      33.015  20.777  24.273  1.00  0.00     0.229 C 
ATOM     11  O   UNL A   1      32.264  20.586  23.314  1.00  0.00    -0.274 OA
ATOM     12  N   UNL A   1      33.274  22.056  24.753  1.00  0.00    -0.342 N 
ATOM     13  C   UNL A   1      32.123  22.874  25.085  1.00  0.00     0.120 C 
ATOM     14  C   UNL A   1      34.418  22.804  24.256  1.00  0.00     0.120 C 
ATOM     15  C   UNL A   1      31.681  23.726  23.904  1.00  0.00     0.026 C 
ATOM     16  C   UNL A   1      34.051  23.666  23.046  1.00  0.00     0.026 C 
BRANCH  10  17
ATOM     17  C   UNL A   1      33.507  19.610  25.140  1.00  0.00     0.107 C 
ATOM     18  C   UNL A   1      33.453  17.184  24.673  1.00  0.00     0.205 C 
ATOM     19  C   UNL A   1      34.779  17.786  24.355  1.00  0.00     0.033 C 
ATOM     20  C   UNL A   1      32.616  18.365  25.190  1.00  0.00     0.087 C 
ATOM     21  C   UNL A   1      34.820  19.093  24.626  1.00  0.00    -0.012 C 
BRANCH  18  22
ATOM     22  N   UNL A   1      32.856  16.570  23.501  1.00  0.00    -0.352 N 
ATOM     23  H   UNL A   1      33.174  15.604  23.423  1.00  0.00     0.345 HD
ATOM     24  H   UNL A   1      33.135  17.088  22.667  1.00  0.00     0.345 HD
ATOM     25  H   UNL A   1      31.840  16.588  23.588  1.00  0.00     0.345 HD
ENDBRANCH  18  22
ENDBRANCH  10  17
ENDBRANCH   8   9
ENDBRANCH   5   8
ENDBRANCH   3   4
ENDBRANCH   2   3
ENDBRANCH   1   2
BRANCH   1  26
ATOM     26  C   UNL A   1      31.662  27.702  25.939  1.00  0.00     0.002 C 
BRANCH  26  27
ATOM     27  C   UNL A   1      33.131  27.662  25.505  1.00  0.00     0.021 C 
BRANCH  27  28
ATOM     28  C   UNL A   1      33.705  28.989  25.015  1.00  0.00     0.116 C 
BRANCH  28  29
ATOM     29  N   UNL A   1      33.031  30.133  25.605  1.00  0.00    -0.352 N 
ATOM     30  C   UNL A   1      33.293  30.801  26.774  1.00  0.00     0.251 C 
ATOM     31  H   UNL A   1      32.269  30.482  25.087  1.00  0.00     0.163 HD
ATOM     32  O   UNL A   1      32.491  31.621  27.211  1.00  0.00    -0.269 OA
BRANCH  30  33
ATOM     33  C   UNL A   1      34.538  30.528  27.523  1.00  0.00     0.039 A 
ATOM     34  C   UNL A   1      35.497  31.540  27.626  1.00  0.00     0.014 A 
ATOM     35  C   UNL A   1      34.777  29.273  28.089  1.00  0.00     0.014 A 
ATOM     36  C   UNL A   1      36.673  31.310  28.344  1.00  0.00     0.010 A 
ATOM     37  C   UNL A   1      35.919  29.065  28.858  1.00  0.00     0.010 A 
ATOM     38  C   UNL A   1      36.881  30.080  28.989  1.00  0.00    -0.014 A 
BRANCH  38  39
ATOM     39  C   UNL A   1      38.101  29.835  29.798  1.00  0.00     0.031 A 
ATOM     40  C   UNL A   1      39.179  28.925  29.281  1.00  0.00     0.074 A 
ATOM     41  C   UNL A   1      38.209  30.383  31.023  1.00  0.00     0.049 A 
ATOM     42  N   UNL A   1      40.285  28.534  29.865  1.00  0.00    -0.248 NA
ATOM     43  C   UNL A   1      38.977  28.357  27.938  1.00  0.00     0.031 C 
ATOM     44  C   UNL A   1      37.209  31.246  31.653  1.00  0.00     0.029 A 
ATOM     45  N   UNL A   1      39.205  30.286  31.962  1.00  0.00    -0.354 N 
ATOM     46  C   UNL A   1      40.899  27.666  28.971  1.00  0.00     0.074 A 
ATOM     47  C   UNL A   1      40.022  27.549  27.826  1.00  0.00     0.031 C 
ATOM     48  C   UNL A   1      37.649  31.612  32.867  1.00  0.00     0.029 A 
ATOM     49  C   UNL A   1      38.943  30.986  33.115  1.00  0.00     0.049 A 
ATOM     50  H   UNL A   1      40.027  29.763  31.824  1.00  0.00     0.167 HD
ATOM     51  C   UNL A   1      42.094  27.041  29.086  1.00  0.00     0.037 A 
ATOM     52  C   UNL A   1      39.664  31.102  34.245  1.00  0.00     0.037 A 
ATOM     53  C   UNL A   1      42.977  27.181  30.216  1.00  0.00     0.049 A 
ATOM     54  C   UNL A   1      40.992  30.402  34.346  1.00  0.00     0.074 A 
ATOM     55  C   UNL A   1      44.236  26.637  30.401  1.00  0.00     0.029 A 
ATOM     56  N   UNL A   1      42.688  27.919  31.355  1.00  0.00    -0.354 N 
ATOM     57  N   UNL A   1      41.593  29.637  33.467  1.00  0.00    -0.248 NA
ATOM     58  C   UNL A   1      41.746  30.586  35.594  1.00  0.00     0.031 C 
ATOM     59  C   UNL A   1      44.693  27.013  31.668  1.00  0.00     0.029 A 
ATOM     60  C   UNL A   1      43.738  27.829  32.254  1.00  0.00     0.049 A 
ATOM     61  H   UNL A   1      41.860  28.430  31.502  1.00  0.00     0.167 HD
ATOM     62  C   UNL A   1      42.803  29.273  34.041  1.00  0.00     0.074 A 
ATOM     63  C   UNL A   1      42.858  29.912  35.339  1.00  0.00     0.031 C 
ATOM     64  C   UNL A   1      43.780  28.480  33.539  1.00  0.00     0.037 A 
BRANCH  51  65
ATOM     65  C   UNL A   1      42.523  26.148  27.958  1.00  0.00     0.064 A 
ATOM     66  C   UNL A   1      42.034  24.840  27.830  1.00  0.00     0.173 A 
ATOM     67  C   UNL A   1      43.405  26.618  26.973  1.00  0.00     0.173 A 
ATOM     68  F   UNL A   1      41.196  24.339  28.751  1.00  0.00    -0.203 F 
ATOM     69  C   UNL A   1      42.434  24.024  26.775  1.00  0.00     0.198 A 
ATOM     70  C   UNL A   1      43.781  25.810  25.903  1.00  0.00     0.198 A 
ATOM     71  F   UNL A   1      43.898  27.864  27.044  1.00  0.00    -0.203 F 
ATOM     72  F   UNL A   1      41.991  22.761  26.700  1.00  0.00    -0.200 F 
ATOM     73  C   UNL A   1      43.301  24.512  25.808  1.00  0.00     0.200 A 
ATOM     74  F   UNL A   1      44.610  26.287  24.964  1.00  0.00    -0.200 F 
ATOM     75  F   UNL A   1      43.682  23.729  24.790  1.00  0.00    -0.200 F 
ENDBRANCH  51  65
BRANCH  52  76
ATOM     76  C   UNL A   1      39.159  31.939  35.364  1.00  0.00     0.064 A 
ATOM     77  C   UNL A   1      39.429  33.314  35.409  1.00  0.00     0.173 A 
ATOM     78  C   UNL A   1      38.400  31.388  36.405  1.00  0.00     0.173 A 
ATOM     79  F   UNL A   1      40.169  33.884  34.446  1.00  0.00    -0.203 F 
ATOM     80  C   UNL A   1      38.975  34.102  36.464  1.00  0.00     0.198 A 
ATOM     81  C   UNL A   1      37.923  32.181  37.446  1.00  0.00     0.198 A 
ATOM     82  F   UNL A   1      38.111  30.078  36.404  1.00  0.00    -0.203 F 
ATOM     83  F   UNL A   1      39.284  35.405  36.507  1.00  0.00    -0.200 F 
ATOM     84  C   UNL A   1      38.217  33.536  37.479  1.00  0.00     0.200 A 
ATOM     85  F   UNL A   1      37.182  31.634  38.418  1.00  0.00    -0.200 F 
ATOM     86  F   UNL A   1      37.778  34.296  38.492  1.00  0.00    -0.200 F 
ENDBRANCH  52  76
BRANCH  64  87
ATOM     87  C   UNL A   1      45.008  28.286  34.380  1.00  0.00     0.064 A 
ATOM     88  C   UNL A   1      46.097  29.167  34.304  1.00  0.00     0.173 A 
ATOM     89  C   UNL A   1      45.080  27.227  35.297  1.00  0.00     0.173 A 
ATOM     90  F   UNL A   1      46.083  30.185  33.431  1.00  0.00    -0.203 F 
ATOM     91  C   UNL A   1      47.224  28.979  35.099  1.00  0.00     0.198 A 
ATOM     92  C   UNL A   1      46.196  27.059  36.111  1.00  0.00     0.198 A 
ATOM     93  F   UNL A   1      44.062  26.361  35.412  1.00  0.00    -0.203 F 
ATOM     94  F   UNL A   1      48.273  29.805  34.979  1.00  0.00    -0.200 F 
ATOM     95  C   UNL A   1      47.270  27.931  36.007  1.00  0.00     0.200 A 
ATOM     96  F   UNL A   1      46.233  26.054  36.996  1.00  0.00    -0.200 F 
ATOM     97  F   UNL A   1      48.353  27.756  36.776  1.00  0.00    -0.200 F 
ENDBRANCH  64  87
ENDBRANCH  38  39
ENDBRANCH  30  33
ENDBRANCH  28  29
ENDBRANCH  27  28
ENDBRANCH  26  27
ENDBRANCH   1  26
TORSDOF 16
ENDMDL
