MODEL 1
REMARK VINA RESULT:     -12.7      0.000      0.000
REMARK SMILES O=C(CN1C(=O)/C(=C\c2c(F)cccc2Cl)Oc2ccccc21)NCCCCCCNC(=O)c1ccc(-c2c3nc(c(-c4c(F)c(F)c(F)c(F)c4F)c4ccc([nH]4)c(-c4c(F)c(F)c(F)c(F)c4F)c4nc(c(-c5c(F)c(F)c(F)c(F)c5F)c5ccc2[nH]5)C=C4)C=C3)cc1
REMARK SMILES IDX 27 1 26 2 25 3 24 4 1 5 2 6 3 8 4 9 5 10 23 11 6 12 7 13
REMARK SMILES IDX 18 14 22 15 8 16 17 17 19 18 21 19 20 20 9 21 10 22 15 23
REMARK SMILES IDX 11 24 12 25 14 26 16 27 13 28 28 29 29 30 30 31 31 32 32 33
REMARK SMILES IDX 33 35 34 36 35 37 96 38 36 39 95 40 37 41 38 42 39 43 89 44
REMARK SMILES IDX 40 45 94 46 88 47 90 48 41 49 93 50 87 51 86 52 42 54 74 55
REMARK SMILES IDX 54 56 73 57 55 58 58 59 72 60 91 61 56 62 57 63 71 65 92 66
REMARK SMILES IDX 59 67 43 68 44 69 52 70 45 71 46 72 50 73 53 74 47 75 48 76
REMARK SMILES IDX 51 77 49 78 75 79 76 80 84 81 77 82 78 83 82 84 85 85 79 86
REMARK SMILES IDX 80 87 83 88 81 89 60 90 61 91 69 92 62 93 63 94 67 95 70 96
REMARK SMILES IDX 64 97 65 98 68 99 66 100
REMARK H PARENT 24 7 31 34 90 53 58 64
REMARK Flexibility Score: inf
ROOT
ATOM      1  C   UNL A   1      35.541  32.798  28.263  1.00  0.00     0.002 C 
ENDROOT
BRANCH   1   2
ATOM      2  C   UNL A   1      35.446  31.384  27.678  1.00  0.00     0.021 C 
BRANCH   2   3
ATOM      3  C   UNL A   1      34.026  30.816  27.603  1.00  0.00     0.116 C 
BRANCH   3   4
ATOM      4  N   UNL A   1      33.710  30.284  26.295  1.00  0.00    -0.355 N 
ATOM      5  O   UNL A   1      31.734  29.349  26.962  1.00  0.00    -0.273 OA
ATOM      6  C   UNL A   1      32.543  29.592  26.065  1.00  0.00     0.240 C 
ATOM      7  H   UNL A   1      34.343  30.420  25.554  1.00  0.00     0.163 HD
BRANCH   6   8
ATOM      8  C   UNL A   1      32.391  28.966  24.679  1.00  0.00     0.226 C 
BRANCH   8   9
ATOM      9  N   UNL A   1      31.148  28.249  24.404  1.00  0.00    -0.293 N 
ATOM     10  C   UNL A   1      31.189  26.874  24.574  1.00  0.00     0.294 C 
ATOM     11  C   UNL A   1      29.995  28.886  23.881  1.00  0.00     0.088 A 
ATOM     12  O   UNL A   1      32.085  26.320  25.208  1.00  0.00    -0.265 OA
ATOM     13  C   UNL A   1      30.094  26.106  23.889  1.00  0.00     0.193 C 
ATOM     14  C   UNL A   1      28.899  28.101  23.501  1.00  0.00     0.151 A 
ATOM     15  C   UNL A   1      29.894  30.278  23.746  1.00  0.00     0.030 A 
ATOM     16  C   UNL A   1      30.278  24.838  23.478  1.00  0.00     0.065 C 
ATOM     17  O   UNL A   1      28.893  26.732  23.587  1.00  0.00    -0.449 OA
ATOM     18  C   UNL A   1      27.742  28.684  22.974  1.00  0.00     0.049 A 
ATOM     19  C   UNL A   1      28.739  30.862  23.215  1.00  0.00     0.002 A 
ATOM     20  C   UNL A   1      27.666  30.066  22.823  1.00  0.00     0.004 A 
BRANCH  16  21
ATOM     21  C   UNL A   1      31.555  24.113  23.554  1.00  0.00     0.033 A 
ATOM     22  C   UNL A   1      32.515  24.298  22.552  1.00  0.00     0.132 A 
ATOM     23  C   UNL A   1      31.813  23.156  24.550  1.00  0.00     0.051 A 
ATOM     24  F   UNL A   1      32.311  25.204  21.583  1.00  0.00    -0.206 F 
ATOM     25  C   UNL A   1      33.684  23.540  22.519  1.00  0.00     0.040 A 
ATOM     26  C   UNL A   1      32.989  22.397  24.524  1.00  0.00     0.021 A 
ATOM     27  Cl  UNL A   1      30.691  22.856  25.835  1.00  0.00    -0.084 Cl
ATOM     28  C   UNL A   1      33.920  22.582  23.502  1.00  0.00     0.005 A 
ENDBRANCH  16  21
ENDBRANCH   8   9
ENDBRANCH   6   8
ENDBRANCH   3   4
ENDBRANCH   2   3
ENDBRANCH   1   2
BRANCH   1  29
ATOM     29  C   UNL A   1      34.444  33.178  29.261  1.00  0.00     0.002 C 
BRANCH  29  30
ATOM     30  C   UNL A   1      33.433  34.215  28.768  1.00  0.00     0.021 C 
BRANCH  30  31
ATOM     31  C   UNL A   1      33.536  35.588  29.424  1.00  0.00     0.116 C 
BRANCH  31  32
ATOM     32  N   UNL A   1      32.531  35.804  30.453  1.00  0.00    -0.352 N 
ATOM     33  C   UNL A   1      32.568  35.475  31.789  1.00  0.00     0.251 C 
ATOM     34  H   UNL A   1      31.705  36.249  30.151  1.00  0.00     0.163 HD
ATOM     35  O   UNL A   1      31.573  35.617  32.492  1.00  0.00    -0.269 OA
BRANCH  33  36
ATOM     36  C   UNL A   1      33.804  34.905  32.369  1.00  0.00     0.039 A 
ATOM     37  C   UNL A   1      34.992  35.636  32.385  1.00  0.00     0.014 A 
ATOM     38  C   UNL A   1      33.775  33.601  32.875  1.00  0.00     0.014 A 
ATOM     39  C   UNL A   1      36.182  35.012  32.748  1.00  0.00     0.010 A 
ATOM     40  C   UNL A   1      34.960  32.996  33.305  1.00  0.00     0.010 A 
ATOM     41  C   UNL A   1      36.182  33.678  33.191  1.00  0.00    -0.014 A 
BRANCH  41  42
ATOM     42  C   UNL A   1      37.473  33.007  33.489  1.00  0.00     0.031 A 
ATOM     43  C   UNL A   1      38.173  33.246  34.800  1.00  0.00     0.074 A 
ATOM     44  C   UNL A   1      37.983  32.125  32.609  1.00  0.00     0.049 A 
ATOM     45  N   UNL A   1      39.287  32.723  35.249  1.00  0.00    -0.248 NA
ATOM     46  C   UNL A   1      37.543  34.197  35.729  1.00  0.00     0.031 C 
ATOM     47  C   UNL A   1      37.390  31.792  31.313  1.00  0.00     0.029 A 
ATOM     48  N   UNL A   1      39.095  31.326  32.683  1.00  0.00    -0.354 N 
ATOM     49  C   UNL A   1      39.496  33.290  36.501  1.00  0.00     0.074 A 
ATOM     50  C   UNL A   1      38.409  34.216  36.732  1.00  0.00     0.031 C 
ATOM     51  C   UNL A   1      38.113  30.820  30.738  1.00  0.00     0.029 A 
ATOM     52  C   UNL A   1      39.245  30.494  31.601  1.00  0.00     0.049 A 
ATOM     53  H   UNL A   1      39.725  31.347  33.439  1.00  0.00     0.167 HD
ATOM     54  C   UNL A   1      40.497  33.049  37.381  1.00  0.00     0.037 A 
ATOM     55  C   UNL A   1      40.188  29.572  31.333  1.00  0.00     0.037 A 
ATOM     56  C   UNL A   1      41.564  32.107  37.168  1.00  0.00     0.049 A 
ATOM     57  C   UNL A   1      41.303  29.348  32.314  1.00  0.00     0.074 A 
ATOM     58  C   UNL A   1      42.611  31.784  38.015  1.00  0.00     0.029 A 
ATOM     59  N   UNL A   1      41.714  31.330  36.030  1.00  0.00    -0.354 N 
ATOM     60  N   UNL A   1      41.494  29.899  33.486  1.00  0.00    -0.248 NA
ATOM     61  C   UNL A   1      42.343  28.383  31.925  1.00  0.00     0.031 C 
ATOM     62  C   UNL A   1      43.413  30.832  37.376  1.00  0.00     0.029 A 
ATOM     63  C   UNL A   1      42.845  30.539  36.146  1.00  0.00     0.049 A 
ATOM     64  H   UNL A   1      41.107  31.338  35.256  1.00  0.00     0.167 HD
ATOM     65  C   UNL A   1      42.668  29.347  33.979  1.00  0.00     0.074 A 
ATOM     66  C   UNL A   1      43.138  28.403  32.987  1.00  0.00     0.031 C 
ATOM     67  C   UNL A   1      43.303  29.609  35.147  1.00  0.00     0.037 A 
BRANCH  54  68
ATOM     68  C   UNL A   1      40.493  33.820  38.668  1.00  0.00     0.064 A 
ATOM     69  C   UNL A   1      41.262  34.981  38.827  1.00  0.00     0.173 A 
ATOM     70  C   UNL A   1      39.662  33.428  39.728  1.00  0.00     0.173 A 
ATOM     71  F   UNL A   1      42.081  35.387  37.846  1.00  0.00    -0.203 F 
ATOM     72  C   UNL A   1      41.208  35.717  40.007  1.00  0.00     0.198 A 
ATOM     73  C   UNL A   1      39.595  34.178  40.899  1.00  0.00     0.198 A 
ATOM     74  F   UNL A   1      38.903  32.328  39.621  1.00  0.00    -0.203 F 
ATOM     75  F   UNL A   1      41.973  36.809  40.150  1.00  0.00    -0.200 F 
ATOM     76  C   UNL A   1      40.370  35.320  41.039  1.00  0.00     0.200 A 
ATOM     77  F   UNL A   1      38.778  33.798  41.891  1.00  0.00    -0.200 F 
ATOM     78  F   UNL A   1      40.311  36.036  42.170  1.00  0.00    -0.200 F 
ENDBRANCH  54  68
BRANCH  55  79
ATOM     79  C   UNL A   1      40.102  28.782  30.080  1.00  0.00     0.064 A 
ATOM     80  C   UNL A   1      40.678  29.257  28.894  1.00  0.00     0.173 A 
ATOM     81  C   UNL A   1      39.474  27.530  30.050  1.00  0.00     0.173 A 
ATOM     82  F   UNL A   1      41.271  30.458  28.872  1.00  0.00    -0.203 F 
ATOM     83  C   UNL A   1      40.627  28.505  27.723  1.00  0.00     0.198 A 
ATOM     84  C   UNL A   1      39.442  26.770  28.885  1.00  0.00     0.198 A 
ATOM     85  F   UNL A   1      38.909  27.036  31.162  1.00  0.00    -0.203 F 
ATOM     86  F   UNL A   1      41.165  28.989  26.595  1.00  0.00    -0.200 F 
ATOM     87  C   UNL A   1      40.018  27.258  27.721  1.00  0.00     0.200 A 
ATOM     88  F   UNL A   1      38.863  25.562  28.889  1.00  0.00    -0.200 F 
ATOM     89  F   UNL A   1      39.981  26.531  26.597  1.00  0.00    -0.200 F 
ENDBRANCH  55  79
BRANCH  67  90
ATOM     90  C   UNL A   1      44.575  28.867  35.419  1.00  0.00     0.064 A 
ATOM     91  C   UNL A   1      44.565  27.619  36.056  1.00  0.00     0.173 A 
ATOM     92  C   UNL A   1      45.808  29.379  34.989  1.00  0.00     0.173 A 
ATOM     93  F   UNL A   1      43.411  27.096  36.497  1.00  0.00    -0.203 F 
ATOM     94  C   UNL A   1      45.746  26.913  36.263  1.00  0.00     0.198 A 
ATOM     95  C   UNL A   1      46.985  28.662  35.180  1.00  0.00     0.198 A 
ATOM     96  F   UNL A   1      45.866  30.568  34.371  1.00  0.00    -0.203 F 
ATOM     97  F   UNL A   1      45.717  25.733  36.898  1.00  0.00    -0.200 F 
ATOM     98  C   UNL A   1      46.954  27.432  35.818  1.00  0.00     0.200 A 
ATOM     99  F   UNL A   1      48.150  29.159  34.742  1.00  0.00    -0.200 F 
ATOM    100  F   UNL A   1      48.089  26.746  36.010  1.00  0.00    -0.200 F 
ENDBRANCH  67  90
ENDBRANCH  41  42
ENDBRANCH  33  36
ENDBRANCH  31  32
ENDBRANCH  30  31
ENDBRANCH  29  30
ENDBRANCH   1  29
TORSDOF 15
ENDMDL
MODEL 2
REMARK VINA RESULT:     -12.6      0.405      7.037
REMARK SMILES O=C(CN1C(=O)/C(=C\c2c(F)cccc2Cl)Oc2ccccc21)NCCCCCCNC(=O)c1ccc(-c2c3nc(c(-c4c(F)c(F)c(F)c(F)c4F)c4ccc([nH]4)c(-c4c(F)c(F)c(F)c(F)c4F)c4nc(c(-c5c(F)c(F)c(F)c(F)c5F)c5ccc2[nH]5)C=C4)C=C3)cc1
REMARK SMILES IDX 27 1 26 2 25 3 24 4 1 5 2 6 3 8 4 9 5 10 23 11 6 12 7 13
REMARK SMILES IDX 18 14 22 15 8 16 17 17 19 18 21 19 20 20 9 21 10 22 15 23
REMARK SMILES IDX 11 24 12 25 14 26 16 27 13 28 28 29 29 30 30 31 31 32 32 33
REMARK SMILES IDX 33 35 34 36 35 37 96 38 36 39 95 40 37 41 38 42 39 43 89 44
REMARK SMILES IDX 40 45 94 46 88 47 90 48 41 49 93 50 87 51 86 52 42 54 74 55
REMARK SMILES IDX 54 56 73 57 55 58 58 59 72 60 91 61 56 62 57 63 71 65 92 66
REMARK SMILES IDX 59 67 43 68 44 69 52 70 45 71 46 72 50 73 53 74 47 75 48 76
REMARK SMILES IDX 51 77 49 78 75 79 76 80 84 81 77 82 78 83 82 84 85 85 79 86
REMARK SMILES IDX 80 87 83 88 81 89 60 90 61 91 69 92 62 93 63 94 67 95 70 96
REMARK SMILES IDX 64 97 65 98 68 99 66 100
REMARK H PARENT 24 7 31 34 90 53 58 64
REMARK Flexibility Score: inf
ROOT
ATOM      1  C   UNL A   1      35.706  32.574  28.002  1.00  0.00     0.002 C 
ENDROOT
BRANCH   1   2
ATOM      2  C   UNL A   1      35.673  31.076  27.676  1.00  0.00     0.021 C 
BRANCH   2   3
ATOM      3  C   UNL A   1      34.271  30.463  27.617  1.00  0.00     0.116 C 
BRANCH   3   4
ATOM      4  N   UNL A   1      33.919  30.010  26.290  1.00  0.00    -0.355 N 
ATOM      5  O   UNL A   1      31.727  29.629  26.812  1.00  0.00    -0.273 OA
ATOM      6  C   UNL A   1      32.632  29.639  25.976  1.00  0.00     0.240 C 
ATOM      7  H   UNL A   1      34.616  29.965  25.595  1.00  0.00     0.163 HD
BRANCH   6   8
ATOM      8  C   UNL A   1      32.419  29.050  24.582  1.00  0.00     0.226 C 
BRANCH   8   9
ATOM      9  N   UNL A   1      31.170  28.327  24.347  1.00  0.00    -0.293 N 
ATOM     10  C   UNL A   1      31.216  26.956  24.544  1.00  0.00     0.294 C 
ATOM     11  C   UNL A   1      30.007  28.954  23.834  1.00  0.00     0.088 A 
ATOM     12  O   UNL A   1      32.125  26.416  25.171  1.00  0.00    -0.265 OA
ATOM     13  C   UNL A   1      30.108  26.175  23.898  1.00  0.00     0.193 C 
ATOM     14  C   UNL A   1      28.904  28.161  23.493  1.00  0.00     0.151 A 
ATOM     15  C   UNL A   1      29.903  30.342  23.673  1.00  0.00     0.030 A 
ATOM     16  C   UNL A   1      30.284  24.898  23.509  1.00  0.00     0.065 C 
ATOM     17  O   UNL A   1      28.901  26.794  23.608  1.00  0.00    -0.449 OA
ATOM     18  C   UNL A   1      27.736  28.733  22.977  1.00  0.00     0.049 A 
ATOM     19  C   UNL A   1      28.737  30.915  23.153  1.00  0.00     0.002 A 
ATOM     20  C   UNL A   1      27.656  30.111  22.800  1.00  0.00     0.004 A 
BRANCH  16  21
ATOM     21  C   UNL A   1      31.563  24.175  23.574  1.00  0.00     0.033 A 
ATOM     22  C   UNL A   1      32.502  24.339  22.549  1.00  0.00     0.132 A 
ATOM     23  C   UNL A   1      31.842  23.240  24.585  1.00  0.00     0.051 A 
ATOM     24  F   UNL A   1      32.277  25.223  21.565  1.00  0.00    -0.206 F 
ATOM     25  C   UNL A   1      33.670  23.580  22.508  1.00  0.00     0.040 A 
ATOM     26  C   UNL A   1      33.018  22.481  24.552  1.00  0.00     0.021 A 
ATOM     27  Cl  UNL A   1      30.748  22.968  25.900  1.00  0.00    -0.084 Cl
ATOM     28  C   UNL A   1      33.927  22.644  23.507  1.00  0.00     0.005 A 
ENDBRANCH  16  21
ENDBRANCH   8   9
ENDBRANCH   6   8
ENDBRANCH   3   4
ENDBRANCH   2   3
ENDBRANCH   1   2
BRANCH   1  29
ATOM     29  C   UNL A   1      34.822  33.016  29.172  1.00  0.00     0.002 C 
BRANCH  29  30
ATOM     30  C   UNL A   1      33.666  33.949  28.809  1.00  0.00     0.021 C 
BRANCH  30  31
ATOM     31  C   UNL A   1      33.825  35.395  29.268  1.00  0.00     0.116 C 
BRANCH  31  32
ATOM     32  N   UNL A   1      32.802  35.809  30.215  1.00  0.00    -0.352 N 
ATOM     33  C   UNL A   1      32.748  35.617  31.577  1.00  0.00     0.251 C 
ATOM     34  H   UNL A   1      32.038  36.294  29.827  1.00  0.00     0.163 HD
ATOM     35  O   UNL A   1      31.741  35.923  32.208  1.00  0.00    -0.269 OA
BRANCH  33  36
ATOM     36  C   UNL A   1      33.895  34.997  32.276  1.00  0.00     0.039 A 
ATOM     37  C   UNL A   1      35.127  35.649  32.348  1.00  0.00     0.014 A 
ATOM     38  C   UNL A   1      33.739  33.727  32.839  1.00  0.00     0.014 A 
ATOM     39  C   UNL A   1      36.241  34.966  32.829  1.00  0.00     0.010 A 
ATOM     40  C   UNL A   1      34.844  33.068  33.387  1.00  0.00     0.010 A 
ATOM     41  C   UNL A   1      36.115  33.661  33.335  1.00  0.00    -0.014 A 
BRANCH  41  42
ATOM     42  C   UNL A   1      37.332  32.922  33.761  1.00  0.00     0.031 A 
ATOM     43  C   UNL A   1      37.983  31.927  32.838  1.00  0.00     0.074 A 
ATOM     44  C   UNL A   1      37.894  33.198  34.953  1.00  0.00     0.049 A 
ATOM     45  N   UNL A   1      39.067  31.216  33.023  1.00  0.00    -0.248 NA
ATOM     46  C   UNL A   1      37.335  31.700  31.537  1.00  0.00     0.031 C 
ATOM     47  C   UNL A   1      37.369  34.155  35.928  1.00  0.00     0.029 A 
ATOM     48  N   UNL A   1      39.043  32.725  35.533  1.00  0.00    -0.354 N 
ATOM     49  C   UNL A   1      39.221  30.449  31.874  1.00  0.00     0.074 A 
ATOM     50  C   UNL A   1      38.106  30.762  31.006  1.00  0.00     0.031 C 
ATOM     51  C   UNL A   1      38.221  34.238  36.961  1.00  0.00     0.029 A 
ATOM     52  C   UNL A   1      39.327  33.309  36.742  1.00  0.00     0.049 A 
ATOM     53  H   UNL A   1      39.610  32.033  35.121  1.00  0.00     0.167 HD
ATOM     54  C   UNL A   1      40.208  29.575  31.567  1.00  0.00     0.037 A 
ATOM     55  C   UNL A   1      40.361  33.118  37.583  1.00  0.00     0.037 A 
ATOM     56  C   UNL A   1      41.334  29.283  32.414  1.00  0.00     0.049 A 
ATOM     57  C   UNL A   1      41.425  32.120  37.230  1.00  0.00     0.074 A 
ATOM     58  C   UNL A   1      42.393  28.424  32.175  1.00  0.00     0.029 A 
ATOM     59  N   UNL A   1      41.551  29.850  33.661  1.00  0.00    -0.354 N 
ATOM     60  N   UNL A   1      41.551  31.395  36.147  1.00  0.00    -0.248 NA
ATOM     61  C   UNL A   1      42.485  31.902  38.227  1.00  0.00     0.031 C 
ATOM     62  C   UNL A   1      43.237  28.448  33.291  1.00  0.00     0.029 A 
ATOM     63  C   UNL A   1      42.719  29.347  34.210  1.00  0.00     0.049 A 
ATOM     64  H   UNL A   1      40.963  30.511  34.091  1.00  0.00     0.167 HD
ATOM     65  C   UNL A   1      42.702  30.640  36.325  1.00  0.00     0.074 A 
ATOM     66  C   UNL A   1      43.251  31.009  37.613  1.00  0.00     0.031 C 
ATOM     67  C   UNL A   1      43.248  29.718  35.496  1.00  0.00     0.037 A 
BRANCH  54  68
ATOM     68  C   UNL A   1      40.121  28.860  30.251  1.00  0.00     0.064 A 
ATOM     69  C   UNL A   1      40.719  29.382  29.096  1.00  0.00     0.173 A 
ATOM     70  C   UNL A   1      39.490  27.612  30.162  1.00  0.00     0.173 A 
ATOM     71  F   UNL A   1      41.324  30.578  29.129  1.00  0.00    -0.203 F 
ATOM     72  C   UNL A   1      40.677  28.682  27.893  1.00  0.00     0.198 A 
ATOM     73  C   UNL A   1      39.467  26.905  28.962  1.00  0.00     0.198 A 
ATOM     74  F   UNL A   1      38.908  27.069  31.241  1.00  0.00    -0.203 F 
ATOM     75  F   UNL A   1      41.231  29.211  26.792  1.00  0.00    -0.200 F 
ATOM     76  C   UNL A   1      40.059  27.442  27.829  1.00  0.00     0.200 A 
ATOM     77  F   UNL A   1      38.877  25.704  28.904  1.00  0.00    -0.200 F 
ATOM     78  F   UNL A   1      40.029  26.766  26.672  1.00  0.00    -0.200 F 
ENDBRANCH  54  68
BRANCH  55  79
ATOM     79  C   UNL A   1      40.438  33.908  38.836  1.00  0.00     0.064 A 
ATOM     80  C   UNL A   1      41.147  35.116  38.878  1.00  0.00     0.173 A 
ATOM     81  C   UNL A   1      39.783  33.490  40.002  1.00  0.00     0.173 A 
ATOM     82  F   UNL A   1      41.806  35.543  37.792  1.00  0.00    -0.203 F 
ATOM     83  C   UNL A   1      41.197  35.877  40.043  1.00  0.00     0.198 A 
ATOM     84  C   UNL A   1      39.815  34.262  41.160  1.00  0.00     0.198 A 
ATOM     85  F   UNL A   1      39.092  32.340  40.008  1.00  0.00    -0.203 F 
ATOM     86  F   UNL A   1      41.899  37.017  40.066  1.00  0.00    -0.200 F 
ATOM     87  C   UNL A   1      40.524  35.455  41.181  1.00  0.00     0.200 A 
ATOM     88  F   UNL A   1      39.154  33.857  42.253  1.00  0.00    -0.200 F 
ATOM     89  F   UNL A   1      40.561  36.194  42.297  1.00  0.00    -0.200 F 
ENDBRANCH  55  79
BRANCH  67  90
ATOM     90  C   UNL A   1      44.503  29.040  35.954  1.00  0.00     0.064 A 
ATOM     91  C   UNL A   1      45.760  29.620  35.738  1.00  0.00     0.173 A 
ATOM     92  C   UNL A   1      44.444  27.832  36.663  1.00  0.00     0.173 A 
ATOM     93  F   UNL A   1      45.866  30.768  35.052  1.00  0.00    -0.203 F 
ATOM     94  C   UNL A   1      46.919  29.007  36.209  1.00  0.00     0.198 A 
ATOM     95  C   UNL A   1      45.602  27.232  37.150  1.00  0.00     0.198 A 
ATOM     96  F   UNL A   1      43.262  27.243  36.898  1.00  0.00    -0.203 F 
ATOM     97  F   UNL A   1      48.114  29.564  35.969  1.00  0.00    -0.200 F 
ATOM     98  C   UNL A   1      46.838  27.819  36.919  1.00  0.00     0.200 A 
ATOM     99  F   UNL A   1      45.523  26.089  37.844  1.00  0.00    -0.200 F 
ATOM    100  F   UNL A   1      47.953  27.235  37.380  1.00  0.00    -0.200 F 
ENDBRANCH  67  90
ENDBRANCH  41  42
ENDBRANCH  33  36
ENDBRANCH  31  32
ENDBRANCH  30  31
ENDBRANCH  29  30
ENDBRANCH   1  29
TORSDOF 15
ENDMDL
MODEL 3
REMARK VINA RESULT:     -12.5      2.839      4.839
REMARK SMILES O=C(CN1C(=O)/C(=C\c2c(F)cccc2Cl)Oc2ccccc21)NCCCCCCNC(=O)c1ccc(-c2c3nc(c(-c4c(F)c(F)c(F)c(F)c4F)c4ccc([nH]4)c(-c4c(F)c(F)c(F)c(F)c4F)c4nc(c(-c5c(F)c(F)c(F)c(F)c5F)c5ccc2[nH]5)C=C4)C=C3)cc1
REMARK SMILES IDX 27 1 26 2 25 3 24 4 1 5 2 6 3 8 4 9 5 10 23 11 6 12 7 13
REMARK SMILES IDX 18 14 22 15 8 16 17 17 19 18 21 19 20 20 9 21 10 22 15 23
REMARK SMILES IDX 11 24 12 25 14 26 16 27 13 28 28 29 29 30 30 31 31 32 32 33
REMARK SMILES IDX 33 35 34 36 35 37 96 38 36 39 95 40 37 41 38 42 39 43 89 44
REMARK SMILES IDX 40 45 94 46 88 47 90 48 41 49 93 50 87 51 86 52 42 54 74 55
REMARK SMILES IDX 54 56 73 57 55 58 58 59 72 60 91 61 56 62 57 63 71 65 92 66
REMARK SMILES IDX 59 67 43 68 44 69 52 70 45 71 46 72 50 73 53 74 47 75 48 76
REMARK SMILES IDX 51 77 49 78 75 79 76 80 84 81 77 82 78 83 82 84 85 85 79 86
REMARK SMILES IDX 80 87 83 88 81 89 60 90 61 91 69 92 62 93 63 94 67 95 70 96
REMARK SMILES IDX 64 97 65 98 68 99 66 100
REMARK H PARENT 24 7 31 34 90 53 58 64
REMARK Flexibility Score: inf
ROOT
ATOM      1  C   UNL A   1      31.524  28.859  22.940  1.00  0.00     0.002 C 
ENDROOT
BRANCH   1   2
ATOM      2  C   UNL A   1      32.990  29.249  22.717  1.00  0.00     0.021 C 
BRANCH   2   3
ATOM      3  C   UNL A   1      33.824  28.208  21.966  1.00  0.00     0.116 C 
BRANCH   3   4
ATOM      4  N   UNL A   1      33.676  26.878  22.515  1.00  0.00    -0.355 N 
ATOM      5  O   UNL A   1      33.210  25.909  20.499  1.00  0.00    -0.273 OA
ATOM      6  C   UNL A   1      33.394  25.797  21.711  1.00  0.00     0.240 C 
ATOM      7  H   UNL A   1      33.777  26.742  23.485  1.00  0.00     0.163 HD
BRANCH   6   8
ATOM      8  C   UNL A   1      33.127  24.473  22.428  1.00  0.00     0.226 C 
BRANCH   8   9
ATOM      9  N   UNL A   1      33.065  24.507  23.888  1.00  0.00    -0.293 N 
ATOM     10  C   UNL A   1      34.196  24.061  24.554  1.00  0.00     0.294 C 
ATOM     11  C   UNL A   1      31.889  24.856  24.597  1.00  0.00     0.088 A 
ATOM     12  O   UNL A   1      35.283  23.947  23.991  1.00  0.00    -0.265 OA
ATOM     13  C   UNL A   1      33.989  23.680  25.992  1.00  0.00     0.193 C 
ATOM     14  C   UNL A   1      31.869  24.713  25.991  1.00  0.00     0.151 A 
ATOM     15  C   UNL A   1      30.745  25.363  23.966  1.00  0.00     0.030 A 
ATOM     16  C   UNL A   1      34.758  22.751  26.589  1.00  0.00     0.065 C 
ATOM     17  O   UNL A   1      32.931  24.223  26.708  1.00  0.00    -0.449 OA
ATOM     18  C   UNL A   1      30.730  25.039  26.733  1.00  0.00     0.049 A 
ATOM     19  C   UNL A   1      29.604  25.686  24.707  1.00  0.00     0.002 A 
ATOM     20  C   UNL A   1      29.594  25.518  26.089  1.00  0.00     0.004 A 
BRANCH  16  21
ATOM     21  C   UNL A   1      35.786  21.953  25.905  1.00  0.00     0.033 A 
ATOM     22  C   UNL A   1      35.450  20.703  25.373  1.00  0.00     0.132 A 
ATOM     23  C   UNL A   1      37.131  22.356  25.850  1.00  0.00     0.051 A 
ATOM     24  F   UNL A   1      34.177  20.279  25.402  1.00  0.00    -0.206 F 
ATOM     25  C   UNL A   1      36.419  19.862  24.828  1.00  0.00     0.040 A 
ATOM     26  C   UNL A   1      38.106  21.518  25.296  1.00  0.00     0.021 A 
ATOM     27  Cl  UNL A   1      37.648  23.887  26.474  1.00  0.00    -0.084 Cl
ATOM     28  C   UNL A   1      37.751  20.266  24.794  1.00  0.00     0.005 A 
ENDBRANCH  16  21
ENDBRANCH   8   9
ENDBRANCH   6   8
ENDBRANCH   3   4
ENDBRANCH   2   3
ENDBRANCH   1   2
BRANCH   1  29
ATOM     29  C   UNL A   1      30.918  29.294  24.276  1.00  0.00     0.002 C 
BRANCH  29  30
ATOM     30  C   UNL A   1      31.583  28.710  25.523  1.00  0.00     0.021 C 
BRANCH  30  31
ATOM     31  C   UNL A   1      32.820  29.456  26.013  1.00  0.00     0.116 C 
BRANCH  31  32
ATOM     32  N   UNL A   1      32.533  30.816  26.443  1.00  0.00    -0.352 N 
ATOM     33  C   UNL A   1      33.273  31.648  27.251  1.00  0.00     0.251 C 
ATOM     34  H   UNL A   1      31.687  31.194  26.109  1.00  0.00     0.163 HD
ATOM     35  O   UNL A   1      32.817  32.726  27.617  1.00  0.00    -0.269 OA
BRANCH  33  36
ATOM     36  C   UNL A   1      34.611  31.218  27.716  1.00  0.00     0.039 A 
ATOM     37  C   UNL A   1      34.871  29.880  28.013  1.00  0.00     0.014 A 
ATOM     38  C   UNL A   1      35.609  32.182  27.888  1.00  0.00     0.014 A 
ATOM     39  C   UNL A   1      36.065  29.531  28.638  1.00  0.00     0.010 A 
ATOM     40  C   UNL A   1      36.837  31.819  28.451  1.00  0.00     0.010 A 
ATOM     41  C   UNL A   1      37.052  30.502  28.882  1.00  0.00    -0.014 A 
BRANCH  41  42
ATOM     42  C   UNL A   1      38.280  30.122  29.628  1.00  0.00     0.031 A 
ATOM     43  C   UNL A   1      38.497  30.606  31.037  1.00  0.00     0.074 A 
ATOM     44  C   UNL A   1      39.168  29.284  29.064  1.00  0.00     0.049 A 
ATOM     45  N   UNL A   1      39.488  30.351  31.855  1.00  0.00    -0.248 NA
ATOM     46  C   UNL A   1      37.469  31.493  31.604  1.00  0.00     0.031 C 
ATOM     47  C   UNL A   1      39.062  28.731  27.713  1.00  0.00     0.029 A 
ATOM     48  N   UNL A   1      40.317  28.726  29.564  1.00  0.00    -0.354 N 
ATOM     49  C   UNL A   1      39.211  31.053  33.021  1.00  0.00     0.074 A 
ATOM     50  C   UNL A   1      37.972  31.768  32.799  1.00  0.00     0.031 C 
ATOM     51  C   UNL A   1      40.072  27.872  27.511  1.00  0.00     0.029 A 
ATOM     52  C   UNL A   1      40.922  27.848  28.698  1.00  0.00     0.049 A 
ATOM     53  H   UNL A   1      40.674  28.934  30.458  1.00  0.00     0.167 HD
ATOM     54  C   UNL A   1      39.918  31.089  34.175  1.00  0.00     0.037 A 
ATOM     55  C   UNL A   1      42.036  27.107  28.843  1.00  0.00     0.037 A 
ATOM     56  C   UNL A   1      41.135  30.357  34.411  1.00  0.00     0.049 A 
ATOM     57  C   UNL A   1      42.818  27.190  30.123  1.00  0.00     0.074 A 
ATOM     58  C   UNL A   1      41.910  30.318  35.557  1.00  0.00     0.029 A 
ATOM     59  N   UNL A   1      41.748  29.528  33.484  1.00  0.00    -0.354 N 
ATOM     60  N   UNL A   1      42.549  27.866  31.211  1.00  0.00    -0.248 NA
ATOM     61  C   UNL A   1      44.066  26.415  30.188  1.00  0.00     0.031 C 
ATOM     62  C   UNL A   1      43.010  29.489  35.315  1.00  0.00     0.029 A 
ATOM     63  C   UNL A   1      42.901  28.985  34.028  1.00  0.00     0.049 A 
ATOM     64  H   UNL A   1      41.415  29.351  32.576  1.00  0.00     0.167 HD
ATOM     65  C   UNL A   1      43.589  27.599  32.092  1.00  0.00     0.074 A 
ATOM     66  C   UNL A   1      44.484  26.681  31.419  1.00  0.00     0.031 C 
ATOM     67  C   UNL A   1      43.785  28.079  33.343  1.00  0.00     0.037 A 
BRANCH  54  68
ATOM     68  C   UNL A   1      39.397  31.953  35.285  1.00  0.00     0.064 A 
ATOM     69  C   UNL A   1      38.545  31.439  36.272  1.00  0.00     0.173 A 
ATOM     70  C   UNL A   1      39.808  33.289  35.398  1.00  0.00     0.173 A 
ATOM     71  F   UNL A   1      38.116  30.170  36.200  1.00  0.00    -0.203 F 
ATOM     72  C   UNL A   1      38.112  32.237  37.328  1.00  0.00     0.198 A 
ATOM     73  C   UNL A   1      39.389  34.078  36.465  1.00  0.00     0.198 A 
ATOM     74  F   UNL A   1      40.627  33.824  34.481  1.00  0.00    -0.203 F 
ATOM     75  F   UNL A   1      37.275  31.734  38.247  1.00  0.00    -0.200 F 
ATOM     76  C   UNL A   1      38.540  33.553  37.427  1.00  0.00     0.200 A 
ATOM     77  F   UNL A   1      39.810  35.347  36.565  1.00  0.00    -0.200 F 
ATOM     78  F   UNL A   1      38.130  34.316  38.450  1.00  0.00    -0.200 F 
ENDBRANCH  54  68
BRANCH  55  79
ATOM     79  C   UNL A   1      42.465  26.210  27.742  1.00  0.00     0.064 A 
ATOM     80  C   UNL A   1      43.437  26.622  26.821  1.00  0.00     0.173 A 
ATOM     81  C   UNL A   1      41.938  24.919  27.608  1.00  0.00     0.173 A 
ATOM     82  F   UNL A   1      43.953  27.856  26.899  1.00  0.00    -0.203 F 
ATOM     83  C   UNL A   1      43.866  25.772  25.805  1.00  0.00     0.198 A 
ATOM     84  C   UNL A   1      42.383  24.062  26.605  1.00  0.00     0.198 A 
ATOM     85  F   UNL A   1      41.005  24.482  28.467  1.00  0.00    -0.203 F 
ATOM     86  F   UNL A   1      44.781  26.196  24.922  1.00  0.00    -0.200 F 
ATOM     87  C   UNL A   1      43.346  24.490  25.702  1.00  0.00     0.200 A 
ATOM     88  F   UNL A   1      41.887  22.821  26.517  1.00  0.00    -0.200 F 
ATOM     89  F   UNL A   1      43.769  23.669  24.732  1.00  0.00    -0.200 F 
ENDBRANCH  55  79
BRANCH  67  90
ATOM     90  C   UNL A   1      45.013  27.625  34.069  1.00  0.00     0.064 A 
ATOM     91  C   UNL A   1      45.027  26.423  34.791  1.00  0.00     0.173 A 
ATOM     92  C   UNL A   1      46.203  28.365  33.995  1.00  0.00     0.173 A 
ATOM     93  F   UNL A   1      43.909  25.690  34.901  1.00  0.00    -0.203 F 
ATOM     94  C   UNL A   1      46.186  25.983  35.424  1.00  0.00     0.198 A 
ATOM     95  C   UNL A   1      47.365  27.912  34.612  1.00  0.00     0.198 A 
ATOM     96  F   UNL A   1      46.238  29.518  33.312  1.00  0.00    -0.203 F 
ATOM     97  F   UNL A   1      46.171  24.846  36.131  1.00  0.00    -0.200 F 
ATOM     98  C   UNL A   1      47.355  26.724  35.327  1.00  0.00     0.200 A 
ATOM     99  F   UNL A   1      48.496  28.623  34.511  1.00  0.00    -0.200 F 
ATOM    100  F   UNL A   1      48.473  26.294  35.929  1.00  0.00    -0.200 F 
ENDBRANCH  67  90
ENDBRANCH  41  42
ENDBRANCH  33  36
ENDBRANCH  31  32
ENDBRANCH  30  31
ENDBRANCH  29  30
ENDBRANCH   1  29
TORSDOF 15
ENDMDL
