MODEL 1
REMARK VINA RESULT:     -11.9      0.000      0.000
REMARK SMILES O=C(C[C@H]1C[N@@H+](Cc2ccncc2)CCO1)NCCCCCCNC(=O)c1ccc(-c2c3nc(c(-c4c(F)c(F)c(F)c(F)c4F)c4ccc([nH]4)c(-c4c(F)c(F)c(F)c(F)c4F)c4nc(c(-c5c(F)c(F)c(F)c(F)c5F)c5ccc2[nH]5)C=C4)C=C3)cc1
REMARK SMILES IDX 20 1 19 2 18 3 17 4 1 5 2 6 3 8 4 9 5 10 16 11 6 12 15 13
REMARK SMILES IDX 14 14 7 16 8 17 9 18 13 19 10 20 12 21 11 22 21 23 22 24
REMARK SMILES IDX 23 25 24 26 25 27 26 29 27 30 28 31 89 32 29 33 88 34 30 35
REMARK SMILES IDX 31 36 32 37 82 38 33 39 87 40 81 41 83 42 34 43 86 44 80 45
REMARK SMILES IDX 79 46 35 48 67 49 47 50 66 51 48 52 51 53 65 54 84 55 49 56
REMARK SMILES IDX 50 57 64 59 85 60 52 61 36 62 37 63 45 64 38 65 39 66 43 67
REMARK SMILES IDX 46 68 40 69 41 70 44 71 42 72 68 73 69 74 77 75 70 76 71 77
REMARK SMILES IDX 75 78 78 79 72 80 73 81 76 82 74 83 53 84 54 85 62 86 55 87
REMARK SMILES IDX 56 88 60 89 63 90 57 91 58 92 61 93 59 94
REMARK H PARENT 17 7 6 15 24 28 83 47 51 58
REMARK Flexibility Score: inf
ROOT
ATOM      1  C   UNL A   1      33.105  30.070  26.499  1.00  0.00     0.002 C 
ENDROOT
BRANCH   1   2
ATOM      2  C   UNL A   1      33.047  28.911  27.492  1.00  0.00     0.021 C 
BRANCH   2   3
ATOM      3  C   UNL A   1      31.910  27.944  27.210  1.00  0.00     0.116 C 
BRANCH   3   4
ATOM      4  N   UNL A   1      32.228  26.902  26.261  1.00  0.00    -0.356 N 
ATOM      5  O   UNL A   1      30.092  26.244  25.790  1.00  0.00    -0.275 OA
ATOM      6  C   UNL A   1      31.281  26.288  25.487  1.00  0.00     0.222 C 
ATOM      7  H   UNL A   1      33.167  26.622  26.166  1.00  0.00     0.163 HD
BRANCH   6   8
ATOM      8  C   UNL A   1      31.799  25.525  24.292  1.00  0.00     0.138 C 
BRANCH   8   9
ATOM      9  C   UNL A   1      32.236  26.261  23.013  1.00  0.00     0.182 C 
ATOM     10  C   UNL A   1      31.101  27.006  22.264  1.00  0.00     0.295 C 
ATOM     11  O   UNL A   1      33.470  26.995  23.092  1.00  0.00    -0.366 OA
ATOM     12  N   UNL A   1      31.013  28.444  22.453  1.00  0.00    -0.327 N 
ATOM     13  C   UNL A   1      33.317  28.398  23.358  1.00  0.00     0.222 C 
ATOM     14  C   UNL A   1      32.310  29.095  22.452  1.00  0.00     0.291 C 
ATOM     15  H   UNL A   1      30.579  28.777  21.592  1.00  0.00     0.348 HD
BRANCH  12  16
ATOM     16  C   UNL A   1      29.945  28.985  23.277  1.00  0.00     0.299 C 
BRANCH  16  17
ATOM     17  C   UNL A   1      29.195  30.206  22.805  1.00  0.00     0.009 A 
ATOM     18  C   UNL A   1      29.014  31.317  23.635  1.00  0.00     0.029 A 
ATOM     19  C   UNL A   1      28.763  30.307  21.478  1.00  0.00     0.029 A 
ATOM     20  C   UNL A   1      28.437  32.465  23.106  1.00  0.00     0.111 A 
ATOM     21  C   UNL A   1      28.193  31.499  21.043  1.00  0.00     0.111 A 
ATOM     22  N   UNL A   1      28.038  32.587  21.826  1.00  0.00    -0.265 NA
ENDBRANCH  16  17
ENDBRANCH  12  16
ENDBRANCH   8   9
ENDBRANCH   6   8
ENDBRANCH   3   4
ENDBRANCH   2   3
ENDBRANCH   1   2
BRANCH   1  23
ATOM     23  C   UNL A   1      31.734  30.648  26.134  1.00  0.00     0.002 C 
BRANCH  23  24
ATOM     24  C   UNL A   1      31.454  32.027  26.734  1.00  0.00     0.021 C 
BRANCH  24  25
ATOM     25  C   UNL A   1      32.679  32.684  27.358  1.00  0.00     0.116 C 
BRANCH  25  26
ATOM     26  N   UNL A   1      32.455  34.101  27.600  1.00  0.00    -0.352 N 
ATOM     27  C   UNL A   1      32.993  34.904  28.573  1.00  0.00     0.251 C 
ATOM     28  H   UNL A   1      31.831  34.545  26.982  1.00  0.00     0.163 HD
ATOM     29  O   UNL A   1      32.513  36.001  28.822  1.00  0.00    -0.269 OA
BRANCH  27  30
ATOM     30  C   UNL A   1      34.163  34.417  29.325  1.00  0.00     0.039 A 
ATOM     31  C   UNL A   1      33.968  33.764  30.543  1.00  0.00     0.014 A 
ATOM     32  C   UNL A   1      35.450  34.591  28.807  1.00  0.00     0.014 A 
ATOM     33  C   UNL A   1      35.065  33.230  31.215  1.00  0.00     0.010 A 
ATOM     34  C   UNL A   1      36.531  33.989  29.436  1.00  0.00     0.010 A 
ATOM     35  C   UNL A   1      36.348  33.307  30.648  1.00  0.00    -0.014 A 
BRANCH  35  36
ATOM     36  C   UNL A   1      37.514  32.667  31.301  1.00  0.00     0.031 A 
ATOM     37  C   UNL A   1      38.212  31.516  30.636  1.00  0.00     0.074 A 
ATOM     38  C   UNL A   1      37.893  33.077  32.526  1.00  0.00     0.049 A 
ATOM     39  N   UNL A   1      39.198  30.779  31.078  1.00  0.00    -0.248 NA
ATOM     40  C   UNL A   1      37.713  31.120  29.310  1.00  0.00     0.031 C 
ATOM     41  C   UNL A   1      37.252  34.148  33.292  1.00  0.00     0.029 A 
ATOM     42  N   UNL A   1      38.894  32.631  33.350  1.00  0.00    -0.354 N 
ATOM     43  C   UNL A   1      39.432  29.832  30.089  1.00  0.00     0.074 A 
ATOM     44  C   UNL A   1      38.442  30.046  29.057  1.00  0.00     0.031 C 
ATOM     45  C   UNL A   1      37.885  34.284  34.467  1.00  0.00     0.029 A 
ATOM     46  C   UNL A   1      38.944  33.285  34.556  1.00  0.00     0.049 A 
ATOM     47  H   UNL A   1      39.518  31.910  33.101  1.00  0.00     0.167 HD
ATOM     48  C   UNL A   1      40.401  28.888  30.039  1.00  0.00     0.037 A 
ATOM     49  C   UNL A   1      39.744  33.086  35.622  1.00  0.00     0.037 A 
ATOM     50  C   UNL A   1      41.383  28.687  31.073  1.00  0.00     0.049 A 
ATOM     51  C   UNL A   1      40.799  32.016  35.553  1.00  0.00     0.074 A 
ATOM     52  C   UNL A   1      42.442  27.799  31.097  1.00  0.00     0.029 A 
ATOM     53  N   UNL A   1      41.414  29.379  32.276  1.00  0.00    -0.354 N 
ATOM     54  N   UNL A   1      41.067  31.180  34.580  1.00  0.00    -0.248 NA
ATOM     55  C   UNL A   1      41.667  31.868  36.729  1.00  0.00     0.031 C 
ATOM     56  C   UNL A   1      43.077  27.909  32.339  1.00  0.00     0.029 A 
ATOM     57  C   UNL A   1      42.455  28.912  33.065  1.00  0.00     0.049 A 
ATOM     58  H   UNL A   1      40.791  30.097  32.532  1.00  0.00     0.167 HD
ATOM     59  C   UNL A   1      42.144  30.419  35.014  1.00  0.00     0.074 A 
ATOM     60  C   UNL A   1      42.493  30.910  36.332  1.00  0.00     0.031 C 
ATOM     61  C   UNL A   1      42.784  29.407  34.379  1.00  0.00     0.037 A 
BRANCH  48  62
ATOM     62  C   UNL A   1      40.437  27.998  28.828  1.00  0.00     0.064 A 
ATOM     63  C   UNL A   1      39.747  26.776  28.789  1.00  0.00     0.173 A 
ATOM     64  C   UNL A   1      41.160  28.376  27.687  1.00  0.00     0.173 A 
ATOM     65  F   UNL A   1      39.046  26.360  29.855  1.00  0.00    -0.203 F 
ATOM     66  C   UNL A   1      39.817  25.947  27.671  1.00  0.00     0.198 A 
ATOM     67  C   UNL A   1      41.196  27.563  26.557  1.00  0.00     0.198 A 
ATOM     68  F   UNL A   1      41.832  29.537  27.665  1.00  0.00    -0.203 F 
ATOM     69  F   UNL A   1      39.204  24.755  27.685  1.00  0.00    -0.200 F 
ATOM     70  C   UNL A   1      40.536  26.344  26.554  1.00  0.00     0.200 A 
ATOM     71  F   UNL A   1      41.878  27.956  25.472  1.00  0.00    -0.200 F 
ATOM     72  F   UNL A   1      40.600  25.547  25.479  1.00  0.00    -0.200 F 
ENDBRANCH  48  62
BRANCH  49  73
ATOM     73  C   UNL A   1      39.571  33.926  36.836  1.00  0.00     0.064 A 
ATOM     74  C   UNL A   1      40.162  35.192  36.932  1.00  0.00     0.173 A 
ATOM     75  C   UNL A   1      38.792  33.486  37.917  1.00  0.00     0.173 A 
ATOM     76  F   UNL A   1      40.930  35.649  35.932  1.00  0.00    -0.203 F 
ATOM     77  C   UNL A   1      39.996  35.980  38.068  1.00  0.00     0.198 A 
ATOM     78  C   UNL A   1      38.600  34.289  39.040  1.00  0.00     0.198 A 
ATOM     79  F   UNL A   1      38.196  32.285  37.873  1.00  0.00    -0.203 F 
ATOM     80  F   UNL A   1      40.607  37.171  38.151  1.00  0.00    -0.200 F 
ATOM     81  C   UNL A   1      39.208  35.531  39.118  1.00  0.00     0.200 A 
ATOM     82  F   UNL A   1      37.821  33.858  40.043  1.00  0.00    -0.200 F 
ATOM     83  F   UNL A   1      39.039  36.295  40.206  1.00  0.00    -0.200 F 
ENDBRANCH  49  73
BRANCH  61  84
ATOM     84  C   UNL A   1      43.943  28.771  35.092  1.00  0.00     0.064 A 
ATOM     85  C   UNL A   1      43.776  27.646  35.914  1.00  0.00     0.173 A 
ATOM     86  C   UNL A   1      45.245  29.265  34.914  1.00  0.00     0.173 A 
ATOM     87  F   UNL A   1      42.550  27.145  36.131  1.00  0.00    -0.203 F 
ATOM     88  C   UNL A   1      44.865  27.055  36.549  1.00  0.00     0.198 A 
ATOM     89  C   UNL A   1      46.335  28.651  35.523  1.00  0.00     0.198 A 
ATOM     90  F   UNL A   1      45.462  30.334  34.133  1.00  0.00    -0.203 F 
ATOM     91  F   UNL A   1      44.674  26.012  37.369  1.00  0.00    -0.200 F 
ATOM     92  C   UNL A   1      46.144  27.552  36.346  1.00  0.00     0.200 A 
ATOM     93  F   UNL A   1      47.572  29.121  35.311  1.00  0.00    -0.200 F 
ATOM     94  F   UNL A   1      47.192  26.973  36.948  1.00  0.00    -0.200 F 
ENDBRANCH  61  84
ENDBRANCH  35  36
ENDBRANCH  27  30
ENDBRANCH  25  26
ENDBRANCH  24  25
ENDBRANCH  23  24
ENDBRANCH   1  23
TORSDOF 16
ENDMDL
MODEL 2
REMARK VINA RESULT:     -11.6      2.857      4.773
REMARK SMILES O=C(C[C@H]1C[N@@H+](Cc2ccncc2)CCO1)NCCCCCCNC(=O)c1ccc(-c2c3nc(c(-c4c(F)c(F)c(F)c(F)c4F)c4ccc([nH]4)c(-c4c(F)c(F)c(F)c(F)c4F)c4nc(c(-c5c(F)c(F)c(F)c(F)c5F)c5ccc2[nH]5)C=C4)C=C3)cc1
REMARK SMILES IDX 20 1 19 2 18 3 17 4 1 5 2 6 3 8 4 9 5 10 16 11 6 12 15 13
REMARK SMILES IDX 14 14 7 16 8 17 9 18 13 19 10 20 12 21 11 22 21 23 22 24
REMARK SMILES IDX 23 25 24 26 25 27 26 29 27 30 28 31 89 32 29 33 88 34 30 35
REMARK SMILES IDX 31 36 32 37 82 38 33 39 87 40 81 41 83 42 34 43 86 44 80 45
REMARK SMILES IDX 79 46 35 48 67 49 47 50 66 51 48 52 51 53 65 54 84 55 49 56
REMARK SMILES IDX 50 57 64 59 85 60 52 61 36 62 37 63 45 64 38 65 39 66 43 67
REMARK SMILES IDX 46 68 40 69 41 70 44 71 42 72 68 73 69 74 77 75 70 76 71 77
REMARK SMILES IDX 75 78 78 79 72 80 73 81 76 82 74 83 53 84 54 85 62 86 55 87
REMARK SMILES IDX 56 88 60 89 63 90 57 91 58 92 61 93 59 94
REMARK H PARENT 17 7 6 15 24 28 83 47 51 58
REMARK Flexibility Score: inf
ROOT
ATOM      1  C   UNL A   1      32.913  29.613  27.247  1.00  0.00     0.002 C 
ENDROOT
BRANCH   1   2
ATOM      2  C   UNL A   1      33.533  28.356  26.639  1.00  0.00     0.021 C 
BRANCH   2   3
ATOM      3  C   UNL A   1      32.498  27.395  26.077  1.00  0.00     0.116 C 
BRANCH   3   4
ATOM      4  N   UNL A   1      32.888  26.004  26.111  1.00  0.00    -0.356 N 
ATOM      5  O   UNL A   1      30.917  25.145  26.880  1.00  0.00    -0.275 OA
ATOM      6  C   UNL A   1      31.996  24.988  26.315  1.00  0.00     0.222 C 
ATOM      7  H   UNL A   1      33.838  25.778  25.982  1.00  0.00     0.163 HD
BRANCH   6   8
ATOM      8  C   UNL A   1      32.472  23.606  25.937  1.00  0.00     0.138 C 
BRANCH   8   9
ATOM      9  C   UNL A   1      33.689  22.971  26.632  1.00  0.00     0.182 C 
ATOM     10  C   UNL A   1      33.628  21.428  26.781  1.00  0.00     0.295 C 
ATOM     11  O   UNL A   1      34.978  23.475  26.240  1.00  0.00    -0.366 OA
ATOM     12  N   UNL A   1      34.395  20.638  25.833  1.00  0.00    -0.327 N 
ATOM     13  C   UNL A   1      35.650  22.689  25.243  1.00  0.00     0.222 C 
ATOM     14  C   UNL A   1      35.705  21.200  25.558  1.00  0.00     0.291 C 
ATOM     15  H   UNL A   1      34.606  19.782  26.344  1.00  0.00     0.348 HD
BRANCH  12  16
ATOM     16  C   UNL A   1      33.695  19.917  24.784  1.00  0.00     0.299 C 
BRANCH  16  17
ATOM     17  C   UNL A   1      33.682  18.409  24.806  1.00  0.00     0.009 A 
ATOM     18  C   UNL A   1      34.801  17.663  24.423  1.00  0.00     0.029 A 
ATOM     19  C   UNL A   1      32.586  17.715  25.331  1.00  0.00     0.029 A 
ATOM     20  C   UNL A   1      34.782  16.284  24.593  1.00  0.00     0.111 A 
ATOM     21  C   UNL A   1      32.662  16.332  25.459  1.00  0.00     0.111 A 
ATOM     22  N   UNL A   1      33.745  15.604  25.118  1.00  0.00    -0.265 NA
ENDBRANCH  16  17
ENDBRANCH  12  16
ENDBRANCH   8   9
ENDBRANCH   6   8
ENDBRANCH   3   4
ENDBRANCH   2   3
ENDBRANCH   1   2
BRANCH   1  23
ATOM     23  C   UNL A   1      31.828  30.256  26.379  1.00  0.00     0.002 C 
BRANCH  23  24
ATOM     24  C   UNL A   1      31.608  31.746  26.649  1.00  0.00     0.021 C 
BRANCH  24  25
ATOM     25  C   UNL A   1      32.820  32.443  27.254  1.00  0.00     0.116 C 
BRANCH  25  26
ATOM     26  N   UNL A   1      32.544  33.848  27.520  1.00  0.00    -0.352 N 
ATOM     27  C   UNL A   1      33.044  34.650  28.514  1.00  0.00     0.251 C 
ATOM     28  H   UNL A   1      31.913  34.282  26.903  1.00  0.00     0.163 HD
ATOM     29  O   UNL A   1      32.524  35.725  28.777  1.00  0.00    -0.269 OA
BRANCH  27  30
ATOM     30  C   UNL A   1      34.221  34.188  29.271  1.00  0.00     0.039 A 
ATOM     31  C   UNL A   1      34.035  33.500  30.469  1.00  0.00     0.014 A 
ATOM     32  C   UNL A   1      35.508  34.423  28.774  1.00  0.00     0.014 A 
ATOM     33  C   UNL A   1      35.142  32.991  31.144  1.00  0.00     0.010 A 
ATOM     34  C   UNL A   1      36.602  33.846  29.405  1.00  0.00     0.010 A 
ATOM     35  C   UNL A   1      36.430  33.129  30.597  1.00  0.00    -0.014 A 
BRANCH  35  36
ATOM     36  C   UNL A   1      37.610  32.518  31.251  1.00  0.00     0.031 A 
ATOM     37  C   UNL A   1      38.330  31.378  30.591  1.00  0.00     0.074 A 
ATOM     38  C   UNL A   1      37.983  32.942  32.473  1.00  0.00     0.049 A 
ATOM     39  N   UNL A   1      39.333  30.664  31.035  1.00  0.00    -0.248 NA
ATOM     40  C   UNL A   1      37.837  30.964  29.269  1.00  0.00     0.031 C 
ATOM     41  C   UNL A   1      37.322  34.004  33.234  1.00  0.00     0.029 A 
ATOM     42  N   UNL A   1      38.995  32.522  33.297  1.00  0.00    -0.354 N 
ATOM     43  C   UNL A   1      39.585  29.716  30.051  1.00  0.00     0.074 A 
ATOM     44  C   UNL A   1      38.588  29.903  29.020  1.00  0.00     0.031 C 
ATOM     45  C   UNL A   1      37.954  34.160  34.407  1.00  0.00     0.029 A 
ATOM     46  C   UNL A   1      39.034  33.183  34.500  1.00  0.00     0.049 A 
ATOM     47  H   UNL A   1      39.633  31.813  33.051  1.00  0.00     0.167 HD
ATOM     48  C   UNL A   1      40.573  28.792  30.004  1.00  0.00     0.037 A 
ATOM     49  C   UNL A   1      39.840  33.008  35.564  1.00  0.00     0.037 A 
ATOM     50  C   UNL A   1      41.561  28.619  31.037  1.00  0.00     0.049 A 
ATOM     51  C   UNL A   1      40.917  31.960  35.500  1.00  0.00     0.074 A 
ATOM     52  C   UNL A   1      42.639  27.753  31.064  1.00  0.00     0.029 A 
ATOM     53  N   UNL A   1      41.580  29.317  32.236  1.00  0.00    -0.354 N 
ATOM     54  N   UNL A   1      41.200  31.124  34.531  1.00  0.00    -0.248 NA
ATOM     55  C   UNL A   1      41.791  31.836  36.674  1.00  0.00     0.031 C 
ATOM     56  C   UNL A   1      43.274  27.883  32.304  1.00  0.00     0.029 A 
ATOM     57  C   UNL A   1      42.633  28.877  33.025  1.00  0.00     0.049 A 
ATOM     58  H   UNL A   1      40.942  30.024  32.489  1.00  0.00     0.167 HD
ATOM     59  C   UNL A   1      42.294  30.388  34.966  1.00  0.00     0.074 A 
ATOM     60  C   UNL A   1      42.636  30.893  36.281  1.00  0.00     0.031 C 
ATOM     61  C   UNL A   1      42.954  29.386  34.335  1.00  0.00     0.037 A 
BRANCH  48  62
ATOM     62  C   UNL A   1      40.624  27.897  28.798  1.00  0.00     0.064 A 
ATOM     63  C   UNL A   1      39.916  26.686  28.746  1.00  0.00     0.173 A 
ATOM     64  C   UNL A   1      41.383  28.258  27.674  1.00  0.00     0.173 A 
ATOM     65  F   UNL A   1      39.181  26.286  29.796  1.00  0.00    -0.203 F 
ATOM     66  C   UNL A   1      40.000  25.851  27.634  1.00  0.00     0.198 A 
ATOM     67  C   UNL A   1      41.434  27.439  26.549  1.00  0.00     0.198 A 
ATOM     68  F   UNL A   1      42.074  29.407  27.665  1.00  0.00    -0.203 F 
ATOM     69  F   UNL A   1      39.367  24.670  27.637  1.00  0.00    -0.200 F 
ATOM     70  C   UNL A   1      40.754  26.231  26.534  1.00  0.00     0.200 A 
ATOM     71  F   UNL A   1      42.151  27.815  25.481  1.00  0.00    -0.200 F 
ATOM     72  F   UNL A   1      40.832  25.428  25.465  1.00  0.00    -0.200 F 
ENDBRANCH  48  62
BRANCH  49  73
ATOM     73  C   UNL A   1      39.652  33.850  36.774  1.00  0.00     0.064 A 
ATOM     74  C   UNL A   1      40.232  35.122  36.869  1.00  0.00     0.173 A 
ATOM     75  C   UNL A   1      38.870  33.409  37.852  1.00  0.00     0.173 A 
ATOM     76  F   UNL A   1      41.004  35.582  35.873  1.00  0.00    -0.203 F 
ATOM     77  C   UNL A   1      40.052  35.913  38.002  1.00  0.00     0.198 A 
ATOM     78  C   UNL A   1      38.663  34.214  38.970  1.00  0.00     0.198 A 
ATOM     79  F   UNL A   1      38.283  32.203  37.808  1.00  0.00    -0.203 F 
ATOM     80  F   UNL A   1      40.653  37.108  38.084  1.00  0.00    -0.200 F 
ATOM     81  C   UNL A   1      39.261  35.461  39.048  1.00  0.00     0.200 A 
ATOM     82  F   UNL A   1      37.881  33.781  39.969  1.00  0.00    -0.200 F 
ATOM     83  F   UNL A   1      39.078  36.227  40.132  1.00  0.00    -0.200 F 
ENDBRANCH  49  73
BRANCH  61  84
ATOM     84  C   UNL A   1      44.128  28.779  35.049  1.00  0.00     0.064 A 
ATOM     85  C   UNL A   1      45.424  29.299  34.912  1.00  0.00     0.173 A 
ATOM     86  C   UNL A   1      43.946  27.693  35.919  1.00  0.00     0.173 A 
ATOM     87  F   UNL A   1      45.655  30.326  34.080  1.00  0.00    -0.203 F 
ATOM     88  C   UNL A   1      46.498  28.738  35.599  1.00  0.00     0.198 A 
ATOM     89  C   UNL A   1      45.015  27.156  36.631  1.00  0.00     0.198 A 
ATOM     90  F   UNL A   1      42.726  27.162  36.092  1.00  0.00    -0.203 F 
ATOM     91  F   UNL A   1      47.734  29.219  35.413  1.00  0.00    -0.200 F 
ATOM     92  C   UNL A   1      46.291  27.674  36.465  1.00  0.00     0.200 A 
ATOM     93  F   UNL A   1      44.810  26.140  37.480  1.00  0.00    -0.200 F 
ATOM     94  F   UNL A   1      47.323  27.144  37.135  1.00  0.00    -0.200 F 
ENDBRANCH  61  84
ENDBRANCH  35  36
ENDBRANCH  27  30
ENDBRANCH  25  26
ENDBRANCH  24  25
ENDBRANCH  23  24
ENDBRANCH   1  23
TORSDOF 16
ENDMDL
MODEL 3
REMARK VINA RESULT:     -11.5      0.439      7.415
REMARK SMILES O=C(C[C@H]1C[N@@H+](Cc2ccncc2)CCO1)NCCCCCCNC(=O)c1ccc(-c2c3nc(c(-c4c(F)c(F)c(F)c(F)c4F)c4ccc([nH]4)c(-c4c(F)c(F)c(F)c(F)c4F)c4nc(c(-c5c(F)c(F)c(F)c(F)c5F)c5ccc2[nH]5)C=C4)C=C3)cc1
REMARK SMILES IDX 20 1 19 2 18 3 17 4 1 5 2 6 3 8 4 9 5 10 16 11 6 12 15 13
REMARK SMILES IDX 14 14 7 16 8 17 9 18 13 19 10 20 12 21 11 22 21 23 22 24
REMARK SMILES IDX 23 25 24 26 25 27 26 29 27 30 28 31 89 32 29 33 88 34 30 35
REMARK SMILES IDX 31 36 32 37 82 38 33 39 87 40 81 41 83 42 34 43 86 44 80 45
REMARK SMILES IDX 79 46 35 48 67 49 47 50 66 51 48 52 51 53 65 54 84 55 49 56
REMARK SMILES IDX 50 57 64 59 85 60 52 61 36 62 37 63 45 64 38 65 39 66 43 67
REMARK SMILES IDX 46 68 40 69 41 70 44 71 42 72 68 73 69 74 77 75 70 76 71 77
REMARK SMILES IDX 75 78 78 79 72 80 73 81 76 82 74 83 53 84 54 85 62 86 55 87
REMARK SMILES IDX 56 88 60 89 63 90 57 91 58 92 61 93 59 94
REMARK H PARENT 17 7 6 15 24 28 83 47 51 58
REMARK Flexibility Score: inf
ROOT
ATOM      1  C   UNL A   1      32.660  30.173  26.135  1.00  0.00     0.002 C 
ENDROOT
BRANCH   1   2
ATOM      2  C   UNL A   1      33.116  29.124  27.147  1.00  0.00     0.021 C 
BRANCH   2   3
ATOM      3  C   UNL A   1      32.170  27.937  27.239  1.00  0.00     0.116 C 
BRANCH   3   4
ATOM      4  N   UNL A   1      32.445  26.875  26.299  1.00  0.00    -0.356 N 
ATOM      5  O   UNL A   1      30.296  26.168  25.986  1.00  0.00    -0.275 OA
ATOM      6  C   UNL A   1      31.462  26.224  25.606  1.00  0.00     0.222 C 
ATOM      7  H   UNL A   1      33.381  26.608  26.151  1.00  0.00     0.163 HD
BRANCH   6   8
ATOM      8  C   UNL A   1      31.916  25.437  24.400  1.00  0.00     0.138 C 
BRANCH   8   9
ATOM      9  C   UNL A   1      32.270  26.145  23.081  1.00  0.00     0.182 C 
ATOM     10  C   UNL A   1      31.069  26.783  22.335  1.00  0.00     0.295 C 
ATOM     11  O   UNL A   1      33.455  26.960  23.096  1.00  0.00    -0.366 OA
ATOM     12  N   UNL A   1      30.892  28.218  22.468  1.00  0.00    -0.327 N 
ATOM     13  C   UNL A   1      33.217  28.360  23.309  1.00  0.00     0.222 C 
ATOM     14  C   UNL A   1      32.144  28.951  22.405  1.00  0.00     0.291 C 
ATOM     15  H   UNL A   1      30.416  28.486  21.608  1.00  0.00     0.348 HD
BRANCH  12  16
ATOM     16  C   UNL A   1      29.813  28.724  23.300  1.00  0.00     0.299 C 
BRANCH  16  17
ATOM     17  C   UNL A   1      29.114  30.002  22.908  1.00  0.00     0.009 A 
ATOM     18  C   UNL A   1      29.115  31.121  23.745  1.00  0.00     0.029 A 
ATOM     19  C   UNL A   1      28.548  30.142  21.635  1.00  0.00     0.029 A 
ATOM     20  C   UNL A   1      28.576  32.313  23.278  1.00  0.00     0.111 A 
ATOM     21  C   UNL A   1      28.030  31.376  21.260  1.00  0.00     0.111 A 
ATOM     22  N   UNL A   1      28.050  32.471  22.049  1.00  0.00    -0.265 NA
ENDBRANCH  16  17
ENDBRANCH  12  16
ENDBRANCH   8   9
ENDBRANCH   6   8
ENDBRANCH   3   4
ENDBRANCH   2   3
ENDBRANCH   1   2
BRANCH   1  23
ATOM     23  C   UNL A   1      31.336  30.854  26.497  1.00  0.00     0.002 C 
BRANCH  23  24
ATOM     24  C   UNL A   1      31.406  32.382  26.534  1.00  0.00     0.021 C 
BRANCH  24  25
ATOM     25  C   UNL A   1      32.638  32.922  27.247  1.00  0.00     0.116 C 
BRANCH  25  26
ATOM     26  N   UNL A   1      32.458  34.312  27.639  1.00  0.00    -0.352 N 
ATOM     27  C   UNL A   1      33.000  34.984  28.705  1.00  0.00     0.251 C 
ATOM     28  H   UNL A   1      31.865  34.844  27.061  1.00  0.00     0.163 HD
ATOM     29  O   UNL A   1      32.552  36.064  29.063  1.00  0.00    -0.269 OA
BRANCH  27  30
ATOM     30  C   UNL A   1      34.134  34.374  29.422  1.00  0.00     0.039 A 
ATOM     31  C   UNL A   1      33.890  33.624  30.573  1.00  0.00     0.014 A 
ATOM     32  C   UNL A   1      35.436  34.533  28.936  1.00  0.00     0.014 A 
ATOM     33  C   UNL A   1      34.950  32.979  31.205  1.00  0.00     0.010 A 
ATOM     34  C   UNL A   1      36.477  33.825  29.519  1.00  0.00     0.010 A 
ATOM     35  C   UNL A   1      36.245  33.045  30.662  1.00  0.00    -0.014 A 
BRANCH  35  36
ATOM     36  C   UNL A   1      37.370  32.294  31.266  1.00  0.00     0.031 A 
ATOM     37  C   UNL A   1      37.880  32.669  32.627  1.00  0.00     0.074 A 
ATOM     38  C   UNL A   1      37.976  31.325  30.555  1.00  0.00     0.049 A 
ATOM     39  N   UNL A   1      38.897  32.184  33.292  1.00  0.00    -0.248 NA
ATOM     40  C   UNL A   1      37.172  33.757  33.320  1.00  0.00     0.031 C 
ATOM     41  C   UNL A   1      37.602  30.915  29.200  1.00  0.00     0.029 A 
ATOM     42  N   UNL A   1      39.045  30.524  30.863  1.00  0.00    -0.354 N 
ATOM     43  C   UNL A   1      38.953  32.910  34.475  1.00  0.00     0.074 A 
ATOM     44  C   UNL A   1      37.912  33.911  34.406  1.00  0.00     0.031 C 
ATOM     45  C   UNL A   1      38.419  29.930  28.800  1.00  0.00     0.029 A 
ATOM     46  C   UNL A   1      39.400  29.670  29.848  1.00  0.00     0.049 A 
ATOM     47  H   UNL A   1      39.514  30.558  31.728  1.00  0.00     0.167 HD
ATOM     48  C   UNL A   1      39.784  32.738  35.531  1.00  0.00     0.037 A 
ATOM     49  C   UNL A   1      40.416  28.789  29.766  1.00  0.00     0.037 A 
ATOM     50  C   UNL A   1      40.815  31.735  35.587  1.00  0.00     0.049 A 
ATOM     51  C   UNL A   1      41.340  28.630  30.943  1.00  0.00     0.074 A 
ATOM     52  C   UNL A   1      41.673  31.437  36.630  1.00  0.00     0.029 A 
ATOM     53  N   UNL A   1      41.137  30.875  34.547  1.00  0.00    -0.354 N 
ATOM     54  N   UNL A   1      41.334  29.263  32.090  1.00  0.00    -0.248 NA
ATOM     55  C   UNL A   1      42.408  27.629  30.814  1.00  0.00     0.031 C 
ATOM     56  C   UNL A   1      42.555  30.440  36.200  1.00  0.00     0.029 A 
ATOM     57  C   UNL A   1      42.205  30.069  34.912  1.00  0.00     0.049 A 
ATOM     58  H   UNL A   1      40.675  30.840  33.678  1.00  0.00     0.167 HD
ATOM     59  C   UNL A   1      42.381  28.727  32.829  1.00  0.00     0.074 A 
ATOM     60  C   UNL A   1      42.986  27.701  32.005  1.00  0.00     0.031 C 
ATOM     61  C   UNL A   1      42.801  29.056  34.075  1.00  0.00     0.037 A 
BRANCH  48  62
ATOM     62  C   UNL A   1      39.611  33.663  36.703  1.00  0.00     0.064 A 
ATOM     63  C   UNL A   1      40.260  34.905  36.767  1.00  0.00     0.173 A 
ATOM     64  C   UNL A   1      38.776  33.307  37.774  1.00  0.00     0.173 A 
ATOM     65  F   UNL A   1      41.078  35.293  35.775  1.00  0.00    -0.203 F 
ATOM     66  C   UNL A   1      40.116  35.736  37.876  1.00  0.00     0.198 A 
ATOM     67  C   UNL A   1      38.603  34.157  38.863  1.00  0.00     0.198 A 
ATOM     68  F   UNL A   1      38.123  32.135  37.763  1.00  0.00    -0.203 F 
ATOM     69  F   UNL A   1      40.799  36.887  37.941  1.00  0.00    -0.200 F 
ATOM     70  C   UNL A   1      39.282  35.365  38.919  1.00  0.00     0.200 A 
ATOM     71  F   UNL A   1      37.785  33.804  39.864  1.00  0.00    -0.200 F 
ATOM     72  F   UNL A   1      39.142  36.166  39.984  1.00  0.00    -0.200 F 
ENDBRANCH  48  62
BRANCH  49  73
ATOM     73  C   UNL A   1      40.600  27.993  28.525  1.00  0.00     0.064 A 
ATOM     74  C   UNL A   1      41.382  28.472  27.466  1.00  0.00     0.173 A 
ATOM     75  C   UNL A   1      40.016  26.725  28.382  1.00  0.00     0.173 A 
ATOM     76  F   UNL A   1      41.947  29.686  27.548  1.00  0.00    -0.203 F 
ATOM     77  C   UNL A   1      41.558  27.724  26.305  1.00  0.00     0.198 A 
ATOM     78  C   UNL A   1      40.219  25.963  27.233  1.00  0.00     0.198 A 
ATOM     79  F   UNL A   1      39.265  26.215  29.370  1.00  0.00    -0.203 F 
ATOM     80  F   UNL A   1      42.277  28.224  25.290  1.00  0.00    -0.200 F 
ATOM     81  C   UNL A   1      40.983  26.466  26.192  1.00  0.00     0.200 A 
ATOM     82  F   UNL A   1      39.678  24.740  27.138  1.00  0.00    -0.200 F 
ATOM     83  F   UNL A   1      41.163  25.741  25.080  1.00  0.00    -0.200 F 
ENDBRANCH  49  73
BRANCH  61  84
ATOM     84  C   UNL A   1      43.962  28.285  34.635  1.00  0.00     0.064 A 
ATOM     85  C   UNL A   1      45.280  28.754  34.525  1.00  0.00     0.173 A 
ATOM     86  C   UNL A   1      43.749  27.086  35.332  1.00  0.00     0.173 A 
ATOM     87  F   UNL A   1      45.540  29.886  33.855  1.00  0.00    -0.203 F 
ATOM     88  C   UNL A   1      46.343  28.038  35.071  1.00  0.00     0.198 A 
ATOM     89  C   UNL A   1      44.810  26.390  35.906  1.00  0.00     0.198 A 
ATOM     90  F   UNL A   1      42.508  26.596  35.472  1.00  0.00    -0.203 F 
ATOM     91  F   UNL A   1      47.598  28.480  34.910  1.00  0.00    -0.200 F 
ATOM     92  C   UNL A   1      46.106  26.863  35.768  1.00  0.00     0.200 A 
ATOM     93  F   UNL A   1      44.577  25.264  36.594  1.00  0.00    -0.200 F 
ATOM     94  F   UNL A   1      47.129  26.182  36.303  1.00  0.00    -0.200 F 
ENDBRANCH  61  84
ENDBRANCH  35  36
ENDBRANCH  27  30
ENDBRANCH  25  26
ENDBRANCH  24  25
ENDBRANCH  23  24
ENDBRANCH   1  23
TORSDOF 16
ENDMDL
