MODEL 1
REMARK VINA RESULT:     -11.8      0.000      0.000
REMARK SMILES CN(C(=O)N[C@@](C)(C(=O)NCCCCCCNC(=O)c1ccc(-c2c3nc(c(-c4c(F)c(F)c(F)c(F)c4F)c4ccc([nH]4)c(-c4c(F)c(F)c(F)c(F)c4F)c4nc(c(-c5c(F)c(F)c(F)c(F)c5F)c5ccc2[nH]5)C=C4)C=C3)cc1)C(F)(F)F)c1ccc(F)cc1
REMARK SMILES IDX 13 1 12 2 11 3 10 4 8 5 9 6 6 8 7 9 5 10 3 11 4 12 2 14 1 15
REMARK SMILES IDX 87 16 88 17 93 18 89 19 92 20 90 21 91 22 83 23 84 24 85 25
REMARK SMILES IDX 86 26 14 27 15 28 16 29 17 30 18 31 19 33 20 34 21 35 82 36
REMARK SMILES IDX 22 37 81 38 23 39 24 40 25 41 75 42 26 43 80 44 74 45 76 46
REMARK SMILES IDX 27 47 79 48 73 49 72 50 28 52 60 53 40 54 59 55 41 56 44 57
REMARK SMILES IDX 58 58 77 59 42 60 43 61 57 63 78 64 45 65 29 66 30 67 38 68
REMARK SMILES IDX 31 69 32 70 36 71 39 72 33 73 34 74 37 75 35 76 61 77 62 78
REMARK SMILES IDX 70 79 63 80 64 81 68 82 71 83 65 84 66 85 69 86 67 87 46 88
REMARK SMILES IDX 47 89 55 90 48 91 49 92 53 93 56 94 50 95 51 96 54 97 52 98
REMARK H PARENT 10 7 5 13 17 32 76 51 44 62
REMARK Flexibility Score: inf
ROOT
ATOM      1  C   UNL A   1      37.244  22.184  24.475  1.00  0.00     0.002 C 
ENDROOT
BRANCH   1   2
ATOM      2  C   UNL A   1      37.031  23.302  25.506  1.00  0.00     0.021 C 
BRANCH   2   3
ATOM      3  C   UNL A   1      35.573  23.708  25.719  1.00  0.00     0.116 C 
BRANCH   3   4
ATOM      4  N   UNL A   1      35.109  24.526  24.618  1.00  0.00    -0.354 N 
ATOM      5  C   UNL A   1      34.030  24.503  23.797  1.00  0.00     0.255 C 
ATOM      6  O   UNL A   1      34.131  25.262  22.827  1.00  0.00    -0.272 OA
ATOM      7  H   UNL A   1      35.718  25.273  24.419  1.00  0.00     0.163 HD
BRANCH   5   8
ATOM      8  C   UNL A   1      32.812  23.565  23.990  1.00  0.00     0.213 C 
ATOM      9  C   UNL A   1      31.628  23.947  23.078  1.00  0.00     0.056 C 
BRANCH   8  10
ATOM     10  N   UNL A   1      32.373  23.772  25.424  1.00  0.00    -0.316 N 
ATOM     11  C   UNL A   1      31.746  24.542  26.322  1.00  0.00     0.322 C 
ATOM     12  O   UNL A   1      31.604  23.954  27.404  1.00  0.00    -0.248 OA
ATOM     13  H   UNL A   1      32.692  22.983  25.921  1.00  0.00     0.166 HD
BRANCH  11  14
ATOM     14  N   UNL A   1      31.293  25.809  26.111  1.00  0.00    -0.298 N 
ATOM     15  C   UNL A   1      30.171  26.186  25.277  1.00  0.00     0.155 C 
BRANCH  14  16
ATOM     16  C   UNL A   1      32.043  26.946  26.567  1.00  0.00     0.045 A 
ATOM     17  C   UNL A   1      33.399  27.097  26.245  1.00  0.00     0.029 A 
ATOM     18  C   UNL A   1      31.367  28.011  27.189  1.00  0.00     0.029 A 
ATOM     19  C   UNL A   1      34.044  28.316  26.476  1.00  0.00     0.041 A 
ATOM     20  C   UNL A   1      32.019  29.219  27.440  1.00  0.00     0.041 A 
ATOM     21  C   UNL A   1      33.345  29.367  27.060  1.00  0.00     0.123 A 
ATOM     22  F   UNL A   1      33.953  30.547  27.240  1.00  0.00    -0.207 F 
ENDBRANCH  14  16
ENDBRANCH  11  14
ENDBRANCH   8  10
BRANCH   8  23
ATOM     23  C   UNL A   1      33.350  22.224  23.434  1.00  0.00     0.420 C 
ATOM     24  F   UNL A   1      33.591  21.291  24.374  1.00  0.00    -0.168 F 
ATOM     25  F   UNL A   1      32.497  21.682  22.527  1.00  0.00    -0.168 F 
ATOM     26  F   UNL A   1      34.503  22.406  22.735  1.00  0.00    -0.168 F 
ENDBRANCH   8  23
ENDBRANCH   5   8
ENDBRANCH   3   4
ENDBRANCH   2   3
ENDBRANCH   1   2
BRANCH   1  27
ATOM     27  C   UNL A   1      36.875  20.777  24.954  1.00  0.00     0.002 C 
BRANCH  27  28
ATOM     28  C   UNL A   1      38.031  19.778  24.957  1.00  0.00     0.021 C 
BRANCH  28  29
ATOM     29  C   UNL A   1      39.218  20.190  25.817  1.00  0.00     0.116 C 
BRANCH  29  30
ATOM     30  N   UNL A   1      40.211  19.134  25.931  1.00  0.00    -0.352 N 
ATOM     31  C   UNL A   1      41.562  19.241  26.137  1.00  0.00     0.251 C 
ATOM     32  H   UNL A   1      39.866  18.216  25.847  1.00  0.00     0.163 HD
ATOM     33  O   UNL A   1      42.290  18.258  26.027  1.00  0.00    -0.269 OA
BRANCH  31  34
ATOM     34  C   UNL A   1      42.145  20.557  26.467  1.00  0.00     0.039 A 
ATOM     35  C   UNL A   1      42.642  21.355  25.435  1.00  0.00     0.014 A 
ATOM     36  C   UNL A   1      42.182  21.009  27.790  1.00  0.00     0.014 A 
ATOM     37  C   UNL A   1      43.127  22.632  25.723  1.00  0.00     0.010 A 
ATOM     38  C   UNL A   1      42.584  22.311  28.064  1.00  0.00     0.010 A 
ATOM     39  C   UNL A   1      43.068  23.133  27.035  1.00  0.00    -0.014 A 
BRANCH  39  40
ATOM     40  C   UNL A   1      43.512  24.514  27.350  1.00  0.00     0.031 A 
ATOM     41  C   UNL A   1      42.508  25.559  27.746  1.00  0.00     0.074 A 
ATOM     42  C   UNL A   1      44.812  24.841  27.219  1.00  0.00     0.049 A 
ATOM     43  N   UNL A   1      42.694  26.825  28.022  1.00  0.00    -0.248 NA
ATOM     44  C   UNL A   1      41.103  25.129  27.813  1.00  0.00     0.031 C 
ATOM     45  C   UNL A   1      45.874  23.926  26.802  1.00  0.00     0.029 A 
ATOM     46  N   UNL A   1      45.459  26.033  27.423  1.00  0.00    -0.354 N 
ATOM     47  C   UNL A   1      41.432  27.344  28.278  1.00  0.00     0.074 A 
ATOM     48  C   UNL A   1      40.484  26.273  28.062  1.00  0.00     0.031 C 
ATOM     49  C   UNL A   1      47.048  24.578  26.822  1.00  0.00     0.029 A 
ATOM     50  C   UNL A   1      46.813  25.966  27.207  1.00  0.00     0.049 A 
ATOM     51  H   UNL A   1      44.996  26.858  27.696  1.00  0.00     0.167 HD
ATOM     52  C   UNL A   1      41.095  28.594  28.681  1.00  0.00     0.037 A 
ATOM     53  C   UNL A   1      47.759  26.919  27.311  1.00  0.00     0.037 A 
ATOM     54  C   UNL A   1      42.047  29.651  28.904  1.00  0.00     0.049 A 
ATOM     55  C   UNL A   1      47.358  28.309  27.724  1.00  0.00     0.074 A 
ATOM     56  C   UNL A   1      41.820  30.932  29.375  1.00  0.00     0.029 A 
ATOM     57  N   UNL A   1      43.409  29.552  28.657  1.00  0.00    -0.354 N 
ATOM     58  N   UNL A   1      46.174  28.770  28.043  1.00  0.00    -0.248 NA
ATOM     59  C   UNL A   1      48.431  29.310  27.793  1.00  0.00     0.031 C 
ATOM     60  C   UNL A   1      43.033  31.630  29.347  1.00  0.00     0.029 A 
ATOM     61  C   UNL A   1      44.030  30.763  28.926  1.00  0.00     0.049 A 
ATOM     62  H   UNL A   1      43.868  28.743  28.336  1.00  0.00     0.167 HD
ATOM     63  C   UNL A   1      46.360  30.103  28.383  1.00  0.00     0.074 A 
ATOM     64  C   UNL A   1      47.777  30.373  28.241  1.00  0.00     0.031 C 
ATOM     65  C   UNL A   1      45.443  31.019  28.782  1.00  0.00     0.037 A 
BRANCH  52  66
ATOM     66  C   UNL A   1      39.633  28.882  28.882  1.00  0.00     0.064 A 
ATOM     67  C   UNL A   1      38.824  29.378  27.846  1.00  0.00     0.173 A 
ATOM     68  C   UNL A   1      39.031  28.665  30.131  1.00  0.00     0.173 A 
ATOM     69  F   UNL A   1      39.347  29.613  26.632  1.00  0.00    -0.203 F 
ATOM     70  C   UNL A   1      37.487  29.697  28.068  1.00  0.00     0.198 A 
ATOM     71  C   UNL A   1      37.683  28.947  30.339  1.00  0.00     0.198 A 
ATOM     72  F   UNL A   1      39.752  28.183  31.155  1.00  0.00    -0.203 F 
ATOM     73  F   UNL A   1      36.757  30.243  27.085  1.00  0.00    -0.200 F 
ATOM     74  C   UNL A   1      36.916  29.477  29.313  1.00  0.00     0.200 A 
ATOM     75  F   UNL A   1      37.130  28.719  31.537  1.00  0.00    -0.200 F 
ATOM     76  F   UNL A   1      35.631  29.789  29.527  1.00  0.00    -0.200 F 
ENDBRANCH  52  66
BRANCH  53  77
ATOM     77  C   UNL A   1      49.183  26.575  27.066  1.00  0.00     0.064 A 
ATOM     78  C   UNL A   1      49.737  26.708  25.784  1.00  0.00     0.173 A 
ATOM     79  C   UNL A   1      50.022  26.126  28.096  1.00  0.00     0.173 A 
ATOM     80  F   UNL A   1      48.971  27.115  24.762  1.00  0.00    -0.203 F 
ATOM     81  C   UNL A   1      51.073  26.394  25.541  1.00  0.00     0.198 A 
ATOM     82  C   UNL A   1      51.365  25.840  27.857  1.00  0.00     0.198 A 
ATOM     83  F   UNL A   1      49.542  25.987  29.340  1.00  0.00    -0.203 F 
ATOM     84  F   UNL A   1      51.567  26.495  24.299  1.00  0.00    -0.200 F 
ATOM     85  C   UNL A   1      51.887  25.968  26.578  1.00  0.00     0.200 A 
ATOM     86  F   UNL A   1      52.153  25.445  28.866  1.00  0.00    -0.200 F 
ATOM     87  F   UNL A   1      53.175  25.677  26.346  1.00  0.00    -0.200 F 
ENDBRANCH  53  77
BRANCH  65  88
ATOM     88  C   UNL A   1      45.944  32.392  29.130  1.00  0.00     0.064 A 
ATOM     89  C   UNL A   1      46.077  33.401  28.164  1.00  0.00     0.173 A 
ATOM     90  C   UNL A   1      46.264  32.713  30.460  1.00  0.00     0.173 A 
ATOM     91  F   UNL A   1      45.801  33.144  26.877  1.00  0.00    -0.203 F 
ATOM     92  C   UNL A   1      46.537  34.669  28.511  1.00  0.00     0.198 A 
ATOM     93  C   UNL A   1      46.690  33.991  30.808  1.00  0.00     0.198 A 
ATOM     94  F   UNL A   1      46.150  31.788  31.424  1.00  0.00    -0.203 F 
ATOM     95  F   UNL A   1      46.709  35.599  27.562  1.00  0.00    -0.200 F 
ATOM     96  C   UNL A   1      46.835  34.965  29.832  1.00  0.00     0.200 A 
ATOM     97  F   UNL A   1      46.960  34.279  32.088  1.00  0.00    -0.200 F 
ATOM     98  F   UNL A   1      47.270  36.189  30.165  1.00  0.00    -0.200 F 
ENDBRANCH  65  88
ENDBRANCH  39  40
ENDBRANCH  31  34
ENDBRANCH  29  30
ENDBRANCH  28  29
ENDBRANCH  27  28
ENDBRANCH   1  27
TORSDOF 17
ENDMDL
MODEL 2
REMARK VINA RESULT:     -11.8      5.424     10.625
REMARK SMILES CN(C(=O)N[C@@](C)(C(=O)NCCCCCCNC(=O)c1ccc(-c2c3nc(c(-c4c(F)c(F)c(F)c(F)c4F)c4ccc([nH]4)c(-c4c(F)c(F)c(F)c(F)c4F)c4nc(c(-c5c(F)c(F)c(F)c(F)c5F)c5ccc2[nH]5)C=C4)C=C3)cc1)C(F)(F)F)c1ccc(F)cc1
REMARK SMILES IDX 13 1 12 2 11 3 10 4 8 5 9 6 6 8 7 9 5 10 3 11 4 12 2 14 1 15
REMARK SMILES IDX 87 16 88 17 93 18 89 19 92 20 90 21 91 22 83 23 84 24 85 25
REMARK SMILES IDX 86 26 14 27 15 28 16 29 17 30 18 31 19 33 20 34 21 35 82 36
REMARK SMILES IDX 22 37 81 38 23 39 24 40 25 41 75 42 26 43 80 44 74 45 76 46
REMARK SMILES IDX 27 47 79 48 73 49 72 50 28 52 60 53 40 54 59 55 41 56 44 57
REMARK SMILES IDX 58 58 77 59 42 60 43 61 57 63 78 64 45 65 29 66 30 67 38 68
REMARK SMILES IDX 31 69 32 70 36 71 39 72 33 73 34 74 37 75 35 76 61 77 62 78
REMARK SMILES IDX 70 79 63 80 64 81 68 82 71 83 65 84 66 85 69 86 67 87 46 88
REMARK SMILES IDX 47 89 55 90 48 91 49 92 53 93 56 94 50 95 51 96 54 97 52 98
REMARK H PARENT 10 7 5 13 17 32 76 51 44 62
REMARK Flexibility Score: inf
ROOT
ATOM      1  C   UNL A   1      32.747  29.866  26.923  1.00  0.00     0.002 C 
ENDROOT
BRANCH   1   2
ATOM      2  C   UNL A   1      32.415  28.378  27.113  1.00  0.00     0.021 C 
BRANCH   2   3
ATOM      3  C   UNL A   1      33.022  27.447  26.065  1.00  0.00     0.116 C 
BRANCH   3   4
ATOM      4  N   UNL A   1      32.538  26.094  26.248  1.00  0.00    -0.354 N 
ATOM      5  C   UNL A   1      31.720  25.267  25.551  1.00  0.00     0.255 C 
ATOM      6  O   UNL A   1      31.383  24.259  26.182  1.00  0.00    -0.272 OA
ATOM      7  H   UNL A   1      32.884  25.678  27.071  1.00  0.00     0.163 HD
BRANCH   5   8
ATOM      8  C   UNL A   1      31.181  25.574  24.131  1.00  0.00     0.213 C 
ATOM      9  C   UNL A   1      30.395  24.389  23.535  1.00  0.00     0.056 C 
BRANCH   8  10
ATOM     10  N   UNL A   1      32.412  25.786  23.275  1.00  0.00    -0.316 N 
ATOM     11  C   UNL A   1      33.493  25.259  22.687  1.00  0.00     0.322 C 
ATOM     12  O   UNL A   1      34.030  26.070  21.918  1.00  0.00    -0.248 OA
ATOM     13  H   UNL A   1      32.421  26.745  23.048  1.00  0.00     0.166 HD
BRANCH  11  14
ATOM     14  N   UNL A   1      33.966  23.995  22.869  1.00  0.00    -0.298 N 
ATOM     15  C   UNL A   1      33.292  22.770  22.497  1.00  0.00     0.155 C 
BRANCH  14  16
ATOM     16  C   UNL A   1      35.145  23.756  23.655  1.00  0.00     0.045 A 
ATOM     17  C   UNL A   1      35.279  24.294  24.942  1.00  0.00     0.029 A 
ATOM     18  C   UNL A   1      36.094  22.822  23.203  1.00  0.00     0.029 A 
ATOM     19  C   UNL A   1      36.303  23.850  25.785  1.00  0.00     0.041 A 
ATOM     20  C   UNL A   1      37.129  22.398  24.037  1.00  0.00     0.041 A 
ATOM     21  C   UNL A   1      37.210  22.900  25.329  1.00  0.00     0.123 A 
ATOM     22  F   UNL A   1      38.163  22.445  26.152  1.00  0.00    -0.207 F 
ENDBRANCH  14  16
ENDBRANCH  11  14
ENDBRANCH   8  10
BRANCH   8  23
ATOM     23  C   UNL A   1      30.127  26.670  24.420  1.00  0.00     0.420 C 
ATOM     24  F   UNL A   1      29.032  26.605  23.638  1.00  0.00    -0.168 F 
ATOM     25  F   UNL A   1      29.711  26.635  25.712  1.00  0.00    -0.168 F 
ATOM     26  F   UNL A   1      30.656  27.915  24.276  1.00  0.00    -0.168 F 
ENDBRANCH   8  23
ENDBRANCH   5   8
ENDBRANCH   3   4
ENDBRANCH   2   3
ENDBRANCH   1   2
BRANCH   1  27
ATOM     27  C   UNL A   1      31.741  30.657  26.082  1.00  0.00     0.002 C 
BRANCH  27  28
ATOM     28  C   UNL A   1      31.486  32.085  26.563  1.00  0.00     0.021 C 
BRANCH  28  29
ATOM     29  C   UNL A   1      32.648  32.709  27.325  1.00  0.00     0.116 C 
BRANCH  29  30
ATOM     30  N   UNL A   1      32.415  34.110  27.636  1.00  0.00    -0.352 N 
ATOM     31  C   UNL A   1      33.006  34.889  28.598  1.00  0.00     0.251 C 
ATOM     32  H   UNL A   1      31.739  34.562  27.081  1.00  0.00     0.163 HD
ATOM     33  O   UNL A   1      32.566  36.007  28.852  1.00  0.00    -0.269 OA
BRANCH  31  34
ATOM     34  C   UNL A   1      34.162  34.362  29.349  1.00  0.00     0.039 A 
ATOM     35  C   UNL A   1      33.939  33.690  30.552  1.00  0.00     0.014 A 
ATOM     36  C   UNL A   1      35.462  34.515  28.857  1.00  0.00     0.014 A 
ATOM     37  C   UNL A   1      35.015  33.122  31.235  1.00  0.00     0.010 A 
ATOM     38  C   UNL A   1      36.521  33.876  29.491  1.00  0.00     0.010 A 
ATOM     39  C   UNL A   1      36.310  33.179  30.691  1.00  0.00    -0.014 A 
BRANCH  39  40
ATOM     40  C   UNL A   1      37.456  32.520  31.366  1.00  0.00     0.031 A 
ATOM     41  C   UNL A   1      38.144  31.352  30.719  1.00  0.00     0.074 A 
ATOM     42  C   UNL A   1      37.837  32.936  32.588  1.00  0.00     0.049 A 
ATOM     43  N   UNL A   1      39.135  30.621  31.164  1.00  0.00    -0.248 NA
ATOM     44  C   UNL A   1      37.629  30.930  29.407  1.00  0.00     0.031 C 
ATOM     45  C   UNL A   1      37.221  34.032  33.337  1.00  0.00     0.029 A 
ATOM     46  N   UNL A   1      38.833  32.484  33.416  1.00  0.00    -0.354 N 
ATOM     47  C   UNL A   1      39.350  29.648  30.198  1.00  0.00     0.074 A 
ATOM     48  C   UNL A   1      38.346  29.841  29.174  1.00  0.00     0.031 C 
ATOM     49  C   UNL A   1      37.881  34.196  34.495  1.00  0.00     0.029 A 
ATOM     50  C   UNL A   1      38.932  33.189  34.590  1.00  0.00     0.049 A 
ATOM     51  H   UNL A   1      39.420  31.726  33.191  1.00  0.00     0.167 HD
ATOM     52  C   UNL A   1      40.312  28.694  30.156  1.00  0.00     0.037 A 
ATOM     53  C   UNL A   1      39.779  33.039  35.626  1.00  0.00     0.037 A 
ATOM     54  C   UNL A   1      41.314  28.517  31.174  1.00  0.00     0.049 A 
ATOM     55  C   UNL A   1      40.816  31.949  35.575  1.00  0.00     0.074 A 
ATOM     56  C   UNL A   1      42.373  27.627  31.197  1.00  0.00     0.029 A 
ATOM     57  N   UNL A   1      41.372  29.237  32.359  1.00  0.00    -0.354 N 
ATOM     58  N   UNL A   1      41.065  31.086  34.621  1.00  0.00    -0.248 NA
ATOM     59  C   UNL A   1      41.692  31.819  36.747  1.00  0.00     0.031 C 
ATOM     60  C   UNL A   1      43.029  27.760  32.427  1.00  0.00     0.029 A 
ATOM     61  C   UNL A   1      42.424  28.783  33.140  1.00  0.00     0.049 A 
ATOM     62  H   UNL A   1      40.756  29.963  32.610  1.00  0.00     0.167 HD
ATOM     63  C   UNL A   1      42.145  30.331  35.060  1.00  0.00     0.074 A 
ATOM     64  C   UNL A   1      42.510  30.849  36.363  1.00  0.00     0.031 C 
ATOM     65  C   UNL A   1      42.779  29.307  34.437  1.00  0.00     0.037 A 
BRANCH  52  66
ATOM     66  C   UNL A   1      40.305  27.761  28.976  1.00  0.00     0.064 A 
ATOM     67  C   UNL A   1      41.026  28.039  27.804  1.00  0.00     0.173 A 
ATOM     68  C   UNL A   1      39.561  26.572  29.016  1.00  0.00     0.173 A 
ATOM     69  F   UNL A   1      41.749  29.166  27.705  1.00  0.00    -0.203 F 
ATOM     70  C   UNL A   1      40.957  27.194  26.699  1.00  0.00     0.198 A 
ATOM     71  C   UNL A   1      39.527  25.707  27.925  1.00  0.00     0.198 A 
ATOM     72  F   UNL A   1      38.860  26.248  30.114  1.00  0.00    -0.203 F 
ATOM     73  F   UNL A   1      41.591  27.522  25.565  1.00  0.00    -0.200 F 
ATOM     74  C   UNL A   1      40.212  26.026  26.763  1.00  0.00     0.200 A 
ATOM     75  F   UNL A   1      38.819  24.572  27.994  1.00  0.00    -0.200 F 
ATOM     76  F   UNL A   1      40.143  25.215  25.698  1.00  0.00    -0.200 F 
ENDBRANCH  52  66
BRANCH  53  77
ATOM     77  C   UNL A   1      39.710  33.976  36.778  1.00  0.00     0.064 A 
ATOM     78  C   UNL A   1      40.426  35.182  36.758  1.00  0.00     0.173 A 
ATOM     79  C   UNL A   1      38.924  33.702  37.906  1.00  0.00     0.173 A 
ATOM     80  F   UNL A   1      41.208  35.479  35.709  1.00  0.00    -0.203 F 
ATOM     81  C   UNL A   1      40.367  36.073  37.827  1.00  0.00     0.198 A 
ATOM     82  C   UNL A   1      38.843  34.606  38.962  1.00  0.00     0.198 A 
ATOM     83  F   UNL A   1      38.216  32.565  37.971  1.00  0.00    -0.203 F 
ATOM     84  F   UNL A   1      41.090  37.200  37.798  1.00  0.00    -0.200 F 
ATOM     85  C   UNL A   1      39.570  35.788  38.926  1.00  0.00     0.200 A 
ATOM     86  F   UNL A   1      38.058  34.336  40.014  1.00  0.00    -0.200 F 
ATOM     87  F   UNL A   1      39.503  36.650  39.949  1.00  0.00    -0.200 F 
ENDBRANCH  53  77
BRANCH  65  88
ATOM     88  C   UNL A   1      43.960  28.698  35.139  1.00  0.00     0.064 A 
ATOM     89  C   UNL A   1      45.264  29.180  34.951  1.00  0.00     0.173 A 
ATOM     90  C   UNL A   1      43.778  27.637  36.041  1.00  0.00     0.173 A 
ATOM     91  F   UNL A   1      45.497  30.180  34.088  1.00  0.00    -0.203 F 
ATOM     92  C   UNL A   1      46.344  28.605  35.617  1.00  0.00     0.198 A 
ATOM     93  C   UNL A   1      44.854  27.089  36.732  1.00  0.00     0.198 A 
ATOM     94  F   UNL A   1      42.551  27.142  36.263  1.00  0.00    -0.203 F 
ATOM     95  F   UNL A   1      47.587  29.046  35.380  1.00  0.00    -0.200 F 
ATOM     96  C   UNL A   1      46.137  27.567  36.513  1.00  0.00     0.200 A 
ATOM     97  F   UNL A   1      44.649  26.098  37.610  1.00  0.00    -0.200 F 
ATOM     98  F   UNL A   1      47.176  27.021  37.160  1.00  0.00    -0.200 F 
ENDBRANCH  65  88
ENDBRANCH  39  40
ENDBRANCH  31  34
ENDBRANCH  29  30
ENDBRANCH  28  29
ENDBRANCH  27  28
ENDBRANCH   1  27
TORSDOF 17
ENDMDL
MODEL 3
REMARK VINA RESULT:     -11.5      5.267      9.712
REMARK SMILES CN(C(=O)N[C@@](C)(C(=O)NCCCCCCNC(=O)c1ccc(-c2c3nc(c(-c4c(F)c(F)c(F)c(F)c4F)c4ccc([nH]4)c(-c4c(F)c(F)c(F)c(F)c4F)c4nc(c(-c5c(F)c(F)c(F)c(F)c5F)c5ccc2[nH]5)C=C4)C=C3)cc1)C(F)(F)F)c1ccc(F)cc1
REMARK SMILES IDX 13 1 12 2 11 3 10 4 8 5 9 6 6 8 7 9 5 10 3 11 4 12 2 14 1 15
REMARK SMILES IDX 87 16 88 17 93 18 89 19 92 20 90 21 91 22 83 23 84 24 85 25
REMARK SMILES IDX 86 26 14 27 15 28 16 29 17 30 18 31 19 33 20 34 21 35 82 36
REMARK SMILES IDX 22 37 81 38 23 39 24 40 25 41 75 42 26 43 80 44 74 45 76 46
REMARK SMILES IDX 27 47 79 48 73 49 72 50 28 52 60 53 40 54 59 55 41 56 44 57
REMARK SMILES IDX 58 58 77 59 42 60 43 61 57 63 78 64 45 65 29 66 30 67 38 68
REMARK SMILES IDX 31 69 32 70 36 71 39 72 33 73 34 74 37 75 35 76 61 77 62 78
REMARK SMILES IDX 70 79 63 80 64 81 68 82 71 83 65 84 66 85 69 86 67 87 46 88
REMARK SMILES IDX 47 89 55 90 48 91 49 92 53 93 56 94 50 95 51 96 54 97 52 98
REMARK H PARENT 10 7 5 13 17 32 76 51 44 62
REMARK Flexibility Score: inf
ROOT
ATOM      1  C   UNL A   1      32.012  30.006  25.377  1.00  0.00     0.002 C 
ENDROOT
BRANCH   1   2
ATOM      2  C   UNL A   1      31.014  29.680  24.256  1.00  0.00     0.021 C 
BRANCH   2   3
ATOM      3  C   UNL A   1      30.919  28.198  23.894  1.00  0.00     0.116 C 
BRANCH   3   4
ATOM      4  N   UNL A   1      30.672  27.402  25.078  1.00  0.00    -0.354 N 
ATOM      5  C   UNL A   1      31.112  26.203  25.534  1.00  0.00     0.255 C 
ATOM      6  O   UNL A   1      30.470  25.777  26.501  1.00  0.00    -0.272 OA
ATOM      7  H   UNL A   1      30.037  27.831  25.696  1.00  0.00     0.163 HD
BRANCH   5   8
ATOM      8  C   UNL A   1      32.253  25.389  24.875  1.00  0.00     0.213 C 
ATOM      9  C   UNL A   1      32.253  25.520  23.338  1.00  0.00     0.056 C 
BRANCH   8  10
ATOM     10  N   UNL A   1      31.958  23.943  25.213  1.00  0.00    -0.316 N 
ATOM     11  C   UNL A   1      32.186  22.647  24.966  1.00  0.00     0.322 C 
ATOM     12  O   UNL A   1      31.670  21.923  25.829  1.00  0.00    -0.248 OA
ATOM     13  H   UNL A   1      31.301  23.965  25.947  1.00  0.00     0.166 HD
BRANCH  11  14
ATOM     14  N   UNL A   1      32.902  22.147  23.921  1.00  0.00    -0.298 N 
ATOM     15  C   UNL A   1      32.356  21.576  22.707  1.00  0.00     0.155 C 
BRANCH  14  16
ATOM     16  C   UNL A   1      34.323  21.963  24.022  1.00  0.00     0.045 A 
ATOM     17  C   UNL A   1      35.216  22.937  23.554  1.00  0.00     0.029 A 
ATOM     18  C   UNL A   1      34.825  20.878  24.763  1.00  0.00     0.029 A 
ATOM     19  C   UNL A   1      36.573  22.863  23.884  1.00  0.00     0.041 A 
ATOM     20  C   UNL A   1      36.183  20.793  25.071  1.00  0.00     0.041 A 
ATOM     21  C   UNL A   1      37.040  21.799  24.648  1.00  0.00     0.123 A 
ATOM     22  F   UNL A   1      38.332  21.754  24.999  1.00  0.00    -0.207 F 
ENDBRANCH  14  16
ENDBRANCH  11  14
ENDBRANCH   8  10
BRANCH   8  23
ATOM     23  C   UNL A   1      33.510  26.152  25.358  1.00  0.00     0.420 C 
ATOM     24  F   UNL A   1      34.011  27.020  24.458  1.00  0.00    -0.168 F 
ATOM     25  F   UNL A   1      33.267  26.841  26.502  1.00  0.00    -0.168 F 
ATOM     26  F   UNL A   1      34.510  25.293  25.695  1.00  0.00    -0.168 F 
ENDBRANCH   8  23
ENDBRANCH   5   8
ENDBRANCH   3   4
ENDBRANCH   2   3
ENDBRANCH   1   2
BRANCH   1  27
ATOM     27  C   UNL A   1      31.407  30.668  26.617  1.00  0.00     0.002 C 
BRANCH  27  28
ATOM     28  C   UNL A   1      31.412  32.196  26.596  1.00  0.00     0.021 C 
BRANCH  28  29
ATOM     29  C   UNL A   1      32.669  32.831  27.173  1.00  0.00     0.116 C 
BRANCH  29  30
ATOM     30  N   UNL A   1      32.443  34.194  27.625  1.00  0.00    -0.352 N 
ATOM     31  C   UNL A   1      33.043  34.870  28.656  1.00  0.00     0.251 C 
ATOM     32  H   UNL A   1      31.766  34.701  27.122  1.00  0.00     0.163 HD
ATOM     33  O   UNL A   1      32.609  35.958  29.024  1.00  0.00    -0.269 OA
BRANCH  31  34
ATOM     34  C   UNL A   1      34.203  34.267  29.343  1.00  0.00     0.039 A 
ATOM     35  C   UNL A   1      33.981  33.449  30.453  1.00  0.00     0.014 A 
ATOM     36  C   UNL A   1      35.502  34.494  28.881  1.00  0.00     0.014 A 
ATOM     37  C   UNL A   1      35.062  32.813  31.066  1.00  0.00     0.010 A 
ATOM     38  C   UNL A   1      36.566  33.793  29.437  1.00  0.00     0.010 A 
ATOM     39  C   UNL A   1      36.358  32.951  30.541  1.00  0.00    -0.014 A 
BRANCH  39  40
ATOM     40  C   UNL A   1      37.509  32.226  31.135  1.00  0.00     0.031 A 
ATOM     41  C   UNL A   1      37.991  32.576  32.514  1.00  0.00     0.074 A 
ATOM     42  C   UNL A   1      38.157  31.297  30.408  1.00  0.00     0.049 A 
ATOM     43  N   UNL A   1      38.999  32.085  33.190  1.00  0.00    -0.248 NA
ATOM     44  C   UNL A   1      37.258  33.640  33.217  1.00  0.00     0.031 C 
ATOM     45  C   UNL A   1      37.810  30.900  29.043  1.00  0.00     0.029 A 
ATOM     46  N   UNL A   1      39.244  30.518  30.716  1.00  0.00    -0.354 N 
ATOM     47  C   UNL A   1      39.030  32.789  34.386  1.00  0.00     0.074 A 
ATOM     48  C   UNL A   1      37.982  33.784  34.317  1.00  0.00     0.031 C 
ATOM     49  C   UNL A   1      38.640  29.922  28.647  1.00  0.00     0.029 A 
ATOM     50  C   UNL A   1      39.605  29.657  29.710  1.00  0.00     0.049 A 
ATOM     51  H   UNL A   1      39.720  30.573  31.576  1.00  0.00     0.167 HD
ATOM     52  C   UNL A   1      39.844  32.608  35.455  1.00  0.00     0.037 A 
ATOM     53  C   UNL A   1      40.601  28.753  29.654  1.00  0.00     0.037 A 
ATOM     54  C   UNL A   1      40.877  31.608  35.520  1.00  0.00     0.049 A 
ATOM     55  C   UNL A   1      41.516  28.594  30.839  1.00  0.00     0.074 A 
ATOM     56  C   UNL A   1      41.712  31.297  36.577  1.00  0.00     0.029 A 
ATOM     57  N   UNL A   1      41.227  30.765  34.473  1.00  0.00    -0.354 N 
ATOM     58  N   UNL A   1      41.487  29.208  31.996  1.00  0.00    -0.248 NA
ATOM     59  C   UNL A   1      42.599  27.612  30.706  1.00  0.00     0.031 C 
ATOM     60  C   UNL A   1      42.613  30.314  36.149  1.00  0.00     0.029 A 
ATOM     61  C   UNL A   1      42.293  29.962  34.847  1.00  0.00     0.049 A 
ATOM     62  H   UNL A   1      40.784  30.742  33.594  1.00  0.00     0.167 HD
ATOM     63  C   UNL A   1      42.524  28.666  32.743  1.00  0.00     0.074 A 
ATOM     64  C   UNL A   1      43.156  27.664  31.908  1.00  0.00     0.031 C 
ATOM     65  C   UNL A   1      42.914  28.966  34.007  1.00  0.00     0.037 A 
BRANCH  52  66
ATOM     66  C   UNL A   1      39.654  33.530  36.628  1.00  0.00     0.064 A 
ATOM     67  C   UNL A   1      38.843  33.185  37.721  1.00  0.00     0.173 A 
ATOM     68  C   UNL A   1      40.289  34.781  36.658  1.00  0.00     0.173 A 
ATOM     69  F   UNL A   1      38.204  32.004  37.743  1.00  0.00    -0.203 F 
ATOM     70  C   UNL A   1      38.630  34.077  38.769  1.00  0.00     0.198 A 
ATOM     71  C   UNL A   1      40.107  35.655  37.727  1.00  0.00     0.198 A 
ATOM     72  F   UNL A   1      41.085  35.161  35.646  1.00  0.00    -0.203 F 
ATOM     73  F   UNL A   1      37.788  33.755  39.762  1.00  0.00    -0.200 F 
ATOM     74  C   UNL A   1      39.266  35.309  38.774  1.00  0.00     0.200 A 
ATOM     75  F   UNL A   1      40.735  36.838  37.737  1.00  0.00    -0.200 F 
ATOM     76  F   UNL A   1      39.058  36.169  39.780  1.00  0.00    -0.200 F 
ENDBRANCH  52  66
BRANCH  53  77
ATOM     77  C   UNL A   1      40.753  27.896  28.450  1.00  0.00     0.064 A 
ATOM     78  C   UNL A   1      40.095  26.661  28.367  1.00  0.00     0.173 A 
ATOM     79  C   UNL A   1      41.537  28.292  27.357  1.00  0.00     0.173 A 
ATOM     80  F   UNL A   1      39.349  26.229  29.395  1.00  0.00    -0.203 F 
ATOM     81  C   UNL A   1      40.223  25.849  27.242  1.00  0.00     0.198 A 
ATOM     82  C   UNL A   1      41.643  27.493  26.220  1.00  0.00     0.198 A 
ATOM     83  F   UNL A   1      42.183  29.467  27.384  1.00  0.00    -0.203 F 
ATOM     84  F   UNL A   1      39.613  24.657  27.204  1.00  0.00    -0.200 F 
ATOM     85  C   UNL A   1      40.991  26.269  26.166  1.00  0.00     0.200 A 
ATOM     86  F   UNL A   1      42.371  27.910  25.176  1.00  0.00    -0.200 F 
ATOM     87  F   UNL A   1      41.106  25.494  25.079  1.00  0.00    -0.200 F 
ENDBRANCH  53  77
BRANCH  65  88
ATOM     88  C   UNL A   1      44.057  28.178  34.582  1.00  0.00     0.064 A 
ATOM     89  C   UNL A   1      45.382  28.632  34.512  1.00  0.00     0.173 A 
ATOM     90  C   UNL A   1      43.815  26.964  35.246  1.00  0.00     0.173 A 
ATOM     91  F   UNL A   1      45.670  29.776  33.874  1.00  0.00    -0.203 F 
ATOM     92  C   UNL A   1      46.425  27.888  35.058  1.00  0.00     0.198 A 
ATOM     93  C   UNL A   1      44.855  26.241  35.822  1.00  0.00     0.198 A 
ATOM     94  F   UNL A   1      42.566  26.486  35.348  1.00  0.00    -0.203 F 
ATOM     95  F   UNL A   1      47.689  28.315  34.929  1.00  0.00    -0.200 F 
ATOM     96  C   UNL A   1      46.160  26.699  35.720  1.00  0.00     0.200 A 
ATOM     97  F   UNL A   1      44.595  25.101  36.477  1.00  0.00    -0.200 F 
ATOM     98  F   UNL A   1      47.164  25.988  36.253  1.00  0.00    -0.200 F 
ENDBRANCH  65  88
ENDBRANCH  39  40
ENDBRANCH  31  34
ENDBRANCH  29  30
ENDBRANCH  28  29
ENDBRANCH  27  28
ENDBRANCH   1  27
TORSDOF 17
ENDMDL
