MODEL 1
REMARK VINA RESULT:     -11.7      0.000      0.000
REMARK SMILES Cc1ccc(Cl)c(Nc2ccccc2C(=O)NCC(=O)NCCCCCCNC(=O)c2ccc(-c3c4nc(c(-c5c(F)c(F)c(F)c(F)c5F)c5ccc([nH]5)c(-c5c(F)c(F)c(F)c(F)c5F)c5nc(c(-c6c(F)c(F)c(F)c(F)c6F)c6ccc3[nH]6)C=C5)C=C4)cc2)c1Cl
REMARK SMILES IDX 23 1 22 2 21 3 19 4 20 5 18 7 17 8 15 9 16 10 14 12 9 13
REMARK SMILES IDX 10 14 11 15 13 16 12 17 8 18 7 20 1 21 2 22 3 23 94 24 4 25
REMARK SMILES IDX 95 26 5 27 6 28 24 29 25 30 26 31 27 32 28 33 29 34 30 36
REMARK SMILES IDX 31 37 32 38 93 39 33 40 92 41 34 42 35 43 36 44 86 45 37 46
REMARK SMILES IDX 91 47 85 48 87 49 38 50 90 51 84 52 83 53 39 55 71 56 51 57
REMARK SMILES IDX 70 58 52 59 55 60 69 61 88 62 53 63 54 64 68 66 89 67 56 68
REMARK SMILES IDX 40 69 41 70 49 71 42 72 43 73 47 74 50 75 44 76 45 77 48 78
REMARK SMILES IDX 46 79 72 80 73 81 81 82 74 83 75 84 79 85 82 86 76 87 77 88
REMARK SMILES IDX 80 89 78 90 57 91 58 92 66 93 59 94 60 95 64 96 67 97 61 98
REMARK SMILES IDX 62 99 65 100 63 101
REMARK H PARENT 21 6 17 11 8 19 28 35 87 54 55 65
REMARK Flexibility Score: inf
ROOT
ATOM      1  C   UNL A   1      35.360  32.223  28.217  1.00  0.00     0.021 C 
ENDROOT
BRANCH   1   2
ATOM      2  C   UNL A   1      33.954  31.672  28.015  1.00  0.00     0.116 C 
BRANCH   2   3
ATOM      3  N   UNL A   1      34.024  30.238  27.898  1.00  0.00    -0.355 N 
ATOM      4  C   UNL A   1      33.224  29.452  27.128  1.00  0.00     0.239 C 
ATOM      5  O   UNL A   1      33.244  28.234  27.322  1.00  0.00    -0.273 OA
ATOM      6  H   UNL A   1      34.717  29.784  28.427  1.00  0.00     0.163 HD
BRANCH   4   7
ATOM      7  C   UNL A   1      32.576  30.042  25.877  1.00  0.00     0.216 C 
BRANCH   7   8
ATOM      8  N   UNL A   1      32.743  29.568  24.521  1.00  0.00    -0.343 N 
ATOM      9  C   UNL A   1      31.846  29.023  23.627  1.00  0.00     0.253 C 
ATOM     10  O   UNL A   1      32.105  29.258  22.440  1.00  0.00    -0.269 OA
ATOM     11  H   UNL A   1      33.660  29.650  24.174  1.00  0.00     0.164 HD
BRANCH   9  12
ATOM     12  C   UNL A   1      30.764  28.009  23.926  1.00  0.00     0.063 A 
ATOM     13  C   UNL A   1      30.766  26.810  24.678  1.00  0.00     0.051 A 
ATOM     14  C   UNL A   1      29.588  26.011  24.665  1.00  0.00     0.027 A 
ATOM     15  C   UNL A   1      28.418  26.395  24.014  1.00  0.00     0.002 A 
ATOM     16  C   UNL A   1      29.546  28.377  23.284  1.00  0.00     0.016 A 
ATOM     17  C   UNL A   1      28.390  27.598  23.337  1.00  0.00     0.001 A 
BRANCH  13  18
ATOM     18  N   UNL A   1      31.737  26.334  25.584  1.00  0.00    -0.352 N 
ATOM     19  H   UNL A   1      31.840  26.909  26.377  1.00  0.00     0.167 HD
BRANCH  18  20
ATOM     20  C   UNL A   1      32.598  25.207  25.599  1.00  0.00     0.077 A 
ATOM     21  C   UNL A   1      33.294  22.076  27.684  1.00  0.00     0.046 C 
ATOM     22  C   UNL A   1      33.459  23.201  26.699  1.00  0.00    -0.030 A 
ATOM     23  C   UNL A   1      34.713  23.420  26.111  1.00  0.00     0.006 A 
ATOM     24  C   UNL A   1      32.391  24.070  26.401  1.00  0.00     0.069 A 
ATOM     25  C   UNL A   1      34.900  24.458  25.205  1.00  0.00     0.023 A 
ATOM     26  Cl  UNL A   1      30.796  23.663  26.961  1.00  0.00    -0.082 Cl
ATOM     27  C   UNL A   1      33.850  25.333  24.940  1.00  0.00     0.066 A 
ATOM     28  Cl  UNL A   1      34.166  26.685  23.897  1.00  0.00    -0.082 Cl
ENDBRANCH  18  20
ENDBRANCH  13  18
ENDBRANCH   9  12
ENDBRANCH   7   8
ENDBRANCH   4   7
ENDBRANCH   2   3
ENDBRANCH   1   2
BRANCH   1  29
ATOM     29  C   UNL A   1      35.348  33.518  29.038  1.00  0.00     0.002 C 
BRANCH  29  30
ATOM     30  C   UNL A   1      35.070  34.772  28.203  1.00  0.00     0.002 C 
BRANCH  30  31
ATOM     31  C   UNL A   1      33.943  35.644  28.755  1.00  0.00     0.021 C 
BRANCH  31  32
ATOM     32  C   UNL A   1      32.974  34.886  29.652  1.00  0.00     0.116 C 
BRANCH  32  33
ATOM     33  N   UNL A   1      32.442  35.743  30.699  1.00  0.00    -0.352 N 
ATOM     34  C   UNL A   1      32.771  35.776  32.029  1.00  0.00     0.251 C 
ATOM     35  H   UNL A   1      31.753  36.386  30.415  1.00  0.00     0.163 HD
ATOM     36  O   UNL A   1      32.076  36.382  32.834  1.00  0.00    -0.269 OA
BRANCH  34  37
ATOM     37  C   UNL A   1      33.976  35.054  32.477  1.00  0.00     0.039 A 
ATOM     38  C   UNL A   1      33.840  33.764  32.990  1.00  0.00     0.014 A 
ATOM     39  C   UNL A   1      35.235  35.654  32.375  1.00  0.00     0.014 A 
ATOM     40  C   UNL A   1      34.979  33.054  33.362  1.00  0.00     0.010 A 
ATOM     41  C   UNL A   1      36.373  34.917  32.673  1.00  0.00     0.010 A 
ATOM     42  C   UNL A   1      36.255  33.615  33.181  1.00  0.00    -0.014 A 
BRANCH  42  43
ATOM     43  C   UNL A   1      37.479  32.858  33.528  1.00  0.00     0.031 A 
ATOM     44  C   UNL A   1      38.216  33.164  34.799  1.00  0.00     0.074 A 
ATOM     45  C   UNL A   1      37.958  31.942  32.666  1.00  0.00     0.049 A 
ATOM     46  N   UNL A   1      39.331  32.652  35.254  1.00  0.00    -0.248 NA
ATOM     47  C   UNL A   1      37.639  34.209  35.661  1.00  0.00     0.031 C 
ATOM     48  C   UNL A   1      37.357  31.602  31.376  1.00  0.00     0.029 A 
ATOM     49  N   UNL A   1      39.066  31.139  32.742  1.00  0.00    -0.354 N 
ATOM     50  C   UNL A   1      39.594  33.319  36.443  1.00  0.00     0.074 A 
ATOM     51  C   UNL A   1      38.558  34.316  36.607  1.00  0.00     0.031 C 
ATOM     52  C   UNL A   1      38.093  30.644  30.790  1.00  0.00     0.029 A 
ATOM     53  C   UNL A   1      39.233  30.331  31.644  1.00  0.00     0.049 A 
ATOM     54  H   UNL A   1      39.684  31.142  33.508  1.00  0.00     0.167 HD
ATOM     55  C   UNL A   1      40.595  33.102  37.329  1.00  0.00     0.037 A 
ATOM     56  C   UNL A   1      40.203  29.442  31.358  1.00  0.00     0.037 A 
ATOM     57  C   UNL A   1      41.612  32.097  37.163  1.00  0.00     0.049 A 
ATOM     58  C   UNL A   1      41.306  29.217  32.356  1.00  0.00     0.074 A 
ATOM     59  C   UNL A   1      42.633  31.750  38.029  1.00  0.00     0.029 A 
ATOM     60  N   UNL A   1      41.740  31.282  36.046  1.00  0.00    -0.354 N 
ATOM     61  N   UNL A   1      41.504  29.798  33.515  1.00  0.00    -0.248 NA
ATOM     62  C   UNL A   1      42.316  28.209  32.009  1.00  0.00     0.031 C 
ATOM     63  C   UNL A   1      43.412  30.764  37.413  1.00  0.00     0.029 A 
ATOM     64  C   UNL A   1      42.841  30.452  36.189  1.00  0.00     0.049 A 
ATOM     65  H   UNL A   1      41.138  31.291  35.268  1.00  0.00     0.167 HD
ATOM     66  C   UNL A   1      42.643  29.210  34.047  1.00  0.00     0.074 A 
ATOM     67  C   UNL A   1      43.084  28.217  33.090  1.00  0.00     0.031 C 
ATOM     68  C   UNL A   1      43.268  29.471  35.223  1.00  0.00     0.037 A 
BRANCH  55  69
ATOM     69  C   UNL A   1      40.634  33.974  38.551  1.00  0.00     0.064 A 
ATOM     70  C   UNL A   1      41.342  35.187  38.572  1.00  0.00     0.173 A 
ATOM     71  C   UNL A   1      39.950  33.598  39.717  1.00  0.00     0.173 A 
ATOM     72  F   UNL A   1      42.024  35.589  37.488  1.00  0.00    -0.203 F 
ATOM     73  C   UNL A   1      41.400  35.965  39.725  1.00  0.00     0.198 A 
ATOM     74  C   UNL A   1      39.981  34.397  40.857  1.00  0.00     0.198 A 
ATOM     75  F   UNL A   1      39.251  32.454  39.753  1.00  0.00    -0.203 F 
ATOM     76  F   UNL A   1      42.138  37.084  39.739  1.00  0.00    -0.200 F 
ATOM     77  C   UNL A   1      40.715  35.573  40.864  1.00  0.00     0.200 A 
ATOM     78  F   UNL A   1      39.306  34.023  41.954  1.00  0.00    -0.200 F 
ATOM     79  F   UNL A   1      40.772  36.324  41.973  1.00  0.00    -0.200 F 
ENDBRANCH  55  69
BRANCH  56  80
ATOM     80  C   UNL A   1      40.148  28.682  30.084  1.00  0.00     0.064 A 
ATOM     81  C   UNL A   1      40.768  29.171  28.926  1.00  0.00     0.173 A 
ATOM     82  C   UNL A   1      39.501  27.440  30.004  1.00  0.00     0.173 A 
ATOM     83  F   UNL A   1      41.384  30.362  28.950  1.00  0.00    -0.203 F 
ATOM     84  C   UNL A   1      40.734  28.452  27.734  1.00  0.00     0.198 A 
ATOM     85  C   UNL A   1      39.492  26.708  28.818  1.00  0.00     0.198 A 
ATOM     86  F   UNL A   1      38.900  26.924  31.087  1.00  0.00    -0.203 F 
ATOM     87  F   UNL A   1      41.307  28.958  26.633  1.00  0.00    -0.200 F 
ATOM     88  C   UNL A   1      40.103  27.218  27.682  1.00  0.00     0.200 A 
ATOM     89  F   UNL A   1      38.898  25.508  28.778  1.00  0.00    -0.200 F 
ATOM     90  F   UNL A   1      40.083  26.520  26.539  1.00  0.00    -0.200 F 
ENDBRANCH  56  80
BRANCH  68  91
ATOM     91  C   UNL A   1      44.481  28.649  35.553  1.00  0.00     0.064 A 
ATOM     92  C   UNL A   1      45.772  29.064  35.195  1.00  0.00     0.173 A 
ATOM     93  C   UNL A   1      44.353  27.451  36.272  1.00  0.00     0.173 A 
ATOM     94  F   UNL A   1      45.948  30.194  34.493  1.00  0.00    -0.203 F 
ATOM     95  C   UNL A   1      46.887  28.298  35.525  1.00  0.00     0.198 A 
ATOM     96  C   UNL A   1      45.471  26.704  36.627  1.00  0.00     0.198 A 
ATOM     97  F   UNL A   1      43.140  27.013  36.644  1.00  0.00    -0.203 F 
ATOM     98  F   UNL A   1      48.106  28.689  35.129  1.00  0.00    -0.200 F 
ATOM     99  C   UNL A   1      46.736  27.123  36.247  1.00  0.00     0.200 A 
ATOM    100  F   UNL A   1      45.325  25.578  37.339  1.00  0.00    -0.200 F 
ATOM    101  F   UNL A   1      47.811  26.391  36.570  1.00  0.00    -0.200 F 
ENDBRANCH  68  91
ENDBRANCH  42  43
ENDBRANCH  34  37
ENDBRANCH  32  33
ENDBRANCH  31  32
ENDBRANCH  30  31
ENDBRANCH  29  30
ENDBRANCH   1  29
TORSDOF 17
ENDMDL
MODEL 2
REMARK VINA RESULT:     -11.7      2.474      7.991
REMARK SMILES Cc1ccc(Cl)c(Nc2ccccc2C(=O)NCC(=O)NCCCCCCNC(=O)c2ccc(-c3c4nc(c(-c5c(F)c(F)c(F)c(F)c5F)c5ccc([nH]5)c(-c5c(F)c(F)c(F)c(F)c5F)c5nc(c(-c6c(F)c(F)c(F)c(F)c6F)c6ccc3[nH]6)C=C5)C=C4)cc2)c1Cl
REMARK SMILES IDX 23 1 22 2 21 3 19 4 20 5 18 7 17 8 15 9 16 10 14 12 9 13
REMARK SMILES IDX 10 14 11 15 13 16 12 17 8 18 7 20 1 21 2 22 3 23 94 24 4 25
REMARK SMILES IDX 95 26 5 27 6 28 24 29 25 30 26 31 27 32 28 33 29 34 30 36
REMARK SMILES IDX 31 37 32 38 93 39 33 40 92 41 34 42 35 43 36 44 86 45 37 46
REMARK SMILES IDX 91 47 85 48 87 49 38 50 90 51 84 52 83 53 39 55 71 56 51 57
REMARK SMILES IDX 70 58 52 59 55 60 69 61 88 62 53 63 54 64 68 66 89 67 56 68
REMARK SMILES IDX 40 69 41 70 49 71 42 72 43 73 47 74 50 75 44 76 45 77 48 78
REMARK SMILES IDX 46 79 72 80 73 81 81 82 74 83 75 84 79 85 82 86 76 87 77 88
REMARK SMILES IDX 80 89 78 90 57 91 58 92 66 93 59 94 60 95 64 96 67 97 61 98
REMARK SMILES IDX 62 99 65 100 63 101
REMARK H PARENT 21 6 17 11 8 19 28 35 87 54 55 65
REMARK Flexibility Score: inf
ROOT
ATOM      1  C   UNL A   1      32.251  28.186  26.255  1.00  0.00     0.021 C 
ENDROOT
BRANCH   1   2
ATOM      2  C   UNL A   1      31.088  27.207  26.151  1.00  0.00     0.116 C 
BRANCH   2   3
ATOM      3  N   UNL A   1      31.422  26.003  26.868  1.00  0.00    -0.355 N 
ATOM      4  C   UNL A   1      31.332  24.731  26.394  1.00  0.00     0.239 C 
ATOM      5  O   UNL A   1      31.417  23.802  27.201  1.00  0.00    -0.273 OA
ATOM      6  H   UNL A   1      31.747  26.112  27.790  1.00  0.00     0.163 HD
BRANCH   4   7
ATOM      7  C   UNL A   1      31.437  24.484  24.891  1.00  0.00     0.216 C 
BRANCH   7   8
ATOM      8  N   UNL A   1      32.530  24.879  24.030  1.00  0.00    -0.343 N 
ATOM      9  C   UNL A   1      33.594  24.168  23.519  1.00  0.00     0.253 C 
ATOM     10  O   UNL A   1      33.993  24.570  22.419  1.00  0.00    -0.269 OA
ATOM     11  H   UNL A   1      32.509  25.826  23.761  1.00  0.00     0.164 HD
BRANCH   9  12
ATOM     12  C   UNL A   1      34.440  23.147  24.247  1.00  0.00     0.063 A 
ATOM     13  C   UNL A   1      34.122  21.914  24.865  1.00  0.00     0.051 A 
ATOM     14  C   UNL A   1      35.152  21.238  25.578  1.00  0.00     0.027 A 
ATOM     15  C   UNL A   1      36.467  21.696  25.626  1.00  0.00     0.002 A 
ATOM     16  C   UNL A   1      35.797  23.577  24.306  1.00  0.00     0.016 A 
ATOM     17  C   UNL A   1      36.797  22.862  24.966  1.00  0.00     0.001 A 
BRANCH  13  18
ATOM     18  N   UNL A   1      32.939  21.152  24.764  1.00  0.00    -0.352 N 
ATOM     19  H   UNL A   1      32.179  21.552  25.248  1.00  0.00     0.167 HD
BRANCH  18  20
ATOM     20  C   UNL A   1      32.608  19.933  24.119  1.00  0.00     0.077 A 
ATOM     21  C   UNL A   1      33.239  16.174  24.451  1.00  0.00     0.046 C 
ATOM     22  C   UNL A   1      32.868  17.514  23.877  1.00  0.00    -0.030 A 
ATOM     23  C   UNL A   1      32.638  17.630  22.498  1.00  0.00     0.006 A 
ATOM     24  C   UNL A   1      32.804  18.663  24.690  1.00  0.00     0.069 A 
ATOM     25  C   UNL A   1      32.304  18.858  21.936  1.00  0.00     0.023 A 
ATOM     26  Cl  UNL A   1      32.875  18.472  26.417  1.00  0.00    -0.082 Cl
ATOM     27  C   UNL A   1      32.274  19.994  22.740  1.00  0.00     0.066 A 
ATOM     28  Cl  UNL A   1      31.974  21.522  21.971  1.00  0.00    -0.082 Cl
ENDBRANCH  18  20
ENDBRANCH  13  18
ENDBRANCH   9  12
ENDBRANCH   7   8
ENDBRANCH   4   7
ENDBRANCH   2   3
ENDBRANCH   1   2
BRANCH   1  29
ATOM     29  C   UNL A   1      31.847  29.468  26.993  1.00  0.00     0.002 C 
BRANCH  29  30
ATOM     30  C   UNL A   1      31.707  30.686  26.074  1.00  0.00     0.002 C 
BRANCH  30  31
ATOM     31  C   UNL A   1      31.472  31.999  26.820  1.00  0.00     0.021 C 
BRANCH  31  32
ATOM     32  C   UNL A   1      32.758  32.732  27.177  1.00  0.00     0.116 C 
BRANCH  32  33
ATOM     33  N   UNL A   1      32.496  34.113  27.544  1.00  0.00    -0.352 N 
ATOM     34  C   UNL A   1      33.018  34.838  28.583  1.00  0.00     0.251 C 
ATOM     35  H   UNL A   1      31.858  34.594  26.969  1.00  0.00     0.163 HD
ATOM     36  O   UNL A   1      32.529  35.912  28.910  1.00  0.00    -0.269 OA
BRANCH  34  37
ATOM     37  C   UNL A   1      34.177  34.293  29.313  1.00  0.00     0.039 A 
ATOM     38  C   UNL A   1      33.955  33.493  30.434  1.00  0.00     0.014 A 
ATOM     39  C   UNL A   1      35.477  34.566  28.875  1.00  0.00     0.014 A 
ATOM     40  C   UNL A   1      35.043  32.927  31.095  1.00  0.00     0.010 A 
ATOM     41  C   UNL A   1      36.554  33.938  29.487  1.00  0.00     0.010 A 
ATOM     42  C   UNL A   1      36.347  33.124  30.610  1.00  0.00    -0.014 A 
BRANCH  42  43
ATOM     43  C   UNL A   1      37.512  32.493  31.273  1.00  0.00     0.031 A 
ATOM     44  C   UNL A   1      38.226  31.351  30.609  1.00  0.00     0.074 A 
ATOM     45  C   UNL A   1      37.881  32.907  32.498  1.00  0.00     0.049 A 
ATOM     46  N   UNL A   1      39.228  30.633  31.048  1.00  0.00    -0.248 NA
ATOM     47  C   UNL A   1      37.726  30.940  29.287  1.00  0.00     0.031 C 
ATOM     48  C   UNL A   1      37.226  33.968  33.263  1.00  0.00     0.029 A 
ATOM     49  N   UNL A   1      38.891  32.476  33.320  1.00  0.00    -0.354 N 
ATOM     50  C   UNL A   1      39.469  29.682  30.065  1.00  0.00     0.074 A 
ATOM     51  C   UNL A   1      38.468  29.873  29.037  1.00  0.00     0.031 C 
ATOM     52  C   UNL A   1      37.864  34.121  34.435  1.00  0.00     0.029 A 
ATOM     53  C   UNL A   1      38.947  33.146  34.517  1.00  0.00     0.049 A 
ATOM     54  H   UNL A   1      39.515  31.756  33.075  1.00  0.00     0.167 HD
ATOM     55  C   UNL A   1      40.451  28.751  30.014  1.00  0.00     0.037 A 
ATOM     56  C   UNL A   1      39.775  32.985  35.566  1.00  0.00     0.037 A 
ATOM     57  C   UNL A   1      41.451  28.580  31.036  1.00  0.00     0.049 A 
ATOM     58  C   UNL A   1      40.858  31.944  35.489  1.00  0.00     0.074 A 
ATOM     59  C   UNL A   1      42.527  27.712  31.054  1.00  0.00     0.029 A 
ATOM     60  N   UNL A   1      41.488  29.290  32.229  1.00  0.00    -0.354 N 
ATOM     61  N   UNL A   1      41.127  31.101  34.522  1.00  0.00    -0.248 NA
ATOM     62  C   UNL A   1      41.756  31.838  36.645  1.00  0.00     0.031 C 
ATOM     63  C   UNL A   1      43.184  27.857  32.281  1.00  0.00     0.029 A 
ATOM     64  C   UNL A   1      42.554  28.859  33.003  1.00  0.00     0.049 A 
ATOM     65  H   UNL A   1      40.852  29.995  32.487  1.00  0.00     0.167 HD
ATOM     66  C   UNL A   1      42.238  30.382  34.940  1.00  0.00     0.074 A 
ATOM     67  C   UNL A   1      42.602  30.899  36.243  1.00  0.00     0.031 C 
ATOM     68  C   UNL A   1      42.898  29.383  34.301  1.00  0.00     0.037 A 
BRANCH  55  69
ATOM     69  C   UNL A   1      40.482  27.848  28.815  1.00  0.00     0.064 A 
ATOM     70  C   UNL A   1      41.239  28.161  27.673  1.00  0.00     0.173 A 
ATOM     71  C   UNL A   1      39.752  26.650  28.805  1.00  0.00     0.173 A 
ATOM     72  F   UNL A   1      41.947  29.300  27.624  1.00  0.00    -0.203 F 
ATOM     73  C   UNL A   1      41.226  27.332  26.555  1.00  0.00     0.198 A 
ATOM     74  C   UNL A   1      39.770  25.806  27.698  1.00  0.00     0.198 A 
ATOM     75  F   UNL A   1      39.017  26.297  29.870  1.00  0.00    -0.203 F 
ATOM     76  F   UNL A   1      41.903  27.687  25.453  1.00  0.00    -0.200 F 
ATOM     77  C   UNL A   1      40.497  26.154  26.569  1.00  0.00     0.200 A 
ATOM     78  F   UNL A   1      39.076  24.660  27.720  1.00  0.00    -0.200 F 
ATOM     79  F   UNL A   1      40.487  25.356  25.492  1.00  0.00    -0.200 F 
ENDBRANCH  55  69
BRANCH  56  80
ATOM     80  C   UNL A   1      39.623  33.855  36.760  1.00  0.00     0.064 A 
ATOM     81  C   UNL A   1      40.246  35.108  36.821  1.00  0.00     0.173 A 
ATOM     82  C   UNL A   1      38.829  33.466  37.848  1.00  0.00     0.173 A 
ATOM     83  F   UNL A   1      41.028  35.517  35.811  1.00  0.00    -0.203 F 
ATOM     84  C   UNL A   1      40.090  35.935  37.931  1.00  0.00     0.198 A 
ATOM     85  C   UNL A   1      38.651  34.305  38.946  1.00  0.00     0.198 A 
ATOM     86  F   UNL A   1      38.204  32.278  37.834  1.00  0.00    -0.203 F 
ATOM     87  F   UNL A   1      40.724  37.115  37.979  1.00  0.00    -0.200 F 
ATOM     88  C   UNL A   1      39.287  35.537  38.990  1.00  0.00     0.200 A 
ATOM     89  F   UNL A   1      37.860  33.923  39.957  1.00  0.00    -0.200 F 
ATOM     90  F   UNL A   1      39.127  36.338  40.051  1.00  0.00    -0.200 F 
ENDBRANCH  56  80
BRANCH  68  91
ATOM     91  C   UNL A   1      44.098  28.801  34.993  1.00  0.00     0.064 A 
ATOM     92  C   UNL A   1      43.994  27.686  35.837  1.00  0.00     0.173 A 
ATOM     93  C   UNL A   1      45.374  29.342  34.773  1.00  0.00     0.173 A 
ATOM     94  F   UNL A   1      42.794  27.142  36.092  1.00  0.00    -0.203 F 
ATOM     95  C   UNL A   1      45.120  27.150  36.456  1.00  0.00     0.198 A 
ATOM     96  C   UNL A   1      46.501  28.784  35.368  1.00  0.00     0.198 A 
ATOM     97  F   UNL A   1      45.529  30.404  33.968  1.00  0.00    -0.203 F 
ATOM     98  F   UNL A   1      44.990  26.116  37.298  1.00  0.00    -0.200 F 
ATOM     99  C   UNL A   1      46.373  27.693  36.215  1.00  0.00     0.200 A 
ATOM    100  F   UNL A   1      47.713  29.300  35.121  1.00  0.00    -0.200 F 
ATOM    101  F   UNL A   1      47.457  27.171  36.805  1.00  0.00    -0.200 F 
ENDBRANCH  68  91
ENDBRANCH  42  43
ENDBRANCH  34  37
ENDBRANCH  32  33
ENDBRANCH  31  32
ENDBRANCH  30  31
ENDBRANCH  29  30
ENDBRANCH   1  29
TORSDOF 17
ENDMDL
MODEL 3
REMARK VINA RESULT:     -11.7      1.700      7.359
REMARK SMILES Cc1ccc(Cl)c(Nc2ccccc2C(=O)NCC(=O)NCCCCCCNC(=O)c2ccc(-c3c4nc(c(-c5c(F)c(F)c(F)c(F)c5F)c5ccc([nH]5)c(-c5c(F)c(F)c(F)c(F)c5F)c5nc(c(-c6c(F)c(F)c(F)c(F)c6F)c6ccc3[nH]6)C=C5)C=C4)cc2)c1Cl
REMARK SMILES IDX 23 1 22 2 21 3 19 4 20 5 18 7 17 8 15 9 16 10 14 12 9 13
REMARK SMILES IDX 10 14 11 15 13 16 12 17 8 18 7 20 1 21 2 22 3 23 94 24 4 25
REMARK SMILES IDX 95 26 5 27 6 28 24 29 25 30 26 31 27 32 28 33 29 34 30 36
REMARK SMILES IDX 31 37 32 38 93 39 33 40 92 41 34 42 35 43 36 44 86 45 37 46
REMARK SMILES IDX 91 47 85 48 87 49 38 50 90 51 84 52 83 53 39 55 71 56 51 57
REMARK SMILES IDX 70 58 52 59 55 60 69 61 88 62 53 63 54 64 68 66 89 67 56 68
REMARK SMILES IDX 40 69 41 70 49 71 42 72 43 73 47 74 50 75 44 76 45 77 48 78
REMARK SMILES IDX 46 79 72 80 73 81 81 82 74 83 75 84 79 85 82 86 76 87 77 88
REMARK SMILES IDX 80 89 78 90 57 91 58 92 66 93 59 94 60 95 64 96 67 97 61 98
REMARK SMILES IDX 62 99 65 100 63 101
REMARK H PARENT 21 6 17 11 8 19 28 35 87 54 55 65
REMARK Flexibility Score: inf
ROOT
ATOM      1  C   UNL A   1      33.132  28.734  27.308  1.00  0.00     0.021 C 
ENDROOT
BRANCH   1   2
ATOM      2  C   UNL A   1      34.035  28.096  26.259  1.00  0.00     0.116 C 
BRANCH   2   3
ATOM      3  N   UNL A   1      33.802  28.734  24.989  1.00  0.00    -0.355 N 
ATOM      4  C   UNL A   1      34.046  28.200  23.762  1.00  0.00     0.239 C 
ATOM      5  O   UNL A   1      34.028  28.954  22.785  1.00  0.00    -0.273 OA
ATOM      6  H   UNL A   1      33.431  29.645  25.012  1.00  0.00     0.163 HD
BRANCH   4   7
ATOM      7  C   UNL A   1      34.028  26.684  23.589  1.00  0.00     0.216 C 
BRANCH   7   8
ATOM      8  N   UNL A   1      33.353  25.947  22.544  1.00  0.00    -0.343 N 
ATOM      9  C   UNL A   1      32.119  26.121  21.954  1.00  0.00     0.253 C 
ATOM     10  O   UNL A   1      32.063  25.753  20.774  1.00  0.00    -0.269 OA
ATOM     11  H   UNL A   1      33.866  25.185  22.190  1.00  0.00     0.164 HD
BRANCH   9  12
ATOM     12  C   UNL A   1      30.820  26.473  22.646  1.00  0.00     0.063 A 
ATOM     13  C   UNL A   1      29.950  25.724  23.473  1.00  0.00     0.051 A 
ATOM     14  C   UNL A   1      28.726  26.328  23.876  1.00  0.00     0.027 A 
ATOM     15  C   UNL A   1      28.388  27.642  23.557  1.00  0.00     0.002 A 
ATOM     16  C   UNL A   1      30.449  27.817  22.351  1.00  0.00     0.016 A 
ATOM     17  C   UNL A   1      29.266  28.399  22.809  1.00  0.00     0.001 A 
BRANCH  13  18
ATOM     18  N   UNL A   1      30.175  24.480  24.101  1.00  0.00    -0.352 N 
ATOM     19  H   UNL A   1      29.384  23.894  24.092  1.00  0.00     0.167 HD
BRANCH  18  20
ATOM     20  C   UNL A   1      31.295  23.893  24.743  1.00  0.00     0.077 A 
ATOM     21  C   UNL A   1      33.224  20.591  24.834  1.00  0.00     0.046 C 
ATOM     22  C   UNL A   1      32.701  21.949  25.212  1.00  0.00    -0.030 A 
ATOM     23  C   UNL A   1      32.969  22.455  26.493  1.00  0.00     0.006 A 
ATOM     24  C   UNL A   1      31.903  22.696  24.324  1.00  0.00     0.069 A 
ATOM     25  C   UNL A   1      32.490  23.704  26.876  1.00  0.00     0.023 A 
ATOM     26  Cl  UNL A   1      31.761  22.164  22.675  1.00  0.00    -0.082 Cl
ATOM     27  C   UNL A   1      31.675  24.422  26.005  1.00  0.00     0.066 A 
ATOM     28  Cl  UNL A   1      31.002  25.917  26.575  1.00  0.00    -0.082 Cl
ENDBRANCH  18  20
ENDBRANCH  13  18
ENDBRANCH   9  12
ENDBRANCH   7   8
ENDBRANCH   4   7
ENDBRANCH   2   3
ENDBRANCH   1   2
BRANCH   1  29
ATOM     29  C   UNL A   1      33.062  30.257  27.144  1.00  0.00     0.002 C 
BRANCH  29  30
ATOM     30  C   UNL A   1      31.674  30.767  26.741  1.00  0.00     0.002 C 
BRANCH  30  31
ATOM     31  C   UNL A   1      31.522  32.285  26.840  1.00  0.00     0.021 C 
BRANCH  31  32
ATOM     32  C   UNL A   1      32.797  32.995  27.278  1.00  0.00     0.116 C 
BRANCH  32  33
ATOM     33  N   UNL A   1      32.528  34.365  27.680  1.00  0.00    -0.352 N 
ATOM     34  C   UNL A   1      33.027  35.058  28.752  1.00  0.00     0.251 C 
ATOM     35  H   UNL A   1      31.904  34.864  27.105  1.00  0.00     0.163 HD
ATOM     36  O   UNL A   1      32.533  36.122  29.099  1.00  0.00    -0.269 OA
BRANCH  34  37
ATOM     37  C   UNL A   1      34.169  34.489  29.491  1.00  0.00     0.039 A 
ATOM     38  C   UNL A   1      33.935  33.853  30.711  1.00  0.00     0.014 A 
ATOM     39  C   UNL A   1      35.462  34.576  28.966  1.00  0.00     0.014 A 
ATOM     40  C   UNL A   1      35.000  33.263  31.388  1.00  0.00     0.010 A 
ATOM     41  C   UNL A   1      36.507  33.921  29.603  1.00  0.00     0.010 A 
ATOM     42  C   UNL A   1      36.288  33.269  30.825  1.00  0.00    -0.014 A 
BRANCH  42  43
ATOM     43  C   UNL A   1      37.423  32.607  31.508  1.00  0.00     0.031 A 
ATOM     44  C   UNL A   1      38.126  31.455  30.852  1.00  0.00     0.074 A 
ATOM     45  C   UNL A   1      37.775  33.004  32.745  1.00  0.00     0.049 A 
ATOM     46  N   UNL A   1      39.101  30.710  31.307  1.00  0.00    -0.248 NA
ATOM     47  C   UNL A   1      37.647  31.064  29.516  1.00  0.00     0.031 C 
ATOM     48  C   UNL A   1      37.126  34.074  33.504  1.00  0.00     0.029 A 
ATOM     49  N   UNL A   1      38.755  32.544  33.585  1.00  0.00    -0.354 N 
ATOM     50  C   UNL A   1      39.343  29.762  30.323  1.00  0.00     0.074 A 
ATOM     51  C   UNL A   1      38.370  29.982  29.274  1.00  0.00     0.031 C 
ATOM     52  C   UNL A   1      37.741  34.204  34.690  1.00  0.00     0.029 A 
ATOM     53  C   UNL A   1      38.800  33.204  34.789  1.00  0.00     0.049 A 
ATOM     54  H   UNL A   1      39.369  31.812  33.349  1.00  0.00     0.167 HD
ATOM     55  C   UNL A   1      40.305  28.809  30.286  1.00  0.00     0.037 A 
ATOM     56  C   UNL A   1      39.601  33.016  35.854  1.00  0.00     0.037 A 
ATOM     57  C   UNL A   1      41.277  28.608  31.328  1.00  0.00     0.049 A 
ATOM     58  C   UNL A   1      40.661  31.952  35.793  1.00  0.00     0.074 A 
ATOM     59  C   UNL A   1      42.333  27.715  31.363  1.00  0.00     0.029 A 
ATOM     60  N   UNL A   1      41.303  29.308  32.527  1.00  0.00    -0.354 N 
ATOM     61  N   UNL A   1      40.933  31.109  34.826  1.00  0.00    -0.248 NA
ATOM     62  C   UNL A   1      41.530  31.817  36.968  1.00  0.00     0.031 C 
ATOM     63  C   UNL A   1      42.965  27.836  32.606  1.00  0.00     0.029 A 
ATOM     64  C   UNL A   1      42.342  28.847  33.321  1.00  0.00     0.049 A 
ATOM     65  H   UNL A   1      40.678  30.025  32.777  1.00  0.00     0.167 HD
ATOM     66  C   UNL A   1      42.018  30.362  35.262  1.00  0.00     0.074 A 
ATOM     67  C   UNL A   1      42.364  30.862  36.578  1.00  0.00     0.031 C 
ATOM     68  C   UNL A   1      42.669  29.353  34.631  1.00  0.00     0.037 A 
BRANCH  55  69
ATOM     69  C   UNL A   1      40.342  27.914  29.080  1.00  0.00     0.064 A 
ATOM     70  C   UNL A   1      41.089  28.244  27.937  1.00  0.00     0.173 A 
ATOM     71  C   UNL A   1      39.628  26.706  29.067  1.00  0.00     0.173 A 
ATOM     72  F   UNL A   1      41.781  29.393  27.892  1.00  0.00    -0.203 F 
ATOM     73  C   UNL A   1      41.081  27.423  26.814  1.00  0.00     0.198 A 
ATOM     74  C   UNL A   1      39.652  25.870  27.954  1.00  0.00     0.198 A 
ATOM     75  F   UNL A   1      38.903  26.337  30.133  1.00  0.00    -0.203 F 
ATOM     76  F   UNL A   1      41.748  27.794  25.711  1.00  0.00    -0.200 F 
ATOM     77  C   UNL A   1      40.369  26.234  26.824  1.00  0.00     0.200 A 
ATOM     78  F   UNL A   1      38.974  24.714  27.972  1.00  0.00    -0.200 F 
ATOM     79  F   UNL A   1      40.364  25.444  25.741  1.00  0.00    -0.200 F 
ENDBRANCH  55  69
BRANCH  56  80
ATOM     80  C   UNL A   1      39.442  33.881  37.051  1.00  0.00     0.064 A 
ATOM     81  C   UNL A   1      39.994  35.168  37.088  1.00  0.00     0.173 A 
ATOM     82  C   UNL A   1      38.710  33.451  38.168  1.00  0.00     0.173 A 
ATOM     83  F   UNL A   1      40.716  35.616  36.051  1.00  0.00    -0.203 F 
ATOM     84  C   UNL A   1      39.831  35.989  38.202  1.00  0.00     0.198 A 
ATOM     85  C   UNL A   1      38.524  34.283  39.270  1.00  0.00     0.198 A 
ATOM     86  F   UNL A   1      38.154  32.230  38.178  1.00  0.00    -0.203 F 
ATOM     87  F   UNL A   1      40.398  37.203  38.225  1.00  0.00    -0.200 F 
ATOM     88  C   UNL A   1      39.090  35.549  39.289  1.00  0.00     0.200 A 
ATOM     89  F   UNL A   1      37.791  33.861  40.309  1.00  0.00    -0.200 F 
ATOM     90  F   UNL A   1      38.922  36.344  40.353  1.00  0.00    -0.200 F 
ENDBRANCH  56  80
BRANCH  68  91
ATOM     91  C   UNL A   1      43.840  28.739  35.344  1.00  0.00     0.064 A 
ATOM     92  C   UNL A   1      45.146  29.219  35.165  1.00  0.00     0.173 A 
ATOM     93  C   UNL A   1      43.646  27.684  36.249  1.00  0.00     0.173 A 
ATOM     94  F   UNL A   1      45.386  30.216  34.299  1.00  0.00    -0.203 F 
ATOM     95  C   UNL A   1      46.217  28.649  35.848  1.00  0.00     0.198 A 
ATOM     96  C   UNL A   1      44.714  27.138  36.953  1.00  0.00     0.198 A 
ATOM     97  F   UNL A   1      42.415  27.193  36.460  1.00  0.00    -0.203 F 
ATOM     98  F   UNL A   1      47.462  29.090  35.624  1.00  0.00    -0.200 F 
ATOM     99  C   UNL A   1      45.999  27.615  36.746  1.00  0.00     0.200 A 
ATOM    100  F   UNL A   1      44.500  26.150  37.832  1.00  0.00    -0.200 F 
ATOM    101  F   UNL A   1      47.031  27.072  37.409  1.00  0.00    -0.200 F 
ENDBRANCH  68  91
ENDBRANCH  42  43
ENDBRANCH  34  37
ENDBRANCH  32  33
ENDBRANCH  31  32
ENDBRANCH  30  31
ENDBRANCH  29  30
ENDBRANCH   1  29
TORSDOF 17
ENDMDL
