MODEL 1
REMARK VINA RESULT:     -12.2      0.000      0.000
REMARK SMILES O=C(NCCCCCCNC(=O)[C@H]1[C@@H](C(=O)NN2CCOCC2)[C@H]2C=C[C@@H]1CC2)c1ccc(-c2c3nc(c(-c4c(F)c(F)c(F)c(F)c4F)c4ccc([nH]4)c(-c4c(F)c(F)c(F)c(F)c4F)c4nc(c(-c5c(F)c(F)c(F)c(F)c5F)c5ccc2[nH]5)C=C4)C=C3)cc1
REMARK SMILES IDX 6 1 5 2 4 3 3 4 1 5 2 6 30 8 31 9 92 10 32 11 91 12 33 13
REMARK SMILES IDX 34 14 35 15 85 16 36 17 90 18 84 19 86 20 37 21 89 22 83 23
REMARK SMILES IDX 82 24 38 26 70 27 50 28 69 29 51 30 54 31 68 32 87 33 52 34
REMARK SMILES IDX 53 35 67 37 88 38 55 39 39 40 40 41 48 42 41 43 42 44 46 45
REMARK SMILES IDX 49 46 43 47 44 48 47 49 45 50 71 51 72 52 80 53 73 54 74 55
REMARK SMILES IDX 78 56 81 57 75 58 76 59 79 60 77 61 56 62 57 63 65 64 58 65
REMARK SMILES IDX 59 66 63 67 66 68 60 69 61 70 64 71 62 72 7 73 8 74 9 75
REMARK SMILES IDX 10 76 11 77 12 79 13 80 14 81 27 82 24 83 26 84 28 85 25 86
REMARK SMILES IDX 29 87 15 88 16 89 17 90 18 92 19 93 23 94 20 95 22 96 21 97
REMARK H PARENT 3 7 86 25 54 36 10 78 17 91
REMARK Flexibility Score: inf
ROOT
ATOM      1  C   UNL A   1      34.020  33.496  28.780  1.00  0.00     0.002 C 
ENDROOT
BRANCH   1   2
ATOM      2  C   UNL A   1      32.957  34.593  28.735  1.00  0.00     0.021 C 
BRANCH   2   3
ATOM      3  C   UNL A   1      33.361  35.914  29.368  1.00  0.00     0.116 C 
BRANCH   3   4
ATOM      4  N   UNL A   1      32.525  36.285  30.495  1.00  0.00    -0.352 N 
ATOM      5  O   UNL A   1      31.785  36.218  32.629  1.00  0.00    -0.269 OA
ATOM      6  C   UNL A   1      32.652  35.916  31.812  1.00  0.00     0.251 C 
ATOM      7  H   UNL A   1      31.768  36.880  30.288  1.00  0.00     0.163 HD
BRANCH   6   8
ATOM      8  C   UNL A   1      33.826  35.126  32.241  1.00  0.00     0.039 A 
ATOM      9  C   UNL A   1      35.105  35.690  32.234  1.00  0.00     0.014 A 
ATOM     10  C   UNL A   1      33.647  33.804  32.658  1.00  0.00     0.014 A 
ATOM     11  C   UNL A   1      36.211  34.897  32.510  1.00  0.00     0.010 A 
ATOM     12  C   UNL A   1      34.754  33.032  33.027  1.00  0.00     0.010 A 
ATOM     13  C   UNL A   1      36.048  33.568  32.935  1.00  0.00    -0.014 A 
BRANCH  13  14
ATOM     14  C   UNL A   1      37.247  32.806  33.365  1.00  0.00     0.031 A 
ATOM     15  C   UNL A   1      37.892  31.783  32.475  1.00  0.00     0.074 A 
ATOM     16  C   UNL A   1      37.780  33.094  34.569  1.00  0.00     0.049 A 
ATOM     17  N   UNL A   1      38.977  31.079  32.685  1.00  0.00    -0.248 NA
ATOM     18  C   UNL A   1      37.240  31.508  31.187  1.00  0.00     0.031 C 
ATOM     19  C   UNL A   1      37.221  34.053  35.526  1.00  0.00     0.029 A 
ATOM     20  N   UNL A   1      38.918  32.640  35.183  1.00  0.00    -0.354 N 
ATOM     21  C   UNL A   1      39.131  30.271  31.566  1.00  0.00     0.074 A 
ATOM     22  C   UNL A   1      38.016  30.553  30.688  1.00  0.00     0.031 C 
ATOM     23  C   UNL A   1      38.044  34.157  36.577  1.00  0.00     0.029 A 
ATOM     24  C   UNL A   1      39.155  33.231  36.400  1.00  0.00     0.049 A 
ATOM     25  H   UNL A   1      39.508  31.956  34.791  1.00  0.00     0.167 HD
ATOM     26  C   UNL A   1      40.121  29.386  31.298  1.00  0.00     0.037 A 
ATOM     27  C   UNL A   1      40.151  33.040  37.284  1.00  0.00     0.037 A 
ATOM     28  C   UNL A   1      41.233  29.117  32.175  1.00  0.00     0.049 A 
ATOM     29  C   UNL A   1      41.229  32.049  36.956  1.00  0.00     0.074 A 
ATOM     30  C   UNL A   1      42.293  28.248  31.986  1.00  0.00     0.029 A 
ATOM     31  N   UNL A   1      41.427  29.717  33.412  1.00  0.00    -0.354 N 
ATOM     32  N   UNL A   1      41.376  31.313  35.881  1.00  0.00    -0.248 NA
ATOM     33  C   UNL A   1      42.280  31.860  37.964  1.00  0.00     0.031 C 
ATOM     34  C   UNL A   1      43.110  28.294  33.121  1.00  0.00     0.029 A 
ATOM     35  C   UNL A   1      42.583  29.226  34.000  1.00  0.00     0.049 A 
ATOM     36  H   UNL A   1      40.833  30.392  33.811  1.00  0.00     0.167 HD
ATOM     37  C   UNL A   1      42.533  30.577  36.081  1.00  0.00     0.074 A 
ATOM     38  C   UNL A   1      43.070  30.984  37.363  1.00  0.00     0.031 C 
ATOM     39  C   UNL A   1      43.096  29.638  35.282  1.00  0.00     0.037 A 
BRANCH  26  40
ATOM     40  C   UNL A   1      40.055  28.630  30.002  1.00  0.00     0.064 A 
ATOM     41  C   UNL A   1      40.653  29.125  28.835  1.00  0.00     0.173 A 
ATOM     42  C   UNL A   1      39.454  27.364  29.945  1.00  0.00     0.173 A 
ATOM     43  F   UNL A   1      41.232  30.335  28.833  1.00  0.00    -0.203 F 
ATOM     44  C   UNL A   1      40.643  28.384  27.654  1.00  0.00     0.198 A 
ATOM     45  C   UNL A   1      39.466  26.616  28.770  1.00  0.00     0.198 A 
ATOM     46  F   UNL A   1      38.872  26.842  31.035  1.00  0.00    -0.203 F 
ATOM     47  F   UNL A   1      41.199  28.889  26.544  1.00  0.00    -0.200 F 
ATOM     48  C   UNL A   1      40.059  27.127  27.626  1.00  0.00     0.200 A 
ATOM     49  F   UNL A   1      38.912  25.395  28.748  1.00  0.00    -0.200 F 
ATOM     50  F   UNL A   1      40.064  26.410  26.494  1.00  0.00    -0.200 F 
ENDBRANCH  26  40
BRANCH  27  51
ATOM     51  C   UNL A   1      40.162  33.796  38.561  1.00  0.00     0.064 A 
ATOM     52  C   UNL A   1      39.416  33.364  39.666  1.00  0.00     0.173 A 
ATOM     53  C   UNL A   1      40.922  34.967  38.703  1.00  0.00     0.173 A 
ATOM     54  F   UNL A   1      38.660  32.260  39.574  1.00  0.00    -0.203 F 
ATOM     55  C   UNL A   1      39.415  34.085  40.858  1.00  0.00     0.198 A 
ATOM     56  C   UNL A   1      40.945  35.669  39.905  1.00  0.00     0.198 A 
ATOM     57  F   UNL A   1      41.659  35.418  37.677  1.00  0.00    -0.203 F 
ATOM     58  F   UNL A   1      38.656  33.676  41.884  1.00  0.00    -0.200 F 
ATOM     59  C   UNL A   1      40.184  35.233  40.978  1.00  0.00     0.200 A 
ATOM     60  F   UNL A   1      41.704  36.766  40.023  1.00  0.00    -0.200 F 
ATOM     61  F   UNL A   1      40.187  35.922  42.127  1.00  0.00    -0.200 F 
ENDBRANCH  27  51
BRANCH  39  62
ATOM     62  C   UNL A   1      44.357  29.000  35.778  1.00  0.00     0.064 A 
ATOM     63  C   UNL A   1      44.329  27.837  36.564  1.00  0.00     0.173 A 
ATOM     64  C   UNL A   1      45.607  29.555  35.469  1.00  0.00     0.173 A 
ATOM     65  F   UNL A   1      43.156  27.280  36.901  1.00  0.00    -0.203 F 
ATOM     66  C   UNL A   1      45.505  27.273  37.049  1.00  0.00     0.198 A 
ATOM     67  C   UNL A   1      46.783  28.972  35.933  1.00  0.00     0.198 A 
ATOM     68  F   UNL A   1      45.689  30.665  34.718  1.00  0.00    -0.203 F 
ATOM     69  F   UNL A   1      45.451  26.197  37.846  1.00  0.00    -0.200 F 
ATOM     70  C   UNL A   1      46.730  27.839  36.730  1.00  0.00     0.200 A 
ATOM     71  F   UNL A   1      47.968  29.515  35.617  1.00  0.00    -0.200 F 
ATOM     72  F   UNL A   1      47.862  27.298  37.204  1.00  0.00    -0.200 F 
ENDBRANCH  39  62
ENDBRANCH  13  14
ENDBRANCH   6   8
ENDBRANCH   3   4
ENDBRANCH   2   3
ENDBRANCH   1   2
BRANCH   1  73
ATOM     73  C   UNL A   1      33.747  32.255  27.922  1.00  0.00     0.002 C 
BRANCH  73  74
ATOM     74  C   UNL A   1      32.393  32.209  27.203  1.00  0.00     0.021 C 
BRANCH  74  75
ATOM     75  C   UNL A   1      31.990  30.842  26.662  1.00  0.00     0.116 C 
BRANCH  75  76
ATOM     76  N   UNL A   1      33.073  30.167  25.971  1.00  0.00    -0.356 N 
ATOM     77  C   UNL A   1      33.097  28.957  25.339  1.00  0.00     0.224 C 
ATOM     78  H   UNL A   1      33.925  30.660  25.955  1.00  0.00     0.163 HD
ATOM     79  O   UNL A   1      34.126  28.644  24.741  1.00  0.00    -0.275 OA
BRANCH  77  80
ATOM     80  C   UNL A   1      31.883  28.050  25.426  1.00  0.00     0.098 C 
ATOM     81  C   UNL A   1      30.791  28.267  24.337  1.00  0.00     0.100 C 
ATOM     82  C   UNL A   1      32.294  26.545  25.492  1.00  0.00     0.025 C 
ATOM     83  C   UNL A   1      30.333  26.861  23.821  1.00  0.00     0.025 C 
ATOM     84  C   UNL A   1      32.567  26.015  24.104  1.00  0.00    -0.027 C 
ATOM     85  C   UNL A   1      31.048  25.768  25.996  1.00  0.00     0.009 C 
ATOM     86  C   UNL A   1      31.540  26.139  23.251  1.00  0.00    -0.027 C 
ATOM     87  C   UNL A   1      29.859  26.027  25.037  1.00  0.00     0.009 C 
BRANCH  81  88
ATOM     88  C   UNL A   1      31.140  29.169  23.142  1.00  0.00     0.238 C 
ATOM     89  O   UNL A   1      32.227  29.121  22.558  1.00  0.00    -0.273 OA
ATOM     90  N   UNL A   1      30.214  30.022  22.597  1.00  0.00    -0.288 N 
ATOM     91  H   UNL A   1      30.485  30.484  21.772  1.00  0.00     0.185 HD
BRANCH  90  92
ATOM     92  N   UNL A   1      28.928  30.313  23.073  1.00  0.00    -0.217 NA
ATOM     93  C   UNL A   1      27.901  30.318  22.004  1.00  0.00     0.136 C 
ATOM     94  C   UNL A   1      28.918  31.652  23.728  1.00  0.00     0.136 C 
ATOM     95  C   UNL A   1      27.981  31.525  21.061  1.00  0.00     0.177 C 
ATOM     96  C   UNL A   1      28.977  32.830  22.741  1.00  0.00     0.177 C 
ATOM     97  O   UNL A   1      27.910  32.755  21.791  1.00  0.00    -0.379 OA
ENDBRANCH  90  92
ENDBRANCH  81  88
ENDBRANCH  77  80
ENDBRANCH  75  76
ENDBRANCH  74  75
ENDBRANCH  73  74
ENDBRANCH   1  73
TORSDOF 15
ENDMDL
MODEL 2
REMARK VINA RESULT:     -12.1      2.412      8.251
REMARK SMILES O=C(NCCCCCCNC(=O)[C@H]1[C@@H](C(=O)NN2CCOCC2)[C@H]2C=C[C@@H]1CC2)c1ccc(-c2c3nc(c(-c4c(F)c(F)c(F)c(F)c4F)c4ccc([nH]4)c(-c4c(F)c(F)c(F)c(F)c4F)c4nc(c(-c5c(F)c(F)c(F)c(F)c5F)c5ccc2[nH]5)C=C4)C=C3)cc1
REMARK SMILES IDX 6 1 5 2 4 3 3 4 1 5 2 6 30 8 31 9 92 10 32 11 91 12 33 13
REMARK SMILES IDX 34 14 35 15 85 16 36 17 90 18 84 19 86 20 37 21 89 22 83 23
REMARK SMILES IDX 82 24 38 26 70 27 50 28 69 29 51 30 54 31 68 32 87 33 52 34
REMARK SMILES IDX 53 35 67 37 88 38 55 39 39 40 40 41 48 42 41 43 42 44 46 45
REMARK SMILES IDX 49 46 43 47 44 48 47 49 45 50 71 51 72 52 80 53 73 54 74 55
REMARK SMILES IDX 78 56 81 57 75 58 76 59 79 60 77 61 56 62 57 63 65 64 58 65
REMARK SMILES IDX 59 66 63 67 66 68 60 69 61 70 64 71 62 72 7 73 8 74 9 75
REMARK SMILES IDX 10 76 11 77 12 79 13 80 14 81 27 82 24 83 26 84 28 85 25 86
REMARK SMILES IDX 29 87 15 88 16 89 17 90 18 92 19 93 23 94 20 95 22 96 21 97
REMARK H PARENT 3 7 86 25 54 36 10 78 17 91
REMARK Flexibility Score: inf
ROOT
ATOM      1  C   UNL A   1      31.397  30.886  25.878  1.00  0.00     0.002 C 
ENDROOT
BRANCH   1   2
ATOM      2  C   UNL A   1      31.224  32.272  26.497  1.00  0.00     0.021 C 
BRANCH   2   3
ATOM      3  C   UNL A   1      32.451  32.826  27.202  1.00  0.00     0.116 C 
BRANCH   3   4
ATOM      4  N   UNL A   1      32.276  34.191  27.664  1.00  0.00    -0.352 N 
ATOM      5  O   UNL A   1      32.644  35.990  28.981  1.00  0.00    -0.269 OA
ATOM      6  C   UNL A   1      32.998  34.872  28.614  1.00  0.00     0.251 C 
ATOM      7  H   UNL A   1      31.545  34.695  27.239  1.00  0.00     0.163 HD
BRANCH   6   8
ATOM      8  C   UNL A   1      34.192  34.241  29.218  1.00  0.00     0.039 A 
ATOM      9  C   UNL A   1      34.056  33.244  30.188  1.00  0.00     0.014 A 
ATOM     10  C   UNL A   1      35.464  34.650  28.808  1.00  0.00     0.014 A 
ATOM     11  C   UNL A   1      35.182  32.757  30.839  1.00  0.00     0.010 A 
ATOM     12  C   UNL A   1      36.601  34.091  29.399  1.00  0.00     0.010 A 
ATOM     13  C   UNL A   1      36.467  33.155  30.436  1.00  0.00    -0.014 A 
BRANCH  13  14
ATOM     14  C   UNL A   1      37.644  32.496  31.057  1.00  0.00     0.031 A 
ATOM     15  C   UNL A   1      38.097  32.839  32.447  1.00  0.00     0.074 A 
ATOM     16  C   UNL A   1      38.273  31.533  30.354  1.00  0.00     0.049 A 
ATOM     17  N   UNL A   1      39.070  32.310  33.147  1.00  0.00    -0.248 NA
ATOM     18  C   UNL A   1      37.376  33.916  33.141  1.00  0.00     0.031 C 
ATOM     19  C   UNL A   1      37.931  31.135  28.986  1.00  0.00     0.029 A 
ATOM     20  N   UNL A   1      39.303  30.695  30.694  1.00  0.00    -0.354 N 
ATOM     21  C   UNL A   1      39.085  32.993  34.356  1.00  0.00     0.074 A 
ATOM     22  C   UNL A   1      38.041  33.992  34.287  1.00  0.00     0.031 C 
ATOM     23  C   UNL A   1      38.696  30.097  28.625  1.00  0.00     0.029 A 
ATOM     24  C   UNL A   1      39.622  29.793  29.708  1.00  0.00     0.049 A 
ATOM     25  H   UNL A   1      39.768  30.735  31.561  1.00  0.00     0.167 HD
ATOM     26  C   UNL A   1      39.893  32.791  35.425  1.00  0.00     0.037 A 
ATOM     27  C   UNL A   1      40.565  28.835  29.674  1.00  0.00     0.037 A 
ATOM     28  C   UNL A   1      40.925  31.787  35.489  1.00  0.00     0.049 A 
ATOM     29  C   UNL A   1      41.443  28.642  30.875  1.00  0.00     0.074 A 
ATOM     30  C   UNL A   1      41.786  31.496  36.534  1.00  0.00     0.029 A 
ATOM     31  N   UNL A   1      41.236  30.908  34.461  1.00  0.00    -0.354 N 
ATOM     32  N   UNL A   1      41.428  29.277  32.022  1.00  0.00    -0.248 NA
ATOM     33  C   UNL A   1      42.473  27.598  30.778  1.00  0.00     0.031 C 
ATOM     34  C   UNL A   1      42.641  30.466  36.127  1.00  0.00     0.029 A 
ATOM     35  C   UNL A   1      42.285  30.084  34.844  1.00  0.00     0.049 A 
ATOM     36  H   UNL A   1      40.780  30.873  33.590  1.00  0.00     0.167 HD
ATOM     37  C   UNL A   1      42.440  28.712  32.782  1.00  0.00     0.074 A 
ATOM     38  C   UNL A   1      43.024  27.656  31.981  1.00  0.00     0.031 C 
ATOM     39  C   UNL A   1      42.858  29.045  34.028  1.00  0.00     0.037 A 
BRANCH  26  40
ATOM     40  C   UNL A   1      39.702  33.675  36.625  1.00  0.00     0.064 A 
ATOM     41  C   UNL A   1      40.298  34.941  36.704  1.00  0.00     0.173 A 
ATOM     42  C   UNL A   1      38.854  33.283  37.671  1.00  0.00     0.173 A 
ATOM     43  F   UNL A   1      41.126  35.360  35.735  1.00  0.00    -0.203 F 
ATOM     44  C   UNL A   1      40.060  35.779  37.792  1.00  0.00     0.198 A 
ATOM     45  C   UNL A   1      38.599  34.131  38.746  1.00  0.00     0.198 A 
ATOM     46  F   UNL A   1      38.254  32.083  37.642  1.00  0.00    -0.203 F 
ATOM     47  F   UNL A   1      40.661  36.975  37.858  1.00  0.00    -0.200 F 
ATOM     48  C   UNL A   1      39.203  35.378  38.806  1.00  0.00     0.200 A 
ATOM     49  F   UNL A   1      37.761  33.747  39.719  1.00  0.00    -0.200 F 
ATOM     50  F   UNL A   1      38.963  36.191  39.843  1.00  0.00    -0.200 F 
ENDBRANCH  26  40
BRANCH  27  51
ATOM     51  C   UNL A   1      40.728  28.000  28.458  1.00  0.00     0.064 A 
ATOM     52  C   UNL A   1      41.528  28.424  27.388  1.00  0.00     0.173 A 
ATOM     53  C   UNL A   1      40.087  26.757  28.341  1.00  0.00     0.173 A 
ATOM     54  F   UNL A   1      42.147  29.613  27.446  1.00  0.00    -0.203 F 
ATOM     55  C   UNL A   1      41.665  27.647  26.241  1.00  0.00     0.198 A 
ATOM     56  C   UNL A   1      40.251  25.966  27.207  1.00  0.00     0.198 A 
ATOM     57  F   UNL A   1      39.316  26.303  29.340  1.00  0.00    -0.203 F 
ATOM     58  F   UNL A   1      42.398  28.097  25.214  1.00  0.00    -0.200 F 
ATOM     59  C   UNL A   1      41.032  26.416  26.154  1.00  0.00     0.200 A 
ATOM     60  F   UNL A   1      39.652  24.770  27.136  1.00  0.00    -0.200 F 
ATOM     61  F   UNL A   1      41.169  25.666  25.053  1.00  0.00    -0.200 F 
ENDBRANCH  27  51
BRANCH  39  62
ATOM     62  C   UNL A   1      43.996  28.248  34.591  1.00  0.00     0.064 A 
ATOM     63  C   UNL A   1      43.774  27.066  35.313  1.00  0.00     0.173 A 
ATOM     64  C   UNL A   1      45.320  28.671  34.409  1.00  0.00     0.173 A 
ATOM     65  F   UNL A   1      42.523  26.632  35.528  1.00  0.00    -0.203 F 
ATOM     66  C   UNL A   1      44.836  26.354  35.862  1.00  0.00     0.198 A 
ATOM     67  C   UNL A   1      46.382  27.941  34.936  1.00  0.00     0.198 A 
ATOM     68  F   UNL A   1      45.586  29.794  33.723  1.00  0.00    -0.203 F 
ATOM     69  F   UNL A   1      44.597  25.260  36.598  1.00  0.00    -0.200 F 
ATOM     70  C   UNL A   1      46.138  26.790  35.670  1.00  0.00     0.200 A 
ATOM     71  F   UNL A   1      47.641  28.358  34.743  1.00  0.00    -0.200 F 
ATOM     72  F   UNL A   1      47.160  26.106  36.205  1.00  0.00    -0.200 F 
ENDBRANCH  39  62
ENDBRANCH  13  14
ENDBRANCH   6   8
ENDBRANCH   3   4
ENDBRANCH   2   3
ENDBRANCH   1   2
BRANCH   1  73
ATOM     73  C   UNL A   1      32.290  29.908  26.650  1.00  0.00     0.002 C 
BRANCH  73  74
ATOM     74  C   UNL A   1      31.579  28.747  27.354  1.00  0.00     0.021 C 
BRANCH  74  75
ATOM     75  C   UNL A   1      32.363  27.441  27.410  1.00  0.00     0.116 C 
BRANCH  75  76
ATOM     76  N   UNL A   1      31.696  26.352  26.721  1.00  0.00    -0.356 N 
ATOM     77  C   UNL A   1      31.800  25.931  25.427  1.00  0.00     0.224 C 
ATOM     78  H   UNL A   1      31.068  25.834  27.276  1.00  0.00     0.163 HD
ATOM     79  O   UNL A   1      31.191  24.912  25.105  1.00  0.00    -0.275 OA
BRANCH  77  80
ATOM     80  C   UNL A   1      32.629  26.743  24.448  1.00  0.00     0.098 C 
ATOM     81  C   UNL A   1      33.524  25.927  23.470  1.00  0.00     0.100 C 
ATOM     82  C   UNL A   1      31.746  27.760  23.656  1.00  0.00     0.025 C 
ATOM     83  C   UNL A   1      33.379  26.550  22.040  1.00  0.00     0.025 C 
ATOM     84  C   UNL A   1      31.075  27.075  22.489  1.00  0.00    -0.027 C 
ATOM     85  C   UNL A   1      32.720  28.793  23.026  1.00  0.00     0.009 C 
ATOM     86  C   UNL A   1      31.920  26.485  21.631  1.00  0.00    -0.027 C 
ATOM     87  C   UNL A   1      33.742  28.054  22.127  1.00  0.00     0.009 C 
BRANCH  81  88
ATOM     88  C   UNL A   1      33.304  24.406  23.397  1.00  0.00     0.238 C 
ATOM     89  O   UNL A   1      32.570  23.874  22.559  1.00  0.00    -0.273 OA
ATOM     90  N   UNL A   1      33.993  23.545  24.212  1.00  0.00    -0.288 N 
ATOM     91  H   UNL A   1      33.871  22.586  24.029  1.00  0.00     0.185 HD
BRANCH  90  92
ATOM     92  N   UNL A   1      34.851  23.866  25.273  1.00  0.00    -0.217 NA
ATOM     93  C   UNL A   1      36.284  23.784  24.906  1.00  0.00     0.136 C 
ATOM     94  C   UNL A   1      34.615  22.939  26.417  1.00  0.00     0.136 C 
ATOM     95  C   UNL A   1      36.808  22.354  24.727  1.00  0.00     0.177 C 
ATOM     96  C   UNL A   1      35.177  21.523  26.199  1.00  0.00     0.177 C 
ATOM     97  O   UNL A   1      36.576  21.570  25.902  1.00  0.00    -0.379 OA
ENDBRANCH  90  92
ENDBRANCH  81  88
ENDBRANCH  77  80
ENDBRANCH  75  76
ENDBRANCH  74  75
ENDBRANCH  73  74
ENDBRANCH   1  73
TORSDOF 15
ENDMDL
MODEL 3
REMARK VINA RESULT:     -12.1      2.315      8.332
REMARK SMILES O=C(NCCCCCCNC(=O)[C@H]1[C@@H](C(=O)NN2CCOCC2)[C@H]2C=C[C@@H]1CC2)c1ccc(-c2c3nc(c(-c4c(F)c(F)c(F)c(F)c4F)c4ccc([nH]4)c(-c4c(F)c(F)c(F)c(F)c4F)c4nc(c(-c5c(F)c(F)c(F)c(F)c5F)c5ccc2[nH]5)C=C4)C=C3)cc1
REMARK SMILES IDX 6 1 5 2 4 3 3 4 1 5 2 6 30 8 31 9 92 10 32 11 91 12 33 13
REMARK SMILES IDX 34 14 35 15 85 16 36 17 90 18 84 19 86 20 37 21 89 22 83 23
REMARK SMILES IDX 82 24 38 26 70 27 50 28 69 29 51 30 54 31 68 32 87 33 52 34
REMARK SMILES IDX 53 35 67 37 88 38 55 39 39 40 40 41 48 42 41 43 42 44 46 45
REMARK SMILES IDX 49 46 43 47 44 48 47 49 45 50 71 51 72 52 80 53 73 54 74 55
REMARK SMILES IDX 78 56 81 57 75 58 76 59 79 60 77 61 56 62 57 63 65 64 58 65
REMARK SMILES IDX 59 66 63 67 66 68 60 69 61 70 64 71 62 72 7 73 8 74 9 75
REMARK SMILES IDX 10 76 11 77 12 79 13 80 14 81 27 82 24 83 26 84 28 85 25 86
REMARK SMILES IDX 29 87 15 88 16 89 17 90 18 92 19 93 23 94 20 95 22 96 21 97
REMARK H PARENT 3 7 86 25 54 36 10 78 17 91
REMARK Flexibility Score: inf
ROOT
ATOM      1  C   UNL A   1      31.409  30.877  25.796  1.00  0.00     0.002 C 
ENDROOT
BRANCH   1   2
ATOM      2  C   UNL A   1      31.203  32.225  26.487  1.00  0.00     0.021 C 
BRANCH   2   3
ATOM      3  C   UNL A   1      32.443  32.821  27.132  1.00  0.00     0.116 C 
BRANCH   3   4
ATOM      4  N   UNL A   1      32.249  34.185  27.590  1.00  0.00    -0.352 N 
ATOM      5  O   UNL A   1      32.583  35.988  28.909  1.00  0.00    -0.269 OA
ATOM      6  C   UNL A   1      32.952  34.873  28.549  1.00  0.00     0.251 C 
ATOM      7  H   UNL A   1      31.518  34.681  27.155  1.00  0.00     0.163 HD
BRANCH   6   8
ATOM      8  C   UNL A   1      34.144  34.254  29.168  1.00  0.00     0.039 A 
ATOM      9  C   UNL A   1      34.007  33.331  30.208  1.00  0.00     0.014 A 
ATOM     10  C   UNL A   1      35.416  34.601  28.703  1.00  0.00     0.014 A 
ATOM     11  C   UNL A   1      35.136  32.861  30.867  1.00  0.00     0.010 A 
ATOM     12  C   UNL A   1      36.553  34.054  29.307  1.00  0.00     0.010 A 
ATOM     13  C   UNL A   1      36.421  33.196  30.408  1.00  0.00    -0.014 A 
BRANCH  13  14
ATOM     14  C   UNL A   1      37.596  32.551  31.048  1.00  0.00     0.031 A 
ATOM     15  C   UNL A   1      38.040  32.920  32.434  1.00  0.00     0.074 A 
ATOM     16  C   UNL A   1      38.230  31.578  30.366  1.00  0.00     0.049 A 
ATOM     17  N   UNL A   1      39.009  32.406  33.149  1.00  0.00    -0.248 NA
ATOM     18  C   UNL A   1      37.312  34.006  33.105  1.00  0.00     0.031 C 
ATOM     19  C   UNL A   1      37.898  31.155  29.003  1.00  0.00     0.029 A 
ATOM     20  N   UNL A   1      39.260  30.748  30.727  1.00  0.00    -0.354 N 
ATOM     21  C   UNL A   1      39.016  33.109  34.347  1.00  0.00     0.074 A 
ATOM     22  C   UNL A   1      37.970  34.105  34.254  1.00  0.00     0.031 C 
ATOM     23  C   UNL A   1      38.667  30.112  28.664  1.00  0.00     0.029 A 
ATOM     24  C   UNL A   1      39.587  29.830  29.758  1.00  0.00     0.049 A 
ATOM     25  H   UNL A   1      39.721  30.805  31.595  1.00  0.00     0.167 HD
ATOM     26  C   UNL A   1      39.818  32.928  35.424  1.00  0.00     0.037 A 
ATOM     27  C   UNL A   1      40.533  28.874  29.746  1.00  0.00     0.037 A 
ATOM     28  C   UNL A   1      40.852  31.928  35.511  1.00  0.00     0.049 A 
ATOM     29  C   UNL A   1      41.405  28.704  30.956  1.00  0.00     0.074 A 
ATOM     30  C   UNL A   1      41.707  31.658  36.565  1.00  0.00     0.029 A 
ATOM     31  N   UNL A   1      41.171  31.032  34.501  1.00  0.00    -0.354 N 
ATOM     32  N   UNL A   1      41.381  29.359  32.091  1.00  0.00    -0.248 NA
ATOM     33  C   UNL A   1      42.438  27.662  30.883  1.00  0.00     0.031 C 
ATOM     34  C   UNL A   1      42.568  30.623  36.181  1.00  0.00     0.029 A 
ATOM     35  C   UNL A   1      42.220  30.218  34.904  1.00  0.00     0.049 A 
ATOM     36  H   UNL A   1      40.720  30.981  33.627  1.00  0.00     0.167 HD
ATOM     37  C   UNL A   1      42.390  28.810  32.867  1.00  0.00     0.074 A 
ATOM     38  C   UNL A   1      42.981  27.742  32.088  1.00  0.00     0.031 C 
ATOM     39  C   UNL A   1      42.800  29.166  34.109  1.00  0.00     0.037 A 
BRANCH  26  40
ATOM     40  C   UNL A   1      39.618  33.832  36.606  1.00  0.00     0.064 A 
ATOM     41  C   UNL A   1      38.817  33.452  37.692  1.00  0.00     0.173 A 
ATOM     42  C   UNL A   1      40.296  35.058  36.689  1.00  0.00     0.173 A 
ATOM     43  F   UNL A   1      38.140  32.294  37.658  1.00  0.00    -0.203 F 
ATOM     44  C   UNL A   1      38.693  34.270  38.814  1.00  0.00     0.198 A 
ATOM     45  C   UNL A   1      40.189  35.863  37.821  1.00  0.00     0.198 A 
ATOM     46  F   UNL A   1      41.080  35.466  35.680  1.00  0.00    -0.203 F 
ATOM     47  F   UNL A   1      37.901  33.897  39.828  1.00  0.00    -0.200 F 
ATOM     48  C   UNL A   1      39.387  35.469  38.881  1.00  0.00     0.200 A 
ATOM     49  F   UNL A   1      40.870  37.016  37.889  1.00  0.00    -0.200 F 
ATOM     50  F   UNL A   1      39.279  36.247  39.966  1.00  0.00    -0.200 F 
ENDBRANCH  26  40
BRANCH  27  51
ATOM     51  C   UNL A   1      40.705  28.018  28.546  1.00  0.00     0.064 A 
ATOM     52  C   UNL A   1      41.511  28.425  27.474  1.00  0.00     0.173 A 
ATOM     53  C   UNL A   1      40.068  26.772  28.447  1.00  0.00     0.173 A 
ATOM     54  F   UNL A   1      42.127  29.616  27.514  1.00  0.00    -0.203 F 
ATOM     55  C   UNL A   1      41.657  27.629  26.341  1.00  0.00     0.198 A 
ATOM     56  C   UNL A   1      40.240  25.962  27.328  1.00  0.00     0.198 A 
ATOM     57  F   UNL A   1      39.291  26.333  29.449  1.00  0.00    -0.203 F 
ATOM     58  F   UNL A   1      42.395  28.062  25.311  1.00  0.00    -0.200 F 
ATOM     59  C   UNL A   1      41.026  26.395  26.272  1.00  0.00     0.200 A 
ATOM     60  F   UNL A   1      39.645  24.763  27.274  1.00  0.00    -0.200 F 
ATOM     61  F   UNL A   1      41.172  25.626  25.185  1.00  0.00    -0.200 F 
ENDBRANCH  27  51
BRANCH  39  62
ATOM     62  C   UNL A   1      43.936  28.382  34.692  1.00  0.00     0.064 A 
ATOM     63  C   UNL A   1      45.268  28.796  34.532  1.00  0.00     0.173 A 
ATOM     64  C   UNL A   1      43.694  27.206  35.417  1.00  0.00     0.173 A 
ATOM     65  F   UNL A   1      45.550  29.904  33.831  1.00  0.00    -0.203 F 
ATOM     66  C   UNL A   1      46.318  28.042  35.047  1.00  0.00     0.198 A 
ATOM     67  C   UNL A   1      44.746  26.469  35.955  1.00  0.00     0.198 A 
ATOM     68  F   UNL A   1      42.439  26.770  35.601  1.00  0.00    -0.203 F 
ATOM     69  F   UNL A   1      47.584  28.424  34.831  1.00  0.00    -0.200 F 
ATOM     70  C   UNL A   1      46.055  26.882  35.761  1.00  0.00     0.200 A 
ATOM     71  F   UNL A   1      44.491  25.353  36.652  1.00  0.00    -0.200 F 
ATOM     72  F   UNL A   1      47.068  26.153  36.251  1.00  0.00    -0.200 F 
ENDBRANCH  39  62
ENDBRANCH  13  14
ENDBRANCH   6   8
ENDBRANCH   3   4
ENDBRANCH   2   3
ENDBRANCH   1   2
BRANCH   1  73
ATOM     73  C   UNL A   1      32.362  29.900  26.494  1.00  0.00     0.002 C 
BRANCH  73  74
ATOM     74  C   UNL A   1      31.748  29.010  27.581  1.00  0.00     0.021 C 
BRANCH  74  75
ATOM     75  C   UNL A   1      32.045  27.521  27.448  1.00  0.00     0.116 C 
BRANCH  75  76
ATOM     76  N   UNL A   1      31.023  26.805  26.709  1.00  0.00    -0.356 N 
ATOM     77  C   UNL A   1      30.983  26.428  25.397  1.00  0.00     0.224 C 
ATOM     78  H   UNL A   1      30.231  26.551  27.237  1.00  0.00     0.163 HD
ATOM     79  O   UNL A   1      30.033  25.741  25.028  1.00  0.00    -0.275 OA
BRANCH  77  80
ATOM     80  C   UNL A   1      32.083  26.892  24.459  1.00  0.00     0.098 C 
ATOM     81  C   UNL A   1      32.879  25.768  23.733  1.00  0.00     0.100 C 
ATOM     82  C   UNL A   1      31.552  27.937  23.427  1.00  0.00     0.025 C 
ATOM     83  C   UNL A   1      33.047  26.183  22.232  1.00  0.00     0.025 C 
ATOM     84  C   UNL A   1      30.885  27.236  22.266  1.00  0.00    -0.027 C 
ATOM     85  C   UNL A   1      32.801  28.637  22.825  1.00  0.00     0.009 C 
ATOM     86  C   UNL A   1      31.669  26.360  21.622  1.00  0.00    -0.027 C 
ATOM     87  C   UNL A   1      33.728  27.573  22.185  1.00  0.00     0.009 C 
BRANCH  81  88
ATOM     88  C   UNL A   1      32.331  24.334  23.816  1.00  0.00     0.238 C 
ATOM     89  O   UNL A   1      31.660  23.818  22.917  1.00  0.00    -0.273 OA
ATOM     90  N   UNL A   1      32.642  23.511  24.868  1.00  0.00    -0.288 N 
ATOM     91  H   UNL A   1      32.337  22.578  24.791  1.00  0.00     0.185 HD
BRANCH  90  92
ATOM     92  N   UNL A   1      33.342  23.836  26.038  1.00  0.00    -0.217 NA
ATOM     93  C   UNL A   1      34.813  23.805  25.862  1.00  0.00     0.136 C 
ATOM     94  C   UNL A   1      32.988  22.881  27.127  1.00  0.00     0.136 C 
ATOM     95  C   UNL A   1      35.402  22.395  25.732  1.00  0.00     0.177 C 
ATOM     96  C   UNL A   1      33.618  21.487  26.964  1.00  0.00     0.177 C 
ATOM     97  O   UNL A   1      35.042  21.582  26.854  1.00  0.00    -0.379 OA
ENDBRANCH  90  92
ENDBRANCH  81  88
ENDBRANCH  77  80
ENDBRANCH  75  76
ENDBRANCH  74  75
ENDBRANCH  73  74
ENDBRANCH   1  73
TORSDOF 15
ENDMDL
