MODEL 1
REMARK VINA RESULT:     -12.4      0.000      0.000
REMARK SMILES O=C(NCCCCCCNC(=O)[C@H]1CCCCN1C(=O)c1cn2ccccc2n1)c1ccc(-c2c3nc(c(-c4c(F)c(F)c(F)c(F)c4F)c4ccc([nH]4)c(-c4c(F)c(F)c(F)c(F)c4F)c4nc(c(-c5c(F)c(F)c(F)c(F)c5F)c5ccc2[nH]5)C=C4)C=C3)cc1
REMARK SMILES IDX 6 1 5 2 4 3 3 4 1 5 2 6 30 8 31 9 92 10 32 11 91 12 33 13
REMARK SMILES IDX 34 14 35 15 85 16 36 17 90 18 84 19 86 20 37 21 89 22 83 23
REMARK SMILES IDX 82 24 38 26 70 27 50 28 69 29 51 30 54 31 68 32 87 33 52 34
REMARK SMILES IDX 53 35 67 37 88 38 55 39 39 40 40 41 48 42 41 43 42 44 46 45
REMARK SMILES IDX 49 46 43 47 44 48 47 49 45 50 71 51 72 52 80 53 73 54 74 55
REMARK SMILES IDX 78 56 81 57 75 58 76 59 79 60 77 61 56 62 57 63 65 64 58 65
REMARK SMILES IDX 59 66 63 67 66 68 60 69 61 70 64 71 62 72 7 73 8 74 9 75
REMARK SMILES IDX 10 76 11 77 12 79 13 80 14 81 18 82 15 83 17 84 16 85 19 86
REMARK SMILES IDX 20 87 21 88 22 89 29 90 23 91 28 92 24 93 27 94 25 95 26 96
REMARK H PARENT 3 7 86 25 54 36 10 78
REMARK Flexibility Score: inf
ROOT
ATOM      1  C   UNL A   1      31.415  30.765  26.317  1.00  0.00     0.002 C 
ENDROOT
BRANCH   1   2
ATOM      2  C   UNL A   1      31.346  32.276  26.530  1.00  0.00     0.021 C 
BRANCH   2   3
ATOM      3  C   UNL A   1      32.618  32.887  27.100  1.00  0.00     0.116 C 
BRANCH   3   4
ATOM      4  N   UNL A   1      32.407  34.235  27.600  1.00  0.00    -0.352 N 
ATOM      5  O   UNL A   1      32.616  35.949  29.058  1.00  0.00    -0.269 OA
ATOM      6  C   UNL A   1      33.030  34.871  28.645  1.00  0.00     0.251 C 
ATOM      7  H   UNL A   1      31.727  34.765  27.125  1.00  0.00     0.163 HD
BRANCH   6   8
ATOM      8  C   UNL A   1      34.199  34.232  29.286  1.00  0.00     0.039 A 
ATOM      9  C   UNL A   1      34.020  33.307  30.318  1.00  0.00     0.014 A 
ATOM     10  C   UNL A   1      35.484  34.563  28.849  1.00  0.00     0.014 A 
ATOM     11  C   UNL A   1      35.123  32.814  31.000  1.00  0.00     0.010 A 
ATOM     12  C   UNL A   1      36.594  33.993  29.476  1.00  0.00     0.010 A 
ATOM     13  C   UNL A   1      36.422  33.128  30.569  1.00  0.00    -0.014 A 
BRANCH  13  14
ATOM     14  C   UNL A   1      37.581  32.465  31.215  1.00  0.00     0.031 A 
ATOM     15  C   UNL A   1      38.336  31.366  30.529  1.00  0.00     0.074 A 
ATOM     16  C   UNL A   1      37.946  32.879  32.444  1.00  0.00     0.049 A 
ATOM     17  N   UNL A   1      39.356  30.670  30.966  1.00  0.00    -0.248 NA
ATOM     18  C   UNL A   1      37.887  30.989  29.180  1.00  0.00     0.031 C 
ATOM     19  C   UNL A   1      37.276  33.934  33.209  1.00  0.00     0.029 A 
ATOM     20  N   UNL A   1      38.967  32.474  33.264  1.00  0.00    -0.354 N 
ATOM     21  C   UNL A   1      39.660  29.765  29.957  1.00  0.00     0.074 A 
ATOM     22  C   UNL A   1      38.701  29.981  28.895  1.00  0.00     0.031 C 
ATOM     23  C   UNL A   1      37.923  34.117  34.367  1.00  0.00     0.029 A 
ATOM     24  C   UNL A   1      39.006  33.147  34.460  1.00  0.00     0.049 A 
ATOM     25  H   UNL A   1      39.610  31.769  33.019  1.00  0.00     0.167 HD
ATOM     26  C   UNL A   1      40.655  28.846  29.925  1.00  0.00     0.037 A 
ATOM     27  C   UNL A   1      39.806  32.981  35.529  1.00  0.00     0.037 A 
ATOM     28  C   UNL A   1      41.610  28.647  30.988  1.00  0.00     0.049 A 
ATOM     29  C   UNL A   1      40.869  31.922  35.481  1.00  0.00     0.074 A 
ATOM     30  C   UNL A   1      42.680  27.770  31.035  1.00  0.00     0.029 A 
ATOM     31  N   UNL A   1      41.599  29.327  32.199  1.00  0.00    -0.354 N 
ATOM     32  N   UNL A   1      41.176  31.103  34.505  1.00  0.00    -0.248 NA
ATOM     33  C   UNL A   1      41.694  31.762  36.685  1.00  0.00     0.031 C 
ATOM     34  C   UNL A   1      43.280  27.877  32.294  1.00  0.00     0.029 A 
ATOM     35  C   UNL A   1      42.624  28.864  33.011  1.00  0.00     0.049 A 
ATOM     36  H   UNL A   1      40.959  30.032  32.445  1.00  0.00     0.167 HD
ATOM     37  C   UNL A   1      42.242  30.344  34.966  1.00  0.00     0.074 A 
ATOM     38  C   UNL A   1      42.542  30.817  36.302  1.00  0.00     0.031 C 
ATOM     39  C   UNL A   1      42.909  29.345  34.340  1.00  0.00     0.037 A 
BRANCH  26  40
ATOM     40  C   UNL A   1      40.758  27.963  28.714  1.00  0.00     0.064 A 
ATOM     41  C   UNL A   1      40.051  26.754  28.616  1.00  0.00     0.173 A 
ATOM     42  C   UNL A   1      41.532  28.358  27.612  1.00  0.00     0.173 A 
ATOM     43  F   UNL A   1      39.302  26.325  29.642  1.00  0.00    -0.203 F 
ATOM     44  C   UNL A   1      40.135  25.966  27.470  1.00  0.00     0.198 A 
ATOM     45  C   UNL A   1      41.589  27.582  26.457  1.00  0.00     0.198 A 
ATOM     46  F   UNL A   1      42.223  29.508  27.648  1.00  0.00    -0.203 F 
ATOM     47  F   UNL A   1      39.484  24.795  27.416  1.00  0.00    -0.200 F 
ATOM     48  C   UNL A   1      40.897  26.384  26.389  1.00  0.00     0.200 A 
ATOM     49  F   UNL A   1      42.314  27.996  25.407  1.00  0.00    -0.200 F 
ATOM     50  F   UNL A   1      40.967  25.628  25.284  1.00  0.00    -0.200 F 
ENDBRANCH  26  40
BRANCH  27  51
ATOM     51  C   UNL A   1      39.611  33.828  36.734  1.00  0.00     0.064 A 
ATOM     52  C   UNL A   1      38.814  33.395  37.800  1.00  0.00     0.173 A 
ATOM     53  C   UNL A   1      40.226  35.085  36.846  1.00  0.00     0.173 A 
ATOM     54  F   UNL A   1      38.191  32.209  37.733  1.00  0.00    -0.203 F 
ATOM     55  C   UNL A   1      38.622  34.195  38.926  1.00  0.00     0.198 A 
ATOM     56  C   UNL A   1      40.062  35.868  37.986  1.00  0.00     0.198 A 
ATOM     57  F   UNL A   1      41.005  35.543  35.855  1.00  0.00    -0.203 F 
ATOM     58  F   UNL A   1      37.817  33.777  39.911  1.00  0.00    -0.200 F 
ATOM     59  C   UNL A   1      39.252  35.426  39.020  1.00  0.00     0.200 A 
ATOM     60  F   UNL A   1      40.689  37.048  38.080  1.00  0.00    -0.200 F 
ATOM     61  F   UNL A   1      39.073  36.191  40.106  1.00  0.00    -0.200 F 
ENDBRANCH  27  51
BRANCH  39  62
ATOM     62  C   UNL A   1      44.051  28.716  35.083  1.00  0.00     0.064 A 
ATOM     63  C   UNL A   1      45.355  29.226  35.001  1.00  0.00     0.173 A 
ATOM     64  C   UNL A   1      43.832  27.606  35.914  1.00  0.00     0.173 A 
ATOM     65  F   UNL A   1      45.622  30.273  34.205  1.00  0.00    -0.203 F 
ATOM     66  C   UNL A   1      46.402  28.633  35.703  1.00  0.00     0.198 A 
ATOM     67  C   UNL A   1      44.873  27.037  36.641  1.00  0.00     0.198 A 
ATOM     68  F   UNL A   1      42.603  27.081  36.032  1.00  0.00    -0.203 F 
ATOM     69  F   UNL A   1      47.648  29.105  35.568  1.00  0.00    -0.200 F 
ATOM     70  C   UNL A   1      46.158  27.546  36.529  1.00  0.00     0.200 A 
ATOM     71  F   UNL A   1      44.634  25.996  37.450  1.00  0.00    -0.200 F 
ATOM     72  F   UNL A   1      47.165  26.982  37.211  1.00  0.00    -0.200 F 
ENDBRANCH  39  62
ENDBRANCH  13  14
ENDBRANCH   6   8
ENDBRANCH   3   4
ENDBRANCH   2   3
ENDBRANCH   1   2
BRANCH   1  73
ATOM     73  C   UNL A   1      32.433  30.034  27.200  1.00  0.00     0.002 C 
BRANCH  73  74
ATOM     74  C   UNL A   1      32.148  28.544  27.444  1.00  0.00     0.021 C 
BRANCH  74  75
ATOM     75  C   UNL A   1      31.364  27.856  26.326  1.00  0.00     0.116 C 
BRANCH  75  76
ATOM     76  N   UNL A   1      31.425  26.417  26.471  1.00  0.00    -0.354 N 
ATOM     77  C   UNL A   1      32.185  25.495  25.823  1.00  0.00     0.242 C 
ATOM     78  H   UNL A   1      30.816  26.045  27.150  1.00  0.00     0.163 HD
ATOM     79  O   UNL A   1      31.858  24.313  25.966  1.00  0.00    -0.273 OA
BRANCH  77  80
ATOM     80  C   UNL A   1      33.370  25.926  24.929  1.00  0.00     0.174 C 
ATOM     81  C   UNL A   1      34.641  25.161  25.327  1.00  0.00     0.035 C 
ATOM     82  N   UNL A   1      33.071  25.744  23.499  1.00  0.00    -0.325 N 
ATOM     83  C   UNL A   1      34.645  23.708  24.857  1.00  0.00     0.004 C 
ATOM     84  C   UNL A   1      33.032  24.360  23.018  1.00  0.00     0.121 C 
ATOM     85  C   UNL A   1      34.308  23.605  23.376  1.00  0.00     0.022 C 
BRANCH  82  86
ATOM     86  C   UNL A   1      32.867  26.882  22.711  1.00  0.00     0.274 C 
ATOM     87  O   UNL A   1      33.731  27.300  21.940  1.00  0.00    -0.267 OA
BRANCH  86  88
ATOM     88  C   UNL A   1      31.582  27.575  22.825  1.00  0.00     0.147 A 
ATOM     89  C   UNL A   1      30.331  26.990  22.912  1.00  0.00     0.127 A 
ATOM     90  N   UNL A   1      31.471  28.954  22.902  1.00  0.00    -0.223 NA
ATOM     91  N   UNL A   1      29.440  28.027  23.015  1.00  0.00    -0.306 N 
ATOM     92  C   UNL A   1      30.184  29.203  23.013  1.00  0.00     0.137 A 
ATOM     93  C   UNL A   1      28.051  27.995  23.099  1.00  0.00     0.093 A 
ATOM     94  C   UNL A   1      29.462  30.426  23.123  1.00  0.00     0.048 A 
ATOM     95  C   UNL A   1      27.372  29.153  23.192  1.00  0.00     0.018 A 
ATOM     96  C   UNL A   1      28.117  30.404  23.207  1.00  0.00     0.005 A 
ENDBRANCH  86  88
ENDBRANCH  82  86
ENDBRANCH  77  80
ENDBRANCH  75  76
ENDBRANCH  74  75
ENDBRANCH  73  74
ENDBRANCH   1  73
TORSDOF 15
ENDMDL
MODEL 2
REMARK VINA RESULT:     -12.4      5.204      9.497
REMARK SMILES O=C(NCCCCCCNC(=O)[C@H]1CCCCN1C(=O)c1cn2ccccc2n1)c1ccc(-c2c3nc(c(-c4c(F)c(F)c(F)c(F)c4F)c4ccc([nH]4)c(-c4c(F)c(F)c(F)c(F)c4F)c4nc(c(-c5c(F)c(F)c(F)c(F)c5F)c5ccc2[nH]5)C=C4)C=C3)cc1
REMARK SMILES IDX 6 1 5 2 4 3 3 4 1 5 2 6 30 8 31 9 92 10 32 11 91 12 33 13
REMARK SMILES IDX 34 14 35 15 85 16 36 17 90 18 84 19 86 20 37 21 89 22 83 23
REMARK SMILES IDX 82 24 38 26 70 27 50 28 69 29 51 30 54 31 68 32 87 33 52 34
REMARK SMILES IDX 53 35 67 37 88 38 55 39 39 40 40 41 48 42 41 43 42 44 46 45
REMARK SMILES IDX 49 46 43 47 44 48 47 49 45 50 71 51 72 52 80 53 73 54 74 55
REMARK SMILES IDX 78 56 81 57 75 58 76 59 79 60 77 61 56 62 57 63 65 64 58 65
REMARK SMILES IDX 59 66 63 67 66 68 60 69 61 70 64 71 62 72 7 73 8 74 9 75
REMARK SMILES IDX 10 76 11 77 12 79 13 80 14 81 18 82 15 83 17 84 16 85 19 86
REMARK SMILES IDX 20 87 21 88 22 89 29 90 23 91 28 92 24 93 27 94 25 95 26 96
REMARK H PARENT 3 7 86 25 54 36 10 78
REMARK Flexibility Score: inf
ROOT
ATOM      1  C   UNL A   1      37.166  20.396  24.935  1.00  0.00     0.002 C 
ENDROOT
BRANCH   1   2
ATOM      2  C   UNL A   1      38.405  19.504  24.899  1.00  0.00     0.021 C 
BRANCH   2   3
ATOM      3  C   UNL A   1      39.403  19.773  26.016  1.00  0.00     0.116 C 
BRANCH   3   4
ATOM      4  N   UNL A   1      40.552  18.885  25.956  1.00  0.00    -0.352 N 
ATOM      5  O   UNL A   1      42.742  18.357  25.779  1.00  0.00    -0.269 OA
ATOM      6  C   UNL A   1      41.886  19.201  26.023  1.00  0.00     0.251 C 
ATOM      7  H   UNL A   1      40.346  17.927  25.855  1.00  0.00     0.163 HD
BRANCH   6   8
ATOM      8  C   UNL A   1      42.285  20.580  26.375  1.00  0.00     0.039 A 
ATOM      9  C   UNL A   1      42.329  20.981  27.713  1.00  0.00     0.014 A 
ATOM     10  C   UNL A   1      42.616  21.477  25.358  1.00  0.00     0.014 A 
ATOM     11  C   UNL A   1      42.575  22.311  28.026  1.00  0.00     0.010 A 
ATOM     12  C   UNL A   1      42.955  22.793  25.681  1.00  0.00     0.010 A 
ATOM     13  C   UNL A   1      42.920  23.224  27.017  1.00  0.00    -0.014 A 
BRANCH  13  14
ATOM     14  C   UNL A   1      43.331  24.599  27.393  1.00  0.00     0.031 A 
ATOM     15  C   UNL A   1      44.774  25.005  27.415  1.00  0.00     0.074 A 
ATOM     16  C   UNL A   1      42.368  25.485  27.713  1.00  0.00     0.049 A 
ATOM     17  N   UNL A   1      45.300  26.159  27.742  1.00  0.00    -0.248 NA
ATOM     18  C   UNL A   1      45.760  23.985  27.030  1.00  0.00     0.031 C 
ATOM     19  C   UNL A   1      40.932  25.195  27.734  1.00  0.00     0.029 A 
ATOM     20  N   UNL A   1      42.444  26.806  28.076  1.00  0.00    -0.354 N 
ATOM     21  C   UNL A   1      46.674  26.001  27.618  1.00  0.00     0.074 A 
ATOM     22  C   UNL A   1      46.905  24.631  27.212  1.00  0.00     0.031 C 
ATOM     23  C   UNL A   1      40.262  26.310  28.054  1.00  0.00     0.029 A 
ATOM     24  C   UNL A   1      41.220  27.371  28.332  1.00  0.00     0.049 A 
ATOM     25  H   UNL A   1      43.293  27.299  28.144  1.00  0.00     0.167 HD
ATOM     26  C   UNL A   1      47.648  26.922  27.820  1.00  0.00     0.037 A 
ATOM     27  C   UNL A   1      40.903  28.603  28.774  1.00  0.00     0.037 A 
ATOM     28  C   UNL A   1      47.403  28.287  28.218  1.00  0.00     0.049 A 
ATOM     29  C   UNL A   1      42.008  29.586  29.033  1.00  0.00     0.074 A 
ATOM     30  C   UNL A   1      48.318  29.308  28.408  1.00  0.00     0.029 A 
ATOM     31  N   UNL A   1      46.151  28.817  28.499  1.00  0.00    -0.354 N 
ATOM     32  N   UNL A   1      43.300  29.438  28.870  1.00  0.00    -0.248 NA
ATOM     33  C   UNL A   1      41.610  30.904  29.542  1.00  0.00     0.031 C 
ATOM     34  C   UNL A   1      47.627  30.437  28.861  1.00  0.00     0.029 A 
ATOM     35  C   UNL A   1      46.274  30.140  28.894  1.00  0.00     0.049 A 
ATOM     36  H   UNL A   1      45.301  28.326  28.428  1.00  0.00     0.167 HD
ATOM     37  C   UNL A   1      43.869  30.649  29.235  1.00  0.00     0.074 A 
ATOM     38  C   UNL A   1      42.778  31.527  29.608  1.00  0.00     0.031 C 
ATOM     39  C   UNL A   1      45.178  31.001  29.262  1.00  0.00     0.037 A 
BRANCH  26  40
ATOM     40  C   UNL A   1      49.075  26.488  27.640  1.00  0.00     0.064 A 
ATOM     41  C   UNL A   1      49.660  26.376  26.369  1.00  0.00     0.173 A 
ATOM     42  C   UNL A   1      49.885  26.232  28.757  1.00  0.00     0.173 A 
ATOM     43  F   UNL A   1      48.930  26.601  25.267  1.00  0.00    -0.203 F 
ATOM     44  C   UNL A   1      50.995  26.003  26.225  1.00  0.00     0.198 A 
ATOM     45  C   UNL A   1      51.227  25.889  28.609  1.00  0.00     0.198 A 
ATOM     46  F   UNL A   1      49.380  26.331  29.996  1.00  0.00    -0.203 F 
ATOM     47  F   UNL A   1      51.521  25.862  24.999  1.00  0.00    -0.200 F 
ATOM     48  C   UNL A   1      51.779  25.768  27.344  1.00  0.00     0.200 A 
ATOM     49  F   UNL A   1      51.987  25.677  29.694  1.00  0.00    -0.200 F 
ATOM     50  F   UNL A   1      53.066  25.419  27.202  1.00  0.00    -0.200 F 
ENDBRANCH  26  40
BRANCH  27  51
ATOM     51  C   UNL A   1      39.480  28.956  29.012  1.00  0.00     0.064 A 
ATOM     52  C   UNL A   1      38.664  29.412  27.969  1.00  0.00     0.173 A 
ATOM     53  C   UNL A   1      38.905  28.837  30.287  1.00  0.00     0.173 A 
ATOM     54  F   UNL A   1      39.172  29.559  26.736  1.00  0.00    -0.203 F 
ATOM     55  C   UNL A   1      37.332  29.753  28.195  1.00  0.00     0.198 A 
ATOM     56  C   UNL A   1      37.564  29.145  30.504  1.00  0.00     0.198 A 
ATOM     57  F   UNL A   1      39.642  28.399  31.318  1.00  0.00    -0.203 F 
ATOM     58  F   UNL A   1      36.587  30.231  27.190  1.00  0.00    -0.200 F 
ATOM     59  C   UNL A   1      36.782  29.613  29.460  1.00  0.00     0.200 A 
ATOM     60  F   UNL A   1      37.033  28.988  31.724  1.00  0.00    -0.200 F 
ATOM     61  F   UNL A   1      35.499  29.934  29.675  1.00  0.00    -0.200 F 
ENDBRANCH  27  51
BRANCH  39  62
ATOM     62  C   UNL A   1      45.499  32.406  29.681  1.00  0.00     0.064 A 
ATOM     63  C   UNL A   1      45.522  33.463  28.760  1.00  0.00     0.173 A 
ATOM     64  C   UNL A   1      45.758  32.703  31.028  1.00  0.00     0.173 A 
ATOM     65  F   UNL A   1      45.301  33.229  27.457  1.00  0.00    -0.203 F 
ATOM     66  C   UNL A   1      45.815  34.762  29.168  1.00  0.00     0.198 A 
ATOM     67  C   UNL A   1      46.017  34.008  31.437  1.00  0.00     0.198 A 
ATOM     68  F   UNL A   1      45.745  31.730  31.951  1.00  0.00    -0.203 F 
ATOM     69  F   UNL A   1      45.882  35.748  28.262  1.00  0.00    -0.200 F 
ATOM     70  C   UNL A   1      46.054  35.034  30.507  1.00  0.00     0.200 A 
ATOM     71  F   UNL A   1      46.233  34.272  32.734  1.00  0.00    -0.200 F 
ATOM     72  F   UNL A   1      46.326  36.287  30.899  1.00  0.00    -0.200 F 
ENDBRANCH  39  62
ENDBRANCH  13  14
ENDBRANCH   6   8
ENDBRANCH   3   4
ENDBRANCH   2   3
ENDBRANCH   1   2
BRANCH   1  73
ATOM     73  C   UNL A   1      37.397  21.841  24.479  1.00  0.00     0.002 C 
BRANCH  73  74
ATOM     74  C   UNL A   1      37.688  22.850  25.600  1.00  0.00     0.021 C 
BRANCH  74  75
ATOM     75  C   UNL A   1      36.467  23.629  26.088  1.00  0.00     0.116 C 
BRANCH  75  76
ATOM     76  N   UNL A   1      35.604  22.781  26.884  1.00  0.00    -0.354 N 
ATOM     77  C   UNL A   1      34.248  22.715  26.951  1.00  0.00     0.242 C 
ATOM     78  H   UNL A   1      36.077  22.149  27.473  1.00  0.00     0.163 HD
ATOM     79  O   UNL A   1      33.775  22.077  27.895  1.00  0.00    -0.273 OA
BRANCH  77  80
ATOM     80  C   UNL A   1      33.363  23.440  25.911  1.00  0.00     0.174 C 
ATOM     81  C   UNL A   1      33.931  23.238  24.498  1.00  0.00     0.035 C 
ATOM     82  N   UNL A   1      31.962  22.997  25.984  1.00  0.00    -0.325 N 
ATOM     83  C   UNL A   1      33.676  21.840  23.938  1.00  0.00     0.004 C 
ATOM     84  C   UNL A   1      31.682  21.646  25.486  1.00  0.00     0.121 C 
ATOM     85  C   UNL A   1      32.210  21.451  24.068  1.00  0.00     0.022 C 
BRANCH  82  86
ATOM     86  C   UNL A   1      31.008  23.884  26.495  1.00  0.00     0.274 C 
ATOM     87  O   UNL A   1      30.160  23.525  27.312  1.00  0.00    -0.267 OA
BRANCH  86  88
ATOM     88  C   UNL A   1      31.045  25.273  26.032  1.00  0.00     0.147 A 
ATOM     89  C   UNL A   1      30.563  25.757  24.828  1.00  0.00     0.127 A 
ATOM     90  N   UNL A   1      31.550  26.313  26.797  1.00  0.00    -0.223 NA
ATOM     91  N   UNL A   1      30.805  27.107  24.845  1.00  0.00    -0.306 N 
ATOM     92  C   UNL A   1      31.399  27.398  26.068  1.00  0.00     0.137 A 
ATOM     93  C   UNL A   1      30.545  28.064  23.867  1.00  0.00     0.093 A 
ATOM     94  C   UNL A   1      31.734  28.760  26.318  1.00  0.00     0.048 A 
ATOM     95  C   UNL A   1      30.873  29.347  24.103  1.00  0.00     0.018 A 
ATOM     96  C   UNL A   1      31.485  29.693  25.379  1.00  0.00     0.005 A 
ENDBRANCH  86  88
ENDBRANCH  82  86
ENDBRANCH  77  80
ENDBRANCH  75  76
ENDBRANCH  74  75
ENDBRANCH  73  74
ENDBRANCH   1  73
TORSDOF 15
ENDMDL
MODEL 3
REMARK VINA RESULT:     -12.3      5.506     10.936
REMARK SMILES O=C(NCCCCCCNC(=O)[C@H]1CCCCN1C(=O)c1cn2ccccc2n1)c1ccc(-c2c3nc(c(-c4c(F)c(F)c(F)c(F)c4F)c4ccc([nH]4)c(-c4c(F)c(F)c(F)c(F)c4F)c4nc(c(-c5c(F)c(F)c(F)c(F)c5F)c5ccc2[nH]5)C=C4)C=C3)cc1
REMARK SMILES IDX 6 1 5 2 4 3 3 4 1 5 2 6 30 8 31 9 92 10 32 11 91 12 33 13
REMARK SMILES IDX 34 14 35 15 85 16 36 17 90 18 84 19 86 20 37 21 89 22 83 23
REMARK SMILES IDX 82 24 38 26 70 27 50 28 69 29 51 30 54 31 68 32 87 33 52 34
REMARK SMILES IDX 53 35 67 37 88 38 55 39 39 40 40 41 48 42 41 43 42 44 46 45
REMARK SMILES IDX 49 46 43 47 44 48 47 49 45 50 71 51 72 52 80 53 73 54 74 55
REMARK SMILES IDX 78 56 81 57 75 58 76 59 79 60 77 61 56 62 57 63 65 64 58 65
REMARK SMILES IDX 59 66 63 67 66 68 60 69 61 70 64 71 62 72 7 73 8 74 9 75
REMARK SMILES IDX 10 76 11 77 12 79 13 80 14 81 18 82 15 83 17 84 16 85 19 86
REMARK SMILES IDX 20 87 21 88 22 89 29 90 23 91 28 92 24 93 27 94 25 95 26 96
REMARK H PARENT 3 7 86 25 54 36 10 78
REMARK Flexibility Score: inf
ROOT
ATOM      1  C   UNL A   1      37.507  20.671  24.854  1.00  0.00     0.002 C 
ENDROOT
BRANCH   1   2
ATOM      2  C   UNL A   1      38.528  19.545  25.004  1.00  0.00     0.021 C 
BRANCH   2   3
ATOM      3  C   UNL A   1      39.506  19.736  26.154  1.00  0.00     0.116 C 
BRANCH   3   4
ATOM      4  N   UNL A   1      40.658  18.855  26.052  1.00  0.00    -0.352 N 
ATOM      5  O   UNL A   1      42.837  18.337  25.752  1.00  0.00    -0.269 OA
ATOM      6  C   UNL A   1      41.990  19.183  26.021  1.00  0.00     0.251 C 
ATOM      7  H   UNL A   1      40.455  17.893  25.998  1.00  0.00     0.163 HD
BRANCH   6   8
ATOM      8  C   UNL A   1      42.397  20.577  26.296  1.00  0.00     0.039 A 
ATOM      9  C   UNL A   1      42.610  21.471  25.244  1.00  0.00     0.014 A 
ATOM     10  C   UNL A   1      42.567  20.991  27.619  1.00  0.00     0.014 A 
ATOM     11  C   UNL A   1      43.119  22.735  25.506  1.00  0.00     0.010 A 
ATOM     12  C   UNL A   1      42.990  22.295  27.886  1.00  0.00     0.010 A 
ATOM     13  C   UNL A   1      43.286  23.171  26.830  1.00  0.00    -0.014 A 
BRANCH  13  14
ATOM     14  C   UNL A   1      43.681  24.578  27.086  1.00  0.00     0.031 A 
ATOM     15  C   UNL A   1      42.699  25.584  27.606  1.00  0.00     0.074 A 
ATOM     16  C   UNL A   1      44.957  24.935  26.840  1.00  0.00     0.049 A 
ATOM     17  N   UNL A   1      42.879  26.857  27.860  1.00  0.00    -0.248 NA
ATOM     18  C   UNL A   1      41.333  25.108  27.869  1.00  0.00     0.031 C 
ATOM     19  C   UNL A   1      45.996  24.040  26.323  1.00  0.00     0.029 A 
ATOM     20  N   UNL A   1      45.603  26.134  26.996  1.00  0.00    -0.354 N 
ATOM     21  C   UNL A   1      41.651  27.336  28.296  1.00  0.00     0.074 A 
ATOM     22  C   UNL A   1      40.724  26.225  28.247  1.00  0.00     0.031 C 
ATOM     23  C   UNL A   1      47.153  24.709  26.239  1.00  0.00     0.029 A 
ATOM     24  C   UNL A   1      46.923  26.095  26.625  1.00  0.00     0.049 A 
ATOM     25  H   UNL A   1      45.162  26.945  27.342  1.00  0.00     0.167 HD
ATOM     26  C   UNL A   1      41.335  28.589  28.705  1.00  0.00     0.037 A 
ATOM     27  C   UNL A   1      47.844  27.075  26.570  1.00  0.00     0.037 A 
ATOM     28  C   UNL A   1      42.271  29.685  28.756  1.00  0.00     0.049 A 
ATOM     29  C   UNL A   1      47.450  28.463  26.985  1.00  0.00     0.074 A 
ATOM     30  C   UNL A   1      42.059  30.981  29.194  1.00  0.00     0.029 A 
ATOM     31  N   UNL A   1      43.594  29.616  28.342  1.00  0.00    -0.354 N 
ATOM     32  N   UNL A   1      46.299  28.894  27.438  1.00  0.00    -0.248 NA
ATOM     33  C   UNL A   1      48.483  29.501  26.878  1.00  0.00     0.031 C 
ATOM     34  C   UNL A   1      43.235  31.711  28.990  1.00  0.00     0.029 A 
ATOM     35  C   UNL A   1      44.200  30.855  28.483  1.00  0.00     0.049 A 
ATOM     36  H   UNL A   1      44.037  28.807  27.999  1.00  0.00     0.167 HD
ATOM     37  C   UNL A   1      46.472  30.248  27.689  1.00  0.00     0.074 A 
ATOM     38  C   UNL A   1      47.847  30.560  27.359  1.00  0.00     0.031 C 
ATOM     39  C   UNL A   1      45.571  31.150  28.149  1.00  0.00     0.037 A 
BRANCH  26  40
ATOM     40  C   UNL A   1      39.913  28.859  29.110  1.00  0.00     0.064 A 
ATOM     41  C   UNL A   1      38.932  29.222  28.175  1.00  0.00     0.173 A 
ATOM     42  C   UNL A   1      39.514  28.696  30.447  1.00  0.00     0.173 A 
ATOM     43  F   UNL A   1      39.260  29.399  26.887  1.00  0.00    -0.203 F 
ATOM     44  C   UNL A   1      37.612  29.437  28.567  1.00  0.00     0.198 A 
ATOM     45  C   UNL A   1      38.187  28.882  30.828  1.00  0.00     0.198 A 
ATOM     46  F   UNL A   1      40.408  28.342  31.382  1.00  0.00    -0.203 F 
ATOM     47  F   UNL A   1      36.701  29.825  27.663  1.00  0.00    -0.200 F 
ATOM     48  C   UNL A   1      37.240  29.258  29.890  1.00  0.00     0.200 A 
ATOM     49  F   UNL A   1      37.827  28.694  32.106  1.00  0.00    -0.200 F 
ATOM     50  F   UNL A   1      35.966  29.454  30.263  1.00  0.00    -0.200 F 
ENDBRANCH  26  40
BRANCH  27  51
ATOM     51  C   UNL A   1      49.216  26.771  26.086  1.00  0.00     0.064 A 
ATOM     52  C   UNL A   1      49.572  26.978  24.748  1.00  0.00     0.173 A 
ATOM     53  C   UNL A   1      50.201  26.277  26.956  1.00  0.00     0.173 A 
ATOM     54  F   UNL A   1      48.661  27.433  23.875  1.00  0.00    -0.203 F 
ATOM     55  C   UNL A   1      50.855  26.683  24.292  1.00  0.00     0.198 A 
ATOM     56  C   UNL A   1      51.493  26.015  26.506  1.00  0.00     0.198 A 
ATOM     57  F   UNL A   1      49.912  26.068  28.249  1.00  0.00    -0.203 F 
ATOM     58  F   UNL A   1      51.156  26.845  22.996  1.00  0.00    -0.200 F 
ATOM     59  C   UNL A   1      51.815  26.209  25.172  1.00  0.00     0.200 A 
ATOM     60  F   UNL A   1      52.422  25.577  27.366  1.00  0.00    -0.200 F 
ATOM     61  F   UNL A   1      53.051  25.933  24.735  1.00  0.00    -0.200 F 
ENDBRANCH  27  51
BRANCH  39  62
ATOM     62  C   UNL A   1      46.056  32.556  28.352  1.00  0.00     0.064 A 
ATOM     63  C   UNL A   1      46.641  32.968  29.559  1.00  0.00     0.173 A 
ATOM     64  C   UNL A   1      45.962  33.495  27.314  1.00  0.00     0.173 A 
ATOM     65  F   UNL A   1      46.736  32.113  30.589  1.00  0.00    -0.203 F 
ATOM     66  C   UNL A   1      47.091  34.275  29.727  1.00  0.00     0.198 A 
ATOM     67  C   UNL A   1      46.444  34.791  27.473  1.00  0.00     0.198 A 
ATOM     68  F   UNL A   1      45.414  33.152  26.138  1.00  0.00    -0.203 F 
ATOM     69  F   UNL A   1      47.599  34.660  30.905  1.00  0.00    -0.200 F 
ATOM     70  C   UNL A   1      47.000  35.182  28.681  1.00  0.00     0.200 A 
ATOM     71  F   UNL A   1      46.369  35.662  26.458  1.00  0.00    -0.200 F 
ATOM     72  F   UNL A   1      47.443  36.437  28.842  1.00  0.00    -0.200 F 
ENDBRANCH  39  62
ENDBRANCH  13  14
ENDBRANCH   6   8
ENDBRANCH   3   4
ENDBRANCH   2   3
ENDBRANCH   1   2
BRANCH   1  73
ATOM     73  C   UNL A   1      37.906  21.996  25.512  1.00  0.00     0.002 C 
BRANCH  73  74
ATOM     74  C   UNL A   1      37.296  23.257  24.881  1.00  0.00     0.021 C 
BRANCH  74  75
ATOM     75  C   UNL A   1      36.361  24.041  25.803  1.00  0.00     0.116 C 
BRANCH  75  76
ATOM     76  N   UNL A   1      35.641  23.143  26.682  1.00  0.00    -0.354 N 
ATOM     77  C   UNL A   1      34.307  22.914  26.811  1.00  0.00     0.242 C 
ATOM     78  H   UNL A   1      36.210  22.612  27.285  1.00  0.00     0.163 HD
ATOM     79  O   UNL A   1      33.952  22.281  27.809  1.00  0.00    -0.273 OA
BRANCH  77  80
ATOM     80  C   UNL A   1      33.302  23.457  25.770  1.00  0.00     0.174 C 
ATOM     81  C   UNL A   1      33.777  23.123  24.348  1.00  0.00     0.035 C 
ATOM     82  N   UNL A   1      31.942  22.944  26.005  1.00  0.00    -0.325 N 
ATOM     83  C   UNL A   1      33.577  21.656  23.972  1.00  0.00     0.004 C 
ATOM     84  C   UNL A   1      31.720  21.530  25.687  1.00  0.00     0.121 C 
ATOM     85  C   UNL A   1      32.154  21.201  24.263  1.00  0.00     0.022 C 
BRANCH  82  86
ATOM     86  C   UNL A   1      30.971  23.829  26.488  1.00  0.00     0.274 C 
ATOM     87  O   UNL A   1      30.078  23.458  27.250  1.00  0.00    -0.267 OA
BRANCH  86  88
ATOM     88  C   UNL A   1      31.044  25.228  26.060  1.00  0.00     0.147 A 
ATOM     89  C   UNL A   1      30.609  25.749  24.855  1.00  0.00     0.127 A 
ATOM     90  N   UNL A   1      31.540  26.240  26.867  1.00  0.00    -0.223 NA
ATOM     91  N   UNL A   1      30.870  27.094  24.913  1.00  0.00    -0.306 N 
ATOM     92  C   UNL A   1      31.429  27.345  26.162  1.00  0.00     0.137 A 
ATOM     93  C   UNL A   1      30.656  28.079  23.952  1.00  0.00     0.093 A 
ATOM     94  C   UNL A   1      31.776  28.695  26.457  1.00  0.00     0.048 A 
ATOM     95  C   UNL A   1      30.996  29.350  24.230  1.00  0.00     0.018 A 
ATOM     96  C   UNL A   1      31.572  29.655  25.533  1.00  0.00     0.005 A 
ENDBRANCH  86  88
ENDBRANCH  82  86
ENDBRANCH  77  80
ENDBRANCH  75  76
ENDBRANCH  74  75
ENDBRANCH  73  74
ENDBRANCH   1  73
TORSDOF 15
ENDMDL
