MODEL 1
REMARK VINA RESULT:      -8.6      0.000      0.000
REMARK SMILES CCC[C@H](C)N(C)S(=O)(=O)c1ccc(CC(=O)NCCCCCCNC(=O)c2ccc(-c3c4nc(c(-c5c(F)c(F)c(F)c(F)c5F)c5ccc([nH]5)c(-c5c(F)c(F)c(F)c(F)c5F)c5nc(c(-c6c(F)c(F)c(F)c(F)c6F)c6ccc3[nH]6)C=C5)C=C4)cc2)s1
REMARK SMILES IDX 19 1 18 2 16 3 17 4 15 6 14 7 11 8 12 9 91 10 13 11 8 12
REMARK SMILES IDX 9 13 10 14 6 15 7 16 4 17 5 18 3 19 2 20 1 21 20 22 21 23
REMARK SMILES IDX 22 24 23 25 24 26 25 27 26 28 27 30 28 31 29 32 90 33 30 34
REMARK SMILES IDX 89 35 31 36 32 37 33 38 83 39 34 40 88 41 82 42 84 43 35 44
REMARK SMILES IDX 87 45 81 46 80 47 36 49 68 50 48 51 67 52 49 53 52 54 66 55
REMARK SMILES IDX 85 56 50 57 51 58 65 60 86 61 53 62 37 63 38 64 46 65 39 66
REMARK SMILES IDX 40 67 44 68 47 69 41 70 42 71 45 72 43 73 69 74 70 75 78 76
REMARK SMILES IDX 71 77 72 78 76 79 79 80 73 81 74 82 77 83 75 84 54 85 55 86
REMARK SMILES IDX 63 87 56 88 57 89 61 90 64 91 58 92 59 93 62 94 60 95
REMARK H PARENT 18 5 25 29 84 48 52 59
REMARK Flexibility Score: inf
ROOT
ATOM      1  C   UNL A   1      38.706  33.720  32.297  1.00  0.00     0.116 C 
ENDROOT
BRANCH   1   2
ATOM      2  N   UNL A   1      37.768  33.262  33.304  1.00  0.00    -0.356 N 
ATOM      3  C   UNL A   1      38.006  32.853  34.584  1.00  0.00     0.225 C 
ATOM      4  O   UNL A   1      37.058  32.411  35.238  1.00  0.00    -0.275 OA
ATOM      5  H   UNL A   1      36.825  33.245  33.023  1.00  0.00     0.163 HD
BRANCH   3   6
ATOM      6  C   UNL A   1      39.388  33.006  35.197  1.00  0.00     0.146 C 
BRANCH   6   7
ATOM      7  C   UNL A   1      40.150  31.713  35.221  1.00  0.00     0.015 A 
ATOM      8  C   UNL A   1      41.044  29.460  34.710  1.00  0.00     0.135 A 
ATOM      9  C   UNL A   1      41.579  29.994  35.869  1.00  0.00     0.034 A 
ATOM     10  S   UNL A   1      39.903  30.522  34.017  1.00  0.00    -0.127 S 
ATOM     11  C   UNL A   1      41.048  31.278  36.176  1.00  0.00     0.017 A 
BRANCH   8  12
ATOM     12  S   UNL A   1      41.297  27.862  33.951  1.00  0.00     0.252 S 
ATOM     13  O   UNL A   1      42.486  28.021  33.140  1.00  0.00    -0.206 OA
ATOM     14  O   UNL A   1      40.013  27.598  33.333  1.00  0.00    -0.206 OA
BRANCH  12  15
ATOM     15  N   UNL A   1      41.588  26.637  35.118  1.00  0.00    -0.197 NA
ATOM     16  C   UNL A   1      41.342  27.026  36.531  1.00  0.00     0.124 C 
BRANCH  15  17
ATOM     17  C   UNL A   1      42.861  25.833  34.964  1.00  0.00     0.070 C 
ATOM     18  C   UNL A   1      43.944  26.404  35.879  1.00  0.00     0.026 C 
BRANCH  17  19
ATOM     19  C   UNL A   1      42.602  24.323  35.133  1.00  0.00     0.020 C 
BRANCH  19  20
ATOM     20  C   UNL A   1      43.848  23.447  35.303  1.00  0.00    -0.002 C 
ATOM     21  C   UNL A   1      44.180  22.580  34.100  1.00  0.00     0.004 C 
ENDBRANCH  19  20
ENDBRANCH  17  19
ENDBRANCH  15  17
ENDBRANCH  12  15
ENDBRANCH   8  12
ENDBRANCH   6   7
ENDBRANCH   3   6
ENDBRANCH   1   2
BRANCH   1  22
ATOM     22  C   UNL A   1      37.978  34.232  31.052  1.00  0.00     0.021 C 
BRANCH  22  23
ATOM     23  C   UNL A   1      37.218  33.148  30.275  1.00  0.00     0.002 C 
BRANCH  23  24
ATOM     24  C   UNL A   1      36.964  33.453  28.794  1.00  0.00     0.002 C 
BRANCH  24  25
ATOM     25  C   UNL A   1      35.526  33.235  28.309  1.00  0.00     0.021 C 
BRANCH  25  26
ATOM     26  C   UNL A   1      34.664  32.342  29.202  1.00  0.00     0.116 C 
BRANCH  26  27
ATOM     27  N   UNL A   1      34.074  31.232  28.475  1.00  0.00    -0.352 N 
ATOM     28  C   UNL A   1      34.665  30.111  27.949  1.00  0.00     0.251 C 
ATOM     29  H   UNL A   1      33.100  31.294  28.337  1.00  0.00     0.163 HD
ATOM     30  O   UNL A   1      34.012  29.354  27.236  1.00  0.00    -0.269 OA
BRANCH  28  31
ATOM     31  C   UNL A   1      36.091  29.811  28.212  1.00  0.00     0.039 A 
ATOM     32  C   UNL A   1      36.448  29.338  29.480  1.00  0.00     0.014 A 
ATOM     33  C   UNL A   1      37.079  30.038  27.249  1.00  0.00     0.014 A 
ATOM     34  C   UNL A   1      37.783  29.042  29.765  1.00  0.00     0.010 A 
ATOM     35  C   UNL A   1      38.408  29.704  27.521  1.00  0.00     0.010 A 
ATOM     36  C   UNL A   1      38.770  29.204  28.780  1.00  0.00    -0.014 A 
BRANCH  36  37
ATOM     37  C   UNL A   1      40.181  28.842  29.060  1.00  0.00     0.031 A 
ATOM     38  C   UNL A   1      41.083  29.791  29.794  1.00  0.00     0.074 A 
ATOM     39  C   UNL A   1      40.664  27.669  28.608  1.00  0.00     0.049 A 
ATOM     40  N   UNL A   1      42.346  29.652  30.110  1.00  0.00    -0.248 NA
ATOM     41  C   UNL A   1      40.495  31.072  30.209  1.00  0.00     0.031 C 
ATOM     42  C   UNL A   1      39.904  26.685  27.838  1.00  0.00     0.029 A 
ATOM     43  N   UNL A   1      41.911  27.112  28.725  1.00  0.00    -0.354 N 
ATOM     44  C   UNL A   1      42.709  30.831  30.744  1.00  0.00     0.074 A 
ATOM     45  C   UNL A   1      41.540  31.687  30.744  1.00  0.00     0.031 C 
ATOM     46  C   UNL A   1      40.698  25.637  27.564  1.00  0.00     0.029 A 
ATOM     47  C   UNL A   1      42.023  25.883  28.126  1.00  0.00     0.049 A 
ATOM     48  H   UNL A   1      42.657  27.553  29.195  1.00  0.00     0.167 HD
ATOM     49  C   UNL A   1      43.903  31.165  31.289  1.00  0.00     0.037 A 
ATOM     50  C   UNL A   1      43.073  25.045  28.044  1.00  0.00     0.037 A 
ATOM     51  C   UNL A   1      45.057  30.307  31.319  1.00  0.00     0.049 A 
ATOM     52  C   UNL A   1      44.371  25.416  28.702  1.00  0.00     0.074 A 
ATOM     53  C   UNL A   1      46.291  30.535  31.905  1.00  0.00     0.029 A 
ATOM     54  N   UNL A   1      45.117  29.048  30.740  1.00  0.00    -0.354 N 
ATOM     55  N   UNL A   1      44.683  26.509  29.354  1.00  0.00    -0.248 NA
ATOM     56  C   UNL A   1      45.460  24.431  28.621  1.00  0.00     0.031 C 
ATOM     57  C   UNL A   1      47.105  29.422  31.662  1.00  0.00     0.029 A 
ATOM     58  C   UNL A   1      46.369  28.492  30.946  1.00  0.00     0.049 A 
ATOM     59  H   UNL A   1      44.379  28.615  30.253  1.00  0.00     0.167 HD
ATOM     60  C   UNL A   1      45.993  26.338  29.776  1.00  0.00     0.074 A 
ATOM     61  C   UNL A   1      46.417  25.032  29.315  1.00  0.00     0.031 C 
ATOM     62  C   UNL A   1      46.774  27.190  30.484  1.00  0.00     0.037 A 
BRANCH  49  63
ATOM     63  C   UNL A   1      44.021  32.527  31.901  1.00  0.00     0.064 A 
ATOM     64  C   UNL A   1      43.816  32.730  33.274  1.00  0.00     0.173 A 
ATOM     65  C   UNL A   1      44.365  33.634  31.114  1.00  0.00     0.173 A 
ATOM     66  F   UNL A   1      43.472  31.702  34.063  1.00  0.00    -0.203 F 
ATOM     67  C   UNL A   1      43.932  34.000  33.833  1.00  0.00     0.198 A 
ATOM     68  C   UNL A   1      44.500  34.900  31.680  1.00  0.00     0.198 A 
ATOM     69  F   UNL A   1      44.573  33.490  29.797  1.00  0.00    -0.203 F 
ATOM     70  F   UNL A   1      43.697  34.178  35.140  1.00  0.00    -0.200 F 
ATOM     71  C   UNL A   1      44.278  35.081  33.037  1.00  0.00     0.200 A 
ATOM     72  F   UNL A   1      44.839  35.944  30.912  1.00  0.00    -0.200 F 
ATOM     73  F   UNL A   1      44.389  36.303  33.578  1.00  0.00    -0.200 F 
ENDBRANCH  49  63
BRANCH  50  74
ATOM     74  C   UNL A   1      42.918  23.749  27.345  1.00  0.00     0.064 A 
ATOM     75  C   UNL A   1      42.355  22.647  28.001  1.00  0.00     0.173 A 
ATOM     76  C   UNL A   1      43.302  23.593  26.006  1.00  0.00     0.173 A 
ATOM     77  F   UNL A   1      41.990  22.748  29.287  1.00  0.00    -0.203 F 
ATOM     78  C   UNL A   1      42.186  21.431  27.343  1.00  0.00     0.198 A 
ATOM     79  C   UNL A   1      43.119  22.382  25.345  1.00  0.00     0.198 A 
ATOM     80  F   UNL A   1      43.842  24.625  25.339  1.00  0.00    -0.203 F 
ATOM     81  F   UNL A   1      41.666  20.384  27.997  1.00  0.00    -0.200 F 
ATOM     82  C   UNL A   1      42.564  21.301  26.014  1.00  0.00     0.200 A 
ATOM     83  F   UNL A   1      43.476  22.262  24.059  1.00  0.00    -0.200 F 
ATOM     84  F   UNL A   1      42.395  20.133  25.380  1.00  0.00    -0.200 F 
ENDBRANCH  50  74
BRANCH  62  85
ATOM     85  C   UNL A   1      48.159  26.729  30.817  1.00  0.00     0.064 A 
ATOM     86  C   UNL A   1      48.416  25.964  31.963  1.00  0.00     0.173 A 
ATOM     87  C   UNL A   1      49.232  27.030  29.967  1.00  0.00     0.173 A 
ATOM     88  F   UNL A   1      47.421  25.667  32.812  1.00  0.00    -0.203 F 
ATOM     89  C   UNL A   1      49.705  25.527  32.254  1.00  0.00     0.198 A 
ATOM     90  C   UNL A   1      50.517  26.578  30.253  1.00  0.00     0.198 A 
ATOM     91  F   UNL A   1      49.034  27.759  28.859  1.00  0.00    -0.203 F 
ATOM     92  F   UNL A   1      49.935  24.823  33.371  1.00  0.00    -0.200 F 
ATOM     93  C   UNL A   1      50.753  25.829  31.398  1.00  0.00     0.200 A 
ATOM     94  F   UNL A   1      51.529  26.868  29.424  1.00  0.00    -0.200 F 
ATOM     95  F   UNL A   1      51.993  25.408  31.680  1.00  0.00    -0.200 F 
ENDBRANCH  62  85
ENDBRANCH  36  37
ENDBRANCH  28  31
ENDBRANCH  26  27
ENDBRANCH  25  26
ENDBRANCH  24  25
ENDBRANCH  23  24
ENDBRANCH  22  23
ENDBRANCH   1  22
TORSDOF 19
ENDMDL
MODEL 2
REMARK VINA RESULT:      -8.1      5.036     11.167
REMARK SMILES CCC[C@H](C)N(C)S(=O)(=O)c1ccc(CC(=O)NCCCCCCNC(=O)c2ccc(-c3c4nc(c(-c5c(F)c(F)c(F)c(F)c5F)c5ccc([nH]5)c(-c5c(F)c(F)c(F)c(F)c5F)c5nc(c(-c6c(F)c(F)c(F)c(F)c6F)c6ccc3[nH]6)C=C5)C=C4)cc2)s1
REMARK SMILES IDX 19 1 18 2 16 3 17 4 15 6 14 7 11 8 12 9 91 10 13 11 8 12
REMARK SMILES IDX 9 13 10 14 6 15 7 16 4 17 5 18 3 19 2 20 1 21 20 22 21 23
REMARK SMILES IDX 22 24 23 25 24 26 25 27 26 28 27 30 28 31 29 32 90 33 30 34
REMARK SMILES IDX 89 35 31 36 32 37 33 38 83 39 34 40 88 41 82 42 84 43 35 44
REMARK SMILES IDX 87 45 81 46 80 47 36 49 68 50 48 51 67 52 49 53 52 54 66 55
REMARK SMILES IDX 85 56 50 57 51 58 65 60 86 61 53 62 37 63 38 64 46 65 39 66
REMARK SMILES IDX 40 67 44 68 47 69 41 70 42 71 45 72 43 73 69 74 70 75 78 76
REMARK SMILES IDX 71 77 72 78 76 79 79 80 73 81 74 82 77 83 75 84 54 85 55 86
REMARK SMILES IDX 63 87 56 88 57 89 61 90 64 91 58 92 59 93 62 94 60 95
REMARK H PARENT 18 5 25 29 84 48 52 59
REMARK Flexibility Score: inf
ROOT
ATOM      1  C   UNL A   1      40.316  21.439  26.790  1.00  0.00     0.116 C 
ENDROOT
BRANCH   1   2
ATOM      2  N   UNL A   1      39.297  22.468  26.860  1.00  0.00    -0.356 N 
ATOM      3  C   UNL A   1      38.227  22.683  26.039  1.00  0.00     0.225 C 
ATOM      4  O   UNL A   1      37.538  23.686  26.234  1.00  0.00    -0.275 OA
ATOM      5  H   UNL A   1      39.389  23.102  27.607  1.00  0.00     0.163 HD
BRANCH   3   6
ATOM      6  C   UNL A   1      37.868  21.672  24.964  1.00  0.00     0.146 C 
BRANCH   6   7
ATOM      7  C   UNL A   1      36.405  21.691  24.625  1.00  0.00     0.015 A 
ATOM      8  C   UNL A   1      34.175  22.263  23.711  1.00  0.00     0.135 A 
ATOM      9  C   UNL A   1      34.138  21.173  24.562  1.00  0.00     0.034 A 
ATOM     10  S   UNL A   1      35.756  22.891  23.591  1.00  0.00    -0.127 S 
ATOM     11  C   UNL A   1      35.414  20.858  25.106  1.00  0.00     0.017 A 
BRANCH   8  12
ATOM     12  S   UNL A   1      32.851  23.110  22.860  1.00  0.00     0.252 S 
ATOM     13  O   UNL A   1      31.925  22.063  22.480  1.00  0.00    -0.206 OA
ATOM     14  O   UNL A   1      33.559  23.870  21.850  1.00  0.00    -0.206 OA
BRANCH  12  15
ATOM     15  N   UNL A   1      32.036  24.219  23.886  1.00  0.00    -0.197 NA
ATOM     16  C   UNL A   1      31.510  25.440  23.222  1.00  0.00     0.124 C 
BRANCH  15  17
ATOM     17  C   UNL A   1      32.693  24.533  25.213  1.00  0.00     0.070 C 
ATOM     18  C   UNL A   1      33.190  25.978  25.212  1.00  0.00     0.026 C 
BRANCH  17  19
ATOM     19  C   UNL A   1      31.779  24.165  26.399  1.00  0.00     0.020 C 
BRANCH  19  20
ATOM     20  C   UNL A   1      32.108  22.849  27.111  1.00  0.00    -0.002 C 
ATOM     21  C   UNL A   1      33.498  22.790  27.720  1.00  0.00     0.004 C 
ENDBRANCH  19  20
ENDBRANCH  17  19
ENDBRANCH  15  17
ENDBRANCH  12  15
ENDBRANCH   8  12
ENDBRANCH   6   7
ENDBRANCH   3   6
ENDBRANCH   1   2
BRANCH   1  22
ATOM     22  C   UNL A   1      41.699  22.043  26.538  1.00  0.00     0.021 C 
BRANCH  22  23
ATOM     23  C   UNL A   1      41.719  23.577  26.498  1.00  0.00     0.002 C 
BRANCH  23  24
ATOM     24  C   UNL A   1      42.544  24.197  25.363  1.00  0.00     0.002 C 
BRANCH  24  25
ATOM     25  C   UNL A   1      43.715  23.349  24.855  1.00  0.00     0.021 C 
BRANCH  25  26
ATOM     26  C   UNL A   1      45.047  23.578  25.569  1.00  0.00     0.116 C 
BRANCH  26  27
ATOM     27  N   UNL A   1      45.864  24.584  24.914  1.00  0.00    -0.352 N 
ATOM     28  C   UNL A   1      45.974  25.928  25.167  1.00  0.00     0.251 C 
ATOM     29  H   UNL A   1      46.423  24.251  24.174  1.00  0.00     0.163 HD
ATOM     30  O   UNL A   1      46.615  26.642  24.400  1.00  0.00    -0.269 OA
BRANCH  28  31
ATOM     31  C   UNL A   1      45.311  26.536  26.343  1.00  0.00     0.039 A 
ATOM     32  C   UNL A   1      45.214  27.930  26.405  1.00  0.00     0.014 A 
ATOM     33  C   UNL A   1      44.834  25.756  27.401  1.00  0.00     0.014 A 
ATOM     34  C   UNL A   1      44.594  28.540  27.498  1.00  0.00     0.010 A 
ATOM     35  C   UNL A   1      44.177  26.363  28.474  1.00  0.00     0.010 A 
ATOM     36  C   UNL A   1      44.053  27.759  28.531  1.00  0.00    -0.014 A 
BRANCH  36  37
ATOM     37  C   UNL A   1      43.346  28.398  29.668  1.00  0.00     0.031 A 
ATOM     38  C   UNL A   1      43.982  28.460  31.026  1.00  0.00     0.074 A 
ATOM     39  C   UNL A   1      42.103  28.882  29.485  1.00  0.00     0.049 A 
ATOM     40  N   UNL A   1      43.506  28.961  32.139  1.00  0.00    -0.248 NA
ATOM     41  C   UNL A   1      45.318  27.863  31.156  1.00  0.00     0.031 C 
ATOM     42  C   UNL A   1      41.356  28.835  28.228  1.00  0.00     0.029 A 
ATOM     43  N   UNL A   1      41.248  29.502  30.360  1.00  0.00    -0.354 N 
ATOM     44  C   UNL A   1      44.475  28.726  33.103  1.00  0.00     0.074 A 
ATOM     45  C   UNL A   1      45.555  28.012  32.452  1.00  0.00     0.031 C 
ATOM     46  C   UNL A   1      40.159  29.416  28.409  1.00  0.00     0.029 A 
ATOM     47  C   UNL A   1      40.050  29.862  29.796  1.00  0.00     0.049 A 
ATOM     48  H   UNL A   1      41.472  29.673  31.304  1.00  0.00     0.167 HD
ATOM     49  C   UNL A   1      44.472  29.083  34.409  1.00  0.00     0.037 A 
ATOM     50  C   UNL A   1      38.986  30.486  30.334  1.00  0.00     0.037 A 
ATOM     51  C   UNL A   1      43.416  29.820  35.053  1.00  0.00     0.049 A 
ATOM     52  C   UNL A   1      39.028  30.919  31.771  1.00  0.00     0.074 A 
ATOM     53  C   UNL A   1      43.354  30.282  36.357  1.00  0.00     0.029 A 
ATOM     54  N   UNL A   1      42.237  30.206  34.436  1.00  0.00    -0.354 N 
ATOM     55  N   UNL A   1      39.977  30.746  32.657  1.00  0.00    -0.248 NA
ATOM     56  C   UNL A   1      37.854  31.645  32.279  1.00  0.00     0.031 C 
ATOM     57  C   UNL A   1      42.126  30.931  36.534  1.00  0.00     0.029 A 
ATOM     58  C   UNL A   1      41.435  30.893  35.334  1.00  0.00     0.049 A 
ATOM     59  H   UNL A   1      42.002  30.019  33.498  1.00  0.00     0.167 HD
ATOM     60  C   UNL A   1      39.527  31.354  33.819  1.00  0.00     0.074 A 
ATOM     61  C   UNL A   1      38.222  31.910  33.526  1.00  0.00     0.031 C 
ATOM     62  C   UNL A   1      40.141  31.442  35.024  1.00  0.00     0.037 A 
BRANCH  49  63
ATOM     63  C   UNL A   1      45.655  28.680  35.235  1.00  0.00     0.064 A 
ATOM     64  C   UNL A   1      46.782  29.507  35.347  1.00  0.00     0.173 A 
ATOM     65  C   UNL A   1      45.651  27.468  35.939  1.00  0.00     0.173 A 
ATOM     66  F   UNL A   1      46.835  30.669  34.680  1.00  0.00    -0.203 F 
ATOM     67  C   UNL A   1      47.875  29.123  36.120  1.00  0.00     0.198 A 
ATOM     68  C   UNL A   1      46.738  27.096  36.727  1.00  0.00     0.198 A 
ATOM     69  F   UNL A   1      44.595  26.645  35.864  1.00  0.00    -0.203 F 
ATOM     70  F   UNL A   1      48.957  29.911  36.184  1.00  0.00    -0.200 F 
ATOM     71  C   UNL A   1      47.850  27.922  36.812  1.00  0.00     0.200 A 
ATOM     72  F   UNL A   1      46.712  25.938  37.401  1.00  0.00    -0.200 F 
ATOM     73  F   UNL A   1      48.903  27.555  37.556  1.00  0.00    -0.200 F 
ENDBRANCH  49  63
BRANCH  50  74
ATOM     74  C   UNL A   1      37.807  30.776  29.486  1.00  0.00     0.064 A 
ATOM     75  C   UNL A   1      36.872  29.774  29.196  1.00  0.00     0.173 A 
ATOM     76  C   UNL A   1      37.577  32.060  28.973  1.00  0.00     0.173 A 
ATOM     77  F   UNL A   1      37.063  28.528  29.653  1.00  0.00    -0.203 F 
ATOM     78  C   UNL A   1      35.750  30.045  28.417  1.00  0.00     0.198 A 
ATOM     79  C   UNL A   1      36.447  32.333  28.206  1.00  0.00     0.198 A 
ATOM     80  F   UNL A   1      38.445  33.050  29.229  1.00  0.00    -0.203 F 
ATOM     81  F   UNL A   1      34.881  29.065  28.134  1.00  0.00    -0.200 F 
ATOM     82  C   UNL A   1      35.535  31.325  27.927  1.00  0.00     0.200 A 
ATOM     83  F   UNL A   1      36.238  33.572  27.742  1.00  0.00    -0.200 F 
ATOM     84  F   UNL A   1      34.452  31.586  27.183  1.00  0.00    -0.200 F 
ENDBRANCH  50  74
BRANCH  62  85
ATOM     85  C   UNL A   1      39.418  32.181  36.107  1.00  0.00     0.064 A 
ATOM     86  C   UNL A   1      38.456  31.546  36.904  1.00  0.00     0.173 A 
ATOM     87  C   UNL A   1      39.711  33.527  36.367  1.00  0.00     0.173 A 
ATOM     88  F   UNL A   1      38.133  30.264  36.679  1.00  0.00    -0.203 F 
ATOM     89  C   UNL A   1      37.801  32.239  37.919  1.00  0.00     0.198 A 
ATOM     90  C   UNL A   1      39.066  34.212  37.393  1.00  0.00     0.198 A 
ATOM     91  F   UNL A   1      40.624  34.176  35.629  1.00  0.00    -0.203 F 
ATOM     92  F   UNL A   1      36.862  31.623  38.650  1.00  0.00    -0.200 F 
ATOM     93  C   UNL A   1      38.109  33.569  38.165  1.00  0.00     0.200 A 
ATOM     94  F   UNL A   1      39.365  35.496  37.632  1.00  0.00    -0.200 F 
ATOM     95  F   UNL A   1      37.478  34.234  39.142  1.00  0.00    -0.200 F 
ENDBRANCH  62  85
ENDBRANCH  36  37
ENDBRANCH  28  31
ENDBRANCH  26  27
ENDBRANCH  25  26
ENDBRANCH  24  25
ENDBRANCH  23  24
ENDBRANCH  22  23
ENDBRANCH   1  22
TORSDOF 19
ENDMDL
MODEL 3
REMARK VINA RESULT:      -8.0      3.813      9.309
REMARK SMILES CCC[C@H](C)N(C)S(=O)(=O)c1ccc(CC(=O)NCCCCCCNC(=O)c2ccc(-c3c4nc(c(-c5c(F)c(F)c(F)c(F)c5F)c5ccc([nH]5)c(-c5c(F)c(F)c(F)c(F)c5F)c5nc(c(-c6c(F)c(F)c(F)c(F)c6F)c6ccc3[nH]6)C=C5)C=C4)cc2)s1
REMARK SMILES IDX 19 1 18 2 16 3 17 4 15 6 14 7 11 8 12 9 91 10 13 11 8 12
REMARK SMILES IDX 9 13 10 14 6 15 7 16 4 17 5 18 3 19 2 20 1 21 20 22 21 23
REMARK SMILES IDX 22 24 23 25 24 26 25 27 26 28 27 30 28 31 29 32 90 33 30 34
REMARK SMILES IDX 89 35 31 36 32 37 33 38 83 39 34 40 88 41 82 42 84 43 35 44
REMARK SMILES IDX 87 45 81 46 80 47 36 49 68 50 48 51 67 52 49 53 52 54 66 55
REMARK SMILES IDX 85 56 50 57 51 58 65 60 86 61 53 62 37 63 38 64 46 65 39 66
REMARK SMILES IDX 40 67 44 68 47 69 41 70 42 71 45 72 43 73 69 74 70 75 78 76
REMARK SMILES IDX 71 77 72 78 76 79 79 80 73 81 74 82 77 83 75 84 54 85 55 86
REMARK SMILES IDX 63 87 56 88 57 89 61 90 64 91 58 92 59 93 62 94 60 95
REMARK H PARENT 18 5 25 29 84 48 52 59
REMARK Flexibility Score: inf
ROOT
ATOM      1  C   UNL A   1      42.936  23.789  28.740  1.00  0.00     0.116 C 
ENDROOT
BRANCH   1   2
ATOM      2  N   UNL A   1      41.573  23.963  28.276  1.00  0.00    -0.356 N 
ATOM      3  C   UNL A   1      40.789  25.081  28.296  1.00  0.00     0.225 C 
ATOM      4  O   UNL A   1      39.616  24.974  27.932  1.00  0.00    -0.275 OA
ATOM      5  H   UNL A   1      41.154  23.160  27.890  1.00  0.00     0.163 HD
BRANCH   3   6
ATOM      6  C   UNL A   1      41.376  26.425  28.694  1.00  0.00     0.146 C 
BRANCH   6   7
ATOM      7  C   UNL A   1      40.414  27.557  28.475  1.00  0.00     0.015 A 
ATOM      8  C   UNL A   1      38.666  29.290  28.753  1.00  0.00     0.135 A 
ATOM      9  C   UNL A   1      39.194  29.267  27.474  1.00  0.00     0.034 A 
ATOM     10  S   UNL A   1      39.372  28.081  29.728  1.00  0.00    -0.127 S 
ATOM     11  C   UNL A   1      40.181  28.256  27.307  1.00  0.00     0.017 A 
BRANCH   8  12
ATOM     12  S   UNL A   1      37.351  30.285  29.442  1.00  0.00     0.252 S 
ATOM     13  O   UNL A   1      36.514  29.348  30.160  1.00  0.00    -0.206 OA
ATOM     14  O   UNL A   1      36.843  30.986  28.279  1.00  0.00    -0.206 OA
BRANCH  12  15
ATOM     15  N   UNL A   1      37.945  31.453  30.550  1.00  0.00    -0.197 NA
ATOM     16  C   UNL A   1      37.111  32.673  30.706  1.00  0.00     0.124 C 
BRANCH  15  17
ATOM     17  C   UNL A   1      39.421  31.782  30.472  1.00  0.00     0.070 C 
ATOM     18  C   UNL A   1      39.601  33.268  30.162  1.00  0.00     0.026 C 
BRANCH  17  19
ATOM     19  C   UNL A   1      40.179  31.285  31.720  1.00  0.00     0.020 C 
BRANCH  19  20
ATOM     20  C   UNL A   1      39.305  30.821  32.889  1.00  0.00    -0.002 C 
ATOM     21  C   UNL A   1      39.418  29.341  33.215  1.00  0.00     0.004 C 
ENDBRANCH  19  20
ENDBRANCH  17  19
ENDBRANCH  15  17
ENDBRANCH  12  15
ENDBRANCH   8  12
ENDBRANCH   6   7
ENDBRANCH   3   6
ENDBRANCH   1   2
BRANCH   1  22
ATOM     22  C   UNL A   1      43.878  23.454  27.582  1.00  0.00     0.021 C 
BRANCH  22  23
ATOM     23  C   UNL A   1      43.730  24.374  26.362  1.00  0.00     0.002 C 
BRANCH  23  24
ATOM     24  C   UNL A   1      44.540  23.965  25.125  1.00  0.00     0.002 C 
BRANCH  24  25
ATOM     25  C   UNL A   1      46.016  23.635  25.378  1.00  0.00     0.021 C 
BRANCH  25  26
ATOM     26  C   UNL A   1      46.896  24.826  25.758  1.00  0.00     0.116 C 
BRANCH  26  27
ATOM     27  N   UNL A   1      47.057  25.769  24.666  1.00  0.00    -0.352 N 
ATOM     28  C   UNL A   1      46.697  27.091  24.585  1.00  0.00     0.251 C 
ATOM     29  H   UNL A   1      47.491  25.405  23.860  1.00  0.00     0.163 HD
ATOM     30  O   UNL A   1      46.788  27.683  23.513  1.00  0.00    -0.269 OA
BRANCH  28  31
ATOM     31  C   UNL A   1      46.178  27.810  25.770  1.00  0.00     0.039 A 
ATOM     32  C   UNL A   1      44.793  27.864  25.962  1.00  0.00     0.014 A 
ATOM     33  C   UNL A   1      47.031  28.471  26.660  1.00  0.00     0.014 A 
ATOM     34  C   UNL A   1      44.266  28.531  27.069  1.00  0.00     0.010 A 
ATOM     35  C   UNL A   1      46.507  29.103  27.790  1.00  0.00     0.010 A 
ATOM     36  C   UNL A   1      45.120  29.139  28.003  1.00  0.00    -0.014 A 
BRANCH  36  37
ATOM     37  C   UNL A   1      44.570  29.803  29.209  1.00  0.00     0.031 A 
ATOM     38  C   UNL A   1      44.281  31.276  29.206  1.00  0.00     0.074 A 
ATOM     39  C   UNL A   1      44.373  29.082  30.329  1.00  0.00     0.049 A 
ATOM     40  N   UNL A   1      43.817  32.029  30.172  1.00  0.00    -0.248 NA
ATOM     41  C   UNL A   1      44.571  32.002  27.962  1.00  0.00     0.031 C 
ATOM     42  C   UNL A   1      44.662  27.656  30.475  1.00  0.00     0.029 A 
ATOM     43  N   UNL A   1      43.889  29.453  31.557  1.00  0.00    -0.354 N 
ATOM     44  C   UNL A   1      43.775  33.318  29.660  1.00  0.00     0.074 A 
ATOM     45  C   UNL A   1      44.288  33.251  28.307  1.00  0.00     0.031 C 
ATOM     46  C   UNL A   1      44.337  27.269  31.719  1.00  0.00     0.029 A 
ATOM     47  C   UNL A   1      43.831  28.421  32.460  1.00  0.00     0.049 A 
ATOM     48  H   UNL A   1      43.610  30.373  31.771  1.00  0.00     0.167 HD
ATOM     49  C   UNL A   1      43.338  34.451  30.259  1.00  0.00     0.037 A 
ATOM     50  C   UNL A   1      43.410  28.404  33.738  1.00  0.00     0.037 A 
ATOM     51  C   UNL A   1      42.798  34.517  31.591  1.00  0.00     0.049 A 
ATOM     52  C   UNL A   1      42.880  29.663  34.362  1.00  0.00     0.074 A 
ATOM     53  C   UNL A   1      42.271  35.609  32.258  1.00  0.00     0.029 A 
ATOM     54  N   UNL A   1      42.714  33.439  32.460  1.00  0.00    -0.354 N 
ATOM     55  N   UNL A   1      42.788  30.864  33.846  1.00  0.00    -0.248 NA
ATOM     56  C   UNL A   1      42.386  29.561  35.743  1.00  0.00     0.031 C 
ATOM     57  C   UNL A   1      41.887  35.197  33.540  1.00  0.00     0.029 A 
ATOM     58  C   UNL A   1      42.152  33.843  33.661  1.00  0.00     0.049 A 
ATOM     59  H   UNL A   1      43.010  32.523  32.254  1.00  0.00     0.167 HD
ATOM     60  C   UNL A   1      42.210  31.656  34.827  1.00  0.00     0.074 A 
ATOM     61  C   UNL A   1      41.965  30.799  35.969  1.00  0.00     0.031 C 
ATOM     62  C   UNL A   1      41.912  32.977  34.785  1.00  0.00     0.037 A 
BRANCH  49  63
ATOM     63  C   UNL A   1      43.424  35.721  29.469  1.00  0.00     0.064 A 
ATOM     64  C   UNL A   1      44.499  36.607  29.628  1.00  0.00     0.173 A 
ATOM     65  C   UNL A   1      42.436  36.042  28.528  1.00  0.00     0.173 A 
ATOM     66  F   UNL A   1      45.460  36.347  30.526  1.00  0.00    -0.203 F 
ATOM     67  C   UNL A   1      44.571  37.783  28.885  1.00  0.00     0.198 A 
ATOM     68  C   UNL A   1      42.521  37.210  27.773  1.00  0.00     0.198 A 
ATOM     69  F   UNL A   1      41.390  35.225  28.339  1.00  0.00    -0.203 F 
ATOM     70  F   UNL A   1      45.588  38.634  29.079  1.00  0.00    -0.200 F 
ATOM     71  C   UNL A   1      43.585  38.080  27.957  1.00  0.00     0.200 A 
ATOM     72  F   UNL A   1      41.571  37.494  26.871  1.00  0.00    -0.200 F 
ATOM     73  F   UNL A   1      43.656  39.213  27.243  1.00  0.00    -0.200 F 
ENDBRANCH  49  63
BRANCH  50  74
ATOM     74  C   UNL A   1      43.434  27.132  34.495  1.00  0.00     0.064 A 
ATOM     75  C   UNL A   1      42.265  26.379  34.664  1.00  0.00     0.173 A 
ATOM     76  C   UNL A   1      44.624  26.631  35.040  1.00  0.00     0.173 A 
ATOM     77  F   UNL A   1      41.102  26.831  34.174  1.00  0.00    -0.203 F 
ATOM     78  C   UNL A   1      42.284  25.172  35.357  1.00  0.00     0.198 A 
ATOM     79  C   UNL A   1      44.645  25.416  35.720  1.00  0.00     0.198 A 
ATOM     80  F   UNL A   1      45.768  27.319  34.898  1.00  0.00    -0.203 F 
ATOM     81  F   UNL A   1      41.149  24.479  35.525  1.00  0.00    -0.200 F 
ATOM     82  C   UNL A   1      43.475  24.688  35.880  1.00  0.00     0.200 A 
ATOM     83  F   UNL A   1      45.799  24.948  36.215  1.00  0.00    -0.200 F 
ATOM     84  F   UNL A   1      43.494  23.523  36.541  1.00  0.00    -0.200 F 
ENDBRANCH  50  74
BRANCH  62  85
ATOM     85  C   UNL A   1      41.270  33.570  36.000  1.00  0.00     0.064 A 
ATOM     86  C   UNL A   1      42.036  34.171  37.009  1.00  0.00     0.173 A 
ATOM     87  C   UNL A   1      39.876  33.565  36.143  1.00  0.00     0.173 A 
ATOM     88  F   UNL A   1      43.375  34.184  36.921  1.00  0.00    -0.203 F 
ATOM     89  C   UNL A   1      41.427  34.734  38.127  1.00  0.00     0.198 A 
ATOM     90  C   UNL A   1      39.269  34.143  37.254  1.00  0.00     0.198 A 
ATOM     91  F   UNL A   1      39.102  33.001  35.203  1.00  0.00    -0.203 F 
ATOM     92  F   UNL A   1      42.180  35.276  39.095  1.00  0.00    -0.200 F 
ATOM     93  C   UNL A   1      40.046  34.724  38.247  1.00  0.00     0.200 A 
ATOM     94  F   UNL A   1      37.934  34.135  37.369  1.00  0.00    -0.200 F 
ATOM     95  F   UNL A   1      39.462  35.267  39.324  1.00  0.00    -0.200 F 
ENDBRANCH  62  85
ENDBRANCH  36  37
ENDBRANCH  28  31
ENDBRANCH  26  27
ENDBRANCH  25  26
ENDBRANCH  24  25
ENDBRANCH  23  24
ENDBRANCH  22  23
ENDBRANCH   1  22
TORSDOF 19
ENDMDL
