MODEL 1
REMARK VINA RESULT:     -11.3      0.000      0.000
REMARK SMILES CC1(C)COCCN1C(=O)N1CCO[C@@H](CC(=O)NCCCCCCNC(=O)c2ccc(-c3c4nc(c(-c5c(F)c(F)c(F)c(F)c5F)c5ccc([nH]5)c(-c5c(F)c(F)c(F)c(F)c5F)c5nc(c(-c6c(F)c(F)c(F)c(F)c6F)c6ccc3[nH]6)C=C5)C=C4)cc2)C1
REMARK SMILES IDX 22 1 21 2 20 3 19 4 17 5 18 6 16 8 15 9 11 10 12 11 92 12
REMARK SMILES IDX 13 13 14 14 9 15 10 16 8 17 1 18 2 19 3 20 4 21 5 22 7 23
REMARK SMILES IDX 6 24 23 25 24 26 25 27 26 28 27 29 28 31 29 32 30 33 91 34
REMARK SMILES IDX 31 35 90 36 32 37 33 38 34 39 84 40 35 41 89 42 83 43 85 44
REMARK SMILES IDX 36 45 88 46 82 47 81 48 37 50 69 51 49 52 68 53 50 54 53 55
REMARK SMILES IDX 67 56 86 57 51 58 52 59 66 61 87 62 54 63 38 64 39 65 47 66
REMARK SMILES IDX 40 67 41 68 45 69 48 70 42 71 43 72 46 73 44 74 70 75 71 76
REMARK SMILES IDX 79 77 72 78 73 79 77 80 80 81 74 82 75 83 78 84 76 85 55 86
REMARK SMILES IDX 56 87 64 88 57 89 58 90 62 91 65 92 59 93 60 94 63 95 61 96
REMARK H PARENT 19 7 26 30 85 49 53 60
REMARK Flexibility Score: inf
ROOT
ATOM      1  C   UNL A   1      40.040  21.860  26.962  1.00  0.00     0.002 C 
ENDROOT
BRANCH   1   2
ATOM      2  C   UNL A   1      38.863  22.307  26.093  1.00  0.00     0.021 C 
BRANCH   2   3
ATOM      3  C   UNL A   1      38.161  21.139  25.386  1.00  0.00     0.116 C 
BRANCH   3   4
ATOM      4  N   UNL A   1      37.387  21.558  24.228  1.00  0.00    -0.356 N 
ATOM      5  C   UNL A   1      36.547  22.572  23.941  1.00  0.00     0.222 C 
ATOM      6  O   UNL A   1      36.652  22.981  22.772  1.00  0.00    -0.275 OA
ATOM      7  H   UNL A   1      37.507  20.948  23.463  1.00  0.00     0.163 HD
BRANCH   5   8
ATOM      8  C   UNL A   1      35.541  23.290  24.840  1.00  0.00     0.133 C 
BRANCH   8   9
ATOM      9  C   UNL A   1      34.941  22.730  26.129  1.00  0.00     0.147 C 
ATOM     10  N   UNL A   1      32.566  23.360  25.862  1.00  0.00    -0.320 N 
ATOM     11  C   UNL A   1      32.168  21.962  25.729  1.00  0.00     0.150 C 
ATOM     12  C   UNL A   1      33.731  23.429  26.738  1.00  0.00     0.154 C 
ATOM     13  C   UNL A   1      33.346  21.113  25.221  1.00  0.00     0.182 C 
ATOM     14  O   UNL A   1      34.579  21.328  25.946  1.00  0.00    -0.374 OA
BRANCH  10  15
ATOM     15  C   UNL A   1      31.566  24.290  26.061  1.00  0.00     0.320 C 
ATOM     16  O   UNL A   1      30.863  24.204  27.071  1.00  0.00    -0.248 OA
BRANCH  15  17
ATOM     17  N   UNL A   1      31.446  25.344  25.156  1.00  0.00    -0.315 N 
ATOM     18  C   UNL A   1      33.003  26.684  23.693  1.00  0.00     0.037 C 
ATOM     19  C   UNL A   1      32.207  26.645  25.013  1.00  0.00     0.062 C 
ATOM     20  C   UNL A   1      33.190  26.979  26.120  1.00  0.00     0.037 C 
ATOM     21  C   UNL A   1      31.161  27.798  24.999  1.00  0.00     0.188 C 
ATOM     22  O   UNL A   1      30.283  27.673  23.877  1.00  0.00    -0.377 OA
ATOM     23  C   UNL A   1      30.374  25.204  24.147  1.00  0.00     0.150 C 
ATOM     24  C   UNL A   1      29.519  26.470  23.968  1.00  0.00     0.182 C 
ENDBRANCH  15  17
ENDBRANCH  10  15
ENDBRANCH   8   9
ENDBRANCH   5   8
ENDBRANCH   3   4
ENDBRANCH   2   3
ENDBRANCH   1   2
BRANCH   1  25
ATOM     25  C   UNL A   1      41.221  21.289  26.175  1.00  0.00     0.002 C 
BRANCH  25  26
ATOM     26  C   UNL A   1      41.317  19.762  26.126  1.00  0.00     0.021 C 
BRANCH  26  27
ATOM     27  C   UNL A   1      42.670  19.193  26.535  1.00  0.00     0.116 C 
BRANCH  27  28
ATOM     28  N   UNL A   1      43.469  18.782  25.388  1.00  0.00    -0.352 N 
ATOM     29  C   UNL A   1      44.276  19.528  24.572  1.00  0.00     0.251 C 
ATOM     30  H   UNL A   1      43.422  17.824  25.166  1.00  0.00     0.163 HD
ATOM     31  O   UNL A   1      44.737  19.041  23.540  1.00  0.00    -0.269 OA
BRANCH  29  32
ATOM     32  C   UNL A   1      44.577  20.926  24.927  1.00  0.00     0.039 A 
ATOM     33  C   UNL A   1      44.154  21.947  24.074  1.00  0.00     0.014 A 
ATOM     34  C   UNL A   1      45.273  21.225  26.101  1.00  0.00     0.014 A 
ATOM     35  C   UNL A   1      44.377  23.276  24.431  1.00  0.00     0.010 A 
ATOM     36  C   UNL A   1      45.417  22.548  26.497  1.00  0.00     0.010 A 
ATOM     37  C   UNL A   1      44.979  23.586  25.662  1.00  0.00    -0.014 A 
BRANCH  37  38
ATOM     38  C   UNL A   1      45.163  24.993  26.091  1.00  0.00     0.031 A 
ATOM     39  C   UNL A   1      46.520  25.631  26.006  1.00  0.00     0.074 A 
ATOM     40  C   UNL A   1      44.121  25.667  26.612  1.00  0.00     0.049 A 
ATOM     41  N   UNL A   1      46.896  26.828  26.381  1.00  0.00    -0.248 NA
ATOM     42  C   UNL A   1      47.608  24.806  25.455  1.00  0.00     0.031 C 
ATOM     43  C   UNL A   1      42.772  25.128  26.794  1.00  0.00     0.029 A 
ATOM     44  N   UNL A   1      44.034  26.950  27.093  1.00  0.00    -0.354 N 
ATOM     45  C   UNL A   1      48.259  26.892  26.123  1.00  0.00     0.074 A 
ATOM     46  C   UNL A   1      48.659  25.596  25.622  1.00  0.00     0.031 C 
ATOM     47  C   UNL A   1      41.985  26.081  27.318  1.00  0.00     0.029 A 
ATOM     48  C   UNL A   1      42.783  27.282  27.549  1.00  0.00     0.049 A 
ATOM     49  H   UNL A   1      44.797  27.572  27.109  1.00  0.00     0.167 HD
ATOM     50  C   UNL A   1      49.095  27.947  26.266  1.00  0.00     0.037 A 
ATOM     51  C   UNL A   1      42.332  28.425  28.098  1.00  0.00     0.037 A 
ATOM     52  C   UNL A   1      48.683  29.238  26.748  1.00  0.00     0.049 A 
ATOM     53  C   UNL A   1      43.286  29.579  28.258  1.00  0.00     0.074 A 
ATOM     54  C   UNL A   1      49.434  30.392  26.877  1.00  0.00     0.029 A 
ATOM     55  N   UNL A   1      47.402  29.543  27.189  1.00  0.00    -0.354 N 
ATOM     56  N   UNL A   1      44.555  29.655  27.939  1.00  0.00    -0.248 NA
ATOM     57  C   UNL A   1      42.742  30.809  28.850  1.00  0.00     0.031 C 
ATOM     58  C   UNL A   1      48.625  31.379  27.449  1.00  0.00     0.029 A 
ATOM     59  C   UNL A   1      47.351  30.860  27.616  1.00  0.00     0.049 A 
ATOM     60  H   UNL A   1      46.643  28.917  27.196  1.00  0.00     0.167 HD
ATOM     61  C   UNL A   1      44.954  30.945  28.258  1.00  0.00     0.074 A 
ATOM     62  C   UNL A   1      43.786  31.622  28.784  1.00  0.00     0.031 C 
ATOM     63  C   UNL A   1      46.176  31.519  28.127  1.00  0.00     0.037 A 
BRANCH  50  64
ATOM     64  C   UNL A   1      50.538  27.748  25.896  1.00  0.00     0.064 A 
ATOM     65  C   UNL A   1      51.512  27.442  26.859  1.00  0.00     0.173 A 
ATOM     66  C   UNL A   1      50.947  27.831  24.556  1.00  0.00     0.173 A 
ATOM     67  F   UNL A   1      51.179  27.360  28.156  1.00  0.00    -0.203 F 
ATOM     68  C   UNL A   1      52.846  27.261  26.500  1.00  0.00     0.198 A 
ATOM     69  C   UNL A   1      52.275  27.614  24.196  1.00  0.00     0.198 A 
ATOM     70  F   UNL A   1      50.057  28.116  23.593  1.00  0.00    -0.203 F 
ATOM     71  F   UNL A   1      53.767  27.025  27.444  1.00  0.00    -0.200 F 
ATOM     72  C   UNL A   1      53.224  27.339  25.167  1.00  0.00     0.200 A 
ATOM     73  F   UNL A   1      52.636  27.677  22.906  1.00  0.00    -0.200 F 
ATOM     74  F   UNL A   1      54.506  27.156  24.822  1.00  0.00    -0.200 F 
ENDBRANCH  50  64
BRANCH  51  75
ATOM     75  C   UNL A   1      40.909  28.542  28.513  1.00  0.00     0.064 A 
ATOM     76  C   UNL A   1      39.931  28.987  27.612  1.00  0.00     0.173 A 
ATOM     77  C   UNL A   1      40.497  28.215  29.813  1.00  0.00     0.173 A 
ATOM     78  F   UNL A   1      40.277  29.329  26.363  1.00  0.00    -0.203 F 
ATOM     79  C   UNL A   1      38.600  29.125  28.004  1.00  0.00     0.198 A 
ATOM     80  C   UNL A   1      39.161  28.322  30.193  1.00  0.00     0.198 A 
ATOM     81  F   UNL A   1      41.391  27.777  30.712  1.00  0.00    -0.203 F 
ATOM     82  F   UNL A   1      37.697  29.601  27.136  1.00  0.00    -0.200 F 
ATOM     83  C   UNL A   1      38.215  28.786  29.291  1.00  0.00     0.200 A 
ATOM     84  F   UNL A   1      38.790  27.977  31.433  1.00  0.00    -0.200 F 
ATOM     85  F   UNL A   1      36.935  28.914  29.666  1.00  0.00    -0.200 F 
ENDBRANCH  51  75
BRANCH  63  86
ATOM     86  C   UNL A   1      46.305  32.963  28.519  1.00  0.00     0.064 A 
ATOM     87  C   UNL A   1      46.683  33.348  29.814  1.00  0.00     0.173 A 
ATOM     88  C   UNL A   1      46.096  33.974  27.568  1.00  0.00     0.173 A 
ATOM     89  F   UNL A   1      46.881  32.421  30.763  1.00  0.00    -0.203 F 
ATOM     90  C   UNL A   1      46.820  34.692  30.148  1.00  0.00     0.198 A 
ATOM     91  C   UNL A   1      46.268  35.315  27.897  1.00  0.00     0.198 A 
ATOM     92  F   UNL A   1      45.740  33.660  26.313  1.00  0.00    -0.203 F 
ATOM     93  F   UNL A   1      47.133  35.039  31.405  1.00  0.00    -0.200 F 
ATOM     94  C   UNL A   1      46.622  35.674  29.188  1.00  0.00     0.200 A 
ATOM     95  F   UNL A   1      46.093  36.260  26.963  1.00  0.00    -0.200 F 
ATOM     96  F   UNL A   1      46.767  36.966  29.509  1.00  0.00    -0.200 F 
ENDBRANCH  63  86
ENDBRANCH  37  38
ENDBRANCH  29  32
ENDBRANCH  27  28
ENDBRANCH  26  27
ENDBRANCH  25  26
ENDBRANCH   1  25
TORSDOF 16
ENDMDL
MODEL 2
REMARK VINA RESULT:     -11.2      6.432     12.115
REMARK SMILES CC1(C)COCCN1C(=O)N1CCO[C@@H](CC(=O)NCCCCCCNC(=O)c2ccc(-c3c4nc(c(-c5c(F)c(F)c(F)c(F)c5F)c5ccc([nH]5)c(-c5c(F)c(F)c(F)c(F)c5F)c5nc(c(-c6c(F)c(F)c(F)c(F)c6F)c6ccc3[nH]6)C=C5)C=C4)cc2)C1
REMARK SMILES IDX 22 1 21 2 20 3 19 4 17 5 18 6 16 8 15 9 11 10 12 11 92 12
REMARK SMILES IDX 13 13 14 14 9 15 10 16 8 17 1 18 2 19 3 20 4 21 5 22 7 23
REMARK SMILES IDX 6 24 23 25 24 26 25 27 26 28 27 29 28 31 29 32 30 33 91 34
REMARK SMILES IDX 31 35 90 36 32 37 33 38 34 39 84 40 35 41 89 42 83 43 85 44
REMARK SMILES IDX 36 45 88 46 82 47 81 48 37 50 69 51 49 52 68 53 50 54 53 55
REMARK SMILES IDX 67 56 86 57 51 58 52 59 66 61 87 62 54 63 38 64 39 65 47 66
REMARK SMILES IDX 40 67 41 68 45 69 48 70 42 71 43 72 46 73 44 74 70 75 71 76
REMARK SMILES IDX 79 77 72 78 73 79 77 80 80 81 74 82 75 83 78 84 76 85 55 86
REMARK SMILES IDX 56 87 64 88 57 89 58 90 62 91 65 92 59 93 60 94 63 95 61 96
REMARK H PARENT 19 7 26 30 85 49 53 60
REMARK Flexibility Score: inf
ROOT
ATOM      1  C   UNL A   1      35.000  32.685  28.360  1.00  0.00     0.002 C 
ENDROOT
BRANCH   1   2
ATOM      2  C   UNL A   1      33.750  31.989  27.817  1.00  0.00     0.021 C 
BRANCH   2   3
ATOM      3  C   UNL A   1      33.943  30.479  27.613  1.00  0.00     0.116 C 
BRANCH   3   4
ATOM      4  N   UNL A   1      32.695  29.735  27.663  1.00  0.00    -0.356 N 
ATOM      5  C   UNL A   1      32.255  28.550  27.192  1.00  0.00     0.222 C 
ATOM      6  O   UNL A   1      31.474  27.973  27.968  1.00  0.00    -0.275 OA
ATOM      7  H   UNL A   1      31.998  30.215  28.166  1.00  0.00     0.163 HD
BRANCH   5   8
ATOM      8  C   UNL A   1      32.605  27.827  25.893  1.00  0.00     0.133 C 
BRANCH   8   9
ATOM      9  C   UNL A   1      32.942  28.498  24.562  1.00  0.00     0.147 C 
ATOM     10  N   UNL A   1      32.551  26.641  22.978  1.00  0.00    -0.320 N 
ATOM     11  C   UNL A   1      31.403  27.328  22.395  1.00  0.00     0.150 C 
ATOM     12  C   UNL A   1      33.508  27.645  23.434  1.00  0.00     0.154 C 
ATOM     13  C   UNL A   1      30.794  28.315  23.406  1.00  0.00     0.182 C 
ATOM     14  O   UNL A   1      31.766  29.183  24.035  1.00  0.00    -0.374 OA
BRANCH  10  15
ATOM     15  C   UNL A   1      33.051  25.548  22.301  1.00  0.00     0.320 C 
ATOM     16  O   UNL A   1      33.434  25.692  21.137  1.00  0.00    -0.248 OA
BRANCH  15  17
ATOM     17  N   UNL A   1      33.187  24.343  22.988  1.00  0.00    -0.315 N 
ATOM     18  C   UNL A   1      32.319  21.988  22.742  1.00  0.00     0.037 C 
ATOM     19  C   UNL A   1      32.166  23.337  23.475  1.00  0.00     0.062 C 
ATOM     20  C   UNL A   1      30.707  23.736  23.345  1.00  0.00     0.037 C 
ATOM     21  C   UNL A   1      32.421  23.110  24.994  1.00  0.00     0.188 C 
ATOM     22  O   UNL A   1      33.723  22.561  25.213  1.00  0.00    -0.377 OA
ATOM     23  C   UNL A   1      34.570  23.958  23.340  1.00  0.00     0.150 C 
ATOM     24  C   UNL A   1      34.733  23.479  24.792  1.00  0.00     0.182 C 
ENDBRANCH  15  17
ENDBRANCH  10  15
ENDBRANCH   8   9
ENDBRANCH   5   8
ENDBRANCH   3   4
ENDBRANCH   2   3
ENDBRANCH   1   2
BRANCH   1  25
ATOM     25  C   UNL A   1      34.861  34.201  28.506  1.00  0.00     0.002 C 
BRANCH  25  26
ATOM     26  C   UNL A   1      33.437  34.726  28.711  1.00  0.00     0.021 C 
BRANCH  26  27
ATOM     27  C   UNL A   1      33.350  36.135  29.284  1.00  0.00     0.116 C 
BRANCH  27  28
ATOM     28  N   UNL A   1      32.540  36.193  30.494  1.00  0.00    -0.352 N 
ATOM     29  C   UNL A   1      32.705  35.546  31.688  1.00  0.00     0.251 C 
ATOM     30  H   UNL A   1      31.756  36.787  30.444  1.00  0.00     0.163 HD
ATOM     31  O   UNL A   1      31.819  35.581  32.541  1.00  0.00    -0.269 OA
BRANCH  29  32
ATOM     32  C   UNL A   1      33.943  34.790  31.942  1.00  0.00     0.039 A 
ATOM     33  C   UNL A   1      35.157  35.479  32.005  1.00  0.00     0.014 A 
ATOM     34  C   UNL A   1      33.904  33.405  32.121  1.00  0.00     0.014 A 
ATOM     35  C   UNL A   1      36.326  34.783  32.307  1.00  0.00     0.010 A 
ATOM     36  C   UNL A   1      35.053  32.729  32.508  1.00  0.00     0.010 A 
ATOM     37  C   UNL A   1      36.276  33.409  32.596  1.00  0.00    -0.014 A 
BRANCH  37  38
ATOM     38  C   UNL A   1      37.497  32.665  32.987  1.00  0.00     0.031 A 
ATOM     39  C   UNL A   1      38.182  32.976  34.288  1.00  0.00     0.074 A 
ATOM     40  C   UNL A   1      38.017  31.757  32.141  1.00  0.00     0.049 A 
ATOM     41  N   UNL A   1      39.286  32.476  34.781  1.00  0.00    -0.248 NA
ATOM     42  C   UNL A   1      37.561  34.009  35.133  1.00  0.00     0.031 C 
ATOM     43  C   UNL A   1      37.468  31.414  30.827  1.00  0.00     0.029 A 
ATOM     44  N   UNL A   1      39.129  30.960  32.253  1.00  0.00    -0.354 N 
ATOM     45  C   UNL A   1      39.495  33.140  35.983  1.00  0.00     0.074 A 
ATOM     46  C   UNL A   1      38.443  34.123  36.114  1.00  0.00     0.031 C 
ATOM     47  C   UNL A   1      38.226  30.457  30.270  1.00  0.00     0.029 A 
ATOM     48  C   UNL A   1      39.338  30.150  31.165  1.00  0.00     0.049 A 
ATOM     49  H   UNL A   1      39.720  30.969  33.040  1.00  0.00     0.167 HD
ATOM     50  C   UNL A   1      40.463  32.928  36.905  1.00  0.00     0.037 A 
ATOM     51  C   UNL A   1      40.320  29.264  30.916  1.00  0.00     0.037 A 
ATOM     52  C   UNL A   1      41.494  31.934  36.773  1.00  0.00     0.049 A 
ATOM     53  C   UNL A   1      41.391  29.057  31.952  1.00  0.00     0.074 A 
ATOM     54  C   UNL A   1      42.488  31.596  37.673  1.00  0.00     0.029 A 
ATOM     55  N   UNL A   1      41.667  31.120  35.661  1.00  0.00    -0.354 N 
ATOM     56  N   UNL A   1      41.537  29.634  33.121  1.00  0.00    -0.248 NA
ATOM     57  C   UNL A   1      42.433  28.069  31.639  1.00  0.00     0.031 C 
ATOM     58  C   UNL A   1      43.298  30.619  37.084  1.00  0.00     0.029 A 
ATOM     59  C   UNL A   1      42.769  30.301  35.843  1.00  0.00     0.049 A 
ATOM     60  H   UNL A   1      41.092  31.125  34.863  1.00  0.00     0.167 HD
ATOM     61  C   UNL A   1      42.662  29.060  33.695  1.00  0.00     0.074 A 
ATOM     62  C   UNL A   1      43.154  28.077  32.751  1.00  0.00     0.031 C 
ATOM     63  C   UNL A   1      43.237  29.321  34.895  1.00  0.00     0.037 A 
BRANCH  50  64
ATOM     64  C   UNL A   1      40.450  33.787  38.138  1.00  0.00     0.064 A 
ATOM     65  C   UNL A   1      41.277  34.915  38.262  1.00  0.00     0.173 A 
ATOM     66  C   UNL A   1      39.576  33.499  39.198  1.00  0.00     0.173 A 
ATOM     67  F   UNL A   1      42.140  35.231  37.284  1.00  0.00    -0.203 F 
ATOM     68  C   UNL A   1      41.254  35.700  39.412  1.00  0.00     0.198 A 
ATOM     69  C   UNL A   1      39.530  34.307  40.331  1.00  0.00     0.198 A 
ATOM     70  F   UNL A   1      38.759  32.436  39.132  1.00  0.00    -0.203 F 
ATOM     71  F   UNL A   1      42.093  36.738  39.529  1.00  0.00    -0.200 F 
ATOM     72  C   UNL A   1      40.374  35.401  40.441  1.00  0.00     0.200 A 
ATOM     73  F   UNL A   1      38.669  34.025  41.318  1.00  0.00    -0.200 F 
ATOM     74  F   UNL A   1      40.347  36.163  41.543  1.00  0.00    -0.200 F 
ENDBRANCH  50  64
BRANCH  51  75
ATOM     75  C   UNL A   1      40.322  28.492  29.645  1.00  0.00     0.064 A 
ATOM     76  C   UNL A   1      41.062  28.930  28.537  1.00  0.00     0.173 A 
ATOM     77  C   UNL A   1      39.587  27.305  29.509  1.00  0.00     0.173 A 
ATOM     78  F   UNL A   1      41.766  30.069  28.611  1.00  0.00    -0.203 F 
ATOM     79  C   UNL A   1      41.045  28.226  27.335  1.00  0.00     0.198 A 
ATOM     80  C   UNL A   1      39.599  26.584  28.317  1.00  0.00     0.198 A 
ATOM     81  F   UNL A   1      38.869  26.837  30.540  1.00  0.00    -0.203 F 
ATOM     82  F   UNL A   1      41.721  28.695  26.278  1.00  0.00    -0.200 F 
ATOM     83  C   UNL A   1      40.320  27.049  27.228  1.00  0.00     0.200 A 
ATOM     84  F   UNL A   1      38.910  25.439  28.223  1.00  0.00    -0.200 F 
ATOM     85  F   UNL A   1      40.308  26.369  26.073  1.00  0.00    -0.200 F 
ENDBRANCH  51  75
BRANCH  63  86
ATOM     86  C   UNL A   1      44.437  28.503  35.278  1.00  0.00     0.064 A 
ATOM     87  C   UNL A   1      44.314  27.280  35.954  1.00  0.00     0.173 A 
ATOM     88  C   UNL A   1      45.725  28.927  34.917  1.00  0.00     0.173 A 
ATOM     89  F   UNL A   1      43.106  26.837  36.334  1.00  0.00    -0.203 F 
ATOM     90  C   UNL A   1      45.439  26.527  36.278  1.00  0.00     0.198 A 
ATOM     91  C   UNL A   1      46.844  28.154  35.211  1.00  0.00     0.198 A 
ATOM     92  F   UNL A   1      45.898  30.086  34.263  1.00  0.00    -0.203 F 
ATOM     93  F   UNL A   1      45.302  25.386  36.969  1.00  0.00    -0.200 F 
ATOM     94  C   UNL A   1      46.701  26.959  35.898  1.00  0.00     0.200 A 
ATOM     95  F   UNL A   1      48.060  28.566  34.827  1.00  0.00    -0.200 F 
ATOM     96  F   UNL A   1      47.781  26.225  36.200  1.00  0.00    -0.200 F 
ENDBRANCH  63  86
ENDBRANCH  37  38
ENDBRANCH  29  32
ENDBRANCH  27  28
ENDBRANCH  26  27
ENDBRANCH  25  26
ENDBRANCH   1  25
TORSDOF 16
ENDMDL
MODEL 3
REMARK VINA RESULT:     -11.2      0.940      2.076
REMARK SMILES CC1(C)COCCN1C(=O)N1CCO[C@@H](CC(=O)NCCCCCCNC(=O)c2ccc(-c3c4nc(c(-c5c(F)c(F)c(F)c(F)c5F)c5ccc([nH]5)c(-c5c(F)c(F)c(F)c(F)c5F)c5nc(c(-c6c(F)c(F)c(F)c(F)c6F)c6ccc3[nH]6)C=C5)C=C4)cc2)C1
REMARK SMILES IDX 22 1 21 2 20 3 19 4 17 5 18 6 16 8 15 9 11 10 12 11 92 12
REMARK SMILES IDX 13 13 14 14 9 15 10 16 8 17 1 18 2 19 3 20 4 21 5 22 7 23
REMARK SMILES IDX 6 24 23 25 24 26 25 27 26 28 27 29 28 31 29 32 30 33 91 34
REMARK SMILES IDX 31 35 90 36 32 37 33 38 34 39 84 40 35 41 89 42 83 43 85 44
REMARK SMILES IDX 36 45 88 46 82 47 81 48 37 50 69 51 49 52 68 53 50 54 53 55
REMARK SMILES IDX 67 56 86 57 51 58 52 59 66 61 87 62 54 63 38 64 39 65 47 66
REMARK SMILES IDX 40 67 41 68 45 69 48 70 42 71 43 72 46 73 44 74 70 75 71 76
REMARK SMILES IDX 79 77 72 78 73 79 77 80 80 81 74 82 75 83 78 84 76 85 55 86
REMARK SMILES IDX 56 87 64 88 57 89 58 90 62 91 65 92 59 93 60 94 63 95 61 96
REMARK H PARENT 19 7 26 30 85 49 53 60
REMARK Flexibility Score: inf
ROOT
ATOM      1  C   UNL A   1      39.473  21.739  26.122  1.00  0.00     0.002 C 
ENDROOT
BRANCH   1   2
ATOM      2  C   UNL A   1      39.164  23.142  26.650  1.00  0.00     0.021 C 
BRANCH   2   3
ATOM      3  C   UNL A   1      37.896  23.750  26.032  1.00  0.00     0.116 C 
BRANCH   3   4
ATOM      4  N   UNL A   1      37.686  23.344  24.651  1.00  0.00    -0.356 N 
ATOM      5  C   UNL A   1      36.645  22.896  23.921  1.00  0.00     0.222 C 
ATOM      6  O   UNL A   1      36.648  23.316  22.751  1.00  0.00    -0.275 OA
ATOM      7  H   UNL A   1      38.511  23.413  24.117  1.00  0.00     0.163 HD
BRANCH   5   8
ATOM      8  C   UNL A   1      35.478  22.001  24.335  1.00  0.00     0.133 C 
BRANCH   8   9
ATOM      9  C   UNL A   1      34.199  22.468  25.028  1.00  0.00     0.147 C 
ATOM     10  N   UNL A   1      33.327  24.088  23.376  1.00  0.00    -0.320 N 
ATOM     11  C   UNL A   1      32.186  23.229  23.077  1.00  0.00     0.150 C 
ATOM     12  C   UNL A   1      33.704  23.887  24.772  1.00  0.00     0.154 C 
ATOM     13  C   UNL A   1      32.516  21.762  23.399  1.00  0.00     0.182 C 
ATOM     14  O   UNL A   1      33.097  21.566  24.709  1.00  0.00    -0.374 OA
BRANCH  10  15
ATOM     15  C   UNL A   1      33.287  25.386  22.910  1.00  0.00     0.320 C 
ATOM     16  O   UNL A   1      33.650  25.616  21.754  1.00  0.00    -0.248 OA
BRANCH  15  17
ATOM     17  N   UNL A   1      32.753  26.374  23.735  1.00  0.00    -0.315 N 
ATOM     18  C   UNL A   1      31.162  26.463  25.691  1.00  0.00     0.037 C 
ATOM     19  C   UNL A   1      31.333  26.669  24.171  1.00  0.00     0.062 C 
ATOM     20  C   UNL A   1      30.238  25.859  23.501  1.00  0.00     0.037 C 
ATOM     21  C   UNL A   1      31.040  28.160  23.834  1.00  0.00     0.188 C 
ATOM     22  O   UNL A   1      31.915  29.026  24.563  1.00  0.00    -0.377 OA
ATOM     23  C   UNL A   1      33.724  27.343  24.287  1.00  0.00     0.150 C 
ATOM     24  C   UNL A   1      33.273  28.809  24.175  1.00  0.00     0.182 C 
ENDBRANCH  15  17
ENDBRANCH  10  15
ENDBRANCH   8   9
ENDBRANCH   5   8
ENDBRANCH   3   4
ENDBRANCH   2   3
ENDBRANCH   1   2
BRANCH   1  25
ATOM     25  C   UNL A   1      40.866  21.224  26.489  1.00  0.00     0.002 C 
BRANCH  25  26
ATOM     26  C   UNL A   1      41.155  19.763  26.131  1.00  0.00     0.021 C 
BRANCH  26  27
ATOM     27  C   UNL A   1      42.516  19.250  26.585  1.00  0.00     0.116 C 
BRANCH  27  28
ATOM     28  N   UNL A   1      43.345  18.815  25.469  1.00  0.00    -0.352 N 
ATOM     29  C   UNL A   1      44.179  19.543  24.663  1.00  0.00     0.251 C 
ATOM     30  H   UNL A   1      43.299  17.853  25.263  1.00  0.00     0.163 HD
ATOM     31  O   UNL A   1      44.666  19.035  23.654  1.00  0.00    -0.269 OA
BRANCH  29  32
ATOM     32  C   UNL A   1      44.476  20.945  25.001  1.00  0.00     0.039 A 
ATOM     33  C   UNL A   1      43.943  21.961  24.205  1.00  0.00     0.014 A 
ATOM     34  C   UNL A   1      45.277  21.254  26.103  1.00  0.00     0.014 A 
ATOM     35  C   UNL A   1      44.166  23.293  24.552  1.00  0.00     0.010 A 
ATOM     36  C   UNL A   1      45.425  22.578  26.497  1.00  0.00     0.010 A 
ATOM     37  C   UNL A   1      44.878  23.610  25.720  1.00  0.00    -0.014 A 
BRANCH  37  38
ATOM     38  C   UNL A   1      45.067  25.018  26.144  1.00  0.00     0.031 A 
ATOM     39  C   UNL A   1      46.424  25.655  26.045  1.00  0.00     0.074 A 
ATOM     40  C   UNL A   1      44.030  25.694  26.671  1.00  0.00     0.049 A 
ATOM     41  N   UNL A   1      46.804  26.853  26.414  1.00  0.00    -0.248 NA
ATOM     42  C   UNL A   1      47.507  24.828  25.488  1.00  0.00     0.031 C 
ATOM     43  C   UNL A   1      42.682  25.157  26.866  1.00  0.00     0.029 A 
ATOM     44  N   UNL A   1      43.948  26.978  27.149  1.00  0.00    -0.354 N 
ATOM     45  C   UNL A   1      48.165  26.915  26.144  1.00  0.00     0.074 A 
ATOM     46  C   UNL A   1      48.559  25.618  25.643  1.00  0.00     0.031 C 
ATOM     47  C   UNL A   1      41.900  26.111  27.394  1.00  0.00     0.029 A 
ATOM     48  C   UNL A   1      42.700  27.312  27.615  1.00  0.00     0.049 A 
ATOM     49  H   UNL A   1      44.711  27.600  27.157  1.00  0.00     0.167 HD
ATOM     50  C   UNL A   1      49.002  27.970  26.277  1.00  0.00     0.037 A 
ATOM     51  C   UNL A   1      42.255  28.458  28.164  1.00  0.00     0.037 A 
ATOM     52  C   UNL A   1      48.595  29.263  26.758  1.00  0.00     0.049 A 
ATOM     53  C   UNL A   1      43.211  29.611  28.313  1.00  0.00     0.074 A 
ATOM     54  C   UNL A   1      49.348  30.417  26.877  1.00  0.00     0.029 A 
ATOM     55  N   UNL A   1      47.318  29.570  27.209  1.00  0.00    -0.354 N 
ATOM     56  N   UNL A   1      44.478  29.686  27.982  1.00  0.00    -0.248 NA
ATOM     57  C   UNL A   1      42.673  30.843  28.906  1.00  0.00     0.031 C 
ATOM     58  C   UNL A   1      48.544  31.406  27.454  1.00  0.00     0.029 A 
ATOM     59  C   UNL A   1      47.271  30.889  27.633  1.00  0.00     0.049 A 
ATOM     60  H   UNL A   1      46.559  28.944  27.225  1.00  0.00     0.167 HD
ATOM     61  C   UNL A   1      44.880  30.977  28.295  1.00  0.00     0.074 A 
ATOM     62  C   UNL A   1      43.717  31.656  28.828  1.00  0.00     0.031 C 
ATOM     63  C   UNL A   1      46.101  31.549  28.152  1.00  0.00     0.037 A 
BRANCH  50  64
ATOM     64  C   UNL A   1      50.442  27.769  25.895  1.00  0.00     0.064 A 
ATOM     65  C   UNL A   1      50.874  27.872  24.564  1.00  0.00     0.173 A 
ATOM     66  C   UNL A   1      51.408  27.500  26.878  1.00  0.00     0.173 A 
ATOM     67  F   UNL A   1      49.992  28.116  23.583  1.00  0.00    -0.203 F 
ATOM     68  C   UNL A   1      52.212  27.681  24.226  1.00  0.00     0.198 A 
ATOM     69  C   UNL A   1      52.751  27.346  26.541  1.00  0.00     0.198 A 
ATOM     70  F   UNL A   1      51.052  27.396  28.167  1.00  0.00    -0.203 F 
ATOM     71  F   UNL A   1      52.591  27.730  22.942  1.00  0.00    -0.200 F 
ATOM     72  C   UNL A   1      53.150  27.427  25.216  1.00  0.00     0.200 A 
ATOM     73  F   UNL A   1      53.657  27.114  27.500  1.00  0.00    -0.200 F 
ATOM     74  F   UNL A   1      54.438  27.252  24.890  1.00  0.00    -0.200 F 
ENDBRANCH  50  64
BRANCH  51  75
ATOM     75  C   UNL A   1      40.836  28.577  28.591  1.00  0.00     0.064 A 
ATOM     76  C   UNL A   1      40.449  28.260  29.900  1.00  0.00     0.173 A 
ATOM     77  C   UNL A   1      39.839  29.007  27.703  1.00  0.00     0.173 A 
ATOM     78  F   UNL A   1      41.361  27.827  30.782  1.00  0.00    -0.203 F 
ATOM     79  C   UNL A   1      39.115  28.343  30.298  1.00  0.00     0.198 A 
ATOM     80  C   UNL A   1      38.512  29.122  28.112  1.00  0.00     0.198 A 
ATOM     81  F   UNL A   1      40.157  29.331  26.441  1.00  0.00    -0.203 F 
ATOM     82  F   UNL A   1      38.767  27.985  31.541  1.00  0.00    -0.200 F 
ATOM     83  C   UNL A   1      38.149  28.781  29.406  1.00  0.00     0.200 A 
ATOM     84  F   UNL A   1      37.585  29.562  27.250  1.00  0.00    -0.200 F 
ATOM     85  F   UNL A   1      36.868  28.866  29.789  1.00  0.00    -0.200 F 
ENDBRANCH  51  75
BRANCH  63  86
ATOM     86  C   UNL A   1      46.234  32.995  28.538  1.00  0.00     0.064 A 
ATOM     87  C   UNL A   1      46.624  33.383  29.829  1.00  0.00     0.173 A 
ATOM     88  C   UNL A   1      46.016  34.003  27.587  1.00  0.00     0.173 A 
ATOM     89  F   UNL A   1      46.832  32.459  30.778  1.00  0.00    -0.203 F 
ATOM     90  C   UNL A   1      46.765  34.728  30.158  1.00  0.00     0.198 A 
ATOM     91  C   UNL A   1      46.192  35.345  27.910  1.00  0.00     0.198 A 
ATOM     92  F   UNL A   1      45.647  33.685  26.336  1.00  0.00    -0.203 F 
ATOM     93  F   UNL A   1      47.090  35.078  31.411  1.00  0.00    -0.200 F 
ATOM     94  C   UNL A   1      46.559  35.707  29.196  1.00  0.00     0.200 A 
ATOM     95  F   UNL A   1      46.008  36.287  26.975  1.00  0.00    -0.200 F 
ATOM     96  F   UNL A   1      46.707  37.000  29.513  1.00  0.00    -0.200 F 
ENDBRANCH  63  86
ENDBRANCH  37  38
ENDBRANCH  29  32
ENDBRANCH  27  28
ENDBRANCH  26  27
ENDBRANCH  25  26
ENDBRANCH   1  25
TORSDOF 16
ENDMDL
