MODEL 1
REMARK VINA RESULT:     -11.7      0.000      0.000
REMARK SMILES O=C(COc1ccc2c(c1)O/C(=C\c1cccs1)C2=O)NCCCCCCNC(=O)c1ccc(-c2c3nc(c(-c4c(F)c(F)c(F)c(F)c4F)c4ccc([nH]4)c(-c4c(F)c(F)c(F)c(F)c4F)c4nc(c(-c5c(F)c(F)c(F)c(F)c5F)c5ccc2[nH]5)C=C4)C=C3)cc1
REMARK SMILES IDX 24 1 23 2 22 3 21 4 1 5 2 6 3 8 4 9 5 10 6 11 10 12 7 13
REMARK SMILES IDX 9 14 8 15 11 16 19 17 12 18 20 19 13 20 14 21 15 22 18 23
REMARK SMILES IDX 16 24 17 25 25 26 26 27 27 28 28 29 29 30 30 32 31 33 32 34
REMARK SMILES IDX 93 35 33 36 92 37 34 38 35 39 36 40 86 41 37 42 91 43 85 44
REMARK SMILES IDX 87 45 38 46 90 47 84 48 83 49 39 51 71 52 51 53 70 54 52 55
REMARK SMILES IDX 55 56 69 57 88 58 53 59 54 60 68 62 89 63 56 64 40 65 41 66
REMARK SMILES IDX 49 67 42 68 43 69 47 70 50 71 44 72 45 73 48 74 46 75 72 76
REMARK SMILES IDX 73 77 81 78 74 79 75 80 79 81 82 82 76 83 77 84 80 85 78 86
REMARK SMILES IDX 57 87 58 88 66 89 59 90 60 91 64 92 67 93 61 94 62 95 65 96
REMARK SMILES IDX 63 97
REMARK H PARENT 21 7 28 31 87 50 55 61
REMARK Flexibility Score: inf
ROOT
ATOM      1  C   UNL A   1      35.788  33.614  28.546  1.00  0.00     0.002 C 
ENDROOT
BRANCH   1   2
ATOM      2  C   UNL A   1      36.221  32.255  27.982  1.00  0.00     0.021 C 
BRANCH   2   3
ATOM      3  C   UNL A   1      35.223  31.130  28.225  1.00  0.00     0.116 C 
BRANCH   3   4
ATOM      4  N   UNL A   1      34.230  31.047  27.177  1.00  0.00    -0.353 N 
ATOM      5  O   UNL A   1      33.620  28.862  27.559  1.00  0.00    -0.271 OA
ATOM      6  C   UNL A   1      33.444  29.931  26.982  1.00  0.00     0.257 C 
ATOM      7  H   UNL A   1      34.109  31.819  26.579  1.00  0.00     0.163 HD
BRANCH   6   8
ATOM      8  C   UNL A   1      32.309  30.147  25.980  1.00  0.00     0.329 C 
BRANCH   8   9
ATOM      9  O   UNL A   1      31.404  29.049  25.843  1.00  0.00    -0.484 OA
BRANCH   9  10
ATOM     10  C   UNL A   1      31.651  28.254  24.752  1.00  0.00     0.123 A 
ATOM     11  C   UNL A   1      31.871  28.793  23.464  1.00  0.00     0.047 A 
ATOM     12  C   UNL A   1      31.819  26.887  24.992  1.00  0.00     0.094 A 
ATOM     13  C   UNL A   1      32.258  27.982  22.397  1.00  0.00     0.020 A 
ATOM     14  C   UNL A   1      32.192  26.096  23.925  1.00  0.00     0.142 A 
ATOM     15  C   UNL A   1      32.418  26.641  22.664  1.00  0.00     0.069 A 
ATOM     16  O   UNL A   1      32.414  24.740  23.968  1.00  0.00    -0.452 OA
ATOM     17  C   UNL A   1      32.869  25.567  21.794  1.00  0.00     0.232 C 
ATOM     18  C   UNL A   1      32.844  24.386  22.690  1.00  0.00     0.176 C 
ATOM     19  O   UNL A   1      33.189  25.641  20.627  1.00  0.00    -0.285 OA
ATOM     20  C   UNL A   1      33.231  23.166  22.297  1.00  0.00     0.070 C 
BRANCH  20  21
ATOM     21  C   UNL A   1      33.167  22.058  23.180  1.00  0.00     0.031 A 
ATOM     22  C   UNL A   1      32.268  21.006  23.198  1.00  0.00     0.020 A 
ATOM     23  S   UNL A   1      34.328  21.889  24.436  1.00  0.00    -0.144 S 
ATOM     24  C   UNL A   1      32.508  20.089  24.260  1.00  0.00     0.012 A 
ATOM     25  C   UNL A   1      33.589  20.465  25.024  1.00  0.00     0.065 A 
ENDBRANCH  20  21
ENDBRANCH   9  10
ENDBRANCH   8   9
ENDBRANCH   6   8
ENDBRANCH   3   4
ENDBRANCH   2   3
ENDBRANCH   1   2
BRANCH   1  26
ATOM     26  C   UNL A   1      34.555  33.586  29.456  1.00  0.00     0.002 C 
BRANCH  26  27
ATOM     27  C   UNL A   1      33.418  34.521  29.042  1.00  0.00     0.021 C 
BRANCH  27  28
ATOM     28  C   UNL A   1      33.495  35.926  29.630  1.00  0.00     0.116 C 
BRANCH  28  29
ATOM     29  N   UNL A   1      32.546  36.127  30.715  1.00  0.00    -0.352 N 
ATOM     30  C   UNL A   1      32.590  35.669  32.009  1.00  0.00     0.251 C 
ATOM     31  H   UNL A   1      31.758  36.670  30.488  1.00  0.00     0.163 HD
ATOM     32  O   UNL A   1      31.614  35.791  32.741  1.00  0.00    -0.269 OA
BRANCH  30  33
ATOM     33  C   UNL A   1      33.809  35.002  32.515  1.00  0.00     0.039 A 
ATOM     34  C   UNL A   1      33.708  33.701  33.013  1.00  0.00     0.014 A 
ATOM     35  C   UNL A   1      35.046  35.652  32.496  1.00  0.00     0.014 A 
ATOM     36  C   UNL A   1      34.859  33.028  33.429  1.00  0.00     0.010 A 
ATOM     37  C   UNL A   1      36.202  34.952  32.833  1.00  0.00     0.010 A 
ATOM     38  C   UNL A   1      36.120  33.633  33.304  1.00  0.00    -0.014 A 
BRANCH  38  39
ATOM     39  C   UNL A   1      37.362  32.893  33.645  1.00  0.00     0.031 A 
ATOM     40  C   UNL A   1      38.110  33.200  34.911  1.00  0.00     0.074 A 
ATOM     41  C   UNL A   1      37.853  31.986  32.779  1.00  0.00     0.049 A 
ATOM     42  N   UNL A   1      39.235  32.698  35.353  1.00  0.00    -0.248 NA
ATOM     43  C   UNL A   1      37.530  34.231  35.785  1.00  0.00     0.031 C 
ATOM     44  C   UNL A   1      37.250  31.637  31.493  1.00  0.00     0.029 A 
ATOM     45  N   UNL A   1      38.978  31.201  32.843  1.00  0.00    -0.354 N 
ATOM     46  C   UNL A   1      39.501  33.355  36.546  1.00  0.00     0.074 A 
ATOM     47  C   UNL A   1      38.455  34.339  36.726  1.00  0.00     0.031 C 
ATOM     48  C   UNL A   1      37.996  30.693  30.899  1.00  0.00     0.029 A 
ATOM     49  C   UNL A   1      39.153  30.402  31.740  1.00  0.00     0.049 A 
ATOM     50  H   UNL A   1      39.599  31.210  33.606  1.00  0.00     0.167 HD
ATOM     51  C   UNL A   1      40.511  33.141  37.425  1.00  0.00     0.037 A 
ATOM     52  C   UNL A   1      40.142  29.541  31.434  1.00  0.00     0.037 A 
ATOM     53  C   UNL A   1      41.549  32.160  37.240  1.00  0.00     0.049 A 
ATOM     54  C   UNL A   1      41.267  29.336  32.410  1.00  0.00     0.074 A 
ATOM     55  C   UNL A   1      42.584  31.826  38.095  1.00  0.00     0.029 A 
ATOM     56  N   UNL A   1      41.691  31.363  36.111  1.00  0.00    -0.354 N 
ATOM     57  N   UNL A   1      41.467  29.905  33.574  1.00  0.00    -0.248 NA
ATOM     58  C   UNL A   1      42.301  28.363  32.034  1.00  0.00     0.031 C 
ATOM     59  C   UNL A   1      43.391  30.878  37.456  1.00  0.00     0.029 A 
ATOM     60  C   UNL A   1      42.819  30.565  36.233  1.00  0.00     0.049 A 
ATOM     61  H   UNL A   1      41.083  31.364  35.338  1.00  0.00     0.167 HD
ATOM     62  C   UNL A   1      42.631  29.345  34.080  1.00  0.00     0.074 A 
ATOM     63  C   UNL A   1      43.085  28.376  33.103  1.00  0.00     0.031 C 
ATOM     64  C   UNL A   1      43.267  29.609  35.250  1.00  0.00     0.037 A 
BRANCH  51  65
ATOM     65  C   UNL A   1      40.545  34.001  38.659  1.00  0.00     0.064 A 
ATOM     66  C   UNL A   1      39.879  33.629  39.839  1.00  0.00     0.173 A 
ATOM     67  C   UNL A   1      41.256  35.210  38.666  1.00  0.00     0.173 A 
ATOM     68  F   UNL A   1      39.177  32.488  39.888  1.00  0.00    -0.203 F 
ATOM     69  C   UNL A   1      39.882  34.460  40.958  1.00  0.00     0.198 A 
ATOM     70  C   UNL A   1      41.291  36.018  39.801  1.00  0.00     0.198 A 
ATOM     71  F   UNL A   1      41.920  35.613  37.572  1.00  0.00    -0.203 F 
ATOM     72  F   UNL A   1      39.178  34.116  42.046  1.00  0.00    -0.200 F 
ATOM     73  C   UNL A   1      40.592  35.650  40.940  1.00  0.00     0.200 A 
ATOM     74  F   UNL A   1      41.992  37.160  39.788  1.00  0.00    -0.200 F 
ATOM     75  F   UNL A   1      40.594  36.448  42.017  1.00  0.00    -0.200 F 
ENDBRANCH  51  65
BRANCH  52  76
ATOM     76  C   UNL A   1      40.094  28.797  30.147  1.00  0.00     0.064 A 
ATOM     77  C   UNL A   1      40.682  29.319  28.987  1.00  0.00     0.173 A 
ATOM     78  C   UNL A   1      39.482  27.537  30.059  1.00  0.00     0.173 A 
ATOM     79  F   UNL A   1      41.261  30.528  29.016  1.00  0.00    -0.203 F 
ATOM     80  C   UNL A   1      40.648  28.616  27.784  1.00  0.00     0.198 A 
ATOM     81  C   UNL A   1      39.477  26.821  28.864  1.00  0.00     0.198 A 
ATOM     82  F   UNL A   1      38.911  26.991  31.141  1.00  0.00    -0.203 F 
ATOM     83  F   UNL A   1      41.185  29.155  26.681  1.00  0.00    -0.200 F 
ATOM     84  C   UNL A   1      40.055  27.363  27.726  1.00  0.00     0.200 A 
ATOM     85  F   UNL A   1      38.920  25.604  28.817  1.00  0.00    -0.200 F 
ATOM     86  F   UNL A   1      40.037  26.681  26.573  1.00  0.00    -0.200 F 
ENDBRANCH  52  76
BRANCH  64  87
ATOM     87  C   UNL A   1      44.509  28.818  35.553  1.00  0.00     0.064 A 
ATOM     88  C   UNL A   1      44.460  27.595  36.236  1.00  0.00     0.173 A 
ATOM     89  C   UNL A   1      45.764  29.275  35.117  1.00  0.00     0.173 A 
ATOM     90  F   UNL A   1      43.289  27.120  36.687  1.00  0.00    -0.203 F 
ATOM     91  C   UNL A   1      45.622  26.872  36.500  1.00  0.00     0.198 A 
ATOM     92  C   UNL A   1      46.919  28.533  35.350  1.00  0.00     0.198 A 
ATOM     93  F   UNL A   1      45.870  30.435  34.452  1.00  0.00    -0.203 F 
ATOM     94  F   UNL A   1      45.556  25.734  37.203  1.00  0.00    -0.200 F 
ATOM     95  C   UNL A   1      46.849  27.338  36.050  1.00  0.00     0.200 A 
ATOM     96  F   UNL A   1      48.100  28.975  34.898  1.00  0.00    -0.200 F 
ATOM     97  F   UNL A   1      47.964  26.637  36.295  1.00  0.00    -0.200 F 
ENDBRANCH  64  87
ENDBRANCH  38  39
ENDBRANCH  30  33
ENDBRANCH  28  29
ENDBRANCH  27  28
ENDBRANCH  26  27
ENDBRANCH   1  26
TORSDOF 16
ENDMDL
MODEL 2
REMARK VINA RESULT:     -11.6      2.108      3.471
REMARK SMILES O=C(COc1ccc2c(c1)O/C(=C\c1cccs1)C2=O)NCCCCCCNC(=O)c1ccc(-c2c3nc(c(-c4c(F)c(F)c(F)c(F)c4F)c4ccc([nH]4)c(-c4c(F)c(F)c(F)c(F)c4F)c4nc(c(-c5c(F)c(F)c(F)c(F)c5F)c5ccc2[nH]5)C=C4)C=C3)cc1
REMARK SMILES IDX 24 1 23 2 22 3 21 4 1 5 2 6 3 8 4 9 5 10 6 11 10 12 7 13
REMARK SMILES IDX 9 14 8 15 11 16 19 17 12 18 20 19 13 20 14 21 15 22 18 23
REMARK SMILES IDX 16 24 17 25 25 26 26 27 27 28 28 29 29 30 30 32 31 33 32 34
REMARK SMILES IDX 93 35 33 36 92 37 34 38 35 39 36 40 86 41 37 42 91 43 85 44
REMARK SMILES IDX 87 45 38 46 90 47 84 48 83 49 39 51 71 52 51 53 70 54 52 55
REMARK SMILES IDX 55 56 69 57 88 58 53 59 54 60 68 62 89 63 56 64 40 65 41 66
REMARK SMILES IDX 49 67 42 68 43 69 47 70 50 71 44 72 45 73 48 74 46 75 72 76
REMARK SMILES IDX 73 77 81 78 74 79 75 80 79 81 82 82 76 83 77 84 80 85 78 86
REMARK SMILES IDX 57 87 58 88 66 89 59 90 60 91 64 92 67 93 61 94 62 95 65 96
REMARK SMILES IDX 63 97
REMARK H PARENT 21 7 28 31 87 50 55 61
REMARK Flexibility Score: inf
ROOT
ATOM      1  C   UNL A   1      34.587  34.323  28.047  1.00  0.00     0.002 C 
ENDROOT
BRANCH   1   2
ATOM      2  C   UNL A   1      35.749  33.709  28.837  1.00  0.00     0.021 C 
BRANCH   2   3
ATOM      3  C   UNL A   1      36.337  32.452  28.209  1.00  0.00     0.116 C 
BRANCH   3   4
ATOM      4  N   UNL A   1      35.325  31.629  27.587  1.00  0.00    -0.353 N 
ATOM      5  O   UNL A   1      36.273  29.598  28.107  1.00  0.00    -0.271 OA
ATOM      6  C   UNL A   1      35.336  30.251  27.659  1.00  0.00     0.257 C 
ATOM      7  H   UNL A   1      34.597  32.069  27.091  1.00  0.00     0.163 HD
BRANCH   6   8
ATOM      8  C   UNL A   1      34.054  29.599  27.137  1.00  0.00     0.329 C 
BRANCH   8   9
ATOM      9  O   UNL A   1      34.247  28.395  26.393  1.00  0.00    -0.484 OA
BRANCH   9  10
ATOM     10  C   UNL A   1      33.135  27.978  25.705  1.00  0.00     0.123 A 
ATOM     11  C   UNL A   1      32.621  26.668  25.830  1.00  0.00     0.047 A 
ATOM     12  C   UNL A   1      32.441  28.952  24.980  1.00  0.00     0.094 A 
ATOM     13  C   UNL A   1      31.412  26.306  25.234  1.00  0.00     0.020 A 
ATOM     14  C   UNL A   1      31.252  28.576  24.388  1.00  0.00     0.142 A 
ATOM     15  C   UNL A   1      30.750  27.285  24.529  1.00  0.00     0.069 A 
ATOM     16  O   UNL A   1      30.429  29.391  23.648  1.00  0.00    -0.452 OA
ATOM     17  C   UNL A   1      29.460  27.239  23.861  1.00  0.00     0.232 C 
ATOM     18  C   UNL A   1      29.319  28.614  23.324  1.00  0.00     0.176 C 
ATOM     19  O   UNL A   1      28.698  26.299  23.780  1.00  0.00    -0.285 OA
ATOM     20  C   UNL A   1      28.234  29.026  22.657  1.00  0.00     0.070 C 
BRANCH  20  21
ATOM     21  C   UNL A   1      28.151  30.344  22.138  1.00  0.00     0.031 A 
ATOM     22  C   UNL A   1      28.107  30.763  20.820  1.00  0.00     0.020 A 
ATOM     23  S   UNL A   1      28.075  31.687  23.207  1.00  0.00    -0.144 S 
ATOM     24  C   UNL A   1      28.052  32.178  20.689  1.00  0.00     0.012 A 
ATOM     25  C   UNL A   1      28.050  32.805  21.914  1.00  0.00     0.065 A 
ENDBRANCH  20  21
ENDBRANCH   9  10
ENDBRANCH   8   9
ENDBRANCH   6   8
ENDBRANCH   3   4
ENDBRANCH   2   3
ENDBRANCH   1   2
BRANCH   1  26
ATOM     26  C   UNL A   1      34.449  35.846  28.153  1.00  0.00     0.002 C 
BRANCH  26  27
ATOM     27  C   UNL A   1      33.193  36.338  28.872  1.00  0.00     0.021 C 
BRANCH  27  28
ATOM     28  C   UNL A   1      32.701  35.432  29.996  1.00  0.00     0.116 C 
BRANCH  28  29
ATOM     29  N   UNL A   1      32.406  36.169  31.216  1.00  0.00    -0.352 N 
ATOM     30  C   UNL A   1      32.961  36.046  32.466  1.00  0.00     0.251 C 
ATOM     31  H   UNL A   1      31.706  36.857  31.132  1.00  0.00     0.163 HD
ATOM     32  O   UNL A   1      32.467  36.634  33.422  1.00  0.00    -0.269 OA
BRANCH  30  33
ATOM     33  C   UNL A   1      34.143  35.181  32.665  1.00  0.00     0.039 A 
ATOM     34  C   UNL A   1      35.396  35.646  32.255  1.00  0.00     0.014 A 
ATOM     35  C   UNL A   1      34.022  33.921  33.255  1.00  0.00     0.014 A 
ATOM     36  C   UNL A   1      36.534  34.875  32.500  1.00  0.00     0.010 A 
ATOM     37  C   UNL A   1      35.165  33.190  33.572  1.00  0.00     0.010 A 
ATOM     38  C   UNL A   1      36.432  33.659  33.196  1.00  0.00    -0.014 A 
BRANCH  38  39
ATOM     39  C   UNL A   1      37.644  32.878  33.554  1.00  0.00     0.031 A 
ATOM     40  C   UNL A   1      38.389  33.164  34.827  1.00  0.00     0.074 A 
ATOM     41  C   UNL A   1      38.114  31.951  32.697  1.00  0.00     0.049 A 
ATOM     42  N   UNL A   1      39.491  32.625  35.283  1.00  0.00    -0.248 NA
ATOM     43  C   UNL A   1      37.836  34.219  35.690  1.00  0.00     0.031 C 
ATOM     44  C   UNL A   1      37.512  31.617  31.405  1.00  0.00     0.029 A 
ATOM     45  N   UNL A   1      39.210  31.128  32.776  1.00  0.00    -0.354 N 
ATOM     46  C   UNL A   1      39.766  33.278  36.476  1.00  0.00     0.074 A 
ATOM     47  C   UNL A   1      38.753  34.299  36.641  1.00  0.00     0.031 C 
ATOM     48  C   UNL A   1      38.232  30.646  30.823  1.00  0.00     0.029 A 
ATOM     49  C   UNL A   1      39.369  30.319  31.678  1.00  0.00     0.049 A 
ATOM     50  H   UNL A   1      39.823  31.119  33.546  1.00  0.00     0.167 HD
ATOM     51  C   UNL A   1      40.759  33.033  37.367  1.00  0.00     0.037 A 
ATOM     52  C   UNL A   1      40.331  29.423  31.386  1.00  0.00     0.037 A 
ATOM     53  C   UNL A   1      41.764  32.016  37.198  1.00  0.00     0.049 A 
ATOM     54  C   UNL A   1      41.437  29.183  32.376  1.00  0.00     0.074 A 
ATOM     55  C   UNL A   1      42.778  31.650  38.065  1.00  0.00     0.029 A 
ATOM     56  N   UNL A   1      41.891  31.210  36.073  1.00  0.00    -0.354 N 
ATOM     57  N   UNL A   1      41.644  29.750  33.539  1.00  0.00    -0.248 NA
ATOM     58  C   UNL A   1      42.441  28.173  32.015  1.00  0.00     0.031 C 
ATOM     59  C   UNL A   1      43.558  30.673  37.439  1.00  0.00     0.029 A 
ATOM     60  C   UNL A   1      42.990  30.374  36.211  1.00  0.00     0.049 A 
ATOM     61  H   UNL A   1      41.291  31.229  35.294  1.00  0.00     0.167 HD
ATOM     62  C   UNL A   1      42.783  29.152  34.061  1.00  0.00     0.074 A 
ATOM     63  C   UNL A   1      43.213  28.164  33.092  1.00  0.00     0.031 C 
ATOM     64  C   UNL A   1      43.415  29.399  35.236  1.00  0.00     0.037 A 
BRANCH  51  65
ATOM     65  C   UNL A   1      40.809  33.896  38.598  1.00  0.00     0.064 A 
ATOM     66  C   UNL A   1      40.097  33.567  39.763  1.00  0.00     0.173 A 
ATOM     67  C   UNL A   1      41.582  35.067  38.617  1.00  0.00     0.173 A 
ATOM     68  F   UNL A   1      39.334  32.464  39.801  1.00  0.00    -0.203 F 
ATOM     69  C   UNL A   1      40.117  34.402  40.879  1.00  0.00     0.198 A 
ATOM     70  C   UNL A   1      41.633  35.878  39.750  1.00  0.00     0.198 A 
ATOM     71  F   UNL A   1      42.293  35.428  37.538  1.00  0.00    -0.203 F 
ATOM     72  F   UNL A   1      39.370  34.101  41.951  1.00  0.00    -0.200 F 
ATOM     73  C   UNL A   1      40.889  35.553  40.873  1.00  0.00     0.200 A 
ATOM     74  F   UNL A   1      42.394  36.981  39.748  1.00  0.00    -0.200 F 
ATOM     75  F   UNL A   1      40.907  36.355  41.946  1.00  0.00    -0.200 F 
ENDBRANCH  51  65
BRANCH  52  76
ATOM     76  C   UNL A   1      40.271  28.676  30.102  1.00  0.00     0.064 A 
ATOM     77  C   UNL A   1      39.594  27.452  30.007  1.00  0.00     0.173 A 
ATOM     78  C   UNL A   1      40.866  29.184  28.937  1.00  0.00     0.173 A 
ATOM     79  F   UNL A   1      39.026  26.916  31.097  1.00  0.00    -0.203 F 
ATOM     80  C   UNL A   1      39.525  26.759  28.800  1.00  0.00     0.198 A 
ATOM     81  C   UNL A   1      40.769  28.506  27.724  1.00  0.00     0.198 A 
ATOM     82  F   UNL A   1      41.520  30.353  28.972  1.00  0.00    -0.203 F 
ATOM     83  F   UNL A   1      38.904  25.572  28.747  1.00  0.00    -0.200 F 
ATOM     84  C   UNL A   1      40.104  27.291  27.658  1.00  0.00     0.200 A 
ATOM     85  F   UNL A   1      41.314  29.032  26.619  1.00  0.00    -0.200 F 
ATOM     86  F   UNL A   1      40.025  26.631  26.495  1.00  0.00    -0.200 F 
ENDBRANCH  52  76
BRANCH  64  87
ATOM     87  C   UNL A   1      44.626  28.568  35.556  1.00  0.00     0.064 A 
ATOM     88  C   UNL A   1      44.525  27.341  36.229  1.00  0.00     0.173 A 
ATOM     89  C   UNL A   1      45.902  28.987  35.147  1.00  0.00     0.173 A 
ATOM     90  F   UNL A   1      43.331  26.901  36.654  1.00  0.00    -0.203 F 
ATOM     91  C   UNL A   1      45.659  26.581  36.508  1.00  0.00     0.198 A 
ATOM     92  C   UNL A   1      47.028  28.207  35.395  1.00  0.00     0.198 A 
ATOM     93  F   UNL A   1      46.057  30.147  34.493  1.00  0.00    -0.203 F 
ATOM     94  F   UNL A   1      45.543  25.440  37.202  1.00  0.00    -0.200 F 
ATOM     95  C   UNL A   1      46.907  27.010  36.084  1.00  0.00     0.200 A 
ATOM     96  F   UNL A   1      48.231  28.614  34.968  1.00  0.00    -0.200 F 
ATOM     97  F   UNL A   1      47.996  26.272  36.345  1.00  0.00    -0.200 F 
ENDBRANCH  64  87
ENDBRANCH  38  39
ENDBRANCH  30  33
ENDBRANCH  28  29
ENDBRANCH  27  28
ENDBRANCH  26  27
ENDBRANCH   1  26
TORSDOF 16
ENDMDL
MODEL 3
REMARK VINA RESULT:     -11.3      2.124      7.877
REMARK SMILES O=C(COc1ccc2c(c1)O/C(=C\c1cccs1)C2=O)NCCCCCCNC(=O)c1ccc(-c2c3nc(c(-c4c(F)c(F)c(F)c(F)c4F)c4ccc([nH]4)c(-c4c(F)c(F)c(F)c(F)c4F)c4nc(c(-c5c(F)c(F)c(F)c(F)c5F)c5ccc2[nH]5)C=C4)C=C3)cc1
REMARK SMILES IDX 24 1 23 2 22 3 21 4 1 5 2 6 3 8 4 9 5 10 6 11 10 12 7 13
REMARK SMILES IDX 9 14 8 15 11 16 19 17 12 18 20 19 13 20 14 21 15 22 18 23
REMARK SMILES IDX 16 24 17 25 25 26 26 27 27 28 28 29 29 30 30 32 31 33 32 34
REMARK SMILES IDX 93 35 33 36 92 37 34 38 35 39 36 40 86 41 37 42 91 43 85 44
REMARK SMILES IDX 87 45 38 46 90 47 84 48 83 49 39 51 71 52 51 53 70 54 52 55
REMARK SMILES IDX 55 56 69 57 88 58 53 59 54 60 68 62 89 63 56 64 40 65 41 66
REMARK SMILES IDX 49 67 42 68 43 69 47 70 50 71 44 72 45 73 48 74 46 75 72 76
REMARK SMILES IDX 73 77 81 78 74 79 75 80 79 81 82 82 76 83 77 84 80 85 78 86
REMARK SMILES IDX 57 87 58 88 66 89 59 90 60 91 64 92 67 93 61 94 62 95 65 96
REMARK SMILES IDX 63 97
REMARK H PARENT 21 7 28 31 87 50 55 61
REMARK Flexibility Score: inf
ROOT
ATOM      1  C   UNL A   1      34.708  34.284  28.033  1.00  0.00     0.002 C 
ENDROOT
BRANCH   1   2
ATOM      2  C   UNL A   1      35.853  33.669  28.846  1.00  0.00     0.021 C 
BRANCH   2   3
ATOM      3  C   UNL A   1      36.428  32.391  28.249  1.00  0.00     0.116 C 
BRANCH   3   4
ATOM      4  N   UNL A   1      35.418  31.595  27.589  1.00  0.00    -0.353 N 
ATOM      5  O   UNL A   1      36.257  29.540  28.196  1.00  0.00    -0.271 OA
ATOM      6  C   UNL A   1      35.370  30.219  27.687  1.00  0.00     0.257 C 
ATOM      7  H   UNL A   1      34.734  32.053  27.048  1.00  0.00     0.163 HD
BRANCH   6   8
ATOM      8  C   UNL A   1      34.093  29.607  27.111  1.00  0.00     0.329 C 
BRANCH   8   9
ATOM      9  O   UNL A   1      34.283  28.406  26.360  1.00  0.00    -0.484 OA
BRANCH   9  10
ATOM     10  C   UNL A   1      33.165  27.989  25.681  1.00  0.00     0.123 A 
ATOM     11  C   UNL A   1      32.651  26.679  25.811  1.00  0.00     0.047 A 
ATOM     12  C   UNL A   1      32.466  28.961  24.960  1.00  0.00     0.094 A 
ATOM     13  C   UNL A   1      31.438  26.317  25.226  1.00  0.00     0.020 A 
ATOM     14  C   UNL A   1      31.273  28.585  24.377  1.00  0.00     0.142 A 
ATOM     15  C   UNL A   1      30.771  27.295  24.524  1.00  0.00     0.069 A 
ATOM     16  O   UNL A   1      30.445  29.399  23.641  1.00  0.00    -0.452 OA
ATOM     17  C   UNL A   1      29.476  27.248  23.865  1.00  0.00     0.232 C 
ATOM     18  C   UNL A   1      29.332  28.622  23.326  1.00  0.00     0.176 C 
ATOM     19  O   UNL A   1      28.714  26.308  23.791  1.00  0.00    -0.285 OA
ATOM     20  C   UNL A   1      28.243  29.034  22.667  1.00  0.00     0.070 C 
BRANCH  20  21
ATOM     21  C   UNL A   1      28.156  30.351  22.146  1.00  0.00     0.031 A 
ATOM     22  C   UNL A   1      28.103  30.767  20.827  1.00  0.00     0.020 A 
ATOM     23  S   UNL A   1      28.089  31.696  23.213  1.00  0.00    -0.144 S 
ATOM     24  C   UNL A   1      28.047  32.183  20.694  1.00  0.00     0.012 A 
ATOM     25  C   UNL A   1      28.055  32.811  21.918  1.00  0.00     0.065 A 
ENDBRANCH  20  21
ENDBRANCH   9  10
ENDBRANCH   8   9
ENDBRANCH   6   8
ENDBRANCH   3   4
ENDBRANCH   2   3
ENDBRANCH   1   2
BRANCH   1  26
ATOM     26  C   UNL A   1      34.536  35.800  28.180  1.00  0.00     0.002 C 
BRANCH  26  27
ATOM     27  C   UNL A   1      33.238  36.246  28.856  1.00  0.00     0.021 C 
BRANCH  27  28
ATOM     28  C   UNL A   1      32.735  35.316  29.955  1.00  0.00     0.116 C 
BRANCH  28  29
ATOM     29  N   UNL A   1      32.358  36.036  31.162  1.00  0.00    -0.352 N 
ATOM     30  C   UNL A   1      32.879  35.947  32.430  1.00  0.00     0.251 C 
ATOM     31  H   UNL A   1      31.622  36.680  31.054  1.00  0.00     0.163 HD
ATOM     32  O   UNL A   1      32.320  36.505  33.368  1.00  0.00    -0.269 OA
BRANCH  30  33
ATOM     33  C   UNL A   1      34.103  35.153  32.670  1.00  0.00     0.039 A 
ATOM     34  C   UNL A   1      35.334  35.672  32.259  1.00  0.00     0.014 A 
ATOM     35  C   UNL A   1      34.042  33.907  33.297  1.00  0.00     0.014 A 
ATOM     36  C   UNL A   1      36.508  34.971  32.540  1.00  0.00     0.010 A 
ATOM     37  C   UNL A   1      35.218  33.249  33.650  1.00  0.00     0.010 A 
ATOM     38  C   UNL A   1      36.463  33.774  33.274  1.00  0.00    -0.014 A 
BRANCH  38  39
ATOM     39  C   UNL A   1      37.710  33.070  33.669  1.00  0.00     0.031 A 
ATOM     40  C   UNL A   1      38.296  32.002  32.790  1.00  0.00     0.074 A 
ATOM     41  C   UNL A   1      38.281  33.349  34.857  1.00  0.00     0.049 A 
ATOM     42  N   UNL A   1      39.345  31.245  32.990  1.00  0.00    -0.248 NA
ATOM     43  C   UNL A   1      37.591  31.728  31.529  1.00  0.00     0.031 C 
ATOM     44  C   UNL A   1      37.780  34.326  35.824  1.00  0.00     0.029 A 
ATOM     45  N   UNL A   1      39.401  32.829  35.459  1.00  0.00    -0.354 N 
ATOM     46  C   UNL A   1      39.420  30.403  31.889  1.00  0.00     0.074 A 
ATOM     47  C   UNL A   1      38.273  30.696  31.056  1.00  0.00     0.031 C 
ATOM     48  C   UNL A   1      38.599  34.352  36.886  1.00  0.00     0.029 A 
ATOM     49  C   UNL A   1      39.657  33.365  36.697  1.00  0.00     0.049 A 
ATOM     50  H   UNL A   1      39.966  32.139  35.042  1.00  0.00     0.167 HD
ATOM     51  C   UNL A   1      40.372  29.486  31.587  1.00  0.00     0.037 A 
ATOM     52  C   UNL A   1      40.628  33.083  37.586  1.00  0.00     0.037 A 
ATOM     53  C   UNL A   1      41.511  29.200  32.420  1.00  0.00     0.049 A 
ATOM     54  C   UNL A   1      41.660  32.045  37.243  1.00  0.00     0.074 A 
ATOM     55  C   UNL A   1      42.561  28.331  32.179  1.00  0.00     0.029 A 
ATOM     56  N   UNL A   1      41.741  29.767  33.667  1.00  0.00    -0.354 N 
ATOM     57  N   UNL A   1      41.768  31.310  36.163  1.00  0.00    -0.248 NA
ATOM     58  C   UNL A   1      42.711  31.801  38.240  1.00  0.00     0.031 C 
ATOM     59  C   UNL A   1      43.388  28.321  33.306  1.00  0.00     0.029 A 
ATOM     60  C   UNL A   1      42.897  29.238  34.222  1.00  0.00     0.049 A 
ATOM     61  H   UNL A   1      41.169  30.443  34.094  1.00  0.00     0.167 HD
ATOM     62  C   UNL A   1      42.907  30.537  36.337  1.00  0.00     0.074 A 
ATOM     63  C   UNL A   1      43.467  30.905  37.621  1.00  0.00     0.031 C 
ATOM     64  C   UNL A   1      43.441  29.605  35.507  1.00  0.00     0.037 A 
BRANCH  51  65
ATOM     65  C   UNL A   1      40.206  28.718  30.304  1.00  0.00     0.064 A 
ATOM     66  C   UNL A   1      39.514  27.497  30.256  1.00  0.00     0.173 A 
ATOM     67  C   UNL A   1      40.741  29.210  29.104  1.00  0.00     0.173 A 
ATOM     68  F   UNL A   1      38.988  26.974  31.374  1.00  0.00    -0.203 F 
ATOM     69  C   UNL A   1      39.409  26.775  29.069  1.00  0.00     0.198 A 
ATOM     70  C   UNL A   1      40.599  28.506  27.910  1.00  0.00     0.198 A 
ATOM     71  F   UNL A   1      41.404  30.377  29.085  1.00  0.00    -0.203 F 
ATOM     72  F   UNL A   1      38.807  25.578  29.066  1.00  0.00    -0.200 F 
ATOM     73  C   UNL A   1      39.947  27.283  27.896  1.00  0.00     0.200 A 
ATOM     74  F   UNL A   1      41.104  29.006  26.774  1.00  0.00    -0.200 F 
ATOM     75  F   UNL A   1      39.847  26.588  26.755  1.00  0.00    -0.200 F 
ENDBRANCH  51  65
BRANCH  52  76
ATOM     76  C   UNL A   1      40.672  33.814  38.879  1.00  0.00     0.064 A 
ATOM     77  C   UNL A   1      41.455  34.967  39.034  1.00  0.00     0.173 A 
ATOM     78  C   UNL A   1      39.909  33.392  39.979  1.00  0.00     0.173 A 
ATOM     79  F   UNL A   1      42.216  35.399  38.017  1.00  0.00    -0.203 F 
ATOM     80  C   UNL A   1      41.485  35.661  40.242  1.00  0.00     0.198 A 
ATOM     81  C   UNL A   1      39.915  34.105  41.177  1.00  0.00     0.198 A 
ATOM     82  F   UNL A   1      39.139  32.300  39.883  1.00  0.00    -0.203 F 
ATOM     83  F   UNL A   1      42.272  36.738  40.373  1.00  0.00    -0.200 F 
ATOM     84  C   UNL A   1      40.708  35.235  41.309  1.00  0.00     0.200 A 
ATOM     85  F   UNL A   1      39.149  33.701  42.198  1.00  0.00    -0.200 F 
ATOM     86  F   UNL A   1      40.725  35.912  42.465  1.00  0.00    -0.200 F 
ENDBRANCH  52  76
BRANCH  64  87
ATOM     87  C   UNL A   1      44.714  28.937  35.948  1.00  0.00     0.064 A 
ATOM     88  C   UNL A   1      45.974  29.485  35.667  1.00  0.00     0.173 A 
ATOM     89  C   UNL A   1      44.668  27.751  36.698  1.00  0.00     0.173 A 
ATOM     90  F   UNL A   1      46.075  30.609  34.943  1.00  0.00    -0.203 F 
ATOM     91  C   UNL A   1      47.142  28.855  36.093  1.00  0.00     0.198 A 
ATOM     92  C   UNL A   1      45.835  27.144  37.153  1.00  0.00     0.198 A 
ATOM     93  F   UNL A   1      43.490  27.186  37.003  1.00  0.00    -0.203 F 
ATOM     94  F   UNL A   1      48.335  29.368  35.765  1.00  0.00    -0.200 F 
ATOM     95  C   UNL A   1      47.071  27.690  36.843  1.00  0.00     0.200 A 
ATOM     96  F   UNL A   1      45.764  26.028  37.893  1.00  0.00    -0.200 F 
ATOM     97  F   UNL A   1      48.194  27.090  37.260  1.00  0.00    -0.200 F 
ENDBRANCH  64  87
ENDBRANCH  38  39
ENDBRANCH  30  33
ENDBRANCH  28  29
ENDBRANCH  27  28
ENDBRANCH  26  27
ENDBRANCH   1  26
TORSDOF 16
ENDMDL
