MODEL 1
REMARK VINA RESULT:     -12.2      0.000      0.000
REMARK SMILES O=C(C[C@H]1C[C@H]2CC[C@@H](C1)N2C(=O)c1c[nH]c(=O)[nH]1)NCCCCCCNC(=O)c1ccc(-c2c3nc(c(-c4c(F)c(F)c(F)c(F)c4F)c4ccc([nH]4)c(-c4c(F)c(F)c(F)c(F)c4F)c4nc(c(-c5c(F)c(F)c(F)c(F)c5F)c5ccc2[nH]5)C=C4)C=C3)cc1
REMARK SMILES IDX 23 1 22 2 21 3 20 4 1 5 2 6 3 8 4 9 5 10 10 11 6 12 9 13
REMARK SMILES IDX 7 14 11 15 8 16 12 17 13 18 14 19 15 20 19 21 16 22 17 23
REMARK SMILES IDX 18 26 24 27 25 28 26 29 27 30 28 31 29 33 30 34 31 35 92 36
REMARK SMILES IDX 32 37 91 38 33 39 34 40 35 41 85 42 36 43 90 44 84 45 86 46
REMARK SMILES IDX 37 47 89 48 83 49 82 50 38 52 70 53 50 54 69 55 51 56 54 57
REMARK SMILES IDX 68 58 87 59 52 60 53 61 67 63 88 64 55 65 39 66 40 67 48 68
REMARK SMILES IDX 41 69 42 70 46 71 49 72 43 73 44 74 47 75 45 76 71 77 72 78
REMARK SMILES IDX 80 79 73 80 74 81 78 82 81 83 75 84 76 85 79 86 77 87 56 88
REMARK SMILES IDX 57 89 65 90 58 91 59 92 63 93 66 94 60 95 61 96 64 97 62 98
REMARK H PARENT 20 7 19 24 16 25 27 32 86 51 54 62
REMARK Flexibility Score: inf
ROOT
ATOM      1  C   UNL A   1      32.628  29.578  26.927  1.00  0.00     0.002 C 
ENDROOT
BRANCH   1   2
ATOM      2  C   UNL A   1      33.717  28.765  26.213  1.00  0.00     0.021 C 
BRANCH   2   3
ATOM      3  C   UNL A   1      33.453  28.299  24.777  1.00  0.00     0.116 C 
BRANCH   3   4
ATOM      4  N   UNL A   1      32.419  27.283  24.628  1.00  0.00    -0.356 N 
ATOM      5  O   UNL A   1      32.636  27.114  22.348  1.00  0.00    -0.275 OA
ATOM      6  C   UNL A   1      32.141  26.709  23.396  1.00  0.00     0.220 C 
ATOM      7  H   UNL A   1      31.907  26.997  25.420  1.00  0.00     0.163 HD
BRANCH   6   8
ATOM      8  C   UNL A   1      31.211  25.498  23.414  1.00  0.00     0.103 C 
BRANCH   8   9
ATOM      9  C   UNL A   1      31.831  24.078  23.517  1.00  0.00     0.002 C 
ATOM     10  C   UNL A   1      33.377  23.951  23.711  1.00  0.00     0.029 C 
ATOM     11  C   UNL A   1      31.058  23.144  24.446  1.00  0.00     0.029 C 
ATOM     12  C   UNL A   1      33.867  23.377  25.074  1.00  0.00     0.086 C 
ATOM     13  C   UNL A   1      31.725  22.926  25.803  1.00  0.00     0.086 C 
ATOM     14  C   UNL A   1      33.643  24.429  26.153  1.00  0.00     0.027 C 
ATOM     15  N   UNL A   1      32.993  22.294  25.527  1.00  0.00    -0.331 N 
ATOM     16  C   UNL A   1      32.223  24.123  26.631  1.00  0.00     0.027 C 
BRANCH  15  17
ATOM     17  C   UNL A   1      33.417  21.200  26.269  1.00  0.00     0.272 C 
ATOM     18  O   UNL A   1      33.911  21.273  27.388  1.00  0.00    -0.267 OA
BRANCH  17  19
ATOM     19  C   UNL A   1      33.134  19.877  25.640  1.00  0.00     0.125 A 
ATOM     20  C   UNL A   1      32.851  19.635  24.350  1.00  0.00     0.119 A 
ATOM     21  N   UNL A   1      33.001  18.704  26.347  1.00  0.00    -0.302 N 
ATOM     22  N   UNL A   1      32.515  18.310  24.220  1.00  0.00    -0.312 N 
ATOM     23  C   UNL A   1      32.596  17.687  25.474  1.00  0.00     0.323 A 
ATOM     24  H   UNL A   1      33.165  18.597  27.312  1.00  0.00     0.172 HD
ATOM     25  H   UNL A   1      32.260  17.867  23.378  1.00  0.00     0.171 HD
ATOM     26  O   UNL A   1      32.337  16.531  25.741  1.00  0.00    -0.248 OA
ENDBRANCH  17  19
ENDBRANCH  15  17
ENDBRANCH   8   9
ENDBRANCH   6   8
ENDBRANCH   3   4
ENDBRANCH   2   3
ENDBRANCH   1   2
BRANCH   1  27
ATOM     27  C   UNL A   1      31.711  30.454  26.073  1.00  0.00     0.002 C 
BRANCH  27  28
ATOM     28  C   UNL A   1      31.483  31.900  26.497  1.00  0.00     0.021 C 
BRANCH  28  29
ATOM     29  C   UNL A   1      32.645  32.583  27.196  1.00  0.00     0.116 C 
BRANCH  29  30
ATOM     30  N   UNL A   1      32.379  33.958  27.580  1.00  0.00    -0.352 N 
ATOM     31  C   UNL A   1      33.038  34.745  28.496  1.00  0.00     0.251 C 
ATOM     32  H   UNL A   1      31.622  34.388  27.119  1.00  0.00     0.163 HD
ATOM     33  O   UNL A   1      32.647  35.884  28.730  1.00  0.00    -0.269 OA
BRANCH  31  34
ATOM     34  C   UNL A   1      34.208  34.208  29.230  1.00  0.00     0.039 A 
ATOM     35  C   UNL A   1      33.987  33.413  30.357  1.00  0.00     0.014 A 
ATOM     36  C   UNL A   1      35.513  34.477  28.813  1.00  0.00     0.014 A 
ATOM     37  C   UNL A   1      35.071  32.841  31.028  1.00  0.00     0.010 A 
ATOM     38  C   UNL A   1      36.586  33.833  29.424  1.00  0.00     0.010 A 
ATOM     39  C   UNL A   1      36.379  33.020  30.548  1.00  0.00    -0.014 A 
BRANCH  39  40
ATOM     40  C   UNL A   1      37.543  32.395  31.229  1.00  0.00     0.031 A 
ATOM     41  C   UNL A   1      38.284  31.264  30.566  1.00  0.00     0.074 A 
ATOM     42  C   UNL A   1      37.910  32.812  32.457  1.00  0.00     0.049 A 
ATOM     43  N   UNL A   1      39.284  30.548  31.017  1.00  0.00    -0.248 NA
ATOM     44  C   UNL A   1      37.820  30.863  29.228  1.00  0.00     0.031 C 
ATOM     45  C   UNL A   1      37.247  33.866  33.226  1.00  0.00     0.029 A 
ATOM     46  N   UNL A   1      38.928  32.393  33.278  1.00  0.00    -0.354 N 
ATOM     47  C   UNL A   1      39.565  29.621  30.021  1.00  0.00     0.074 A 
ATOM     48  C   UNL A   1      38.583  29.811  28.977  1.00  0.00     0.031 C 
ATOM     49  C   UNL A   1      37.887  34.027  34.396  1.00  0.00     0.029 A 
ATOM     50  C   UNL A   1      38.980  33.063  34.477  1.00  0.00     0.049 A 
ATOM     51  H   UNL A   1      39.560  31.681  33.031  1.00  0.00     0.167 HD
ATOM     52  C   UNL A   1      40.574  28.719  29.962  1.00  0.00     0.037 A 
ATOM     53  C   UNL A   1      39.810  32.909  35.526  1.00  0.00     0.037 A 
ATOM     54  C   UNL A   1      41.557  28.538  30.998  1.00  0.00     0.049 A 
ATOM     55  C   UNL A   1      40.908  31.878  35.446  1.00  0.00     0.074 A 
ATOM     56  C   UNL A   1      42.628  27.661  31.029  1.00  0.00     0.029 A 
ATOM     57  N   UNL A   1      41.591  29.251  32.187  1.00  0.00    -0.354 N 
ATOM     58  N   UNL A   1      41.196  31.045  34.475  1.00  0.00    -0.248 NA
ATOM     59  C   UNL A   1      41.806  31.778  36.604  1.00  0.00     0.031 C 
ATOM     60  C   UNL A   1      43.282  27.813  32.256  1.00  0.00     0.029 A 
ATOM     61  C   UNL A   1      42.658  28.828  32.962  1.00  0.00     0.049 A 
ATOM     62  H   UNL A   1      40.950  29.955  32.442  1.00  0.00     0.167 HD
ATOM     63  C   UNL A   1      42.329  30.356  34.886  1.00  0.00     0.074 A 
ATOM     64  C   UNL A   1      42.686  30.880  36.187  1.00  0.00     0.031 C 
ATOM     65  C   UNL A   1      43.014  29.376  34.245  1.00  0.00     0.037 A 
BRANCH  52  66
ATOM     66  C   UNL A   1      40.674  27.871  28.726  1.00  0.00     0.064 A 
ATOM     67  C   UNL A   1      39.958  26.670  28.603  1.00  0.00     0.173 A 
ATOM     68  C   UNL A   1      41.458  28.280  27.636  1.00  0.00     0.173 A 
ATOM     69  F   UNL A   1      39.204  26.226  29.619  1.00  0.00    -0.203 F 
ATOM     70  C   UNL A   1      40.047  25.896  27.448  1.00  0.00     0.198 A 
ATOM     71  C   UNL A   1      41.516  27.521  26.470  1.00  0.00     0.198 A 
ATOM     72  F   UNL A   1      42.159  29.422  27.696  1.00  0.00    -0.203 F 
ATOM     73  F   UNL A   1      39.396  24.726  27.377  1.00  0.00    -0.200 F 
ATOM     74  C   UNL A   1      40.818  26.326  26.380  1.00  0.00     0.200 A 
ATOM     75  F   UNL A   1      42.250  27.946  25.432  1.00  0.00    -0.200 F 
ATOM     76  F   UNL A   1      40.893  25.586  25.266  1.00  0.00    -0.200 F 
ENDBRANCH  52  66
BRANCH  53  77
ATOM     77  C   UNL A   1      39.652  33.753  36.743  1.00  0.00     0.064 A 
ATOM     78  C   UNL A   1      38.877  33.322  37.830  1.00  0.00     0.173 A 
ATOM     79  C   UNL A   1      40.236  35.026  36.825  1.00  0.00     0.173 A 
ATOM     80  F   UNL A   1      38.282  32.121  37.794  1.00  0.00    -0.203 F 
ATOM     81  C   UNL A   1      38.658  34.148  38.931  1.00  0.00     0.198 A 
ATOM     82  C   UNL A   1      40.046  35.835  37.942  1.00  0.00     0.198 A 
ATOM     83  F   UNL A   1      40.991  35.485  35.817  1.00  0.00    -0.203 F 
ATOM     84  F   UNL A   1      37.853  33.739  39.922  1.00  0.00    -0.200 F 
ATOM     85  C   UNL A   1      39.245  35.402  38.989  1.00  0.00     0.200 A 
ATOM     86  F   UNL A   1      40.628  37.041  38.001  1.00  0.00    -0.200 F 
ATOM     87  F   UNL A   1      39.027  36.199  40.043  1.00  0.00    -0.200 F 
ENDBRANCH  53  77
BRANCH  65  88
ATOM     88  C   UNL A   1      44.257  28.855  34.912  1.00  0.00     0.064 A 
ATOM     89  C   UNL A   1      45.516  29.434  34.696  1.00  0.00     0.173 A 
ATOM     90  C   UNL A   1      44.177  27.770  35.799  1.00  0.00     0.173 A 
ATOM     91  F   UNL A   1      45.649  30.466  33.848  1.00  0.00    -0.203 F 
ATOM     92  C   UNL A   1      46.655  28.919  35.310  1.00  0.00     0.198 A 
ATOM     93  C   UNL A   1      45.312  27.282  36.440  1.00  0.00     0.198 A 
ATOM     94  F   UNL A   1      42.996  27.185  36.051  1.00  0.00    -0.203 F 
ATOM     95  F   UNL A   1      47.856  29.446  35.037  1.00  0.00    -0.200 F 
ATOM     96  C   UNL A   1      46.551  27.849  36.186  1.00  0.00     0.200 A 
ATOM     97  F   UNL A   1      45.207  26.260  37.302  1.00  0.00    -0.200 F 
ATOM     98  F   UNL A   1      47.649  27.357  36.778  1.00  0.00    -0.200 F 
ENDBRANCH  65  88
ENDBRANCH  39  40
ENDBRANCH  31  34
ENDBRANCH  29  30
ENDBRANCH  28  29
ENDBRANCH  27  28
ENDBRANCH   1  27
TORSDOF 16
ENDMDL
MODEL 2
REMARK VINA RESULT:     -12.2      6.208     10.757
REMARK SMILES O=C(C[C@H]1C[C@H]2CC[C@@H](C1)N2C(=O)c1c[nH]c(=O)[nH]1)NCCCCCCNC(=O)c1ccc(-c2c3nc(c(-c4c(F)c(F)c(F)c(F)c4F)c4ccc([nH]4)c(-c4c(F)c(F)c(F)c(F)c4F)c4nc(c(-c5c(F)c(F)c(F)c(F)c5F)c5ccc2[nH]5)C=C4)C=C3)cc1
REMARK SMILES IDX 23 1 22 2 21 3 20 4 1 5 2 6 3 8 4 9 5 10 10 11 6 12 9 13
REMARK SMILES IDX 7 14 11 15 8 16 12 17 13 18 14 19 15 20 19 21 16 22 17 23
REMARK SMILES IDX 18 26 24 27 25 28 26 29 27 30 28 31 29 33 30 34 31 35 92 36
REMARK SMILES IDX 32 37 91 38 33 39 34 40 35 41 85 42 36 43 90 44 84 45 86 46
REMARK SMILES IDX 37 47 89 48 83 49 82 50 38 52 70 53 50 54 69 55 51 56 54 57
REMARK SMILES IDX 68 58 87 59 52 60 53 61 67 63 88 64 55 65 39 66 40 67 48 68
REMARK SMILES IDX 41 69 42 70 46 71 49 72 43 73 44 74 47 75 45 76 71 77 72 78
REMARK SMILES IDX 80 79 73 80 74 81 78 82 81 83 75 84 76 85 79 86 77 87 56 88
REMARK SMILES IDX 57 89 65 90 58 91 59 92 63 93 66 94 60 95 61 96 64 97 62 98
REMARK H PARENT 20 7 19 24 16 25 27 32 86 51 54 62
REMARK Flexibility Score: inf
ROOT
ATOM      1  C   UNL A   1      42.243  21.223  26.874  1.00  0.00     0.002 C 
ENDROOT
BRANCH   1   2
ATOM      2  C   UNL A   1      41.222  21.700  27.917  1.00  0.00     0.021 C 
BRANCH   2   3
ATOM      3  C   UNL A   1      40.415  22.969  27.618  1.00  0.00     0.116 C 
BRANCH   3   4
ATOM      4  N   UNL A   1      39.163  22.762  26.901  1.00  0.00    -0.356 N 
ATOM      5  O   UNL A   1      38.702  24.998  26.662  1.00  0.00    -0.275 OA
ATOM      6  C   UNL A   1      38.428  23.830  26.407  1.00  0.00     0.220 C 
ATOM      7  H   UNL A   1      38.833  21.844  26.765  1.00  0.00     0.163 HD
BRANCH   6   8
ATOM      8  C   UNL A   1      37.270  23.473  25.478  1.00  0.00     0.103 C 
BRANCH   8   9
ATOM      9  C   UNL A   1      36.337  22.292  25.860  1.00  0.00     0.002 C 
ATOM     10  C   UNL A   1      35.247  22.528  26.956  1.00  0.00     0.029 C 
ATOM     11  C   UNL A   1      35.781  21.541  24.652  1.00  0.00     0.029 C 
ATOM     12  C   UNL A   1      33.762  22.485  26.488  1.00  0.00     0.086 C 
ATOM     13  C   UNL A   1      34.322  21.864  24.338  1.00  0.00     0.086 C 
ATOM     14  C   UNL A   1      33.470  23.743  25.680  1.00  0.00     0.027 C 
ATOM     15  N   UNL A   1      33.561  21.436  25.488  1.00  0.00    -0.331 N 
ATOM     16  C   UNL A   1      33.843  23.324  24.257  1.00  0.00     0.027 C 
BRANCH  15  17
ATOM     17  C   UNL A   1      32.388  20.711  25.333  1.00  0.00     0.272 C 
ATOM     18  O   UNL A   1      31.267  21.204  25.322  1.00  0.00    -0.267 OA
BRANCH  17  19
ATOM     19  C   UNL A   1      32.588  19.255  25.073  1.00  0.00     0.125 A 
ATOM     20  C   UNL A   1      32.600  18.636  23.882  1.00  0.00     0.119 A 
ATOM     21  N   UNL A   1      32.670  18.302  26.063  1.00  0.00    -0.302 N 
ATOM     22  N   UNL A   1      32.670  17.282  24.095  1.00  0.00    -0.312 N 
ATOM     23  C   UNL A   1      32.710  17.033  25.476  1.00  0.00     0.323 A 
ATOM     24  H   UNL A   1      32.695  18.485  27.031  1.00  0.00     0.172 HD
ATOM     25  H   UNL A   1      32.689  16.594  23.391  1.00  0.00     0.171 HD
ATOM     26  O   UNL A   1      32.741  15.953  26.029  1.00  0.00    -0.248 OA
ENDBRANCH  17  19
ENDBRANCH  15  17
ENDBRANCH   8   9
ENDBRANCH   6   8
ENDBRANCH   3   4
ENDBRANCH   2   3
ENDBRANCH   1   2
BRANCH   1  27
ATOM     27  C   UNL A   1      41.949  19.923  26.125  1.00  0.00     0.002 C 
BRANCH  27  28
ATOM     28  C   UNL A   1      42.724  18.669  26.511  1.00  0.00     0.021 C 
BRANCH  28  29
ATOM     29  C   UNL A   1      44.180  18.625  26.086  1.00  0.00     0.116 C 
BRANCH  29  30
ATOM     30  N   UNL A   1      44.376  18.552  24.649  1.00  0.00    -0.352 N 
ATOM     31  C   UNL A   1      44.731  19.550  23.771  1.00  0.00     0.251 C 
ATOM     32  H   UNL A   1      44.236  17.664  24.246  1.00  0.00     0.163 HD
ATOM     33  O   UNL A   1      44.809  19.320  22.569  1.00  0.00    -0.269 OA
BRANCH  31  34
ATOM     34  C   UNL A   1      44.990  20.921  24.271  1.00  0.00     0.039 A 
ATOM     35  C   UNL A   1      44.540  22.008  23.517  1.00  0.00     0.014 A 
ATOM     36  C   UNL A   1      45.664  21.139  25.475  1.00  0.00     0.014 A 
ATOM     37  C   UNL A   1      44.714  23.308  24.000  1.00  0.00     0.010 A 
ATOM     38  C   UNL A   1      45.753  22.426  25.999  1.00  0.00     0.010 A 
ATOM     39  C   UNL A   1      45.294  23.527  25.260  1.00  0.00    -0.014 A 
BRANCH  39  40
ATOM     40  C   UNL A   1      45.460  24.900  25.805  1.00  0.00     0.031 A 
ATOM     41  C   UNL A   1      46.816  25.553  25.798  1.00  0.00     0.074 A 
ATOM     42  C   UNL A   1      44.405  25.544  26.344  1.00  0.00     0.049 A 
ATOM     43  N   UNL A   1      47.181  26.717  26.278  1.00  0.00    -0.248 NA
ATOM     44  C   UNL A   1      47.918  24.784  25.197  1.00  0.00     0.031 C 
ATOM     45  C   UNL A   1      43.049  25.004  26.454  1.00  0.00     0.029 A 
ATOM     46  N   UNL A   1      44.311  26.793  26.908  1.00  0.00    -0.354 N 
ATOM     47  C   UNL A   1      48.546  26.814  26.034  1.00  0.00     0.074 A 
ATOM     48  C   UNL A   1      48.960  25.565  25.437  1.00  0.00     0.031 C 
ATOM     49  C   UNL A   1      42.254  25.921  27.028  1.00  0.00     0.029 A 
ATOM     50  C   UNL A   1      43.050  27.099  27.362  1.00  0.00     0.049 A 
ATOM     51  H   UNL A   1      45.073  27.410  26.980  1.00  0.00     0.167 HD
ATOM     52  C   UNL A   1      49.373  27.866  26.251  1.00  0.00     0.037 A 
ATOM     53  C   UNL A   1      42.592  28.201  27.985  1.00  0.00     0.037 A 
ATOM     54  C   UNL A   1      48.957  29.113  26.836  1.00  0.00     0.049 A 
ATOM     55  C   UNL A   1      43.540  29.346  28.240  1.00  0.00     0.074 A 
ATOM     56  C   UNL A   1      49.713  30.244  27.087  1.00  0.00     0.029 A 
ATOM     57  N   UNL A   1      47.667  29.394  27.262  1.00  0.00    -0.354 N 
ATOM     58  N   UNL A   1      44.816  29.446  27.955  1.00  0.00    -0.248 NA
ATOM     59  C   UNL A   1      42.977  30.537  28.890  1.00  0.00     0.031 C 
ATOM     60  C   UNL A   1      48.892  31.193  27.704  1.00  0.00     0.029 A 
ATOM     61  C   UNL A   1      47.609  30.677  27.780  1.00  0.00     0.049 A 
ATOM     62  H   UNL A   1      46.905  28.772  27.203  1.00  0.00     0.167 HD
ATOM     63  C   UNL A   1      45.196  30.722  28.349  1.00  0.00     0.074 A 
ATOM     64  C   UNL A   1      44.012  31.365  28.879  1.00  0.00     0.031 C 
ATOM     65  C   UNL A   1      46.416  31.310  28.282  1.00  0.00     0.037 A 
BRANCH  52  66
ATOM     66  C   UNL A   1      50.808  27.715  25.835  1.00  0.00     0.064 A 
ATOM     67  C   UNL A   1      51.217  27.963  24.515  1.00  0.00     0.173 A 
ATOM     68  C   UNL A   1      51.793  27.359  26.769  1.00  0.00     0.173 A 
ATOM     69  F   UNL A   1      50.315  28.293  23.579  1.00  0.00    -0.203 F 
ATOM     70  C   UNL A   1      52.552  27.832  24.140  1.00  0.00     0.198 A 
ATOM     71  C   UNL A   1      53.132  27.264  26.397  1.00  0.00     0.198 A 
ATOM     72  F   UNL A   1      51.460  27.115  28.045  1.00  0.00    -0.203 F 
ATOM     73  F   UNL A   1      52.908  28.023  22.862  1.00  0.00    -0.200 F 
ATOM     74  C   UNL A   1      53.509  27.492  25.083  1.00  0.00     0.200 A 
ATOM     75  F   UNL A   1      54.059  26.950  27.313  1.00  0.00    -0.200 F 
ATOM     76  F   UNL A   1      54.795  27.378  24.722  1.00  0.00    -0.200 F 
ENDBRANCH  52  66
BRANCH  53  77
ATOM     77  C   UNL A   1      41.166  28.292  28.405  1.00  0.00     0.064 A 
ATOM     78  C   UNL A   1      40.196  28.859  27.566  1.00  0.00     0.173 A 
ATOM     79  C   UNL A   1      40.752  27.855  29.673  1.00  0.00     0.173 A 
ATOM     80  F   UNL A   1      40.543  29.310  26.351  1.00  0.00    -0.203 F 
ATOM     81  C   UNL A   1      38.880  29.024  27.993  1.00  0.00     0.198 A 
ATOM     82  C   UNL A   1      39.429  27.986  30.084  1.00  0.00     0.198 A 
ATOM     83  F   UNL A   1      41.637  27.299  30.514  1.00  0.00    -0.203 F 
ATOM     84  F   UNL A   1      37.992  29.635  27.197  1.00  0.00    -0.200 F 
ATOM     85  C   UNL A   1      38.496  28.584  29.250  1.00  0.00     0.200 A 
ATOM     86  F   UNL A   1      39.058  27.546  31.294  1.00  0.00    -0.200 F 
ATOM     87  F   UNL A   1      37.233  28.750  29.664  1.00  0.00    -0.200 F 
ENDBRANCH  53  77
BRANCH  65  88
ATOM     88  C   UNL A   1      46.517  32.742  28.729  1.00  0.00     0.064 A 
ATOM     89  C   UNL A   1      46.317  33.814  27.848  1.00  0.00     0.173 A 
ATOM     90  C   UNL A   1      46.797  33.041  30.072  1.00  0.00     0.173 A 
ATOM     91  F   UNL A   1      46.058  33.583  26.551  1.00  0.00    -0.203 F 
ATOM     92  C   UNL A   1      46.436  35.132  28.283  1.00  0.00     0.198 A 
ATOM     93  C   UNL A   1      46.877  34.359  30.512  1.00  0.00     0.198 A 
ATOM     94  F   UNL A   1      46.986  32.055  30.961  1.00  0.00    -0.203 F 
ATOM     95  F   UNL A   1      46.306  36.138  27.408  1.00  0.00    -0.200 F 
ATOM     96  C   UNL A   1      46.709  35.403  29.616  1.00  0.00     0.200 A 
ATOM     97  F   UNL A   1      47.123  34.620  31.805  1.00  0.00    -0.200 F 
ATOM     98  F   UNL A   1      46.820  36.672  30.033  1.00  0.00    -0.200 F 
ENDBRANCH  65  88
ENDBRANCH  39  40
ENDBRANCH  31  34
ENDBRANCH  29  30
ENDBRANCH  28  29
ENDBRANCH  27  28
ENDBRANCH   1  27
TORSDOF 16
ENDMDL
MODEL 3
REMARK VINA RESULT:     -12.1      6.094     10.620
REMARK SMILES O=C(C[C@H]1C[C@H]2CC[C@@H](C1)N2C(=O)c1c[nH]c(=O)[nH]1)NCCCCCCNC(=O)c1ccc(-c2c3nc(c(-c4c(F)c(F)c(F)c(F)c4F)c4ccc([nH]4)c(-c4c(F)c(F)c(F)c(F)c4F)c4nc(c(-c5c(F)c(F)c(F)c(F)c5F)c5ccc2[nH]5)C=C4)C=C3)cc1
REMARK SMILES IDX 23 1 22 2 21 3 20 4 1 5 2 6 3 8 4 9 5 10 10 11 6 12 9 13
REMARK SMILES IDX 7 14 11 15 8 16 12 17 13 18 14 19 15 20 19 21 16 22 17 23
REMARK SMILES IDX 18 26 24 27 25 28 26 29 27 30 28 31 29 33 30 34 31 35 92 36
REMARK SMILES IDX 32 37 91 38 33 39 34 40 35 41 85 42 36 43 90 44 84 45 86 46
REMARK SMILES IDX 37 47 89 48 83 49 82 50 38 52 70 53 50 54 69 55 51 56 54 57
REMARK SMILES IDX 68 58 87 59 52 60 53 61 67 63 88 64 55 65 39 66 40 67 48 68
REMARK SMILES IDX 41 69 42 70 46 71 49 72 43 73 44 74 47 75 45 76 71 77 72 78
REMARK SMILES IDX 80 79 73 80 74 81 78 82 81 83 75 84 76 85 79 86 77 87 56 88
REMARK SMILES IDX 57 89 65 90 58 91 59 92 63 93 66 94 60 95 61 96 64 97 62 98
REMARK H PARENT 20 7 19 24 16 25 27 32 86 51 54 62
REMARK Flexibility Score: inf
ROOT
ATOM      1  C   UNL A   1      41.581  21.379  26.843  1.00  0.00     0.002 C 
ENDROOT
BRANCH   1   2
ATOM      2  C   UNL A   1      40.336  22.084  27.400  1.00  0.00     0.021 C 
BRANCH   2   3
ATOM      3  C   UNL A   1      39.583  23.058  26.486  1.00  0.00     0.116 C 
BRANCH   3   4
ATOM      4  N   UNL A   1      38.231  23.398  26.912  1.00  0.00    -0.356 N 
ATOM      5  O   UNL A   1      37.435  23.734  24.784  1.00  0.00    -0.275 OA
ATOM      6  C   UNL A   1      37.223  23.646  25.990  1.00  0.00     0.220 C 
ATOM      7  H   UNL A   1      38.028  23.453  27.874  1.00  0.00     0.163 HD
BRANCH   6   8
ATOM      8  C   UNL A   1      35.810  23.755  26.556  1.00  0.00     0.103 C 
BRANCH   8   9
ATOM      9  C   UNL A   1      34.900  22.496  26.552  1.00  0.00     0.002 C 
ATOM     10  C   UNL A   1      33.356  22.693  26.411  1.00  0.00     0.029 C 
ATOM     11  C   UNL A   1      35.420  21.374  25.656  1.00  0.00     0.029 C 
ATOM     12  C   UNL A   1      32.701  22.170  25.097  1.00  0.00     0.086 C 
ATOM     13  C   UNL A   1      34.667  21.237  24.334  1.00  0.00     0.086 C 
ATOM     14  C   UNL A   1      33.099  23.095  23.954  1.00  0.00     0.027 C 
ATOM     15  N   UNL A   1      33.306  20.905  24.681  1.00  0.00    -0.331 N 
ATOM     16  C   UNL A   1      34.402  22.470  23.453  1.00  0.00     0.027 C 
BRANCH  15  17
ATOM     17  C   UNL A   1      32.630  19.892  24.015  1.00  0.00     0.272 C 
ATOM     18  O   UNL A   1      32.097  20.020  22.920  1.00  0.00    -0.267 OA
BRANCH  17  19
ATOM     19  C   UNL A   1      32.680  18.563  24.694  1.00  0.00     0.125 A 
ATOM     20  C   UNL A   1      32.869  18.326  26.002  1.00  0.00     0.119 A 
ATOM     21  N   UNL A   1      32.659  17.359  24.027  1.00  0.00    -0.302 N 
ATOM     22  N   UNL A   1      32.990  16.971  26.185  1.00  0.00    -0.312 N 
ATOM     23  C   UNL A   1      32.866  16.323  24.946  1.00  0.00     0.323 A 
ATOM     24  H   UNL A   1      32.520  17.245  23.059  1.00  0.00     0.172 HD
ATOM     25  H   UNL A   1      33.140  16.523  27.049  1.00  0.00     0.171 HD
ATOM     26  O   UNL A   1      32.954  15.133  24.724  1.00  0.00    -0.248 OA
ENDBRANCH  17  19
ENDBRANCH  15  17
ENDBRANCH   8   9
ENDBRANCH   6   8
ENDBRANCH   3   4
ENDBRANCH   2   3
ENDBRANCH   1   2
BRANCH   1  27
ATOM     27  C   UNL A   1      42.127  20.174  27.611  1.00  0.00     0.002 C 
BRANCH  27  28
ATOM     28  C   UNL A   1      42.659  18.987  26.820  1.00  0.00     0.021 C 
BRANCH  28  29
ATOM     29  C   UNL A   1      42.570  19.095  25.309  1.00  0.00     0.116 C 
BRANCH  29  30
ATOM     30  N   UNL A   1      43.800  18.753  24.617  1.00  0.00    -0.352 N 
ATOM     31  C   UNL A   1      44.897  19.543  24.358  1.00  0.00     0.251 C 
ATOM     32  H   UNL A   1      43.859  17.827  24.288  1.00  0.00     0.163 HD
ATOM     33  O   UNL A   1      45.843  19.099  23.714  1.00  0.00    -0.269 OA
BRANCH  31  34
ATOM     34  C   UNL A   1      44.927  20.948  24.828  1.00  0.00     0.039 A 
ATOM     35  C   UNL A   1      45.345  21.211  26.135  1.00  0.00     0.014 A 
ATOM     36  C   UNL A   1      44.555  22.001  23.990  1.00  0.00     0.014 A 
ATOM     37  C   UNL A   1      45.445  22.532  26.580  1.00  0.00     0.010 A 
ATOM     38  C   UNL A   1      44.743  23.318  24.402  1.00  0.00     0.010 A 
ATOM     39  C   UNL A   1      45.176  23.599  25.706  1.00  0.00    -0.014 A 
BRANCH  39  40
ATOM     40  C   UNL A   1      45.306  25.011  26.151  1.00  0.00     0.031 A 
ATOM     41  C   UNL A   1      46.645  25.697  26.095  1.00  0.00     0.074 A 
ATOM     42  C   UNL A   1      44.235  25.665  26.643  1.00  0.00     0.049 A 
ATOM     43  N   UNL A   1      46.980  26.901  26.490  1.00  0.00    -0.248 NA
ATOM     44  C   UNL A   1      47.767  24.915  25.549  1.00  0.00     0.031 C 
ATOM     45  C   UNL A   1      42.893  25.100  26.793  1.00  0.00     0.029 A 
ATOM     46  N   UNL A   1      44.108  26.949  27.115  1.00  0.00    -0.354 N 
ATOM     47  C   UNL A   1      48.342  27.016  26.237  1.00  0.00     0.074 A 
ATOM     48  C   UNL A   1      48.788  25.738  25.731  1.00  0.00     0.031 C 
ATOM     49  C   UNL A   1      42.075  26.035  27.301  1.00  0.00     0.029 A 
ATOM     50  C   UNL A   1      42.840  27.254  27.548  1.00  0.00     0.049 A 
ATOM     51  H   UNL A   1      44.855  27.588  27.142  1.00  0.00     0.167 HD
ATOM     52  C   UNL A   1      49.141  28.101  26.377  1.00  0.00     0.037 A 
ATOM     53  C   UNL A   1      42.353  28.386  28.091  1.00  0.00     0.037 A 
ATOM     54  C   UNL A   1      48.693  29.376  26.872  1.00  0.00     0.049 A 
ATOM     55  C   UNL A   1      43.271  29.570  28.261  1.00  0.00     0.074 A 
ATOM     56  C   UNL A   1      49.420  30.542  27.039  1.00  0.00     0.029 A 
ATOM     57  N   UNL A   1      47.396  29.653  27.277  1.00  0.00    -0.354 N 
ATOM     58  N   UNL A   1      44.544  29.683  27.968  1.00  0.00    -0.248 NA
ATOM     59  C   UNL A   1      42.678  30.790  28.824  1.00  0.00     0.031 C 
ATOM     60  C   UNL A   1      48.574  31.511  27.587  1.00  0.00     0.029 A 
ATOM     61  C   UNL A   1      47.304  30.969  27.702  1.00  0.00     0.049 A 
ATOM     62  H   UNL A   1      46.650  29.010  27.265  1.00  0.00     0.167 HD
ATOM     63  C   UNL A   1      44.891  30.993  28.270  1.00  0.00     0.074 A 
ATOM     64  C   UNL A   1      43.691  31.641  28.753  1.00  0.00     0.031 C 
ATOM     65  C   UNL A   1      46.096  31.606  28.158  1.00  0.00     0.037 A 
BRANCH  52  66
ATOM     66  C   UNL A   1      50.580  27.958  25.971  1.00  0.00     0.064 A 
ATOM     67  C   UNL A   1      51.588  27.720  26.920  1.00  0.00     0.173 A 
ATOM     68  C   UNL A   1      50.955  28.015  24.620  1.00  0.00     0.173 A 
ATOM     69  F   UNL A   1      51.287  27.669  28.226  1.00  0.00    -0.203 F 
ATOM     70  C   UNL A   1      52.918  27.577  26.534  1.00  0.00     0.198 A 
ATOM     71  C   UNL A   1      52.281  27.836  24.236  1.00  0.00     0.198 A 
ATOM     72  F   UNL A   1      50.033  28.234  23.671  1.00  0.00    -0.203 F 
ATOM     73  F   UNL A   1      53.868  27.405  27.464  1.00  0.00    -0.200 F 
ATOM     74  C   UNL A   1      53.263  27.626  25.193  1.00  0.00     0.200 A 
ATOM     75  F   UNL A   1      52.611  27.868  22.937  1.00  0.00    -0.200 F 
ATOM     76  F   UNL A   1      54.542  27.476  24.822  1.00  0.00    -0.200 F 
ENDBRANCH  52  66
BRANCH  53  77
ATOM     77  C   UNL A   1      40.925  28.470  28.505  1.00  0.00     0.064 A 
ATOM     78  C   UNL A   1      39.944  28.964  27.633  1.00  0.00     0.173 A 
ATOM     79  C   UNL A   1      40.520  28.101  29.797  1.00  0.00     0.173 A 
ATOM     80  F   UNL A   1      40.282  29.349  26.394  1.00  0.00    -0.203 F 
ATOM     81  C   UNL A   1      38.624  29.124  28.050  1.00  0.00     0.198 A 
ATOM     82  C   UNL A   1      39.193  28.227  30.200  1.00  0.00     0.198 A 
ATOM     83  F   UNL A   1      41.416  27.617  30.670  1.00  0.00    -0.203 F 
ATOM     84  F   UNL A   1      37.723  29.667  27.219  1.00  0.00    -0.200 F 
ATOM     85  C   UNL A   1      38.248  28.753  29.331  1.00  0.00     0.200 A 
ATOM     86  F   UNL A   1      38.831  27.852  31.435  1.00  0.00    -0.200 F 
ATOM     87  F   UNL A   1      36.981  28.915  29.735  1.00  0.00    -0.200 F 
ENDBRANCH  53  77
BRANCH  65  88
ATOM     88  C   UNL A   1      46.159  33.068  28.502  1.00  0.00     0.064 A 
ATOM     89  C   UNL A   1      46.468  33.518  29.794  1.00  0.00     0.173 A 
ATOM     90  C   UNL A   1      45.928  34.034  27.510  1.00  0.00     0.173 A 
ATOM     91  F   UNL A   1      46.687  32.635  30.782  1.00  0.00    -0.203 F 
ATOM     92  C   UNL A   1      46.501  34.878  30.090  1.00  0.00     0.198 A 
ATOM     93  C   UNL A   1      45.999  35.393  27.801  1.00  0.00     0.198 A 
ATOM     94  F   UNL A   1      45.639  33.661  26.254  1.00  0.00    -0.203 F 
ATOM     95  F   UNL A   1      46.733  35.282  31.347  1.00  0.00    -0.200 F 
ATOM     96  C   UNL A   1      46.273  35.814  29.093  1.00  0.00     0.200 A 
ATOM     97  F   UNL A   1      45.798  36.297  26.831  1.00  0.00    -0.200 F 
ATOM     98  F   UNL A   1      46.308  37.123  29.380  1.00  0.00    -0.200 F 
ENDBRANCH  65  88
ENDBRANCH  39  40
ENDBRANCH  31  34
ENDBRANCH  29  30
ENDBRANCH  28  29
ENDBRANCH  27  28
ENDBRANCH   1  27
TORSDOF 16
ENDMDL
