MODEL 1
REMARK VINA RESULT:     -13.5      0.000      0.000
REMARK SMILES CC1=C[C@@H](C)[C@H]2C(=O)N([C@H](Cc3ccccc3)C(=O)NCCCCCCNC(=O)c3ccc(-c4c5nc(c(-c6c(F)c(F)c(F)c(F)c6F)c6ccc([nH]6)c(-c6c(F)c(F)c(F)c(F)c6F)c6nc(c(-c7c(F)c(F)c(F)c(F)c7F)c7ccc4[nH]7)C=C6)C=C5)cc3)C(=O)[C@H]2C1
REMARK SMILES IDX 23 1 22 2 21 3 20 4 18 5 19 6 10 8 9 9 1 10 2 11 3 12 96 13
REMARK SMILES IDX 4 14 95 15 6 16 5 17 93 18 7 19 94 20 8 21 11 22 12 23 13 24
REMARK SMILES IDX 17 25 14 26 16 27 15 28 24 29 25 30 26 31 27 32 28 33 29 35
REMARK SMILES IDX 30 36 31 37 92 38 32 39 91 40 33 41 34 42 35 43 85 44 36 45
REMARK SMILES IDX 90 46 84 47 86 48 37 49 89 50 83 51 82 52 38 54 70 55 50 56
REMARK SMILES IDX 69 57 51 58 54 59 68 60 87 61 52 62 53 63 67 65 88 66 55 67
REMARK SMILES IDX 39 68 40 69 48 70 41 71 42 72 46 73 49 74 43 75 44 76 47 77
REMARK SMILES IDX 45 78 71 79 72 80 80 81 73 82 74 83 78 84 81 85 75 86 76 87
REMARK SMILES IDX 79 88 77 89 56 90 57 91 65 92 58 93 59 94 63 95 66 96 60 97
REMARK SMILES IDX 61 98 64 99 62 100
REMARK H PARENT 20 7 27 34 86 53 54 64
REMARK Flexibility Score: inf
ROOT
ATOM      1  C   UNL A   1      31.912  29.825  27.037  1.00  0.00     0.002 C 
ENDROOT
BRANCH   1   2
ATOM      2  C   UNL A   1      33.397  29.465  26.998  1.00  0.00     0.021 C 
BRANCH   2   3
ATOM      3  C   UNL A   1      33.727  28.252  26.136  1.00  0.00     0.116 C 
BRANCH   3   4
ATOM      4  N   UNL A   1      34.251  28.638  24.846  1.00  0.00    -0.354 N 
ATOM      5  C   UNL A   1      33.903  28.205  23.602  1.00  0.00     0.243 C 
ATOM      6  O   UNL A   1      34.616  28.571  22.663  1.00  0.00    -0.273 OA
ATOM      7  H   UNL A   1      34.966  29.315  24.870  1.00  0.00     0.163 HD
BRANCH   5   8
ATOM      8  C   UNL A   1      32.708  27.255  23.367  1.00  0.00     0.186 C 
BRANCH   8   9
ATOM      9  N   UNL A   1      33.190  25.901  23.029  1.00  0.00    -0.269 N 
ATOM     10  C   UNL A   1      33.959  20.381  24.885  1.00  0.00     0.039 C 
ATOM     11  C   UNL A   1      33.633  21.629  24.114  1.00  0.00    -0.076 C 
ATOM     12  C   UNL A   1      32.446  21.784  23.504  1.00  0.00    -0.024 C 
ATOM     13  C   UNL A   1      34.717  22.679  24.073  1.00  0.00     0.044 C 
ATOM     14  C   UNL A   1      32.053  23.027  22.750  1.00  0.00     0.022 C 
ATOM     15  C   UNL A   1      34.415  23.915  23.238  1.00  0.00     0.096 C 
ATOM     16  C   UNL A   1      33.316  23.743  22.206  1.00  0.00     0.098 C 
ATOM     17  C   UNL A   1      31.125  23.813  23.687  1.00  0.00     0.013 C 
ATOM     18  C   UNL A   1      33.922  25.162  23.952  1.00  0.00     0.234 C 
ATOM     19  C   UNL A   1      33.130  25.197  21.865  1.00  0.00     0.234 C 
ATOM     20  O   UNL A   1      34.204  25.478  25.085  1.00  0.00    -0.274 OA
ATOM     21  O   UNL A   1      33.119  25.607  20.715  1.00  0.00    -0.274 OA
ENDBRANCH   8   9
BRANCH   8  22
ATOM     22  C   UNL A   1      31.621  28.001  22.532  1.00  0.00     0.071 C 
BRANCH  22  23
ATOM     23  C   UNL A   1      30.159  27.915  22.897  1.00  0.00    -0.045 A 
ATOM     24  C   UNL A   1      29.264  28.945  22.586  1.00  0.00     0.004 A 
ATOM     25  C   UNL A   1      29.648  26.761  23.507  1.00  0.00     0.004 A 
ATOM     26  C   UNL A   1      27.917  28.849  22.956  1.00  0.00     0.000 A 
ATOM     27  C   UNL A   1      28.321  26.686  23.927  1.00  0.00     0.000 A 
ATOM     28  C   UNL A   1      27.454  27.735  23.653  1.00  0.00     0.000 A 
ENDBRANCH  22  23
ENDBRANCH   8  22
ENDBRANCH   5   8
ENDBRANCH   3   4
ENDBRANCH   2   3
ENDBRANCH   1   2
BRANCH   1  29
ATOM     29  C   UNL A   1      31.467  30.874  26.013  1.00  0.00     0.002 C 
BRANCH  29  30
ATOM     30  C   UNL A   1      31.287  32.294  26.556  1.00  0.00     0.021 C 
BRANCH  30  31
ATOM     31  C   UNL A   1      32.504  32.878  27.265  1.00  0.00     0.116 C 
BRANCH  31  32
ATOM     32  N   UNL A   1      32.319  34.271  27.632  1.00  0.00    -0.352 N 
ATOM     33  C   UNL A   1      32.976  35.017  28.576  1.00  0.00     0.251 C 
ATOM     34  H   UNL A   1      31.620  34.749  27.130  1.00  0.00     0.163 HD
ATOM     35  O   UNL A   1      32.583  36.145  28.855  1.00  0.00    -0.269 OA
BRANCH  33  36
ATOM     36  C   UNL A   1      34.147  34.452  29.278  1.00  0.00     0.039 A 
ATOM     37  C   UNL A   1      33.940  33.764  30.478  1.00  0.00     0.014 A 
ATOM     38  C   UNL A   1      35.440  34.610  28.771  1.00  0.00     0.014 A 
ATOM     39  C   UNL A   1      35.024  33.189  31.141  1.00  0.00     0.010 A 
ATOM     40  C   UNL A   1      36.512  33.984  29.402  1.00  0.00     0.010 A 
ATOM     41  C   UNL A   1      36.314  33.271  30.594  1.00  0.00    -0.014 A 
BRANCH  41  42
ATOM     42  C   UNL A   1      37.470  32.620  31.258  1.00  0.00     0.031 A 
ATOM     43  C   UNL A   1      38.196  31.497  30.575  1.00  0.00     0.074 A 
ATOM     44  C   UNL A   1      37.829  33.005  32.497  1.00  0.00     0.049 A 
ATOM     45  N   UNL A   1      39.180  30.756  31.019  1.00  0.00    -0.248 NA
ATOM     46  C   UNL A   1      37.741  31.143  29.222  1.00  0.00     0.031 C 
ATOM     47  C   UNL A   1      37.180  34.061  33.275  1.00  0.00     0.029 A 
ATOM     48  N   UNL A   1      38.825  32.548  33.323  1.00  0.00    -0.354 N 
ATOM     49  C   UNL A   1      39.452  29.844  30.007  1.00  0.00     0.074 A 
ATOM     50  C   UNL A   1      38.499  30.093  28.947  1.00  0.00     0.031 C 
ATOM     51  C   UNL A   1      37.807  34.185  34.457  1.00  0.00     0.029 A 
ATOM     52  C   UNL A   1      38.878  33.196  34.533  1.00  0.00     0.049 A 
ATOM     53  H   UNL A   1      39.443  31.824  33.071  1.00  0.00     0.167 HD
ATOM     54  C   UNL A   1      40.421  28.900  29.961  1.00  0.00     0.037 A 
ATOM     55  C   UNL A   1      39.696  33.008  35.585  1.00  0.00     0.037 A 
ATOM     56  C   UNL A   1      41.383  28.671  31.008  1.00  0.00     0.049 A 
ATOM     57  C   UNL A   1      40.760  31.946  35.510  1.00  0.00     0.074 A 
ATOM     58  C   UNL A   1      42.431  27.769  31.035  1.00  0.00     0.029 A 
ATOM     59  N   UNL A   1      41.411  29.357  32.214  1.00  0.00    -0.354 N 
ATOM     60  N   UNL A   1      41.037  31.122  34.530  1.00  0.00    -0.248 NA
ATOM     61  C   UNL A   1      41.626  31.794  36.686  1.00  0.00     0.031 C 
ATOM     62  C   UNL A   1      43.074  27.884  32.272  1.00  0.00     0.029 A 
ATOM     63  C   UNL A   1      42.452  28.887  32.999  1.00  0.00     0.049 A 
ATOM     64  H   UNL A   1      40.786  30.071  32.473  1.00  0.00     0.167 HD
ATOM     65  C   UNL A   1      42.124  30.372  34.959  1.00  0.00     0.074 A 
ATOM     66  C   UNL A   1      42.462  30.848  36.283  1.00  0.00     0.031 C 
ATOM     67  C   UNL A   1      42.781  29.379  34.311  1.00  0.00     0.037 A 
BRANCH  54  68
ATOM     68  C   UNL A   1      40.495  28.045  28.730  1.00  0.00     0.064 A 
ATOM     69  C   UNL A   1      41.252  28.431  27.613  1.00  0.00     0.173 A 
ATOM     70  C   UNL A   1      39.831  26.810  28.678  1.00  0.00     0.173 A 
ATOM     71  F   UNL A   1      41.895  29.609  27.610  1.00  0.00    -0.203 F 
ATOM     72  C   UNL A   1      41.320  27.625  26.481  1.00  0.00     0.198 A 
ATOM     73  C   UNL A   1      39.924  25.994  27.554  1.00  0.00     0.198 A 
ATOM     74  F   UNL A   1      39.097  26.392  29.721  1.00  0.00    -0.203 F 
ATOM     75  F   UNL A   1      42.012  28.036  25.409  1.00  0.00    -0.200 F 
ATOM     76  C   UNL A   1      40.661  26.406  26.454  1.00  0.00     0.200 A 
ATOM     77  F   UNL A   1      39.295  24.810  27.534  1.00  0.00    -0.200 F 
ATOM     78  F   UNL A   1      40.733  25.628  25.364  1.00  0.00    -0.200 F 
ENDBRANCH  54  68
BRANCH  55  79
ATOM     79  C   UNL A   1      39.562  33.866  36.789  1.00  0.00     0.064 A 
ATOM     80  C   UNL A   1      38.775  33.459  37.874  1.00  0.00     0.173 A 
ATOM     81  C   UNL A   1      40.216  35.103  36.882  1.00  0.00     0.173 A 
ATOM     82  F   UNL A   1      38.115  32.293  37.820  1.00  0.00    -0.203 F 
ATOM     83  C   UNL A   1      38.632  34.263  39.002  1.00  0.00     0.198 A 
ATOM     84  C   UNL A   1      40.092  35.896  38.021  1.00  0.00     0.198 A 
ATOM     85  F   UNL A   1      40.983  35.535  35.873  1.00  0.00    -0.203 F 
ATOM     86  F   UNL A   1      37.841  33.868  40.009  1.00  0.00    -0.200 F 
ATOM     87  C   UNL A   1      39.295  35.479  39.078  1.00  0.00     0.200 A 
ATOM     88  F   UNL A   1      40.744  37.065  38.096  1.00  0.00    -0.200 F 
ATOM     89  F   UNL A   1      39.161  36.252  40.164  1.00  0.00    -0.200 F 
ENDBRANCH  55  79
BRANCH  67  90
ATOM     90  C   UNL A   1      43.955  28.762  35.014  1.00  0.00     0.064 A 
ATOM     91  C   UNL A   1      45.246  29.293  34.889  1.00  0.00     0.173 A 
ATOM     92  C   UNL A   1      43.775  27.654  35.853  1.00  0.00     0.173 A 
ATOM     93  F   UNL A   1      45.469  30.344  34.085  1.00  0.00    -0.203 F 
ATOM     94  C   UNL A   1      46.320  28.723  35.565  1.00  0.00     0.198 A 
ATOM     95  C   UNL A   1      44.848  27.101  36.548  1.00  0.00     0.198 A 
ATOM     96  F   UNL A   1      42.557  27.112  36.009  1.00  0.00    -0.203 F 
ATOM     97  F   UNL A   1      47.554  29.221  35.399  1.00  0.00    -0.200 F 
ATOM     98  C   UNL A   1      46.120  27.633  36.399  1.00  0.00     0.200 A 
ATOM     99  F   UNL A   1      44.651  26.055  37.362  1.00  0.00    -0.200 F 
ATOM    100  F   UNL A   1      47.155  27.090  37.053  1.00  0.00    -0.200 F 
ENDBRANCH  67  90
ENDBRANCH  41  42
ENDBRANCH  33  36
ENDBRANCH  31  32
ENDBRANCH  30  31
ENDBRANCH  29  30
ENDBRANCH   1  29
TORSDOF 16
ENDMDL
MODEL 2
REMARK VINA RESULT:     -13.4      0.481      6.988
REMARK SMILES CC1=C[C@@H](C)[C@H]2C(=O)N([C@H](Cc3ccccc3)C(=O)NCCCCCCNC(=O)c3ccc(-c4c5nc(c(-c6c(F)c(F)c(F)c(F)c6F)c6ccc([nH]6)c(-c6c(F)c(F)c(F)c(F)c6F)c6nc(c(-c7c(F)c(F)c(F)c(F)c7F)c7ccc4[nH]7)C=C6)C=C5)cc3)C(=O)[C@H]2C1
REMARK SMILES IDX 23 1 22 2 21 3 20 4 18 5 19 6 10 8 9 9 1 10 2 11 3 12 96 13
REMARK SMILES IDX 4 14 95 15 6 16 5 17 93 18 7 19 94 20 8 21 11 22 12 23 13 24
REMARK SMILES IDX 17 25 14 26 16 27 15 28 24 29 25 30 26 31 27 32 28 33 29 35
REMARK SMILES IDX 30 36 31 37 92 38 32 39 91 40 33 41 34 42 35 43 85 44 36 45
REMARK SMILES IDX 90 46 84 47 86 48 37 49 89 50 83 51 82 52 38 54 70 55 50 56
REMARK SMILES IDX 69 57 51 58 54 59 68 60 87 61 52 62 53 63 67 65 88 66 55 67
REMARK SMILES IDX 39 68 40 69 48 70 41 71 42 72 46 73 49 74 43 75 44 76 47 77
REMARK SMILES IDX 45 78 71 79 72 80 80 81 73 82 74 83 78 84 81 85 75 86 76 87
REMARK SMILES IDX 79 88 77 89 56 90 57 91 65 92 58 93 59 94 63 95 66 96 60 97
REMARK SMILES IDX 61 98 64 99 62 100
REMARK H PARENT 20 7 27 34 86 53 54 64
REMARK Flexibility Score: inf
ROOT
ATOM      1  C   UNL A   1      31.478  30.189  25.450  1.00  0.00     0.002 C 
ENDROOT
BRANCH   1   2
ATOM      2  C   UNL A   1      32.094  29.429  26.623  1.00  0.00     0.021 C 
BRANCH   2   3
ATOM      3  C   UNL A   1      33.129  28.383  26.222  1.00  0.00     0.116 C 
BRANCH   3   4
ATOM      4  N   UNL A   1      33.795  28.736  24.990  1.00  0.00    -0.354 N 
ATOM      5  C   UNL A   1      33.634  28.222  23.737  1.00  0.00     0.243 C 
ATOM      6  O   UNL A   1      34.443  28.583  22.878  1.00  0.00    -0.273 OA
ATOM      7  H   UNL A   1      34.465  29.453  25.066  1.00  0.00     0.163 HD
BRANCH   5   8
ATOM      8  C   UNL A   1      32.531  27.194  23.406  1.00  0.00     0.186 C 
BRANCH   8   9
ATOM      9  N   UNL A   1      33.130  25.880  23.103  1.00  0.00    -0.269 N 
ATOM     10  C   UNL A   1      34.174  20.424  25.012  1.00  0.00     0.039 C 
ATOM     11  C   UNL A   1      33.810  21.647  24.220  1.00  0.00    -0.076 C 
ATOM     12  C   UNL A   1      32.658  21.718  23.533  1.00  0.00    -0.024 C 
ATOM     13  C   UNL A   1      34.816  22.773  24.249  1.00  0.00     0.044 C 
ATOM     14  C   UNL A   1      32.226  22.932  22.754  1.00  0.00     0.022 C 
ATOM     15  C   UNL A   1      34.479  23.987  23.395  1.00  0.00     0.096 C 
ATOM     16  C   UNL A   1      33.467  23.739  22.293  1.00  0.00     0.098 C 
ATOM     17  C   UNL A   1      31.184  23.646  23.626  1.00  0.00     0.013 C 
ATOM     18  C   UNL A   1      33.851  25.193  24.072  1.00  0.00     0.234 C 
ATOM     19  C   UNL A   1      33.198  25.178  21.938  1.00  0.00     0.234 C 
ATOM     20  O   UNL A   1      34.035  25.524  25.222  1.00  0.00    -0.274 OA
ATOM     21  O   UNL A   1      33.233  25.589  20.789  1.00  0.00    -0.274 OA
ENDBRANCH   8   9
BRANCH   8  22
ATOM     22  C   UNL A   1      31.462  27.871  22.491  1.00  0.00     0.071 C 
BRANCH  22  23
ATOM     23  C   UNL A   1      30.006  27.910  22.886  1.00  0.00    -0.045 A 
ATOM     24  C   UNL A   1      29.404  26.848  23.571  1.00  0.00     0.004 A 
ATOM     25  C   UNL A   1      29.232  29.049  22.627  1.00  0.00     0.004 A 
ATOM     26  C   UNL A   1      28.045  26.901  23.906  1.00  0.00     0.000 A 
ATOM     27  C   UNL A   1      27.867  29.082  22.908  1.00  0.00     0.000 A 
ATOM     28  C   UNL A   1      27.271  28.003  23.546  1.00  0.00     0.000 A 
ENDBRANCH  22  23
ENDBRANCH   8  22
ENDBRANCH   5   8
ENDBRANCH   3   4
ENDBRANCH   2   3
ENDBRANCH   1   2
BRANCH   1  29
ATOM     29  C   UNL A   1      30.968  31.596  25.778  1.00  0.00     0.002 C 
BRANCH  29  30
ATOM     30  C   UNL A   1      31.416  32.163  27.128  1.00  0.00     0.021 C 
BRANCH  30  31
ATOM     31  C   UNL A   1      32.660  33.045  27.083  1.00  0.00     0.116 C 
BRANCH  31  32
ATOM     32  N   UNL A   1      32.429  34.361  27.651  1.00  0.00    -0.352 N 
ATOM     33  C   UNL A   1      33.041  34.967  28.718  1.00  0.00     0.251 C 
ATOM     34  H   UNL A   1      31.734  34.896  27.205  1.00  0.00     0.163 HD
ATOM     35  O   UNL A   1      32.612  36.031  29.153  1.00  0.00    -0.269 OA
BRANCH  33  36
ATOM     36  C   UNL A   1      34.205  34.325  29.363  1.00  0.00     0.039 A 
ATOM     37  C   UNL A   1      33.977  33.416  30.400  1.00  0.00     0.014 A 
ATOM     38  C   UNL A   1      35.510  34.626  28.964  1.00  0.00     0.014 A 
ATOM     39  C   UNL A   1      35.057  32.768  31.001  1.00  0.00     0.010 A 
ATOM     40  C   UNL A   1      36.582  33.934  29.523  1.00  0.00     0.010 A 
ATOM     41  C   UNL A   1      36.365  33.002  30.548  1.00  0.00    -0.014 A 
BRANCH  41  42
ATOM     42  C   UNL A   1      37.520  32.282  31.139  1.00  0.00     0.031 A 
ATOM     43  C   UNL A   1      38.018  32.653  32.507  1.00  0.00     0.074 A 
ATOM     44  C   UNL A   1      38.151  31.334  30.422  1.00  0.00     0.049 A 
ATOM     45  N   UNL A   1      39.053  32.192  33.163  1.00  0.00    -0.248 NA
ATOM     46  C   UNL A   1      37.268  33.695  33.223  1.00  0.00     0.031 C 
ATOM     47  C   UNL A   1      37.781  30.911  29.071  1.00  0.00     0.029 A 
ATOM     48  N   UNL A   1      39.242  30.560  30.726  1.00  0.00    -0.354 N 
ATOM     49  C   UNL A   1      39.084  32.897  34.360  1.00  0.00     0.074 A 
ATOM     50  C   UNL A   1      37.994  33.847  34.320  1.00  0.00     0.031 C 
ATOM     51  C   UNL A   1      38.617  29.939  28.670  1.00  0.00     0.029 A 
ATOM     52  C   UNL A   1      39.602  29.696  29.720  1.00  0.00     0.049 A 
ATOM     53  H   UNL A   1      39.722  30.618  31.584  1.00  0.00     0.167 HD
ATOM     54  C   UNL A   1      39.933  32.748  35.405  1.00  0.00     0.037 A 
ATOM     55  C   UNL A   1      40.615  28.811  29.654  1.00  0.00     0.037 A 
ATOM     56  C   UNL A   1      41.001  31.785  35.452  1.00  0.00     0.049 A 
ATOM     57  C   UNL A   1      41.547  28.673  30.826  1.00  0.00     0.074 A 
ATOM     58  C   UNL A   1      41.887  31.527  36.483  1.00  0.00     0.029 A 
ATOM     59  N   UNL A   1      41.327  30.918  34.418  1.00  0.00    -0.354 N 
ATOM     60  N   UNL A   1      41.539  29.310  31.971  1.00  0.00    -0.248 NA
ATOM     61  C   UNL A   1      42.629  27.686  30.697  1.00  0.00     0.031 C 
ATOM     62  C   UNL A   1      42.770  30.527  36.061  1.00  0.00     0.029 A 
ATOM     63  C   UNL A   1      42.409  30.134  34.783  1.00  0.00     0.049 A 
ATOM     64  H   UNL A   1      40.857  30.868  33.554  1.00  0.00     0.167 HD
ATOM     65  C   UNL A   1      42.592  28.787  32.707  1.00  0.00     0.074 A 
ATOM     66  C   UNL A   1      43.212  27.770  31.884  1.00  0.00     0.031 C 
ATOM     67  C   UNL A   1      43.007  29.119  33.954  1.00  0.00     0.037 A 
BRANCH  54  68
ATOM     68  C   UNL A   1      39.734  33.647  36.590  1.00  0.00     0.064 A 
ATOM     69  C   UNL A   1      40.381  34.888  36.686  1.00  0.00     0.173 A 
ATOM     70  C   UNL A   1      38.861  33.280  37.625  1.00  0.00     0.173 A 
ATOM     71  F   UNL A   1      41.235  35.278  35.728  1.00  0.00    -0.203 F 
ATOM     72  C   UNL A   1      40.182  35.717  37.786  1.00  0.00     0.198 A 
ATOM     73  C   UNL A   1      38.643  34.123  38.711  1.00  0.00     0.198 A 
ATOM     74  F   UNL A   1      38.214  32.105  37.580  1.00  0.00    -0.203 F 
ATOM     75  F   UNL A   1      40.846  36.877  37.878  1.00  0.00    -0.200 F 
ATOM     76  C   UNL A   1      39.309  35.337  38.794  1.00  0.00     0.200 A 
ATOM     77  F   UNL A   1      37.791  33.760  39.679  1.00  0.00    -0.200 F 
ATOM     78  F   UNL A   1      39.113  36.139  39.850  1.00  0.00    -0.200 F 
ENDBRANCH  54  68
BRANCH  55  79
ATOM     79  C   UNL A   1      40.780  27.966  28.445  1.00  0.00     0.064 A 
ATOM     80  C   UNL A   1      40.163  26.710  28.360  1.00  0.00     0.173 A 
ATOM     81  C   UNL A   1      41.552  28.392  27.354  1.00  0.00     0.173 A 
ATOM     82  F   UNL A   1      39.433  26.254  29.388  1.00  0.00    -0.203 F 
ATOM     83  C   UNL A   1      40.324  25.905  27.236  1.00  0.00     0.198 A 
ATOM     84  C   UNL A   1      41.692  27.595  26.220  1.00  0.00     0.198 A 
ATOM     85  F   UNL A   1      42.159  29.586  27.386  1.00  0.00    -0.203 F 
ATOM     86  F   UNL A   1      39.756  24.692  27.196  1.00  0.00    -0.200 F 
ATOM     87  C   UNL A   1      41.083  26.349  26.164  1.00  0.00     0.200 A 
ATOM     88  F   UNL A   1      42.417  28.033  25.181  1.00  0.00    -0.200 F 
ATOM     89  F   UNL A   1      41.235  25.576  25.080  1.00  0.00    -0.200 F 
ENDBRANCH  55  79
BRANCH  67  90
ATOM     90  C   UNL A   1      44.166  28.353  34.518  1.00  0.00     0.064 A 
ATOM     91  C   UNL A   1      45.484  28.812  34.386  1.00  0.00     0.173 A 
ATOM     92  C   UNL A   1      43.950  27.167  35.234  1.00  0.00     0.173 A 
ATOM     93  F   UNL A   1      45.742  29.934  33.696  1.00  0.00    -0.203 F 
ATOM     94  C   UNL A   1      46.547  28.100  34.935  1.00  0.00     0.198 A 
ATOM     95  C   UNL A   1      45.012  26.470  35.804  1.00  0.00     0.198 A 
ATOM     96  F   UNL A   1      42.706  26.688  35.392  1.00  0.00    -0.203 F 
ATOM     97  F   UNL A   1      47.803  28.536  34.762  1.00  0.00    -0.200 F 
ATOM     98  C   UNL A   1      46.310  26.935  35.649  1.00  0.00     0.200 A 
ATOM     99  F   UNL A   1      44.781  25.351  36.503  1.00  0.00    -0.200 F 
ATOM    100  F   UNL A   1      47.334  26.254  36.181  1.00  0.00    -0.200 F 
ENDBRANCH  67  90
ENDBRANCH  41  42
ENDBRANCH  33  36
ENDBRANCH  31  32
ENDBRANCH  30  31
ENDBRANCH  29  30
ENDBRANCH   1  29
TORSDOF 16
ENDMDL
MODEL 3
REMARK VINA RESULT:     -13.3      5.416      9.950
REMARK SMILES CC1=C[C@@H](C)[C@H]2C(=O)N([C@H](Cc3ccccc3)C(=O)NCCCCCCNC(=O)c3ccc(-c4c5nc(c(-c6c(F)c(F)c(F)c(F)c6F)c6ccc([nH]6)c(-c6c(F)c(F)c(F)c(F)c6F)c6nc(c(-c7c(F)c(F)c(F)c(F)c7F)c7ccc4[nH]7)C=C6)C=C5)cc3)C(=O)[C@H]2C1
REMARK SMILES IDX 23 1 22 2 21 3 20 4 18 5 19 6 10 8 9 9 1 10 2 11 3 12 96 13
REMARK SMILES IDX 4 14 95 15 6 16 5 17 93 18 7 19 94 20 8 21 11 22 12 23 13 24
REMARK SMILES IDX 17 25 14 26 16 27 15 28 24 29 25 30 26 31 27 32 28 33 29 35
REMARK SMILES IDX 30 36 31 37 92 38 32 39 91 40 33 41 34 42 35 43 85 44 36 45
REMARK SMILES IDX 90 46 84 47 86 48 37 49 89 50 83 51 82 52 38 54 70 55 50 56
REMARK SMILES IDX 69 57 51 58 54 59 68 60 87 61 52 62 53 63 67 65 88 66 55 67
REMARK SMILES IDX 39 68 40 69 48 70 41 71 42 72 46 73 49 74 43 75 44 76 47 77
REMARK SMILES IDX 45 78 71 79 72 80 80 81 73 82 74 83 78 84 81 85 75 86 76 87
REMARK SMILES IDX 79 88 77 89 56 90 57 91 65 92 58 93 59 94 63 95 66 96 60 97
REMARK SMILES IDX 61 98 64 99 62 100
REMARK H PARENT 20 7 27 34 86 53 54 64
REMARK Flexibility Score: inf
ROOT
ATOM      1  C   UNL A   1      37.494  21.578  24.565  1.00  0.00     0.002 C 
ENDROOT
BRANCH   1   2
ATOM      2  C   UNL A   1      37.619  22.574  25.717  1.00  0.00     0.021 C 
BRANCH   2   3
ATOM      3  C   UNL A   1      36.504  23.613  25.774  1.00  0.00     0.116 C 
BRANCH   3   4
ATOM      4  N   UNL A   1      35.504  23.271  26.759  1.00  0.00    -0.354 N 
ATOM      5  C   UNL A   1      34.356  22.549  26.616  1.00  0.00     0.243 C 
ATOM      6  O   UNL A   1      33.583  22.534  27.578  1.00  0.00    -0.273 OA
ATOM      7  H   UNL A   1      35.676  23.610  27.667  1.00  0.00     0.163 HD
BRANCH   5   8
ATOM      8  C   UNL A   1      34.000  21.823  25.301  1.00  0.00     0.186 C 
BRANCH   8   9
ATOM      9  N   UNL A   1      33.307  22.745  24.380  1.00  0.00    -0.269 N 
ATOM     10  C   UNL A   1      29.168  26.871  23.790  1.00  0.00     0.039 C 
ATOM     11  C   UNL A   1      30.423  26.047  23.741  1.00  0.00    -0.076 C 
ATOM     12  C   UNL A   1      31.625  26.587  24.002  1.00  0.00    -0.024 C 
ATOM     13  C   UNL A   1      30.240  24.591  23.384  1.00  0.00     0.044 C 
ATOM     14  C   UNL A   1      32.909  25.799  24.005  1.00  0.00     0.022 C 
ATOM     15  C   UNL A   1      31.516  23.770  23.270  1.00  0.00     0.096 C 
ATOM     16  C   UNL A   1      32.785  24.574  23.063  1.00  0.00     0.098 C 
ATOM     17  C   UNL A   1      33.245  25.544  25.481  1.00  0.00     0.013 C 
ATOM     18  C   UNL A   1      31.929  22.913  24.455  1.00  0.00     0.234 C 
ATOM     19  C   UNL A   1      33.771  23.466  23.322  1.00  0.00     0.234 C 
ATOM     20  O   UNL A   1      31.170  22.407  25.250  1.00  0.00    -0.274 OA
ATOM     21  O   UNL A   1      34.695  23.217  22.564  1.00  0.00    -0.274 OA
ENDBRANCH   8   9
BRANCH   8  22
ATOM     22  C   UNL A   1      33.463  20.396  25.635  1.00  0.00     0.071 C 
BRANCH  22  23
ATOM     23  C   UNL A   1      33.380  19.324  24.577  1.00  0.00    -0.045 A 
ATOM     24  C   UNL A   1      32.434  19.382  23.548  1.00  0.00     0.004 A 
ATOM     25  C   UNL A   1      34.300  18.266  24.567  1.00  0.00     0.004 A 
ATOM     26  C   UNL A   1      32.364  18.361  22.591  1.00  0.00     0.000 A 
ATOM     27  C   UNL A   1      34.197  17.221  23.651  1.00  0.00     0.000 A 
ATOM     28  C   UNL A   1      33.224  17.266  22.662  1.00  0.00     0.000 A 
ENDBRANCH  22  23
ENDBRANCH   8  22
ENDBRANCH   5   8
ENDBRANCH   3   4
ENDBRANCH   2   3
ENDBRANCH   1   2
BRANCH   1  29
ATOM     29  C   UNL A   1      37.229  20.128  24.981  1.00  0.00     0.002 C 
BRANCH  29  30
ATOM     30  C   UNL A   1      38.463  19.223  25.052  1.00  0.00     0.021 C 
BRANCH  30  31
ATOM     31  C   UNL A   1      39.588  19.728  25.950  1.00  0.00     0.116 C 
BRANCH  31  32
ATOM     32  N   UNL A   1      40.734  18.838  25.958  1.00  0.00    -0.352 N 
ATOM     33  C   UNL A   1      42.067  19.137  26.078  1.00  0.00     0.251 C 
ATOM     34  H   UNL A   1      40.525  17.880  25.864  1.00  0.00     0.163 HD
ATOM     35  O   UNL A   1      42.913  18.264  25.912  1.00  0.00    -0.269 OA
BRANCH  33  36
ATOM     36  C   UNL A   1      42.488  20.520  26.382  1.00  0.00     0.039 A 
ATOM     37  C   UNL A   1      42.802  21.372  25.319  1.00  0.00     0.014 A 
ATOM     38  C   UNL A   1      42.590  20.971  27.701  1.00  0.00     0.014 A 
ATOM     39  C   UNL A   1      43.166  22.694  25.577  1.00  0.00     0.010 A 
ATOM     40  C   UNL A   1      42.895  22.307  27.953  1.00  0.00     0.010 A 
ATOM     41  C   UNL A   1      43.188  23.179  26.894  1.00  0.00    -0.014 A 
BRANCH  41  42
ATOM     42  C   UNL A   1      43.521  24.595  27.184  1.00  0.00     0.031 A 
ATOM     43  C   UNL A   1      44.919  25.100  26.964  1.00  0.00     0.074 A 
ATOM     44  C   UNL A   1      42.579  25.409  27.695  1.00  0.00     0.049 A 
ATOM     45  N   UNL A   1      45.423  26.280  27.223  1.00  0.00    -0.248 NA
ATOM     46  C   UNL A   1      45.884  24.146  26.399  1.00  0.00     0.031 C 
ATOM     47  C   UNL A   1      41.197  25.025  27.983  1.00  0.00     0.029 A 
ATOM     48  N   UNL A   1      42.643  26.728  28.070  1.00  0.00    -0.354 N 
ATOM     49  C   UNL A   1      46.762  26.205  26.866  1.00  0.00     0.074 A 
ATOM     50  C   UNL A   1      47.005  24.852  26.416  1.00  0.00     0.031 C 
ATOM     51  C   UNL A   1      40.537  26.089  28.470  1.00  0.00     0.029 A 
ATOM     52  C   UNL A   1      41.458  27.218  28.561  1.00  0.00     0.049 A 
ATOM     53  H   UNL A   1      43.461  27.270  27.993  1.00  0.00     0.167 HD
ATOM     54  C   UNL A   1      47.699  27.183  26.892  1.00  0.00     0.037 A 
ATOM     55  C   UNL A   1      41.152  28.441  29.034  1.00  0.00     0.037 A 
ATOM     56  C   UNL A   1      47.449  28.535  27.317  1.00  0.00     0.049 A 
ATOM     57  C   UNL A   1      42.214  29.506  29.059  1.00  0.00     0.074 A 
ATOM     58  C   UNL A   1      48.320  29.609  27.338  1.00  0.00     0.029 A 
ATOM     59  N   UNL A   1      46.231  28.997  27.797  1.00  0.00    -0.354 N 
ATOM     60  N   UNL A   1      43.465  29.438  28.675  1.00  0.00    -0.248 NA
ATOM     61  C   UNL A   1      41.818  30.822  29.580  1.00  0.00     0.031 C 
ATOM     62  C   UNL A   1      47.640  30.714  27.861  1.00  0.00     0.029 A 
ATOM     63  C   UNL A   1      46.334  30.339  28.129  1.00  0.00     0.049 A 
ATOM     64  H   UNL A   1      45.416  28.452  27.887  1.00  0.00     0.167 HD
ATOM     65  C   UNL A   1      43.998  30.702  28.881  1.00  0.00     0.074 A 
ATOM     66  C   UNL A   1      42.931  31.522  29.415  1.00  0.00     0.031 C 
ATOM     67  C   UNL A   1      45.259  31.142  28.650  1.00  0.00     0.037 A 
BRANCH  54  68
ATOM     68  C   UNL A   1      49.084  26.826  26.438  1.00  0.00     0.064 A 
ATOM     69  C   UNL A   1      50.035  26.304  27.328  1.00  0.00     0.173 A 
ATOM     70  C   UNL A   1      49.455  26.974  25.094  1.00  0.00     0.173 A 
ATOM     71  F   UNL A   1      49.732  26.156  28.627  1.00  0.00    -0.203 F 
ATOM     72  C   UNL A   1      51.314  25.968  26.894  1.00  0.00     0.198 A 
ATOM     73  C   UNL A   1      50.726  26.611  24.657  1.00  0.00     0.198 A 
ATOM     74  F   UNL A   1      48.581  27.464  24.201  1.00  0.00    -0.203 F 
ATOM     75  F   UNL A   1      52.220  25.515  27.771  1.00  0.00    -0.200 F 
ATOM     76  C   UNL A   1      51.657  26.116  25.559  1.00  0.00     0.200 A 
ATOM     77  F   UNL A   1      51.052  26.744  23.364  1.00  0.00    -0.200 F 
ATOM     78  F   UNL A   1      52.887  25.786  25.141  1.00  0.00    -0.200 F 
ENDBRANCH  54  68
BRANCH  55  79
ATOM     79  C   UNL A   1      39.771  28.732  29.495  1.00  0.00     0.064 A 
ATOM     80  C   UNL A   1      39.385  28.463  30.815  1.00  0.00     0.173 A 
ATOM     81  C   UNL A   1      38.814  29.285  28.632  1.00  0.00     0.173 A 
ATOM     82  F   UNL A   1      40.262  27.915  31.669  1.00  0.00    -0.203 F 
ATOM     83  C   UNL A   1      38.088  28.720  31.252  1.00  0.00     0.198 A 
ATOM     84  C   UNL A   1      37.523  29.564  29.077  1.00  0.00     0.198 A 
ATOM     85  F   UNL A   1      39.135  29.563  27.362  1.00  0.00    -0.203 F 
ATOM     86  F   UNL A   1      37.733  28.416  32.507  1.00  0.00    -0.200 F 
ATOM     87  C   UNL A   1      37.159  29.276  30.385  1.00  0.00     0.200 A 
ATOM     88  F   UNL A   1      36.631  30.112  28.240  1.00  0.00    -0.200 F 
ATOM     89  F   UNL A   1      35.912  29.527  30.805  1.00  0.00    -0.200 F 
ENDBRANCH  55  79
BRANCH  67  90
ATOM     90  C   UNL A   1      45.544  32.586  28.939  1.00  0.00     0.064 A 
ATOM     91  C   UNL A   1      46.056  32.999  30.177  1.00  0.00     0.173 A 
ATOM     92  C   UNL A   1      45.342  33.560  27.951  1.00  0.00     0.173 A 
ATOM     93  F   UNL A   1      46.252  32.105  31.159  1.00  0.00    -0.203 F 
ATOM     94  C   UNL A   1      46.337  34.340  30.422  1.00  0.00     0.198 A 
ATOM     95  C   UNL A   1      45.649  34.897  28.191  1.00  0.00     0.198 A 
ATOM     96  F   UNL A   1      44.859  33.214  26.748  1.00  0.00    -0.203 F 
ATOM     97  F   UNL A   1      46.787  34.719  31.627  1.00  0.00    -0.200 F 
ATOM     98  C   UNL A   1      46.140  35.286  29.427  1.00  0.00     0.200 A 
ATOM     99  F   UNL A   1      45.468  35.809  27.225  1.00  0.00    -0.200 F 
ATOM    100  F   UNL A   1      46.417  36.576  29.664  1.00  0.00    -0.200 F 
ENDBRANCH  67  90
ENDBRANCH  41  42
ENDBRANCH  33  36
ENDBRANCH  31  32
ENDBRANCH  30  31
ENDBRANCH  29  30
ENDBRANCH   1  29
TORSDOF 16
ENDMDL
