MODEL 1
REMARK VINA RESULT:     -11.1      0.000      0.000
REMARK SMILES CCCC(O)(CCC)[C@@]1(C)CC[C@@H](C(=O)NCCCCCCNC(=O)c2ccc(-c3c4nc(c(-c5c(F)c(F)c(F)c(F)c5F)c5ccc([nH]5)c(-c5c(F)c(F)c(F)c(F)c5F)c5nc(c(-c6c(F)c(F)c(F)c(F)c6F)c6ccc3[nH]6)C=C5)C=C4)cc2)C(C)(C)O1
REMARK SMILES IDX 19 1 18 2 17 3 16 4 14 5 15 6 13 8 9 9 10 10 11 11 92 12
REMARK SMILES IDX 12 13 89 14 90 15 91 16 4 17 3 18 2 19 1 20 5 21 6 23 7 24
REMARK SMILES IDX 8 25 20 26 21 27 22 28 23 29 24 30 25 32 26 33 27 34 88 35
REMARK SMILES IDX 28 36 87 37 29 38 30 39 31 40 81 41 32 42 86 43 80 44 82 45
REMARK SMILES IDX 33 46 85 47 79 48 78 49 34 51 66 52 46 53 65 54 47 55 50 56
REMARK SMILES IDX 64 57 83 58 48 59 49 60 63 62 84 63 51 64 35 65 36 66 44 67
REMARK SMILES IDX 37 68 38 69 42 70 45 71 39 72 40 73 43 74 41 75 67 76 68 77
REMARK SMILES IDX 76 78 69 79 70 80 74 81 77 82 71 83 72 84 75 85 73 86 52 87
REMARK SMILES IDX 53 88 61 89 54 90 55 91 59 92 62 93 56 94 57 95 60 96 58 97
REMARK H PARENT 16 7 5 22 23 31 82 50 50 61
REMARK Flexibility Score: inf
ROOT
ATOM      1  C   UNL A   1      34.518  21.637  25.773  1.00  0.00     0.002 C 
ENDROOT
BRANCH   1   2
ATOM      2  C   UNL A   1      33.302  20.717  25.707  1.00  0.00     0.021 C 
BRANCH   2   3
ATOM      3  C   UNL A   1      32.005  21.404  25.280  1.00  0.00     0.116 C 
BRANCH   3   4
ATOM      4  N   UNL A   1      31.540  22.355  26.272  1.00  0.00    -0.356 N 
ATOM      5  C   UNL A   1      31.626  23.710  26.347  1.00  0.00     0.226 C 
ATOM      6  O   UNL A   1      31.183  24.230  27.377  1.00  0.00    -0.275 OA
ATOM      7  H   UNL A   1      31.075  21.942  27.034  1.00  0.00     0.163 HD
BRANCH   5   8
ATOM      8  C   UNL A   1      32.240  24.598  25.257  1.00  0.00     0.110 C 
ATOM      9  C   UNL A   1      32.912  27.200  23.941  1.00  0.00     0.095 C 
ATOM     10  C   UNL A   1      33.516  27.589  22.568  1.00  0.00     0.045 C 
ATOM     11  C   UNL A   1      33.970  26.309  24.634  1.00  0.00     0.039 C 
ATOM     12  O   UNL A   1      31.783  26.396  23.556  1.00  0.00    -0.366 OA
ATOM     13  C   UNL A   1      33.443  25.400  25.730  1.00  0.00     0.019 C 
ATOM     14  C   UNL A   1      31.223  25.353  24.366  1.00  0.00     0.075 C 
ATOM     15  C   UNL A   1      29.986  25.896  25.076  1.00  0.00     0.043 C 
ATOM     16  C   UNL A   1      30.663  24.353  23.321  1.00  0.00     0.043 C 
BRANCH   9  17
ATOM     17  C   UNL A   1      32.500  28.520  24.753  1.00  0.00     0.093 C 
BRANCH  17  18
ATOM     18  C   UNL A   1      30.966  28.875  24.759  1.00  0.00     0.038 C 
BRANCH  18  19
ATOM     19  C   UNL A   1      30.317  29.605  23.568  1.00  0.00    -0.000 C 
ATOM     20  C   UNL A   1      29.580  28.708  22.584  1.00  0.00     0.004 C 
ENDBRANCH  18  19
ENDBRANCH  17  18
BRANCH  17  21
ATOM     21  O   UNL A   1      33.191  29.665  24.196  1.00  0.00    -0.387 OA
ATOM     22  H   UNL A   1      34.006  29.371  23.762  1.00  0.00     0.211 HD
ENDBRANCH  17  21
BRANCH  17  23
ATOM     23  C   UNL A   1      32.977  28.557  26.250  1.00  0.00     0.038 C 
BRANCH  23  24
ATOM     24  C   UNL A   1      33.177  29.883  26.986  1.00  0.00    -0.000 C 
ATOM     25  C   UNL A   1      34.602  30.121  27.468  1.00  0.00     0.004 C 
ENDBRANCH  23  24
ENDBRANCH  17  23
ENDBRANCH   9  17
ENDBRANCH   5   8
ENDBRANCH   3   4
ENDBRANCH   2   3
ENDBRANCH   1   2
BRANCH   1  26
ATOM     26  C   UNL A   1      35.115  22.018  24.416  1.00  0.00     0.002 C 
BRANCH  26  27
ATOM     27  C   UNL A   1      36.087  23.203  24.429  1.00  0.00     0.021 C 
BRANCH  27  28
ATOM     28  C   UNL A   1      36.789  23.456  25.762  1.00  0.00     0.116 C 
BRANCH  28  29
ATOM     29  N   UNL A   1      37.899  22.544  25.978  1.00  0.00    -0.352 N 
ATOM     30  C   UNL A   1      39.179  22.800  26.396  1.00  0.00     0.251 C 
ATOM     31  H   UNL A   1      37.700  21.597  25.799  1.00  0.00     0.163 HD
ATOM     32  O   UNL A   1      40.037  21.927  26.322  1.00  0.00    -0.269 OA
BRANCH  30  33
ATOM     33  C   UNL A   1      39.534  24.134  26.923  1.00  0.00     0.039 A 
ATOM     34  C   UNL A   1      39.238  24.427  28.256  1.00  0.00     0.014 A 
ATOM     35  C   UNL A   1      40.125  25.100  26.104  1.00  0.00     0.014 A 
ATOM     36  C   UNL A   1      39.584  25.672  28.784  1.00  0.00     0.010 A 
ATOM     37  C   UNL A   1      40.530  26.316  26.648  1.00  0.00     0.010 A 
ATOM     38  C   UNL A   1      40.259  26.615  27.991  1.00  0.00    -0.014 A 
BRANCH  38  39
ATOM     39  C   UNL A   1      40.699  27.908  28.569  1.00  0.00     0.031 A 
ATOM     40  C   UNL A   1      42.135  28.126  28.949  1.00  0.00     0.074 A 
ATOM     41  C   UNL A   1      39.787  28.871  28.797  1.00  0.00     0.049 A 
ATOM     42  N   UNL A   1      42.702  29.188  29.468  1.00  0.00    -0.248 NA
ATOM     43  C   UNL A   1      43.053  26.996  28.747  1.00  0.00     0.031 C 
ATOM     44  C   UNL A   1      38.352  28.751  28.533  1.00  0.00     0.029 A 
ATOM     45  N   UNL A   1      39.926  30.136  29.308  1.00  0.00    -0.354 N 
ATOM     46  C   UNL A   1      44.034  28.848  29.663  1.00  0.00     0.074 A 
ATOM     47  C   UNL A   1      44.181  27.468  29.257  1.00  0.00     0.031 C 
ATOM     48  C   UNL A   1      37.748  29.904  28.860  1.00  0.00     0.029 A 
ATOM     49  C   UNL A   1      38.746  30.832  29.383  1.00  0.00     0.049 A 
ATOM     50  H   UNL A   1      40.792  30.509  29.595  1.00  0.00     0.167 HD
ATOM     51  C   UNL A   1      45.046  29.627  30.117  1.00  0.00     0.037 A 
ATOM     52  C   UNL A   1      38.496  32.080  29.819  1.00  0.00     0.037 A 
ATOM     53  C   UNL A   1      44.897  31.006  30.501  1.00  0.00     0.049 A 
ATOM     54  C   UNL A   1      39.639  32.932  30.297  1.00  0.00     0.074 A 
ATOM     55  C   UNL A   1      45.873  31.903  30.898  1.00  0.00     0.029 A 
ATOM     56  N   UNL A   1      43.688  31.687  30.543  1.00  0.00    -0.354 N 
ATOM     57  N   UNL A   1      40.911  32.632  30.391  1.00  0.00    -0.248 NA
ATOM     58  C   UNL A   1      39.311  34.300  30.718  1.00  0.00     0.031 C 
ATOM     59  C   UNL A   1      45.248  33.112  31.230  1.00  0.00     0.029 A 
ATOM     60  C   UNL A   1      43.889  32.985  30.989  1.00  0.00     0.049 A 
ATOM     61  H   UNL A   1      42.816  31.305  30.295  1.00  0.00     0.167 HD
ATOM     62  C   UNL A   1      41.540  33.775  30.865  1.00  0.00     0.074 A 
ATOM     63  C   UNL A   1      40.509  34.783  31.017  1.00  0.00     0.031 C 
ATOM     64  C   UNL A   1      42.851  33.972  31.149  1.00  0.00     0.037 A 
BRANCH  51  65
ATOM     65  C   UNL A   1      46.406  28.997  30.226  1.00  0.00     0.064 A 
ATOM     66  C   UNL A   1      47.309  28.999  29.151  1.00  0.00     0.173 A 
ATOM     67  C   UNL A   1      46.820  28.402  31.427  1.00  0.00     0.173 A 
ATOM     68  F   UNL A   1      46.959  29.547  27.977  1.00  0.00    -0.203 F 
ATOM     69  C   UNL A   1      48.559  28.396  29.263  1.00  0.00     0.198 A 
ATOM     70  C   UNL A   1      48.085  27.828  31.545  1.00  0.00     0.198 A 
ATOM     71  F   UNL A   1      46.001  28.377  32.489  1.00  0.00    -0.203 F 
ATOM     72  F   UNL A   1      49.381  28.362  28.204  1.00  0.00    -0.200 F 
ATOM     73  C   UNL A   1      48.948  27.817  30.460  1.00  0.00     0.200 A 
ATOM     74  F   UNL A   1      48.464  27.279  32.707  1.00  0.00    -0.200 F 
ATOM     75  F   UNL A   1      50.153  27.238  30.568  1.00  0.00    -0.200 F 
ENDBRANCH  51  65
BRANCH  52  76
ATOM     76  C   UNL A   1      37.107  32.604  29.784  1.00  0.00     0.064 A 
ATOM     77  C   UNL A   1      36.612  33.257  28.648  1.00  0.00     0.173 A 
ATOM     78  C   UNL A   1      36.239  32.438  30.873  1.00  0.00     0.173 A 
ATOM     79  F   UNL A   1      37.412  33.456  27.589  1.00  0.00    -0.203 F 
ATOM     80  C   UNL A   1      35.304  33.734  28.604  1.00  0.00     0.198 A 
ATOM     81  C   UNL A   1      34.923  32.892  30.819  1.00  0.00     0.198 A 
ATOM     82  F   UNL A   1      36.663  31.812  31.982  1.00  0.00    -0.203 F 
ATOM     83  F   UNL A   1      34.865  34.384  27.519  1.00  0.00    -0.200 F 
ATOM     84  C   UNL A   1      34.458  33.544  29.687  1.00  0.00     0.200 A 
ATOM     85  F   UNL A   1      34.105  32.692  31.861  1.00  0.00    -0.200 F 
ATOM     86  F   UNL A   1      33.196  33.992  29.641  1.00  0.00    -0.200 F 
ENDBRANCH  52  76
BRANCH  64  87
ATOM     87  C   UNL A   1      43.244  35.334  31.645  1.00  0.00     0.064 A 
ATOM     88  C   UNL A   1      43.682  36.336  30.768  1.00  0.00     0.173 A 
ATOM     89  C   UNL A   1      43.158  35.645  33.010  1.00  0.00     0.173 A 
ATOM     90  F   UNL A   1      43.797  36.082  29.456  1.00  0.00    -0.203 F 
ATOM     91  C   UNL A   1      44.053  37.591  31.244  1.00  0.00     0.198 A 
ATOM     92  C   UNL A   1      43.499  36.911  33.478  1.00  0.00     0.198 A 
ATOM     93  F   UNL A   1      42.738  34.724  33.890  1.00  0.00    -0.203 F 
ATOM     94  F   UNL A   1      44.521  38.516  30.394  1.00  0.00    -0.200 F 
ATOM     95  C   UNL A   1      43.955  37.880  32.597  1.00  0.00     0.200 A 
ATOM     96  F   UNL A   1      43.392  37.192  34.784  1.00  0.00    -0.200 F 
ATOM     97  F   UNL A   1      44.309  39.088  33.052  1.00  0.00    -0.200 F 
ENDBRANCH  64  87
ENDBRANCH  38  39
ENDBRANCH  30  33
ENDBRANCH  28  29
ENDBRANCH  27  28
ENDBRANCH  26  27
ENDBRANCH   1  26
TORSDOF 19
ENDMDL
MODEL 2
REMARK VINA RESULT:     -11.0      2.140      3.185
REMARK SMILES CCCC(O)(CCC)[C@@]1(C)CC[C@@H](C(=O)NCCCCCCNC(=O)c2ccc(-c3c4nc(c(-c5c(F)c(F)c(F)c(F)c5F)c5ccc([nH]5)c(-c5c(F)c(F)c(F)c(F)c5F)c5nc(c(-c6c(F)c(F)c(F)c(F)c6F)c6ccc3[nH]6)C=C5)C=C4)cc2)C(C)(C)O1
REMARK SMILES IDX 19 1 18 2 17 3 16 4 14 5 15 6 13 8 9 9 10 10 11 11 92 12
REMARK SMILES IDX 12 13 89 14 90 15 91 16 4 17 3 18 2 19 1 20 5 21 6 23 7 24
REMARK SMILES IDX 8 25 20 26 21 27 22 28 23 29 24 30 25 32 26 33 27 34 88 35
REMARK SMILES IDX 28 36 87 37 29 38 30 39 31 40 81 41 32 42 86 43 80 44 82 45
REMARK SMILES IDX 33 46 85 47 79 48 78 49 34 51 66 52 46 53 65 54 47 55 50 56
REMARK SMILES IDX 64 57 83 58 48 59 49 60 63 62 84 63 51 64 35 65 36 66 44 67
REMARK SMILES IDX 37 68 38 69 42 70 45 71 39 72 40 73 43 74 41 75 67 76 68 77
REMARK SMILES IDX 76 78 69 79 70 80 74 81 77 82 71 83 72 84 75 85 73 86 52 87
REMARK SMILES IDX 53 88 61 89 54 90 55 91 59 92 62 93 56 94 57 95 60 96 58 97
REMARK H PARENT 16 7 5 22 23 31 82 50 50 61
REMARK Flexibility Score: inf
ROOT
ATOM      1  C   UNL A   1      34.319  20.575  24.587  1.00  0.00     0.002 C 
ENDROOT
BRANCH   1   2
ATOM      2  C   UNL A   1      33.283  20.515  25.706  1.00  0.00     0.021 C 
BRANCH   2   3
ATOM      3  C   UNL A   1      31.962  21.218  25.390  1.00  0.00     0.116 C 
BRANCH   3   4
ATOM      4  N   UNL A   1      31.608  22.193  26.404  1.00  0.00    -0.356 N 
ATOM      5  C   UNL A   1      31.748  23.545  26.458  1.00  0.00     0.226 C 
ATOM      6  O   UNL A   1      31.403  24.089  27.512  1.00  0.00    -0.275 OA
ATOM      7  H   UNL A   1      31.188  21.804  27.204  1.00  0.00     0.163 HD
BRANCH   5   8
ATOM      8  C   UNL A   1      32.308  24.401  25.314  1.00  0.00     0.110 C 
ATOM      9  C   UNL A   1      32.946  26.965  23.911  1.00  0.00     0.095 C 
ATOM     10  C   UNL A   1      33.469  27.317  22.495  1.00  0.00     0.045 C 
ATOM     11  C   UNL A   1      34.028  26.064  24.551  1.00  0.00     0.039 C 
ATOM     12  O   UNL A   1      31.780  26.178  23.612  1.00  0.00    -0.366 OA
ATOM     13  C   UNL A   1      33.555  25.185  25.695  1.00  0.00     0.019 C 
ATOM     14  C   UNL A   1      31.251  25.161  24.476  1.00  0.00     0.075 C 
ATOM     15  C   UNL A   1      30.074  25.742  25.252  1.00  0.00     0.043 C 
ATOM     16  C   UNL A   1      30.607  24.155  23.487  1.00  0.00     0.043 C 
BRANCH   9  17
ATOM     17  C   UNL A   1      32.613  28.307  24.722  1.00  0.00     0.093 C 
BRANCH  17  18
ATOM     18  C   UNL A   1      31.101  28.745  24.739  1.00  0.00     0.038 C 
BRANCH  18  19
ATOM     19  C   UNL A   1      30.458  29.421  23.513  1.00  0.00    -0.000 C 
ATOM     20  C   UNL A   1      29.461  28.561  22.750  1.00  0.00     0.004 C 
ENDBRANCH  18  19
ENDBRANCH  17  18
BRANCH  17  21
ATOM     21  O   UNL A   1      33.361  29.412  24.157  1.00  0.00    -0.387 OA
ATOM     22  H   UNL A   1      34.229  29.466  24.585  1.00  0.00     0.211 HD
ENDBRANCH  17  21
BRANCH  17  23
ATOM     23  C   UNL A   1      33.103  28.322  26.215  1.00  0.00     0.038 C 
BRANCH  23  24
ATOM     24  C   UNL A   1      34.440  28.952  26.605  1.00  0.00    -0.000 C 
ATOM     25  C   UNL A   1      34.327  30.077  27.626  1.00  0.00     0.004 C 
ENDBRANCH  23  24
ENDBRANCH  17  23
ENDBRANCH   9  17
ENDBRANCH   5   8
ENDBRANCH   3   4
ENDBRANCH   2   3
ENDBRANCH   1   2
BRANCH   1  26
ATOM     26  C   UNL A   1      34.699  21.985  24.132  1.00  0.00     0.002 C 
BRANCH  26  27
ATOM     27  C   UNL A   1      36.172  22.366  24.313  1.00  0.00     0.021 C 
BRANCH  27  28
ATOM     28  C   UNL A   1      36.684  22.326  25.752  1.00  0.00     0.116 C 
BRANCH  28  29
ATOM     29  N   UNL A   1      37.703  21.309  25.942  1.00  0.00    -0.352 N 
ATOM     30  C   UNL A   1      39.036  21.442  26.232  1.00  0.00     0.251 C 
ATOM     31  H   UNL A   1      37.388  20.380  25.848  1.00  0.00     0.163 HD
ATOM     32  O   UNL A   1      39.785  20.475  26.152  1.00  0.00    -0.269 OA
BRANCH  30  33
ATOM     33  C   UNL A   1      39.579  22.758  26.629  1.00  0.00     0.039 A 
ATOM     34  C   UNL A   1      40.592  22.800  27.591  1.00  0.00     0.014 A 
ATOM     35  C   UNL A   1      39.077  23.942  26.083  1.00  0.00     0.014 A 
ATOM     36  C   UNL A   1      41.137  24.029  27.966  1.00  0.00     0.010 A 
ATOM     37  C   UNL A   1      39.666  25.161  26.408  1.00  0.00     0.010 A 
ATOM     38  C   UNL A   1      40.698  25.216  27.357  1.00  0.00    -0.014 A 
BRANCH  38  39
ATOM     39  C   UNL A   1      41.329  26.515  27.694  1.00  0.00     0.031 A 
ATOM     40  C   UNL A   1      42.747  26.804  27.292  1.00  0.00     0.074 A 
ATOM     41  C   UNL A   1      40.634  27.417  28.410  1.00  0.00     0.049 A 
ATOM     42  N   UNL A   1      43.463  27.881  27.501  1.00  0.00    -0.248 NA
ATOM     43  C   UNL A   1      43.466  25.734  26.586  1.00  0.00     0.031 C 
ATOM     44  C   UNL A   1      39.274  27.224  28.916  1.00  0.00     0.029 A 
ATOM     45  N   UNL A   1      40.974  28.673  28.844  1.00  0.00    -0.354 N 
ATOM     46  C   UNL A   1      44.715  27.613  26.964  1.00  0.00     0.074 A 
ATOM     47  C   UNL A   1      44.678  26.255  26.467  1.00  0.00     0.031 C 
ATOM     48  C   UNL A   1      38.887  28.330  29.569  1.00  0.00     0.029 A 
ATOM     49  C   UNL A   1      39.978  29.298  29.552  1.00  0.00     0.049 A 
ATOM     50  H   UNL A   1      41.850  29.087  28.664  1.00  0.00     0.167 HD
ATOM     51  C   UNL A   1      45.789  28.434  26.874  1.00  0.00     0.037 A 
ATOM     52  C   UNL A   1      39.947  30.517  30.121  1.00  0.00     0.037 A 
ATOM     53  C   UNL A   1      45.813  29.792  27.354  1.00  0.00     0.049 A 
ATOM     54  C   UNL A   1      41.143  31.419  29.988  1.00  0.00     0.074 A 
ATOM     55  C   UNL A   1      46.822  30.731  27.240  1.00  0.00     0.029 A 
ATOM     56  N   UNL A   1      44.777  30.401  28.049  1.00  0.00    -0.354 N 
ATOM     57  N   UNL A   1      42.290  31.190  29.398  1.00  0.00    -0.248 NA
ATOM     58  C   UNL A   1      41.033  32.754  30.591  1.00  0.00     0.031 C 
ATOM     59  C   UNL A   1      46.417  31.892  27.910  1.00  0.00     0.029 A 
ATOM     60  C   UNL A   1      45.135  31.695  28.396  1.00  0.00     0.049 A 
ATOM     61  H   UNL A   1      43.915  29.977  28.264  1.00  0.00     0.167 HD
ATOM     62  C   UNL A   1      43.034  32.353  29.541  1.00  0.00     0.074 A 
ATOM     63  C   UNL A   1      42.196  33.295  30.256  1.00  0.00     0.031 C 
ATOM     64  C   UNL A   1      44.295  32.616  29.120  1.00  0.00     0.037 A 
BRANCH  51  65
ATOM     65  C   UNL A   1      47.031  27.880  26.234  1.00  0.00     0.064 A 
ATOM     66  C   UNL A   1      47.178  27.819  24.840  1.00  0.00     0.173 A 
ATOM     67  C   UNL A   1      48.096  27.424  27.025  1.00  0.00     0.173 A 
ATOM     68  F   UNL A   1      46.185  28.234  24.037  1.00  0.00    -0.203 F 
ATOM     69  C   UNL A   1      48.328  27.287  24.262  1.00  0.00     0.198 A 
ATOM     70  C   UNL A   1      49.258  26.921  26.442  1.00  0.00     0.198 A 
ATOM     71  F   UNL A   1      48.013  27.464  28.363  1.00  0.00    -0.203 F 
ATOM     72  F   UNL A   1      48.420  27.188  22.928  1.00  0.00    -0.200 F 
ATOM     73  C   UNL A   1      49.368  26.845  25.062  1.00  0.00     0.200 A 
ATOM     74  F   UNL A   1      50.268  26.506  27.218  1.00  0.00    -0.200 F 
ATOM     75  F   UNL A   1      50.476  26.335  24.505  1.00  0.00    -0.200 F 
ENDBRANCH  51  65
BRANCH  52  76
ATOM     76  C   UNL A   1      38.723  30.962  30.835  1.00  0.00     0.064 A 
ATOM     77  C   UNL A   1      38.625  30.859  32.228  1.00  0.00     0.173 A 
ATOM     78  C   UNL A   1      37.642  31.525  30.143  1.00  0.00     0.173 A 
ATOM     79  F   UNL A   1      39.626  30.309  32.931  1.00  0.00    -0.203 F 
ATOM     80  C   UNL A   1      37.485  31.291  32.903  1.00  0.00     0.198 A 
ATOM     81  C   UNL A   1      36.513  31.982  30.821  1.00  0.00     0.198 A 
ATOM     82  F   UNL A   1      37.691  31.654  28.808  1.00  0.00    -0.203 F 
ATOM     83  F   UNL A   1      37.402  31.151  34.232  1.00  0.00    -0.200 F 
ATOM     84  C   UNL A   1      36.434  31.860  32.199  1.00  0.00     0.200 A 
ATOM     85  F   UNL A   1      35.507  32.545  30.139  1.00  0.00    -0.200 F 
ATOM     86  F   UNL A   1      35.343  32.287  32.850  1.00  0.00    -0.200 F 
ENDBRANCH  52  76
BRANCH  64  87
ATOM     87  C   UNL A   1      44.841  33.983  29.416  1.00  0.00     0.064 A 
ATOM     88  C   UNL A   1      45.560  34.248  30.591  1.00  0.00     0.173 A 
ATOM     89  C   UNL A   1      44.662  35.034  28.504  1.00  0.00     0.173 A 
ATOM     90  F   UNL A   1      45.744  33.280  31.503  1.00  0.00    -0.203 F 
ATOM     91  C   UNL A   1      46.051  35.523  30.858  1.00  0.00     0.198 A 
ATOM     92  C   UNL A   1      45.182  36.300  28.760  1.00  0.00     0.198 A 
ATOM     93  F   UNL A   1      43.988  34.832  27.363  1.00  0.00    -0.203 F 
ATOM     94  F   UNL A   1      46.687  35.766  32.013  1.00  0.00    -0.200 F 
ATOM     95  C   UNL A   1      45.867  36.547  29.939  1.00  0.00     0.200 A 
ATOM     96  F   UNL A   1      45.014  37.284  27.866  1.00  0.00    -0.200 F 
ATOM     97  F   UNL A   1      46.342  37.772  30.197  1.00  0.00    -0.200 F 
ENDBRANCH  64  87
ENDBRANCH  38  39
ENDBRANCH  30  33
ENDBRANCH  28  29
ENDBRANCH  27  28
ENDBRANCH  26  27
ENDBRANCH   1  26
TORSDOF 19
ENDMDL
MODEL 3
REMARK VINA RESULT:     -10.8      3.970      8.994
REMARK SMILES CCCC(O)(CCC)[C@@]1(C)CC[C@@H](C(=O)NCCCCCCNC(=O)c2ccc(-c3c4nc(c(-c5c(F)c(F)c(F)c(F)c5F)c5ccc([nH]5)c(-c5c(F)c(F)c(F)c(F)c5F)c5nc(c(-c6c(F)c(F)c(F)c(F)c6F)c6ccc3[nH]6)C=C5)C=C4)cc2)C(C)(C)O1
REMARK SMILES IDX 19 1 18 2 17 3 16 4 14 5 15 6 13 8 9 9 10 10 11 11 92 12
REMARK SMILES IDX 12 13 89 14 90 15 91 16 4 17 3 18 2 19 1 20 5 21 6 23 7 24
REMARK SMILES IDX 8 25 20 26 21 27 22 28 23 29 24 30 25 32 26 33 27 34 88 35
REMARK SMILES IDX 28 36 87 37 29 38 30 39 31 40 81 41 32 42 86 43 80 44 82 45
REMARK SMILES IDX 33 46 85 47 79 48 78 49 34 51 66 52 46 53 65 54 47 55 50 56
REMARK SMILES IDX 64 57 83 58 48 59 49 60 63 62 84 63 51 64 35 65 36 66 44 67
REMARK SMILES IDX 37 68 38 69 42 70 45 71 39 72 40 73 43 74 41 75 67 76 68 77
REMARK SMILES IDX 76 78 69 79 70 80 74 81 77 82 71 83 72 84 75 85 73 86 52 87
REMARK SMILES IDX 53 88 61 89 54 90 55 91 59 92 62 93 56 94 57 95 60 96 58 97
REMARK H PARENT 16 7 5 22 23 31 82 50 50 61
REMARK Flexibility Score: inf
ROOT
ATOM      1  C   UNL A   1      30.115  29.337  23.793  1.00  0.00     0.002 C 
ENDROOT
BRANCH   1   2
ATOM      2  C   UNL A   1      30.834  28.827  22.548  1.00  0.00     0.021 C 
BRANCH   2   3
ATOM      3  C   UNL A   1      30.810  27.308  22.375  1.00  0.00     0.116 C 
BRANCH   3   4
ATOM      4  N   UNL A   1      32.086  26.792  21.915  1.00  0.00    -0.356 N 
ATOM      5  C   UNL A   1      32.981  25.937  22.479  1.00  0.00     0.226 C 
ATOM      6  O   UNL A   1      34.028  25.748  21.850  1.00  0.00    -0.275 OA
ATOM      7  H   UNL A   1      32.355  27.123  21.028  1.00  0.00     0.163 HD
BRANCH   5   8
ATOM      8  C   UNL A   1      32.769  25.228  23.823  1.00  0.00     0.110 C 
ATOM      9  C   UNL A   1      33.371  23.208  25.945  1.00  0.00     0.095 C 
ATOM     10  C   UNL A   1      32.648  22.756  27.239  1.00  0.00     0.045 C 
ATOM     11  C   UNL A   1      33.648  24.720  26.119  1.00  0.00     0.039 C 
ATOM     12  O   UNL A   1      32.351  23.017  24.949  1.00  0.00    -0.366 OA
ATOM     13  C   UNL A   1      33.873  25.496  24.834  1.00  0.00     0.019 C 
ATOM     14  C   UNL A   1      32.267  23.766  23.729  1.00  0.00     0.075 C 
ATOM     15  C   UNL A   1      32.856  22.929  22.598  1.00  0.00     0.043 C 
ATOM     16  C   UNL A   1      30.744  23.798  23.436  1.00  0.00     0.043 C 
BRANCH   9  17
ATOM     17  C   UNL A   1      34.673  22.303  25.700  1.00  0.00     0.093 C 
BRANCH  17  18
ATOM     18  C   UNL A   1      34.521  21.153  24.636  1.00  0.00     0.038 C 
BRANCH  18  19
ATOM     19  C   UNL A   1      33.832  19.824  24.999  1.00  0.00    -0.000 C 
ATOM     20  C   UNL A   1      32.528  19.550  24.262  1.00  0.00     0.004 C 
ENDBRANCH  18  19
ENDBRANCH  17  18
BRANCH  17  21
ATOM     21  O   UNL A   1      35.065  21.673  26.943  1.00  0.00    -0.387 OA
ATOM     22  H   UNL A   1      35.968  21.943  27.171  1.00  0.00     0.211 HD
ENDBRANCH  17  21
BRANCH  17  23
ATOM     23  C   UNL A   1      35.974  23.098  25.321  1.00  0.00     0.038 C 
BRANCH  23  24
ATOM     24  C   UNL A   1      37.195  22.389  24.734  1.00  0.00    -0.000 C 
ATOM     25  C   UNL A   1      38.283  22.072  25.751  1.00  0.00     0.004 C 
ENDBRANCH  23  24
ENDBRANCH  17  23
ENDBRANCH   9  17
ENDBRANCH   5   8
ENDBRANCH   3   4
ENDBRANCH   2   3
ENDBRANCH   1   2
BRANCH   1  26
ATOM     26  C   UNL A   1      31.030  29.731  24.955  1.00  0.00     0.002 C 
BRANCH  26  27
ATOM     27  C   UNL A   1      32.217  28.795  25.209  1.00  0.00     0.021 C 
BRANCH  27  28
ATOM     28  C   UNL A   1      33.455  29.459  25.807  1.00  0.00     0.116 C 
BRANCH  28  29
ATOM     29  N   UNL A   1      33.191  30.820  26.243  1.00  0.00    -0.352 N 
ATOM     30  C   UNL A   1      33.766  31.548  27.251  1.00  0.00     0.251 C 
ATOM     31  H   UNL A   1      32.492  31.291  25.734  1.00  0.00     0.163 HD
ATOM     32  O   UNL A   1      33.269  32.611  27.605  1.00  0.00    -0.269 OA
BRANCH  30  33
ATOM     33  C   UNL A   1      34.980  31.046  27.928  1.00  0.00     0.039 A 
ATOM     34  C   UNL A   1      36.088  31.891  28.025  1.00  0.00     0.014 A 
ATOM     35  C   UNL A   1      35.039  29.746  28.436  1.00  0.00     0.014 A 
ATOM     36  C   UNL A   1      37.239  31.448  28.679  1.00  0.00     0.010 A 
ATOM     37  C   UNL A   1      36.161  29.328  29.147  1.00  0.00     0.010 A 
ATOM     38  C   UNL A   1      37.273  30.175  29.270  1.00  0.00    -0.014 A 
BRANCH  38  39
ATOM     39  C   UNL A   1      38.464  29.730  30.035  1.00  0.00     0.031 A 
ATOM     40  C   UNL A   1      38.712  30.237  31.427  1.00  0.00     0.074 A 
ATOM     41  C   UNL A   1      39.350  28.904  29.450  1.00  0.00     0.049 A 
ATOM     42  N   UNL A   1      39.698  29.960  32.245  1.00  0.00    -0.248 NA
ATOM     43  C   UNL A   1      37.742  31.202  31.963  1.00  0.00     0.031 C 
ATOM     44  C   UNL A   1      39.253  28.398  28.079  1.00  0.00     0.029 A 
ATOM     45  N   UNL A   1      40.510  28.348  29.927  1.00  0.00    -0.354 N 
ATOM     46  C   UNL A   1      39.472  30.724  33.381  1.00  0.00     0.074 A 
ATOM     47  C   UNL A   1      38.286  31.514  33.129  1.00  0.00     0.031 C 
ATOM     48  C   UNL A   1      40.294  27.588  27.835  1.00  0.00     0.029 A 
ATOM     49  C   UNL A   1      41.146  27.539  29.019  1.00  0.00     0.049 A 
ATOM     50  H   UNL A   1      40.854  28.515  30.835  1.00  0.00     0.167 HD
ATOM     51  C   UNL A   1      40.176  30.746  34.538  1.00  0.00     0.037 A 
ATOM     52  C   UNL A   1      42.287  26.833  29.130  1.00  0.00     0.037 A 
ATOM     53  C   UNL A   1      41.345  29.942  34.790  1.00  0.00     0.049 A 
ATOM     54  C   UNL A   1      43.039  26.855  30.431  1.00  0.00     0.074 A 
ATOM     55  C   UNL A   1      42.083  29.831  35.955  1.00  0.00     0.029 A 
ATOM     56  N   UNL A   1      41.950  29.116  33.854  1.00  0.00    -0.354 N 
ATOM     57  N   UNL A   1      42.765  27.510  31.534  1.00  0.00    -0.248 NA
ATOM     58  C   UNL A   1      44.251  26.030  30.507  1.00  0.00     0.031 C 
ATOM     59  C   UNL A   1      43.165  28.977  35.708  1.00  0.00     0.029 A 
ATOM     60  C   UNL A   1      43.071  28.514  34.405  1.00  0.00     0.049 A 
ATOM     61  H   UNL A   1      41.632  28.978  32.933  1.00  0.00     0.167 HD
ATOM     62  C   UNL A   1      43.759  27.165  32.440  1.00  0.00     0.074 A 
ATOM     63  C   UNL A   1      44.630  26.224  31.762  1.00  0.00     0.031 C 
ATOM     64  C   UNL A   1      43.935  27.590  33.715  1.00  0.00     0.037 A 
BRANCH  51  65
ATOM     65  C   UNL A   1      39.701  31.674  35.620  1.00  0.00     0.064 A 
ATOM     66  C   UNL A   1      40.252  32.954  35.789  1.00  0.00     0.173 A 
ATOM     67  C   UNL A   1      38.667  31.288  36.486  1.00  0.00     0.173 A 
ATOM     68  F   UNL A   1      41.249  33.370  34.993  1.00  0.00    -0.203 F 
ATOM     69  C   UNL A   1      39.812  33.796  36.807  1.00  0.00     0.198 A 
ATOM     70  C   UNL A   1      38.208  32.146  37.484  1.00  0.00     0.198 A 
ATOM     71  F   UNL A   1      38.100  30.078  36.367  1.00  0.00    -0.203 F 
ATOM     72  F   UNL A   1      40.394  34.991  36.983  1.00  0.00    -0.200 F 
ATOM     73  C   UNL A   1      38.787  33.395  37.649  1.00  0.00     0.200 A 
ATOM     74  F   UNL A   1      37.209  31.760  38.289  1.00  0.00    -0.200 F 
ATOM     75  F   UNL A   1      38.364  34.206  38.628  1.00  0.00    -0.200 F 
ENDBRANCH  51  65
BRANCH  52  76
ATOM     76  C   UNL A   1      42.759  26.019  27.982  1.00  0.00     0.064 A 
ATOM     77  C   UNL A   1      42.322  24.699  27.808  1.00  0.00     0.173 A 
ATOM     78  C   UNL A   1      43.630  26.551  27.021  1.00  0.00     0.173 A 
ATOM     79  F   UNL A   1      41.503  24.140  28.711  1.00  0.00    -0.203 F 
ATOM     80  C   UNL A   1      42.749  23.937  26.722  1.00  0.00     0.198 A 
ATOM     81  C   UNL A   1      44.035  25.797  25.921  1.00  0.00     0.198 A 
ATOM     82  F   UNL A   1      44.070  27.813  27.138  1.00  0.00    -0.203 F 
ATOM     83  F   UNL A   1      42.343  22.667  26.597  1.00  0.00    -0.200 F 
ATOM     84  C   UNL A   1      43.599  24.490  25.775  1.00  0.00     0.200 A 
ATOM     85  F   UNL A   1      44.843  26.341  25.001  1.00  0.00    -0.200 F 
ATOM     86  F   UNL A   1      43.999  23.761  24.724  1.00  0.00    -0.200 F 
ENDBRANCH  52  76
BRANCH  64  87
ATOM     87  C   UNL A   1      45.111  27.031  34.463  1.00  0.00     0.064 A 
ATOM     88  C   UNL A   1      45.015  25.839  35.196  1.00  0.00     0.173 A 
ATOM     89  C   UNL A   1      46.353  27.682  34.427  1.00  0.00     0.173 A 
ATOM     90  F   UNL A   1      43.845  25.188  35.276  1.00  0.00    -0.203 F 
ATOM     91  C   UNL A   1      46.111  25.338  35.894  1.00  0.00     0.198 A 
ATOM     92  C   UNL A   1      47.455  27.161  35.099  1.00  0.00     0.198 A 
ATOM     93  F   UNL A   1      46.500  28.822  33.735  1.00  0.00    -0.203 F 
ATOM     94  F   UNL A   1      45.981  24.227  36.633  1.00  0.00    -0.200 F 
ATOM     95  C   UNL A   1      47.331  25.995  35.840  1.00  0.00     0.200 A 
ATOM     96  F   UNL A   1      48.636  27.791  35.036  1.00  0.00    -0.200 F 
ATOM     97  F   UNL A   1      48.385  25.510  36.509  1.00  0.00    -0.200 F 
ENDBRANCH  64  87
ENDBRANCH  38  39
ENDBRANCH  30  33
ENDBRANCH  28  29
ENDBRANCH  27  28
ENDBRANCH  26  27
ENDBRANCH   1  26
TORSDOF 19
ENDMDL
