MODEL 1
REMARK VINA RESULT:     -11.1      0.000      0.000
REMARK SMILES CCOc1cc(OCC)cc(-c2ccc([C@@H](C)C(=O)NCCCCCCNC(=O)c3ccc(-c4c5nc(c(-c6c(F)c(F)c(F)c(F)c6F)c6ccc([nH]6)c(-c6c(F)c(F)c(F)c(F)c6F)c6nc(c(-c7c(F)c(F)c(F)c(F)c7F)c7ccc4[nH]7)C=C6)C=C5)cc3)cc2F)c1
REMARK SMILES IDX 22 1 21 2 20 3 18 4 19 5 16 7 17 8 15 9 12 10 13 11 94 12
REMARK SMILES IDX 14 13 93 14 95 15 11 16 4 17 5 18 96 19 6 20 10 21 3 22 2 23
REMARK SMILES IDX 1 24 7 25 8 26 9 27 23 28 24 29 25 30 26 31 27 32 28 33
REMARK SMILES IDX 29 35 30 36 31 37 92 38 32 39 91 40 33 41 34 42 35 43 85 44
REMARK SMILES IDX 36 45 90 46 84 47 86 48 37 49 89 50 83 51 82 52 38 54 70 55
REMARK SMILES IDX 50 56 69 57 51 58 54 59 68 60 87 61 52 62 53 63 67 65 88 66
REMARK SMILES IDX 55 67 39 68 40 69 48 70 41 71 42 72 46 73 49 74 43 75 44 76
REMARK SMILES IDX 47 77 45 78 71 79 72 80 80 81 73 82 74 83 78 84 81 85 75 86
REMARK SMILES IDX 76 87 79 88 77 89 56 90 57 91 65 92 58 93 59 94 63 95 66 96
REMARK SMILES IDX 60 97 61 98 64 99 62 100
REMARK H PARENT 20 6 27 34 86 53 54 64
REMARK Flexibility Score: inf
ROOT
ATOM      1  C   UNL A   1      39.760  23.282  27.075  1.00  0.00     0.021 C 
ENDROOT
BRANCH   1   2
ATOM      2  C   UNL A   1      38.383  23.657  26.523  1.00  0.00     0.116 C 
BRANCH   2   3
ATOM      3  N   UNL A   1      38.064  22.911  25.325  1.00  0.00    -0.356 N 
ATOM      4  C   UNL A   1      36.940  22.250  24.935  1.00  0.00     0.227 C 
ATOM      5  O   UNL A   1      37.017  21.623  23.871  1.00  0.00    -0.274 OA
ATOM      6  H   UNL A   1      38.797  22.875  24.668  1.00  0.00     0.163 HD
BRANCH   4   7
ATOM      7  C   UNL A   1      35.625  22.249  25.727  1.00  0.00     0.105 C 
ATOM      8  C   UNL A   1      34.909  20.899  25.765  1.00  0.00     0.023 C 
BRANCH   7   9
ATOM      9  C   UNL A   1      34.740  23.447  25.429  1.00  0.00    -0.033 A 
ATOM     10  C   UNL A   1      33.119  25.761  25.008  1.00  0.00     0.018 A 
ATOM     11  C   UNL A   1      34.208  25.458  24.174  1.00  0.00     0.012 A 
ATOM     12  C   UNL A   1      32.854  24.861  26.048  1.00  0.00     0.131 A 
ATOM     13  C   UNL A   1      34.972  24.305  24.353  1.00  0.00     0.005 A 
ATOM     14  C   UNL A   1      33.657  23.739  26.271  1.00  0.00     0.044 A 
ATOM     15  F   UNL A   1      31.808  25.048  26.866  1.00  0.00    -0.206 F 
BRANCH  10  16
ATOM     16  C   UNL A   1      32.328  26.986  24.767  1.00  0.00    -0.008 A 
ATOM     17  C   UNL A   1      31.893  29.356  25.114  1.00  0.00     0.123 A 
ATOM     18  C   UNL A   1      30.883  29.328  24.151  1.00  0.00     0.092 A 
ATOM     19  C   UNL A   1      32.595  28.192  25.427  1.00  0.00     0.055 A 
ATOM     20  C   UNL A   1      30.572  28.136  23.496  1.00  0.00     0.123 A 
ATOM     21  C   UNL A   1      31.285  26.982  23.822  1.00  0.00     0.055 A 
BRANCH  17  22
ATOM     22  O   UNL A   1      32.074  30.508  25.828  1.00  0.00    -0.494 OA
BRANCH  22  23
ATOM     23  C   UNL A   1      32.526  30.308  27.174  1.00  0.00     0.226 C 
ATOM     24  C   UNL A   1      33.544  31.348  27.618  1.00  0.00     0.049 C 
ENDBRANCH  22  23
ENDBRANCH  17  22
BRANCH  20  25
ATOM     25  O   UNL A   1      29.588  28.206  22.547  1.00  0.00    -0.494 OA
BRANCH  25  26
ATOM     26  C   UNL A   1      28.455  29.041  22.812  1.00  0.00     0.226 C 
ATOM     27  C   UNL A   1      28.264  30.095  21.730  1.00  0.00     0.049 C 
ENDBRANCH  25  26
ENDBRANCH  20  25
ENDBRANCH  10  16
ENDBRANCH   7   9
ENDBRANCH   4   7
ENDBRANCH   2   3
ENDBRANCH   1   2
BRANCH   1  28
ATOM     28  C   UNL A   1      40.055  21.778  27.029  1.00  0.00     0.002 C 
BRANCH  28  29
ATOM     29  C   UNL A   1      41.270  21.382  26.179  1.00  0.00     0.002 C 
BRANCH  29  30
ATOM     30  C   UNL A   1      41.352  19.900  25.803  1.00  0.00     0.021 C 
BRANCH  30  31
ATOM     31  C   UNL A   1      42.570  19.169  26.362  1.00  0.00     0.116 C 
BRANCH  31  32
ATOM     32  N   UNL A   1      43.485  18.761  25.307  1.00  0.00    -0.352 N 
ATOM     33  C   UNL A   1      44.329  19.519  24.537  1.00  0.00     0.251 C 
ATOM     34  H   UNL A   1      43.500  17.795  25.118  1.00  0.00     0.163 HD
ATOM     35  O   UNL A   1      44.848  19.040  23.533  1.00  0.00    -0.269 OA
BRANCH  33  36
ATOM     36  C   UNL A   1      44.611  20.921  24.910  1.00  0.00     0.039 A 
ATOM     37  C   UNL A   1      44.285  21.940  24.011  1.00  0.00     0.014 A 
ATOM     38  C   UNL A   1      45.224  21.228  26.128  1.00  0.00     0.014 A 
ATOM     39  C   UNL A   1      44.522  23.272  24.359  1.00  0.00     0.010 A 
ATOM     40  C   UNL A   1      45.396  22.558  26.502  1.00  0.00     0.010 A 
ATOM     41  C   UNL A   1      45.051  23.592  25.620  1.00  0.00    -0.014 A 
BRANCH  41  42
ATOM     42  C   UNL A   1      45.248  25.005  26.035  1.00  0.00     0.031 A 
ATOM     43  C   UNL A   1      46.610  25.634  25.952  1.00  0.00     0.074 A 
ATOM     44  C   UNL A   1      44.212  25.696  26.548  1.00  0.00     0.049 A 
ATOM     45  N   UNL A   1      46.996  26.825  26.333  1.00  0.00    -0.248 NA
ATOM     46  C   UNL A   1      47.689  24.805  25.392  1.00  0.00     0.031 C 
ATOM     47  C   UNL A   1      42.855  25.178  26.723  1.00  0.00     0.029 A 
ATOM     48  N   UNL A   1      44.142  26.980  27.030  1.00  0.00    -0.354 N 
ATOM     49  C   UNL A   1      48.360  26.882  26.074  1.00  0.00     0.074 A 
ATOM     50  C   UNL A   1      48.745  25.589  25.551  1.00  0.00     0.031 C 
ATOM     51  C   UNL A   1      42.082  26.139  27.255  1.00  0.00     0.029 A 
ATOM     52  C   UNL A   1      42.898  27.327  27.494  1.00  0.00     0.049 A 
ATOM     53  H   UNL A   1      44.913  27.594  27.040  1.00  0.00     0.167 HD
ATOM     54  C   UNL A   1      49.207  27.925  26.237  1.00  0.00     0.037 A 
ATOM     55  C   UNL A   1      42.464  28.471  28.058  1.00  0.00     0.037 A 
ATOM     56  C   UNL A   1      48.813  29.218  26.732  1.00  0.00     0.049 A 
ATOM     57  C   UNL A   1      43.428  29.614  28.228  1.00  0.00     0.074 A 
ATOM     58  C   UNL A   1      49.582  30.360  26.873  1.00  0.00     0.029 A 
ATOM     59  N   UNL A   1      47.536  29.540  27.170  1.00  0.00    -0.354 N 
ATOM     60  N   UNL A   1      44.699  29.680  27.912  1.00  0.00    -0.248 NA
ATOM     61  C   UNL A   1      42.896  30.846  28.826  1.00  0.00     0.031 C 
ATOM     62  C   UNL A   1      48.784  31.358  27.442  1.00  0.00     0.029 A 
ATOM     63  C   UNL A   1      47.503  30.856  27.604  1.00  0.00     0.049 A 
ATOM     64  H   UNL A   1      46.768  28.925  27.172  1.00  0.00     0.167 HD
ATOM     65  C   UNL A   1      45.109  30.964  28.242  1.00  0.00     0.074 A 
ATOM     66  C   UNL A   1      43.948  31.650  28.771  1.00  0.00     0.031 C 
ATOM     67  C   UNL A   1      46.336  31.526  28.118  1.00  0.00     0.037 A 
BRANCH  54  68
ATOM     68  C   UNL A   1      50.650  27.717  25.872  1.00  0.00     0.064 A 
ATOM     69  C   UNL A   1      51.112  27.909  24.561  1.00  0.00     0.173 A 
ATOM     70  C   UNL A   1      51.589  27.370  26.854  1.00  0.00     0.173 A 
ATOM     71  F   UNL A   1      50.254  28.232  23.582  1.00  0.00    -0.203 F 
ATOM     72  C   UNL A   1      52.456  27.734  24.242  1.00  0.00     0.198 A 
ATOM     73  C   UNL A   1      52.938  27.226  26.538  1.00  0.00     0.198 A 
ATOM     74  F   UNL A   1      51.202  27.182  28.125  1.00  0.00    -0.203 F 
ATOM     75  F   UNL A   1      52.867  27.877  22.974  1.00  0.00    -0.200 F 
ATOM     76  C   UNL A   1      53.369  27.401  25.231  1.00  0.00     0.200 A 
ATOM     77  F   UNL A   1      53.821  26.919  27.498  1.00  0.00    -0.200 F 
ATOM     78  F   UNL A   1      54.664  27.244  24.925  1.00  0.00    -0.200 F 
ENDBRANCH  54  68
BRANCH  55  79
ATOM     79  C   UNL A   1      41.047  28.598  28.486  1.00  0.00     0.064 A 
ATOM     80  C   UNL A   1      40.660  28.292  29.799  1.00  0.00     0.173 A 
ATOM     81  C   UNL A   1      40.050  29.019  27.594  1.00  0.00     0.173 A 
ATOM     82  F   UNL A   1      41.574  27.868  30.684  1.00  0.00    -0.203 F 
ATOM     83  C   UNL A   1      39.328  28.378  30.196  1.00  0.00     0.198 A 
ATOM     84  C   UNL A   1      38.723  29.134  28.001  1.00  0.00     0.198 A 
ATOM     85  F   UNL A   1      40.367  29.330  26.329  1.00  0.00    -0.203 F 
ATOM     86  F   UNL A   1      38.979  28.032  31.443  1.00  0.00    -0.200 F 
ATOM     87  C   UNL A   1      38.361  28.804  29.298  1.00  0.00     0.200 A 
ATOM     88  F   UNL A   1      37.794  29.560  27.134  1.00  0.00    -0.200 F 
ATOM     89  F   UNL A   1      37.079  28.889  29.680  1.00  0.00    -0.200 F 
ENDBRANCH  55  79
BRANCH  67  90
ATOM     90  C   UNL A   1      46.480  32.964  28.524  1.00  0.00     0.064 A 
ATOM     91  C   UNL A   1      46.855  33.329  29.825  1.00  0.00     0.173 A 
ATOM     92  C   UNL A   1      46.281  33.988  27.585  1.00  0.00     0.173 A 
ATOM     93  F   UNL A   1      47.042  32.389  30.763  1.00  0.00    -0.203 F 
ATOM     94  C   UNL A   1      47.002  34.668  30.177  1.00  0.00     0.198 A 
ATOM     95  C   UNL A   1      46.460  35.324  27.933  1.00  0.00     0.198 A 
ATOM     96  F   UNL A   1      45.928  33.691  26.325  1.00  0.00    -0.203 F 
ATOM     97  F   UNL A   1      47.315  34.997  31.438  1.00  0.00    -0.200 F 
ATOM     98  C   UNL A   1      46.813  35.663  29.230  1.00  0.00     0.200 A 
ATOM     99  F   UNL A   1      46.291  36.283  27.011  1.00  0.00    -0.200 F 
ATOM    100  F   UNL A   1      46.963  36.951  29.569  1.00  0.00    -0.200 F 
ENDBRANCH  67  90
ENDBRANCH  41  42
ENDBRANCH  33  36
ENDBRANCH  31  32
ENDBRANCH  30  31
ENDBRANCH  29  30
ENDBRANCH  28  29
ENDBRANCH   1  28
TORSDOF 19
ENDMDL
MODEL 2
REMARK VINA RESULT:     -11.0      0.433      2.317
REMARK SMILES CCOc1cc(OCC)cc(-c2ccc([C@@H](C)C(=O)NCCCCCCNC(=O)c3ccc(-c4c5nc(c(-c6c(F)c(F)c(F)c(F)c6F)c6ccc([nH]6)c(-c6c(F)c(F)c(F)c(F)c6F)c6nc(c(-c7c(F)c(F)c(F)c(F)c7F)c7ccc4[nH]7)C=C6)C=C5)cc3)cc2F)c1
REMARK SMILES IDX 22 1 21 2 20 3 18 4 19 5 16 7 17 8 15 9 12 10 13 11 94 12
REMARK SMILES IDX 14 13 93 14 95 15 11 16 4 17 5 18 96 19 6 20 10 21 3 22 2 23
REMARK SMILES IDX 1 24 7 25 8 26 9 27 23 28 24 29 25 30 26 31 27 32 28 33
REMARK SMILES IDX 29 35 30 36 31 37 92 38 32 39 91 40 33 41 34 42 35 43 85 44
REMARK SMILES IDX 36 45 90 46 84 47 86 48 37 49 89 50 83 51 82 52 38 54 70 55
REMARK SMILES IDX 50 56 69 57 51 58 54 59 68 60 87 61 52 62 53 63 67 65 88 66
REMARK SMILES IDX 55 67 39 68 40 69 48 70 41 71 42 72 46 73 49 74 43 75 44 76
REMARK SMILES IDX 47 77 45 78 71 79 72 80 80 81 73 82 74 83 78 84 81 85 75 86
REMARK SMILES IDX 76 87 79 88 77 89 56 90 57 91 65 92 58 93 59 94 63 95 66 96
REMARK SMILES IDX 60 97 61 98 64 99 62 100
REMARK H PARENT 20 6 27 34 86 53 54 64
REMARK Flexibility Score: inf
ROOT
ATOM      1  C   UNL A   1      39.810  23.232  26.902  1.00  0.00     0.021 C 
ENDROOT
BRANCH   1   2
ATOM      2  C   UNL A   1      38.417  23.631  26.410  1.00  0.00     0.116 C 
BRANCH   2   3
ATOM      3  N   UNL A   1      38.050  22.919  25.205  1.00  0.00    -0.356 N 
ATOM      4  C   UNL A   1      36.899  22.296  24.829  1.00  0.00     0.227 C 
ATOM      5  O   UNL A   1      36.934  21.690  23.751  1.00  0.00    -0.274 OA
ATOM      6  H   UNL A   1      38.766  22.877  24.530  1.00  0.00     0.163 HD
BRANCH   4   7
ATOM      7  C   UNL A   1      35.604  22.314  25.652  1.00  0.00     0.105 C 
ATOM      8  C   UNL A   1      34.804  21.012  25.605  1.00  0.00     0.023 C 
BRANCH   7   9
ATOM      9  C   UNL A   1      34.790  23.584  25.469  1.00  0.00    -0.033 A 
ATOM     10  C   UNL A   1      33.304  26.016  25.271  1.00  0.00     0.018 A 
ATOM     11  C   UNL A   1      34.384  25.735  24.417  1.00  0.00     0.012 A 
ATOM     12  C   UNL A   1      32.979  25.034  26.215  1.00  0.00     0.131 A 
ATOM     13  C   UNL A   1      35.081  24.529  24.485  1.00  0.00     0.005 A 
ATOM     14  C   UNL A   1      33.716  23.852  26.330  1.00  0.00     0.044 A 
ATOM     15  F   UNL A   1      31.936  25.198  27.041  1.00  0.00    -0.206 F 
BRANCH  10  16
ATOM     16  C   UNL A   1      32.586  27.301  25.148  1.00  0.00    -0.008 A 
ATOM     17  C   UNL A   1      30.759  28.659  24.284  1.00  0.00     0.123 A 
ATOM     18  C   UNL A   1      31.165  29.736  25.074  1.00  0.00     0.092 A 
ATOM     19  C   UNL A   1      31.474  27.461  24.312  1.00  0.00     0.055 A 
ATOM     20  C   UNL A   1      32.286  29.620  25.895  1.00  0.00     0.123 A 
ATOM     21  C   UNL A   1      32.988  28.414  25.910  1.00  0.00     0.055 A 
BRANCH  17  22
ATOM     22  O   UNL A   1      29.740  28.857  23.394  1.00  0.00    -0.494 OA
BRANCH  22  23
ATOM     23  C   UNL A   1      29.322  30.221  23.263  1.00  0.00     0.226 C 
ATOM     24  C   UNL A   1      27.834  30.360  22.977  1.00  0.00     0.049 C 
ENDBRANCH  22  23
ENDBRANCH  17  22
BRANCH  20  25
ATOM     25  O   UNL A   1      32.596  30.715  26.655  1.00  0.00    -0.494 OA
BRANCH  25  26
ATOM     26  C   UNL A   1      33.902  30.782  27.239  1.00  0.00     0.226 C 
ATOM     27  C   UNL A   1      34.103  32.068  28.030  1.00  0.00     0.049 C 
ENDBRANCH  25  26
ENDBRANCH  20  25
ENDBRANCH  10  16
ENDBRANCH   7   9
ENDBRANCH   4   7
ENDBRANCH   2   3
ENDBRANCH   1   2
BRANCH   1  28
ATOM     28  C   UNL A   1      40.058  21.719  26.895  1.00  0.00     0.002 C 
BRANCH  28  29
ATOM     29  C   UNL A   1      41.469  21.295  26.467  1.00  0.00     0.002 C 
BRANCH  29  30
ATOM     30  C   UNL A   1      41.587  19.872  25.915  1.00  0.00     0.021 C 
BRANCH  30  31
ATOM     31  C   UNL A   1      42.875  19.148  26.296  1.00  0.00     0.116 C 
BRANCH  31  32
ATOM     32  N   UNL A   1      43.691  18.848  25.129  1.00  0.00    -0.352 N 
ATOM     33  C   UNL A   1      44.418  19.689  24.328  1.00  0.00     0.251 C 
ATOM     34  H   UNL A   1      43.726  17.896  24.878  1.00  0.00     0.163 HD
ATOM     35  O   UNL A   1      44.848  19.296  23.248  1.00  0.00    -0.269 OA
BRANCH  33  36
ATOM     36  C   UNL A   1      44.680  21.078  24.759  1.00  0.00     0.039 A 
ATOM     37  C   UNL A   1      44.323  22.130  23.912  1.00  0.00     0.014 A 
ATOM     38  C   UNL A   1      45.305  21.341  25.982  1.00  0.00     0.014 A 
ATOM     39  C   UNL A   1      44.541  23.449  24.316  1.00  0.00     0.010 A 
ATOM     40  C   UNL A   1      45.458  22.656  26.413  1.00  0.00     0.010 A 
ATOM     41  C   UNL A   1      45.082  23.722  25.583  1.00  0.00    -0.014 A 
BRANCH  41  42
ATOM     42  C   UNL A   1      45.260  25.118  26.059  1.00  0.00     0.031 A 
ATOM     43  C   UNL A   1      46.616  25.764  26.016  1.00  0.00     0.074 A 
ATOM     44  C   UNL A   1      44.212  25.777  26.589  1.00  0.00     0.049 A 
ATOM     45  N   UNL A   1      46.986  26.942  26.451  1.00  0.00    -0.248 NA
ATOM     46  C   UNL A   1      47.710  24.970  25.434  1.00  0.00     0.031 C 
ATOM     47  C   UNL A   1      42.859  25.238  26.728  1.00  0.00     0.029 A 
ATOM     48  N   UNL A   1      44.124  27.039  27.123  1.00  0.00    -0.354 N 
ATOM     49  C   UNL A   1      48.351  27.023  26.208  1.00  0.00     0.074 A 
ATOM     50  C   UNL A   1      48.755  25.758  25.636  1.00  0.00     0.031 C 
ATOM     51  C   UNL A   1      42.070  26.168  27.292  1.00  0.00     0.029 A 
ATOM     52  C   UNL A   1      42.871  27.353  27.589  1.00  0.00     0.049 A 
ATOM     53  H   UNL A   1      44.887  27.659  27.167  1.00  0.00     0.167 HD
ATOM     54  C   UNL A   1      49.186  28.068  26.423  1.00  0.00     0.037 A 
ATOM     55  C   UNL A   1      42.419  28.468  28.195  1.00  0.00     0.037 A 
ATOM     56  C   UNL A   1      48.772  29.335  26.967  1.00  0.00     0.049 A 
ATOM     57  C   UNL A   1      43.369  29.613  28.422  1.00  0.00     0.074 A 
ATOM     58  C   UNL A   1      49.528  30.478  27.164  1.00  0.00     0.029 A 
ATOM     59  N   UNL A   1      47.488  29.625  27.406  1.00  0.00    -0.354 N 
ATOM     60  N   UNL A   1      44.642  29.705  28.123  1.00  0.00    -0.248 NA
ATOM     61  C   UNL A   1      42.818  30.813  29.065  1.00  0.00     0.031 C 
ATOM     62  C   UNL A   1      48.714  31.443  27.766  1.00  0.00     0.029 A 
ATOM     63  C   UNL A   1      47.437  30.921  27.893  1.00  0.00     0.049 A 
ATOM     64  H   UNL A   1      46.727  29.003  27.374  1.00  0.00     0.167 HD
ATOM     65  C   UNL A   1      45.036  30.979  28.510  1.00  0.00     0.074 A 
ATOM     66  C   UNL A   1      43.861  31.629  29.055  1.00  0.00     0.031 C 
ATOM     67  C   UNL A   1      46.257  31.557  28.423  1.00  0.00     0.037 A 
BRANCH  54  68
ATOM     68  C   UNL A   1      50.634  27.890  26.065  1.00  0.00     0.064 A 
ATOM     69  C   UNL A   1      51.592  27.539  27.028  1.00  0.00     0.173 A 
ATOM     70  C   UNL A   1      51.059  28.025  24.735  1.00  0.00     0.173 A 
ATOM     71  F   UNL A   1      51.239  27.408  28.316  1.00  0.00    -0.203 F 
ATOM     72  C   UNL A   1      52.927  27.357  26.678  1.00  0.00     0.198 A 
ATOM     73  C   UNL A   1      52.390  27.811  24.383  1.00  0.00     0.198 A 
ATOM     74  F   UNL A   1      50.184  28.353  23.774  1.00  0.00    -0.203 F 
ATOM     75  F   UNL A   1      53.833  27.067  27.622  1.00  0.00    -0.200 F 
ATOM     76  C   UNL A   1      53.324  27.484  25.355  1.00  0.00     0.200 A 
ATOM     77  F   UNL A   1      52.768  27.920  23.102  1.00  0.00    -0.200 F 
ATOM     78  F   UNL A   1      54.607  27.297  25.017  1.00  0.00    -0.200 F 
ENDBRANCH  54  68
BRANCH  55  79
ATOM     79  C   UNL A   1      40.997  28.563  28.613  1.00  0.00     0.064 A 
ATOM     80  C   UNL A   1      40.016  29.030  27.726  1.00  0.00     0.173 A 
ATOM     81  C   UNL A   1      40.588  28.200  29.904  1.00  0.00     0.173 A 
ATOM     82  F   UNL A   1      40.359  29.408  26.486  1.00  0.00    -0.203 F 
ATOM     83  C   UNL A   1      38.686  29.153  28.123  1.00  0.00     0.198 A 
ATOM     84  C   UNL A   1      39.253  28.294  30.290  1.00  0.00     0.198 A 
ATOM     85  F   UNL A   1      41.486  27.741  30.789  1.00  0.00    -0.203 F 
ATOM     86  F   UNL A   1      37.777  29.649  27.271  1.00  0.00    -0.200 F 
ATOM     87  C   UNL A   1      38.305  28.780  29.403  1.00  0.00     0.200 A 
ATOM     88  F   UNL A   1      38.887  27.918  31.523  1.00  0.00    -0.200 F 
ATOM     89  F   UNL A   1      37.025  28.896  29.784  1.00  0.00    -0.200 F 
ENDBRANCH  55  79
BRANCH  67  90
ATOM     90  C   UNL A   1      46.382  32.979  28.890  1.00  0.00     0.064 A 
ATOM     91  C   UNL A   1      46.743  33.293  30.207  1.00  0.00     0.173 A 
ATOM     92  C   UNL A   1      46.178  34.039  27.993  1.00  0.00     0.173 A 
ATOM     93  F   UNL A   1      46.934  32.316  31.107  1.00  0.00    -0.203 F 
ATOM     94  C   UNL A   1      46.872  34.617  30.617  1.00  0.00     0.198 A 
ATOM     95  C   UNL A   1      46.339  35.361  28.397  1.00  0.00     0.198 A 
ATOM     96  F   UNL A   1      45.838  33.791  26.718  1.00  0.00    -0.203 F 
ATOM     97  F   UNL A   1      47.172  34.896  31.893  1.00  0.00    -0.200 F 
ATOM     98  C   UNL A   1      46.679  35.649  29.710  1.00  0.00     0.200 A 
ATOM     99  F   UNL A   1      46.166  36.356  27.515  1.00  0.00    -0.200 F 
ATOM    100  F   UNL A   1      46.812  36.923  30.104  1.00  0.00    -0.200 F 
ENDBRANCH  67  90
ENDBRANCH  41  42
ENDBRANCH  33  36
ENDBRANCH  31  32
ENDBRANCH  30  31
ENDBRANCH  29  30
ENDBRANCH  28  29
ENDBRANCH   1  28
TORSDOF 19
ENDMDL
MODEL 3
REMARK VINA RESULT:     -10.5      0.589      7.283
REMARK SMILES CCOc1cc(OCC)cc(-c2ccc([C@@H](C)C(=O)NCCCCCCNC(=O)c3ccc(-c4c5nc(c(-c6c(F)c(F)c(F)c(F)c6F)c6ccc([nH]6)c(-c6c(F)c(F)c(F)c(F)c6F)c6nc(c(-c7c(F)c(F)c(F)c(F)c7F)c7ccc4[nH]7)C=C6)C=C5)cc3)cc2F)c1
REMARK SMILES IDX 22 1 21 2 20 3 18 4 19 5 16 7 17 8 15 9 12 10 13 11 94 12
REMARK SMILES IDX 14 13 93 14 95 15 11 16 4 17 5 18 96 19 6 20 10 21 3 22 2 23
REMARK SMILES IDX 1 24 7 25 8 26 9 27 23 28 24 29 25 30 26 31 27 32 28 33
REMARK SMILES IDX 29 35 30 36 31 37 92 38 32 39 91 40 33 41 34 42 35 43 85 44
REMARK SMILES IDX 36 45 90 46 84 47 86 48 37 49 89 50 83 51 82 52 38 54 70 55
REMARK SMILES IDX 50 56 69 57 51 58 54 59 68 60 87 61 52 62 53 63 67 65 88 66
REMARK SMILES IDX 55 67 39 68 40 69 48 70 41 71 42 72 46 73 49 74 43 75 44 76
REMARK SMILES IDX 47 77 45 78 71 79 72 80 80 81 73 82 74 83 78 84 81 85 75 86
REMARK SMILES IDX 76 87 79 88 77 89 56 90 57 91 65 92 58 93 59 94 63 95 66 96
REMARK SMILES IDX 60 97 61 98 64 99 62 100
REMARK H PARENT 20 6 27 34 86 53 54 64
REMARK Flexibility Score: inf
ROOT
ATOM      1  C   UNL A   1      40.245  22.850  26.523  1.00  0.00     0.021 C 
ENDROOT
BRANCH   1   2
ATOM      2  C   UNL A   1      38.745  22.547  26.509  1.00  0.00     0.116 C 
BRANCH   2   3
ATOM      3  N   UNL A   1      38.275  22.232  25.177  1.00  0.00    -0.356 N 
ATOM      4  C   UNL A   1      37.040  21.924  24.695  1.00  0.00     0.227 C 
ATOM      5  O   UNL A   1      36.982  21.612  23.499  1.00  0.00    -0.274 OA
ATOM      6  H   UNL A   1      38.980  22.244  24.490  1.00  0.00     0.163 HD
BRANCH   4   7
ATOM      7  C   UNL A   1      35.758  21.949  25.538  1.00  0.00     0.105 C 
ATOM      8  C   UNL A   1      34.940  20.658  25.486  1.00  0.00     0.023 C 
BRANCH   7   9
ATOM      9  C   UNL A   1      34.959  23.232  25.386  1.00  0.00    -0.033 A 
ATOM     10  C   UNL A   1      33.496  25.682  25.248  1.00  0.00     0.018 A 
ATOM     11  C   UNL A   1      34.608  25.435  24.426  1.00  0.00     0.012 A 
ATOM     12  C   UNL A   1      33.126  24.656  26.127  1.00  0.00     0.131 A 
ATOM     13  C   UNL A   1      35.295  24.222  24.462  1.00  0.00     0.005 A 
ATOM     14  C   UNL A   1      33.852  23.465  26.214  1.00  0.00     0.044 A 
ATOM     15  F   UNL A   1      32.051  24.788  26.918  1.00  0.00    -0.206 F 
BRANCH  10  16
ATOM     16  C   UNL A   1      32.790  26.977  25.159  1.00  0.00    -0.008 A 
ATOM     17  C   UNL A   1      30.933  28.355  24.400  1.00  0.00     0.123 A 
ATOM     18  C   UNL A   1      31.402  29.432  25.155  1.00  0.00     0.092 A 
ATOM     19  C   UNL A   1      31.631  27.148  24.393  1.00  0.00     0.055 A 
ATOM     20  C   UNL A   1      32.571  29.304  25.906  1.00  0.00     0.123 A 
ATOM     21  C   UNL A   1      33.255  28.089  25.886  1.00  0.00     0.055 A 
BRANCH  17  22
ATOM     22  O   UNL A   1      29.864  28.563  23.573  1.00  0.00    -0.494 OA
BRANCH  22  23
ATOM     23  C   UNL A   1      29.601  29.940  23.275  1.00  0.00     0.226 C 
ATOM     24  C   UNL A   1      28.308  30.142  22.500  1.00  0.00     0.049 C 
ENDBRANCH  22  23
ENDBRANCH  17  22
BRANCH  20  25
ATOM     25  O   UNL A   1      32.943  30.400  26.637  1.00  0.00    -0.494 OA
BRANCH  25  26
ATOM     26  C   UNL A   1      34.235  30.390  27.254  1.00  0.00     0.226 C 
ATOM     27  C   UNL A   1      34.536  31.707  27.959  1.00  0.00     0.049 C 
ENDBRANCH  25  26
ENDBRANCH  20  25
ENDBRANCH  10  16
ENDBRANCH   7   9
ENDBRANCH   4   7
ENDBRANCH   2   3
ENDBRANCH   1   2
BRANCH   1  28
ATOM     28  C   UNL A   1      41.042  21.978  27.500  1.00  0.00     0.002 C 
BRANCH  28  29
ATOM     29  C   UNL A   1      40.806  20.468  27.362  1.00  0.00     0.002 C 
BRANCH  29  30
ATOM     30  C   UNL A   1      41.427  19.819  26.121  1.00  0.00     0.021 C 
BRANCH  30  31
ATOM     31  C   UNL A   1      42.673  18.982  26.399  1.00  0.00     0.116 C 
BRANCH  31  32
ATOM     32  N   UNL A   1      43.476  18.796  25.200  1.00  0.00    -0.352 N 
ATOM     33  C   UNL A   1      44.140  19.721  24.437  1.00  0.00     0.251 C 
ATOM     34  H   UNL A   1      43.554  17.864  24.891  1.00  0.00     0.163 HD
ATOM     35  O   UNL A   1      44.565  19.417  23.328  1.00  0.00    -0.269 OA
BRANCH  33  36
ATOM     36  C   UNL A   1      44.339  21.094  24.948  1.00  0.00     0.039 A 
ATOM     37  C   UNL A   1      45.058  21.279  26.131  1.00  0.00     0.014 A 
ATOM     38  C   UNL A   1      43.790  22.192  24.279  1.00  0.00     0.014 A 
ATOM     39  C   UNL A   1      45.276  22.572  26.614  1.00  0.00     0.010 A 
ATOM     40  C   UNL A   1      44.067  23.482  24.722  1.00  0.00     0.010 A 
ATOM     41  C   UNL A   1      44.808  23.685  25.895  1.00  0.00    -0.014 A 
BRANCH  41  42
ATOM     42  C   UNL A   1      45.088  25.069  26.356  1.00  0.00     0.031 A 
ATOM     43  C   UNL A   1      43.983  25.911  26.932  1.00  0.00     0.074 A 
ATOM     44  C   UNL A   1      46.320  25.587  26.192  1.00  0.00     0.049 A 
ATOM     45  N   UNL A   1      44.012  27.161  27.320  1.00  0.00    -0.248 NA
ATOM     46  C   UNL A   1      42.664  25.273  27.063  1.00  0.00     0.031 C 
ATOM     47  C   UNL A   1      47.459  24.885  25.602  1.00  0.00     0.029 A 
ATOM     48  N   UNL A   1      46.817  26.831  26.495  1.00  0.00    -0.354 N 
ATOM     49  C   UNL A   1      42.718  27.461  27.726  1.00  0.00     0.074 A 
ATOM     50  C   UNL A   1      41.916  26.280  27.489  1.00  0.00     0.031 C 
ATOM     51  C   UNL A   1      48.527  25.700  25.602  1.00  0.00     0.029 A 
ATOM     52  C   UNL A   1      48.138  26.993  26.156  1.00  0.00     0.049 A 
ATOM     53  H   UNL A   1      46.276  27.539  26.915  1.00  0.00     0.167 HD
ATOM     54  C   UNL A   1      42.248  28.609  28.267  1.00  0.00     0.037 A 
ATOM     55  C   UNL A   1      48.942  28.067  26.271  1.00  0.00     0.037 A 
ATOM     56  C   UNL A   1      43.057  29.772  28.526  1.00  0.00     0.049 A 
ATOM     57  C   UNL A   1      48.393  29.332  26.875  1.00  0.00     0.074 A 
ATOM     58  C   UNL A   1      42.690  30.962  29.130  1.00  0.00     0.029 A 
ATOM     59  N   UNL A   1      44.398  29.891  28.191  1.00  0.00    -0.354 N 
ATOM     60  N   UNL A   1      47.185  29.580  27.322  1.00  0.00    -0.248 NA
ATOM     61  C   UNL A   1      49.321  30.464  26.999  1.00  0.00     0.031 C 
ATOM     62  C   UNL A   1      43.796  31.819  29.117  1.00  0.00     0.029 A 
ATOM     63  C   UNL A   1      44.867  31.143  28.556  1.00  0.00     0.049 A 
ATOM     64  H   UNL A   1      44.937  29.190  27.760  1.00  0.00     0.167 HD
ATOM     65  C   UNL A   1      47.216  30.880  27.807  1.00  0.00     0.074 A 
ATOM     66  C   UNL A   1      48.568  31.365  27.612  1.00  0.00     0.031 C 
ATOM     67  C   UNL A   1      46.218  31.607  28.363  1.00  0.00     0.037 A 
BRANCH  54  68
ATOM     68  C   UNL A   1      40.790  28.669  28.624  1.00  0.00     0.064 A 
ATOM     69  C   UNL A   1      40.332  28.332  29.906  1.00  0.00     0.173 A 
ATOM     70  C   UNL A   1      39.846  29.114  27.686  1.00  0.00     0.173 A 
ATOM     71  F   UNL A   1      41.192  27.891  30.837  1.00  0.00    -0.203 F 
ATOM     72  C   UNL A   1      38.979  28.412  30.229  1.00  0.00     0.198 A 
ATOM     73  C   UNL A   1      38.499  29.222  28.021  1.00  0.00     0.198 A 
ATOM     74  F   UNL A   1      40.231  29.455  26.447  1.00  0.00    -0.203 F 
ATOM     75  F   UNL A   1      38.558  28.042  31.446  1.00  0.00    -0.200 F 
ATOM     76  C   UNL A   1      38.066  28.865  29.289  1.00  0.00     0.200 A 
ATOM     77  F   UNL A   1      37.619  29.675  27.117  1.00  0.00    -0.200 F 
ATOM     78  F   UNL A   1      36.766  28.954  29.604  1.00  0.00    -0.200 F 
ENDBRANCH  54  68
BRANCH  55  79
ATOM     79  C   UNL A   1      50.356  27.989  25.822  1.00  0.00     0.064 A 
ATOM     80  C   UNL A   1      51.400  27.854  26.749  1.00  0.00     0.173 A 
ATOM     81  C   UNL A   1      50.696  28.056  24.463  1.00  0.00     0.173 A 
ATOM     82  F   UNL A   1      51.127  27.804  28.061  1.00  0.00    -0.203 F 
ATOM     83  C   UNL A   1      52.729  27.813  26.335  1.00  0.00     0.198 A 
ATOM     84  C   UNL A   1      52.024  27.984  24.048  1.00  0.00     0.198 A 
ATOM     85  F   UNL A   1      49.735  28.179  23.535  1.00  0.00    -0.203 F 
ATOM     86  F   UNL A   1      53.710  27.732  27.246  1.00  0.00    -0.200 F 
ATOM     87  C   UNL A   1      53.040  27.872  24.985  1.00  0.00     0.200 A 
ATOM     88  F   UNL A   1      52.319  28.026  22.742  1.00  0.00    -0.200 F 
ATOM     89  F   UNL A   1      54.319  27.831  24.587  1.00  0.00    -0.200 F 
ENDBRANCH  55  79
BRANCH  67  90
ATOM     90  C   UNL A   1      46.554  32.991  28.839  1.00  0.00     0.064 A 
ATOM     91  C   UNL A   1      47.045  33.227  30.132  1.00  0.00     0.173 A 
ATOM     92  C   UNL A   1      46.423  34.088  27.975  1.00  0.00     0.173 A 
ATOM     93  F   UNL A   1      47.174  32.213  31.001  1.00  0.00    -0.203 F 
ATOM     94  C   UNL A   1      47.369  34.515  30.549  1.00  0.00     0.198 A 
ATOM     95  C   UNL A   1      46.778  35.370  28.385  1.00  0.00     0.198 A 
ATOM     96  F   UNL A   1      45.965  33.914  26.725  1.00  0.00    -0.203 F 
ATOM     97  F   UNL A   1      47.791  34.724  31.803  1.00  0.00    -0.200 F 
ATOM     98  C   UNL A   1      47.244  35.583  29.673  1.00  0.00     0.200 A 
ATOM     99  F   UNL A   1      46.670  36.398  27.532  1.00  0.00    -0.200 F 
ATOM    100  F   UNL A   1      47.565  36.821  30.074  1.00  0.00    -0.200 F 
ENDBRANCH  67  90
ENDBRANCH  41  42
ENDBRANCH  33  36
ENDBRANCH  31  32
ENDBRANCH  30  31
ENDBRANCH  29  30
ENDBRANCH  28  29
ENDBRANCH   1  28
TORSDOF 19
ENDMDL
