MODEL 1
REMARK VINA RESULT:     -12.3      0.000      0.000
REMARK SMILES C[C@@H](C(=O)NCCCCCCNC(=O)c1ccc(-c2c3nc(c(-c4c(F)c(F)c(F)c(F)c4F)c4ccc([nH]4)c(-c4c(F)c(F)c(F)c(F)c4F)c4nc(c(-c5c(F)c(F)c(F)c(F)c5F)c5ccc2[nH]5)C=C4)C=C3)cc1)[C@H]1CCOC2(CCCCC2)C1
REMARK SMILES IDX 9 1 8 2 7 3 6 4 5 5 3 6 4 7 2 9 1 10 78 11 79 12 88 13 80 14
REMARK SMILES IDX 82 15 81 16 83 17 87 18 84 19 86 20 85 21 10 22 11 23 12 24
REMARK SMILES IDX 13 25 14 27 15 28 16 29 77 30 17 31 76 32 18 33 19 34 20 35
REMARK SMILES IDX 70 36 21 37 75 38 69 39 71 40 22 41 74 42 68 43 67 44 23 46
REMARK SMILES IDX 55 47 35 48 54 49 36 50 39 51 53 52 72 53 37 54 38 55 52 57
REMARK SMILES IDX 73 58 40 59 24 60 25 61 33 62 26 63 27 64 31 65 34 66 28 67
REMARK SMILES IDX 29 68 32 69 30 70 56 71 57 72 65 73 58 74 59 75 63 76 66 77
REMARK SMILES IDX 60 78 61 79 64 80 62 81 41 82 42 83 50 84 43 85 44 86 48 87
REMARK SMILES IDX 51 88 45 89 46 90 49 91 47 92
REMARK H PARENT 5 8 12 26 71 45 39 56
REMARK Flexibility Score: inf
ROOT
ATOM      1  C   UNL A   1      31.569  30.874  26.615  1.00  0.00     0.002 C 
ENDROOT
BRANCH   1   2
ATOM      2  C   UNL A   1      32.948  30.311  26.973  1.00  0.00     0.002 C 
BRANCH   2   3
ATOM      3  C   UNL A   1      32.996  28.790  27.185  1.00  0.00     0.021 C 
BRANCH   3   4
ATOM      4  C   UNL A   1      34.028  28.074  26.310  1.00  0.00     0.116 C 
BRANCH   4   5
ATOM      5  N   UNL A   1      34.024  28.636  24.977  1.00  0.00    -0.356 N 
ATOM      6  C   UNL A   1      33.349  28.247  23.863  1.00  0.00     0.223 C 
ATOM      7  O   UNL A   1      33.676  28.772  22.798  1.00  0.00    -0.275 OA
ATOM      8  H   UNL A   1      34.601  29.424  24.858  1.00  0.00     0.163 HD
BRANCH   6   9
ATOM      9  C   UNL A   1      32.200  27.236  23.971  1.00  0.00     0.078 C 
ATOM     10  C   UNL A   1      32.564  25.884  23.352  1.00  0.00     0.018 C 
BRANCH   9  11
ATOM     11  C   UNL A   1      30.911  27.861  23.359  1.00  0.00     0.006 C 
ATOM     12  C   UNL A   1      29.628  27.078  23.682  1.00  0.00     0.033 C 
ATOM     13  C   UNL A   1      30.724  29.329  23.777  1.00  0.00     0.040 C 
ATOM     14  C   UNL A   1      28.409  27.756  23.080  1.00  0.00     0.161 C 
ATOM     15  C   UNL A   1      29.443  29.940  23.167  1.00  0.00     0.069 C 
ATOM     16  O   UNL A   1      28.315  29.114  23.502  1.00  0.00    -0.375 OA
ATOM     17  C   UNL A   1      29.562  30.141  21.638  1.00  0.00     0.035 C 
ATOM     18  C   UNL A   1      29.184  31.317  23.818  1.00  0.00     0.035 C 
ATOM     19  C   UNL A   1      28.315  30.803  21.049  1.00  0.00     0.003 C 
ATOM     20  C   UNL A   1      27.950  32.013  23.237  1.00  0.00     0.003 C 
ATOM     21  C   UNL A   1      28.028  32.141  21.719  1.00  0.00     0.000 C 
ENDBRANCH   9  11
ENDBRANCH   6   9
ENDBRANCH   4   5
ENDBRANCH   3   4
ENDBRANCH   2   3
ENDBRANCH   1   2
BRANCH   1  22
ATOM     22  C   UNL A   1      31.404  32.376  26.851  1.00  0.00     0.021 C 
BRANCH  22  23
ATOM     23  C   UNL A   1      32.696  33.107  27.199  1.00  0.00     0.116 C 
BRANCH  23  24
ATOM     24  N   UNL A   1      32.449  34.451  27.693  1.00  0.00    -0.352 N 
ATOM     25  C   UNL A   1      32.984  35.081  28.784  1.00  0.00     0.251 C 
ATOM     26  H   UNL A   1      31.806  34.983  27.170  1.00  0.00     0.163 HD
ATOM     27  O   UNL A   1      32.528  36.160  29.160  1.00  0.00    -0.269 OA
BRANCH  25  28
ATOM     28  C   UNL A   1      34.106  34.463  29.524  1.00  0.00     0.039 A 
ATOM     29  C   UNL A   1      35.398  34.578  29.003  1.00  0.00     0.014 A 
ATOM     30  C   UNL A   1      33.885  33.739  30.700  1.00  0.00     0.014 A 
ATOM     31  C   UNL A   1      36.471  33.986  29.672  1.00  0.00     0.010 A 
ATOM     32  C   UNL A   1      34.963  33.208  31.402  1.00  0.00     0.010 A 
ATOM     33  C   UNL A   1      36.263  33.304  30.881  1.00  0.00    -0.014 A 
BRANCH  33  34
ATOM     34  C   UNL A   1      37.386  32.633  31.581  1.00  0.00     0.031 A 
ATOM     35  C   UNL A   1      38.108  31.495  30.915  1.00  0.00     0.074 A 
ATOM     36  C   UNL A   1      37.728  33.017  32.825  1.00  0.00     0.049 A 
ATOM     37  N   UNL A   1      39.087  30.752  31.369  1.00  0.00    -0.248 NA
ATOM     38  C   UNL A   1      37.648  31.119  29.568  1.00  0.00     0.031 C 
ATOM     39  C   UNL A   1      37.076  34.078  33.593  1.00  0.00     0.029 A 
ATOM     40  N   UNL A   1      38.712  32.554  33.663  1.00  0.00    -0.354 N 
ATOM     41  C   UNL A   1      39.339  29.813  30.378  1.00  0.00     0.074 A 
ATOM     42  C   UNL A   1      38.383  30.045  29.319  1.00  0.00     0.031 C 
ATOM     43  C   UNL A   1      37.693  34.203  34.779  1.00  0.00     0.029 A 
ATOM     44  C   UNL A   1      38.766  33.216  34.864  1.00  0.00     0.049 A 
ATOM     45  H   UNL A   1      39.319  31.817  33.425  1.00  0.00     0.167 HD
ATOM     46  C   UNL A   1      40.299  28.858  30.343  1.00  0.00     0.037 A 
ATOM     47  C   UNL A   1      39.596  33.047  35.912  1.00  0.00     0.037 A 
ATOM     48  C   UNL A   1      41.279  28.659  31.377  1.00  0.00     0.049 A 
ATOM     49  C   UNL A   1      40.676  32.002  35.834  1.00  0.00     0.074 A 
ATOM     50  C   UNL A   1      42.335  27.765  31.408  1.00  0.00     0.029 A 
ATOM     51  N   UNL A   1      41.326  29.375  32.564  1.00  0.00    -0.354 N 
ATOM     52  N   UNL A   1      40.949  31.165  34.863  1.00  0.00    -0.248 NA
ATOM     53  C   UNL A   1      41.570  31.888  36.993  1.00  0.00     0.031 C 
ATOM     54  C   UNL A   1      43.000  27.917  32.629  1.00  0.00     0.029 A 
ATOM     55  C   UNL A   1      42.386  28.935  33.340  1.00  0.00     0.049 A 
ATOM     56  H   UNL A   1      40.699  30.091  32.818  1.00  0.00     0.167 HD
ATOM     57  C   UNL A   1      42.068  30.453  35.276  1.00  0.00     0.074 A 
ATOM     58  C   UNL A   1      42.425  30.963  36.585  1.00  0.00     0.031 C 
ATOM     59  C   UNL A   1      42.740  29.470  34.630  1.00  0.00     0.037 A 
BRANCH  46  60
ATOM     60  C   UNL A   1      40.334  27.955  29.144  1.00  0.00     0.064 A 
ATOM     61  C   UNL A   1      39.617  26.749  29.107  1.00  0.00     0.173 A 
ATOM     62  C   UNL A   1      41.076  28.312  28.009  1.00  0.00     0.173 A 
ATOM     63  F   UNL A   1      38.903  26.357  30.172  1.00  0.00    -0.203 F 
ATOM     64  C   UNL A   1      39.669  25.919  27.991  1.00  0.00     0.198 A 
ATOM     65  C   UNL A   1      41.101  27.493  26.882  1.00  0.00     0.198 A 
ATOM     66  F   UNL A   1      41.776  29.456  27.988  1.00  0.00    -0.203 F 
ATOM     67  F   UNL A   1      39.020  24.746  28.000  1.00  0.00    -0.200 F 
ATOM     68  C   UNL A   1      40.406  26.293  26.878  1.00  0.00     0.200 A 
ATOM     69  F   UNL A   1      41.806  27.862  25.803  1.00  0.00    -0.200 F 
ATOM     70  F   UNL A   1      40.453  25.494  25.804  1.00  0.00    -0.200 F 
ENDBRANCH  46  60
BRANCH  47  71
ATOM     71  C   UNL A   1      39.474  33.926  37.103  1.00  0.00     0.064 A 
ATOM     72  C   UNL A   1      40.083  35.189  37.124  1.00  0.00     0.173 A 
ATOM     73  C   UNL A   1      38.758  33.526  38.239  1.00  0.00     0.173 A 
ATOM     74  F   UNL A   1      40.795  35.607  36.067  1.00  0.00    -0.203 F 
ATOM     75  C   UNL A   1      39.997  36.010  38.246  1.00  0.00     0.198 A 
ATOM     76  C   UNL A   1      38.652  34.359  39.351  1.00  0.00     0.198 A 
ATOM     77  F   UNL A   1      38.154  32.329  38.266  1.00  0.00    -0.203 F 
ATOM     78  F   UNL A   1      40.624  37.195  38.255  1.00  0.00    -0.200 F 
ATOM     79  C   UNL A   1      39.278  35.597  39.356  1.00  0.00     0.200 A 
ATOM     80  F   UNL A   1      37.946  33.961  40.419  1.00  0.00    -0.200 F 
ATOM     81  F   UNL A   1      39.194  36.387  40.435  1.00  0.00    -0.200 F 
ENDBRANCH  47  71
BRANCH  59  82
ATOM     82  C   UNL A   1      43.962  28.918  35.301  1.00  0.00     0.064 A 
ATOM     83  C   UNL A   1      45.237  29.455  35.070  1.00  0.00     0.173 A 
ATOM     84  C   UNL A   1      43.849  27.857  36.212  1.00  0.00     0.173 A 
ATOM     85  F   UNL A   1      45.398  30.460  34.196  1.00  0.00    -0.203 F 
ATOM     86  C   UNL A   1      46.359  28.932  35.708  1.00  0.00     0.198 A 
ATOM     87  C   UNL A   1      44.969  27.355  36.869  1.00  0.00     0.198 A 
ATOM     88  F   UNL A   1      42.651  27.314  36.471  1.00  0.00    -0.203 F 
ATOM     89  F   UNL A   1      47.573  29.429  35.438  1.00  0.00    -0.200 F 
ATOM     90  C   UNL A   1      46.223  27.888  36.612  1.00  0.00     0.200 A 
ATOM     91  F   UNL A   1      44.834  26.354  37.750  1.00  0.00    -0.200 F 
ATOM     92  F   UNL A   1      47.303  27.388  37.227  1.00  0.00    -0.200 F 
ENDBRANCH  59  82
ENDBRANCH  33  34
ENDBRANCH  25  28
ENDBRANCH  23  24
ENDBRANCH  22  23
ENDBRANCH   1  22
TORSDOF 14
ENDMDL
MODEL 2
REMARK VINA RESULT:     -12.3      0.750      7.471
REMARK SMILES C[C@@H](C(=O)NCCCCCCNC(=O)c1ccc(-c2c3nc(c(-c4c(F)c(F)c(F)c(F)c4F)c4ccc([nH]4)c(-c4c(F)c(F)c(F)c(F)c4F)c4nc(c(-c5c(F)c(F)c(F)c(F)c5F)c5ccc2[nH]5)C=C4)C=C3)cc1)[C@H]1CCOC2(CCCCC2)C1
REMARK SMILES IDX 9 1 8 2 7 3 6 4 5 5 3 6 4 7 2 9 1 10 78 11 79 12 88 13 80 14
REMARK SMILES IDX 82 15 81 16 83 17 87 18 84 19 86 20 85 21 10 22 11 23 12 24
REMARK SMILES IDX 13 25 14 27 15 28 16 29 77 30 17 31 76 32 18 33 19 34 20 35
REMARK SMILES IDX 70 36 21 37 75 38 69 39 71 40 22 41 74 42 68 43 67 44 23 46
REMARK SMILES IDX 55 47 35 48 54 49 36 50 39 51 53 52 72 53 37 54 38 55 52 57
REMARK SMILES IDX 73 58 40 59 24 60 25 61 33 62 26 63 27 64 31 65 34 66 28 67
REMARK SMILES IDX 29 68 32 69 30 70 56 71 57 72 65 73 58 74 59 75 63 76 66 77
REMARK SMILES IDX 60 78 61 79 64 80 62 81 41 82 42 83 50 84 43 85 44 86 48 87
REMARK SMILES IDX 51 88 45 89 46 90 49 91 47 92
REMARK H PARENT 5 8 12 26 71 45 39 56
REMARK Flexibility Score: inf
ROOT
ATOM      1  C   UNL A   1      31.578  30.829  26.286  1.00  0.00     0.002 C 
ENDROOT
BRANCH   1   2
ATOM      2  C   UNL A   1      32.180  29.792  27.240  1.00  0.00     0.002 C 
BRANCH   2   3
ATOM      3  C   UNL A   1      33.699  29.597  27.116  1.00  0.00     0.021 C 
BRANCH   3   4
ATOM      4  C   UNL A   1      34.102  28.399  26.253  1.00  0.00     0.116 C 
BRANCH   4   5
ATOM      5  N   UNL A   1      34.072  28.763  24.853  1.00  0.00    -0.356 N 
ATOM      6  C   UNL A   1      33.341  28.249  23.829  1.00  0.00     0.223 C 
ATOM      7  O   UNL A   1      33.650  28.600  22.689  1.00  0.00    -0.275 OA
ATOM      8  H   UNL A   1      34.676  29.499  24.603  1.00  0.00     0.163 HD
BRANCH   6   9
ATOM      9  C   UNL A   1      32.156  27.318  24.117  1.00  0.00     0.078 C 
ATOM     10  C   UNL A   1      32.443  25.875  23.694  1.00  0.00     0.018 C 
BRANCH   9  11
ATOM     11  C   UNL A   1      30.873  27.905  23.457  1.00  0.00     0.006 C 
ATOM     12  C   UNL A   1      29.599  27.096  23.749  1.00  0.00     0.033 C 
ATOM     13  C   UNL A   1      30.638  29.373  23.850  1.00  0.00     0.040 C 
ATOM     14  C   UNL A   1      28.384  27.736  23.101  1.00  0.00     0.161 C 
ATOM     15  C   UNL A   1      29.364  29.946  23.192  1.00  0.00     0.069 C 
ATOM     16  O   UNL A   1      28.245  29.097  23.502  1.00  0.00    -0.375 OA
ATOM     17  C   UNL A   1      29.526  30.131  21.665  1.00  0.00     0.035 C 
ATOM     18  C   UNL A   1      29.052  31.324  23.816  1.00  0.00     0.035 C 
ATOM     19  C   UNL A   1      28.283  30.756  21.028  1.00  0.00     0.003 C 
ATOM     20  C   UNL A   1      27.821  31.983  23.188  1.00  0.00     0.003 C 
ATOM     21  C   UNL A   1      27.943  32.094  21.672  1.00  0.00     0.000 C 
ENDBRANCH   9  11
ENDBRANCH   6   9
ENDBRANCH   4   5
ENDBRANCH   3   4
ENDBRANCH   2   3
ENDBRANCH   1   2
BRANCH   1  22
ATOM     22  C   UNL A   1      31.395  32.225  26.884  1.00  0.00     0.021 C 
BRANCH  22  23
ATOM     23  C   UNL A   1      32.683  33.028  27.022  1.00  0.00     0.116 C 
BRANCH  23  24
ATOM     24  N   UNL A   1      32.455  34.329  27.628  1.00  0.00    -0.352 N 
ATOM     25  C   UNL A   1      33.042  34.879  28.737  1.00  0.00     0.251 C 
ATOM     26  H   UNL A   1      31.786  34.894  27.178  1.00  0.00     0.163 HD
ATOM     27  O   UNL A   1      32.600  35.922  29.215  1.00  0.00    -0.269 OA
BRANCH  25  28
ATOM     28  C   UNL A   1      34.200  34.215  29.373  1.00  0.00     0.039 A 
ATOM     29  C   UNL A   1      35.487  34.564  28.952  1.00  0.00     0.014 A 
ATOM     30  C   UNL A   1      34.023  33.225  30.344  1.00  0.00     0.014 A 
ATOM     31  C   UNL A   1      36.597  33.937  29.523  1.00  0.00     0.010 A 
ATOM     32  C   UNL A   1      35.131  32.650  30.960  1.00  0.00     0.010 A 
ATOM     33  C   UNL A   1      36.427  32.982  30.537  1.00  0.00    -0.014 A 
BRANCH  33  34
ATOM     34  C   UNL A   1      37.594  32.276  31.122  1.00  0.00     0.031 A 
ATOM     35  C   UNL A   1      38.070  32.637  32.503  1.00  0.00     0.074 A 
ATOM     36  C   UNL A   1      38.246  31.345  30.403  1.00  0.00     0.049 A 
ATOM     37  N   UNL A   1      39.089  32.169  33.179  1.00  0.00    -0.248 NA
ATOM     38  C   UNL A   1      37.318  33.688  33.207  1.00  0.00     0.031 C 
ATOM     39  C   UNL A   1      37.909  30.938  29.039  1.00  0.00     0.029 A 
ATOM     40  N   UNL A   1      39.336  30.573  30.722  1.00  0.00    -0.354 N 
ATOM     41  C   UNL A   1      39.112  32.883  34.370  1.00  0.00     0.074 A 
ATOM     42  C   UNL A   1      38.038  33.849  34.307  1.00  0.00     0.031 C 
ATOM     43  C   UNL A   1      38.755  29.973  28.647  1.00  0.00     0.029 A 
ATOM     44  C   UNL A   1      39.710  29.711  29.720  1.00  0.00     0.049 A 
ATOM     45  H   UNL A   1      39.804  30.632  31.585  1.00  0.00     0.167 HD
ATOM     46  C   UNL A   1      39.940  32.731  35.430  1.00  0.00     0.037 A 
ATOM     47  C   UNL A   1      40.707  28.807  29.680  1.00  0.00     0.037 A 
ATOM     48  C   UNL A   1      40.978  31.739  35.510  1.00  0.00     0.049 A 
ATOM     49  C   UNL A   1      41.592  28.634  30.885  1.00  0.00     0.074 A 
ATOM     50  C   UNL A   1      41.828  31.457  36.566  1.00  0.00     0.029 A 
ATOM     51  N   UNL A   1      41.304  30.858  34.489  1.00  0.00    -0.354 N 
ATOM     52  N   UNL A   1      41.562  29.267  32.033  1.00  0.00    -0.248 NA
ATOM     53  C   UNL A   1      42.641  27.609  30.794  1.00  0.00     0.031 C 
ATOM     54  C   UNL A   1      42.689  30.428  36.171  1.00  0.00     0.029 A 
ATOM     55  C   UNL A   1      42.348  30.039  34.886  1.00  0.00     0.049 A 
ATOM     56  H   UNL A   1      40.857  30.819  33.612  1.00  0.00     0.167 HD
ATOM     57  C   UNL A   1      42.557  28.694  32.812  1.00  0.00     0.074 A 
ATOM     58  C   UNL A   1      43.170  27.656  32.007  1.00  0.00     0.031 C 
ATOM     59  C   UNL A   1      42.930  28.996  34.080  1.00  0.00     0.037 A 
BRANCH  46  60
ATOM     60  C   UNL A   1      39.753  33.662  36.593  1.00  0.00     0.064 A 
ATOM     61  C   UNL A   1      40.397  34.908  36.653  1.00  0.00     0.173 A 
ATOM     62  C   UNL A   1      38.902  33.313  37.652  1.00  0.00     0.173 A 
ATOM     63  F   UNL A   1      41.231  35.282  35.672  1.00  0.00    -0.203 F 
ATOM     64  C   UNL A   1      40.220  35.754  37.743  1.00  0.00     0.198 A 
ATOM     65  C   UNL A   1      38.704  34.176  38.728  1.00  0.00     0.198 A 
ATOM     66  F   UNL A   1      38.258  32.136  37.644  1.00  0.00    -0.203 F 
ATOM     67  F   UNL A   1      40.888  36.915  37.803  1.00  0.00    -0.200 F 
ATOM     68  C   UNL A   1      39.370  35.391  38.777  1.00  0.00     0.200 A 
ATOM     69  F   UNL A   1      37.874  33.828  39.721  1.00  0.00    -0.200 F 
ATOM     70  F   UNL A   1      39.200  36.208  39.825  1.00  0.00    -0.200 F 
ENDBRANCH  46  60
BRANCH  47  71
ATOM     71  C   UNL A   1      40.889  27.957  28.476  1.00  0.00     0.064 A 
ATOM     72  C   UNL A   1      41.686  28.393  27.408  1.00  0.00     0.173 A 
ATOM     73  C   UNL A   1      40.274  26.703  28.364  1.00  0.00     0.173 A 
ATOM     74  F   UNL A   1      42.280  29.594  27.462  1.00  0.00    -0.203 F 
ATOM     75  C   UNL A   1      41.843  27.615  26.263  1.00  0.00     0.198 A 
ATOM     76  C   UNL A   1      40.451  25.915  27.228  1.00  0.00     0.198 A 
ATOM     77  F   UNL A   1      39.506  26.240  29.361  1.00  0.00    -0.203 F 
ATOM     78  F   UNL A   1      42.575  28.075  25.239  1.00  0.00    -0.200 F 
ATOM     79  C   UNL A   1      41.229  26.375  26.176  1.00  0.00     0.200 A 
ATOM     80  F   UNL A   1      39.866  24.712  27.152  1.00  0.00    -0.200 F 
ATOM     81  F   UNL A   1      41.381  25.627  25.075  1.00  0.00    -0.200 F 
ENDBRANCH  47  71
BRANCH  59  82
ATOM     82  C   UNL A   1      44.011  28.161  34.696  1.00  0.00     0.064 A 
ATOM     83  C   UNL A   1      43.727  26.957  35.357  1.00  0.00     0.173 A 
ATOM     84  C   UNL A   1      45.354  28.556  34.593  1.00  0.00     0.173 A 
ATOM     85  F   UNL A   1      42.458  26.545  35.494  1.00  0.00    -0.203 F 
ATOM     86  C   UNL A   1      44.747  26.192  35.917  1.00  0.00     0.198 A 
ATOM     87  C   UNL A   1      46.373  27.775  35.130  1.00  0.00     0.198 A 
ATOM     88  F   UNL A   1      45.676  29.695  33.965  1.00  0.00    -0.203 F 
ATOM     89  F   UNL A   1      44.450  25.070  36.586  1.00  0.00    -0.200 F 
ATOM     90  C   UNL A   1      46.068  26.598  35.798  1.00  0.00     0.200 A 
ATOM     91  F   UNL A   1      47.650  28.163  35.003  1.00  0.00    -0.200 F 
ATOM     92  F   UNL A   1      47.049  25.859  36.334  1.00  0.00    -0.200 F 
ENDBRANCH  59  82
ENDBRANCH  33  34
ENDBRANCH  25  28
ENDBRANCH  23  24
ENDBRANCH  22  23
ENDBRANCH   1  22
TORSDOF 14
ENDMDL
MODEL 3
REMARK VINA RESULT:     -12.2      0.964      7.424
REMARK SMILES C[C@@H](C(=O)NCCCCCCNC(=O)c1ccc(-c2c3nc(c(-c4c(F)c(F)c(F)c(F)c4F)c4ccc([nH]4)c(-c4c(F)c(F)c(F)c(F)c4F)c4nc(c(-c5c(F)c(F)c(F)c(F)c5F)c5ccc2[nH]5)C=C4)C=C3)cc1)[C@H]1CCOC2(CCCCC2)C1
REMARK SMILES IDX 9 1 8 2 7 3 6 4 5 5 3 6 4 7 2 9 1 10 78 11 79 12 88 13 80 14
REMARK SMILES IDX 82 15 81 16 83 17 87 18 84 19 86 20 85 21 10 22 11 23 12 24
REMARK SMILES IDX 13 25 14 27 15 28 16 29 77 30 17 31 76 32 18 33 19 34 20 35
REMARK SMILES IDX 70 36 21 37 75 38 69 39 71 40 22 41 74 42 68 43 67 44 23 46
REMARK SMILES IDX 55 47 35 48 54 49 36 50 39 51 53 52 72 53 37 54 38 55 52 57
REMARK SMILES IDX 73 58 40 59 24 60 25 61 33 62 26 63 27 64 31 65 34 66 28 67
REMARK SMILES IDX 29 68 32 69 30 70 56 71 57 72 65 73 58 74 59 75 63 76 66 77
REMARK SMILES IDX 60 78 61 79 64 80 62 81 41 82 42 83 50 84 43 85 44 86 48 87
REMARK SMILES IDX 51 88 45 89 46 90 49 91 47 92
REMARK H PARENT 5 8 12 26 71 45 39 56
REMARK Flexibility Score: inf
ROOT
ATOM      1  C   UNL A   1      31.769  30.559  26.768  1.00  0.00     0.002 C 
ENDROOT
BRANCH   1   2
ATOM      2  C   UNL A   1      33.239  30.197  26.535  1.00  0.00     0.002 C 
BRANCH   2   3
ATOM      3  C   UNL A   1      33.697  28.881  27.182  1.00  0.00     0.021 C 
BRANCH   3   4
ATOM      4  C   UNL A   1      33.594  27.666  26.256  1.00  0.00     0.116 C 
BRANCH   4   5
ATOM      5  N   UNL A   1      33.656  28.089  24.874  1.00  0.00    -0.356 N 
ATOM      6  C   UNL A   1      32.884  27.734  23.813  1.00  0.00     0.223 C 
ATOM      7  O   UNL A   1      33.272  28.083  22.696  1.00  0.00    -0.275 OA
ATOM      8  H   UNL A   1      34.369  28.737  24.670  1.00  0.00     0.163 HD
BRANCH   6   9
ATOM      9  C   UNL A   1      31.568  26.978  24.035  1.00  0.00     0.078 C 
ATOM     10  C   UNL A   1      31.647  25.530  23.545  1.00  0.00     0.018 C 
BRANCH   9  11
ATOM     11  C   UNL A   1      30.403  27.781  23.382  1.00  0.00     0.006 C 
ATOM     12  C   UNL A   1      29.013  27.179  23.643  1.00  0.00     0.033 C 
ATOM     13  C   UNL A   1      30.402  29.257  23.815  1.00  0.00     0.040 C 
ATOM     14  C   UNL A   1      27.923  28.024  23.005  1.00  0.00     0.161 C 
ATOM     15  C   UNL A   1      29.243  30.044  23.165  1.00  0.00     0.069 C 
ATOM     16  O   UNL A   1      27.999  29.378  23.443  1.00  0.00    -0.375 OA
ATOM     17  C   UNL A   1      29.450  30.242  21.644  1.00  0.00     0.035 C 
ATOM     18  C   UNL A   1      29.149  31.437  23.826  1.00  0.00     0.035 C 
ATOM     19  C   UNL A   1      28.331  31.075  21.018  1.00  0.00     0.003 C 
ATOM     20  C   UNL A   1      28.047  32.301  23.208  1.00  0.00     0.003 C 
ATOM     21  C   UNL A   1      28.203  32.433  21.697  1.00  0.00     0.000 C 
ENDBRANCH   9  11
ENDBRANCH   6   9
ENDBRANCH   4   5
ENDBRANCH   3   4
ENDBRANCH   2   3
ENDBRANCH   1   2
BRANCH   1  22
ATOM     22  C   UNL A   1      31.482  32.058  26.872  1.00  0.00     0.021 C 
BRANCH  22  23
ATOM     23  C   UNL A   1      32.724  32.942  26.868  1.00  0.00     0.116 C 
BRANCH  23  24
ATOM     24  N   UNL A   1      32.511  34.190  27.580  1.00  0.00    -0.352 N 
ATOM     25  C   UNL A   1      33.131  34.655  28.709  1.00  0.00     0.251 C 
ATOM     26  H   UNL A   1      31.825  34.784  27.198  1.00  0.00     0.163 HD
ATOM     27  O   UNL A   1      32.701  35.655  29.282  1.00  0.00    -0.269 OA
BRANCH  25  28
ATOM     28  C   UNL A   1      34.312  33.951  29.254  1.00  0.00     0.039 A 
ATOM     29  C   UNL A   1      34.110  32.842  30.081  1.00  0.00     0.014 A 
ATOM     30  C   UNL A   1      35.609  34.403  28.990  1.00  0.00     0.014 A 
ATOM     31  C   UNL A   1      35.208  32.173  30.625  1.00  0.00     0.010 A 
ATOM     32  C   UNL A   1      36.704  33.695  29.476  1.00  0.00     0.010 A 
ATOM     33  C   UNL A   1      36.513  32.589  30.319  1.00  0.00    -0.014 A 
BRANCH  33  34
ATOM     34  C   UNL A   1      37.690  31.915  30.922  1.00  0.00     0.031 A 
ATOM     35  C   UNL A   1      38.121  32.273  32.318  1.00  0.00     0.074 A 
ATOM     36  C   UNL A   1      38.391  31.017  30.206  1.00  0.00     0.049 A 
ATOM     37  N   UNL A   1      39.139  31.830  33.013  1.00  0.00    -0.248 NA
ATOM     38  C   UNL A   1      37.315  33.287  33.018  1.00  0.00     0.031 C 
ATOM     39  C   UNL A   1      38.100  30.619  28.830  1.00  0.00     0.029 A 
ATOM     40  N   UNL A   1      39.499  30.279  30.541  1.00  0.00    -0.354 N 
ATOM     41  C   UNL A   1      39.109  32.529  34.213  1.00  0.00     0.074 A 
ATOM     42  C   UNL A   1      38.004  33.457  34.137  1.00  0.00     0.031 C 
ATOM     43  C   UNL A   1      38.989  29.689  28.445  1.00  0.00     0.029 A 
ATOM     44  C   UNL A   1      39.927  29.445  29.537  1.00  0.00     0.049 A 
ATOM     45  H   UNL A   1      39.945  30.342  31.416  1.00  0.00     0.167 HD
ATOM     46  C   UNL A   1      39.917  32.390  35.291  1.00  0.00     0.037 A 
ATOM     47  C   UNL A   1      40.956  28.577  29.509  1.00  0.00     0.037 A 
ATOM     48  C   UNL A   1      40.987  31.433  35.382  1.00  0.00     0.049 A 
ATOM     49  C   UNL A   1      41.817  28.417  30.733  1.00  0.00     0.074 A 
ATOM     50  C   UNL A   1      41.821  31.166  36.454  1.00  0.00     0.029 A 
ATOM     51  N   UNL A   1      41.367  30.579  34.358  1.00  0.00    -0.354 N 
ATOM     52  N   UNL A   1      41.738  29.033  31.887  1.00  0.00    -0.248 NA
ATOM     53  C   UNL A   1      42.903  27.431  30.653  1.00  0.00     0.031 C 
ATOM     54  C   UNL A   1      42.726  30.173  36.067  1.00  0.00     0.029 A 
ATOM     55  C   UNL A   1      42.430  29.791  34.769  1.00  0.00     0.049 A 
ATOM     56  H   UNL A   1      40.943  30.537  33.470  1.00  0.00     0.167 HD
ATOM     57  C   UNL A   1      42.735  28.483  32.683  1.00  0.00     0.074 A 
ATOM     58  C   UNL A   1      43.402  27.479  31.879  1.00  0.00     0.031 C 
ATOM     59  C   UNL A   1      43.066  28.780  33.963  1.00  0.00     0.037 A 
BRANCH  46  60
ATOM     60  C   UNL A   1      39.670  33.297  36.462  1.00  0.00     0.064 A 
ATOM     61  C   UNL A   1      38.783  32.948  37.492  1.00  0.00     0.173 A 
ATOM     62  C   UNL A   1      40.345  34.523  36.565  1.00  0.00     0.173 A 
ATOM     63  F   UNL A   1      38.103  31.793  37.432  1.00  0.00    -0.203 F 
ATOM     64  C   UNL A   1      38.558  33.805  38.564  1.00  0.00     0.198 A 
ATOM     65  C   UNL A   1      40.140  35.365  37.656  1.00  0.00     0.198 A 
ATOM     66  F   UNL A   1      41.208  34.904  35.611  1.00  0.00    -0.203 F 
ATOM     67  F   UNL A   1      37.665  33.474  39.508  1.00  0.00    -0.200 F 
ATOM     68  C   UNL A   1      39.240  35.010  38.649  1.00  0.00     0.200 A 
ATOM     69  F   UNL A   1      40.808  36.523  37.742  1.00  0.00    -0.200 F 
ATOM     70  F   UNL A   1      39.023  35.832  39.684  1.00  0.00    -0.200 F 
ENDBRANCH  46  60
BRANCH  47  71
ATOM     71  C   UNL A   1      41.196  27.750  28.299  1.00  0.00     0.064 A 
ATOM     72  C   UNL A   1      40.569  26.504  28.149  1.00  0.00     0.173 A 
ATOM     73  C   UNL A   1      42.051  28.179  27.276  1.00  0.00     0.173 A 
ATOM     74  F   UNL A   1      39.757  26.044  29.111  1.00  0.00    -0.203 F 
ATOM     75  C   UNL A   1      40.808  25.710  27.030  1.00  0.00     0.198 A 
ATOM     76  C   UNL A   1      42.269  27.394  26.145  1.00  0.00     0.198 A 
ATOM     77  F   UNL A   1      42.670  29.365  27.370  1.00  0.00    -0.203 F 
ATOM     78  F   UNL A   1      40.229  24.504  26.932  1.00  0.00    -0.200 F 
ATOM     79  C   UNL A   1      41.653  26.157  26.027  1.00  0.00     0.200 A 
ATOM     80  F   UNL A   1      43.078  27.835  25.172  1.00  0.00    -0.200 F 
ATOM     81  F   UNL A   1      41.881  25.393  24.950  1.00  0.00    -0.200 F 
ENDBRANCH  47  71
BRANCH  59  82
ATOM     82  C   UNL A   1      44.161  27.974  34.594  1.00  0.00     0.064 A 
ATOM     83  C   UNL A   1      45.497  28.400  34.572  1.00  0.00     0.173 A 
ATOM     84  C   UNL A   1      43.862  26.776  35.259  1.00  0.00     0.173 A 
ATOM     85  F   UNL A   1      45.835  29.531  33.936  1.00  0.00    -0.203 F 
ATOM     86  C   UNL A   1      46.499  27.639  35.170  1.00  0.00     0.198 A 
ATOM     87  C   UNL A   1      44.862  26.033  35.879  1.00  0.00     0.198 A 
ATOM     88  F   UNL A   1      42.599  26.330  35.313  1.00  0.00    -0.203 F 
ATOM     89  F   UNL A   1      47.775  28.040  35.096  1.00  0.00    -0.200 F 
ATOM     90  C   UNL A   1      46.180  26.461  35.829  1.00  0.00     0.200 A 
ATOM     91  F   UNL A   1      44.550  24.900  36.525  1.00  0.00    -0.200 F 
ATOM     92  F   UNL A   1      47.144  25.732  36.407  1.00  0.00    -0.200 F 
ENDBRANCH  59  82
ENDBRANCH  33  34
ENDBRANCH  25  28
ENDBRANCH  23  24
ENDBRANCH  22  23
ENDBRANCH   1  22
TORSDOF 14
ENDMDL
