MODEL 1
REMARK VINA RESULT:     -13.8      0.000      0.000
REMARK SMILES Cc1ccc(S(=O)(=O)n2cc(C(=O)C(=O)N[C@H](Cc3c[nH]c4ccccc34)C(=O)NCC(=O)NCCCCCCNC(=O)c3ccc(-c4c5nc(c(-c6c(F)c(F)c(F)c(F)c6F)c6ccc([nH]6)c(-c6c(F)c(F)c(F)c(F)c6F)c6nc(c(-c7c(F)c(F)c(F)c(F)c7F)c7ccc4[nH]7)C=C6)C=C5)cc3)c3ccccc32)cc1
REMARK SMILES IDX 35 1 34 2 32 3 33 4 31 6 30 7 28 8 29 9 17 11 16 12 14 13
REMARK SMILES IDX 15 14 12 16 13 17 11 18 9 19 10 20 112 21 107 22 111 23
REMARK SMILES IDX 108 24 110 25 109 26 6 27 7 28 8 29 5 30 1 31 2 32 3 33
REMARK SMILES IDX 114 34 4 35 113 36 18 37 19 38 20 39 27 40 21 41 22 42 26 43
REMARK SMILES IDX 23 45 25 46 24 47 36 48 37 49 38 50 39 51 40 52 41 53 42 54
REMARK SMILES IDX 43 56 44 57 45 58 106 59 46 60 105 61 47 62 48 63 49 64
REMARK SMILES IDX 99 65 50 66 104 67 98 68 100 69 51 70 103 71 97 72 96 73
REMARK SMILES IDX 52 75 84 76 64 77 83 78 65 79 68 80 82 81 101 82 66 83 67 84
REMARK SMILES IDX 81 86 102 87 69 88 53 89 54 90 62 91 55 92 56 93 60 94 63 95
REMARK SMILES IDX 57 96 58 97 61 98 59 99 85 100 86 101 94 102 87 103 88 104
REMARK SMILES IDX 92 105 95 106 89 107 90 108 93 109 91 110 70 111 71 112
REMARK SMILES IDX 79 113 72 114 73 115 77 116 80 117 74 118 75 119 78 120
REMARK SMILES IDX 76 121
REMARK H PARENT 34 5 30 10 16 15 21 44 41 55 100 74 68 85
REMARK Flexibility Score: inf
ROOT
ATOM      1  C   UNL A   1      39.151  20.811  25.636  1.00  0.00     0.116 C 
ENDROOT
BRANCH   1   2
ATOM      2  N   UNL A   1      39.066  22.251  25.837  1.00  0.00    -0.355 N 
ATOM      3  C   UNL A   1      37.976  23.070  25.949  1.00  0.00     0.239 C 
ATOM      4  O   UNL A   1      38.178  24.212  26.378  1.00  0.00    -0.273 OA
ATOM      5  H   UNL A   1      39.934  22.711  25.904  1.00  0.00     0.163 HD
BRANCH   3   6
ATOM      6  C   UNL A   1      36.529  22.591  25.724  1.00  0.00     0.216 C 
BRANCH   6   7
ATOM      7  N   UNL A   1      35.666  22.634  26.878  1.00  0.00    -0.345 N 
ATOM      8  C   UNL A   1      34.331  22.588  27.062  1.00  0.00     0.243 C 
ATOM      9  O   UNL A   1      34.004  22.467  28.252  1.00  0.00    -0.273 OA
ATOM     10  H   UNL A   1      36.164  22.716  27.723  1.00  0.00     0.164 HD
BRANCH   8  11
ATOM     11  C   UNL A   1      33.214  22.731  25.977  1.00  0.00     0.176 C 
BRANCH  11  12
ATOM     12  N   UNL A   1      31.779  22.381  26.255  1.00  0.00    -0.337 N 
ATOM     13  C   UNL A   1      30.606  23.090  26.485  1.00  0.00     0.293 C 
ATOM     14  O   UNL A   1      29.585  22.485  26.798  1.00  0.00    -0.265 OA
ATOM     15  H   UNL A   1      31.633  21.408  26.279  1.00  0.00     0.164 HD
BRANCH  13  16
ATOM     16  C   UNL A   1      30.557  24.607  26.322  1.00  0.00     0.252 C 
ATOM     17  O   UNL A   1      29.503  25.127  26.697  1.00  0.00    -0.283 OA
BRANCH  16  18
ATOM     18  C   UNL A   1      31.613  25.475  25.760  1.00  0.00     0.054 A 
ATOM     19  N   UNL A   1      33.438  26.688  25.166  1.00  0.00    -0.240 N 
ATOM     20  C   UNL A   1      32.646  26.274  26.268  1.00  0.00     0.117 A 
ATOM     21  C   UNL A   1      33.083  25.823  24.117  1.00  0.00     0.065 A 
ATOM     22  C   UNL A   1      31.728  25.649  24.354  1.00  0.00     0.012 A 
ATOM     23  C   UNL A   1      33.647  25.590  22.854  1.00  0.00     0.028 A 
ATOM     24  C   UNL A   1      30.856  25.608  23.262  1.00  0.00     0.011 A 
ATOM     25  C   UNL A   1      32.751  25.501  21.780  1.00  0.00     0.002 A 
ATOM     26  C   UNL A   1      31.376  25.597  21.973  1.00  0.00     0.001 A 
BRANCH  19  27
ATOM     27  S   UNL A   1      33.449  28.392  24.593  1.00  0.00     0.268 S 
ATOM     28  O   UNL A   1      34.452  28.428  23.548  1.00  0.00    -0.201 OA
ATOM     29  O   UNL A   1      33.614  29.154  25.825  1.00  0.00    -0.201 OA
BRANCH  27  30
ATOM     30  C   UNL A   1      31.963  29.070  23.929  1.00  0.00     0.088 A 
ATOM     31  C   UNL A   1      28.542  30.413  21.668  1.00  0.00     0.044 C 
ATOM     32  C   UNL A   1      29.703  29.922  22.483  1.00  0.00    -0.051 A 
ATOM     33  C   UNL A   1      30.808  29.428  21.801  1.00  0.00     0.005 A 
ATOM     34  C   UNL A   1      29.737  29.978  23.892  1.00  0.00     0.005 A 
ATOM     35  C   UNL A   1      31.913  28.999  22.518  1.00  0.00     0.022 A 
ATOM     36  C   UNL A   1      30.868  29.551  24.629  1.00  0.00     0.022 A 
ENDBRANCH  27  30
ENDBRANCH  19  27
ENDBRANCH  16  18
ENDBRANCH  13  16
ENDBRANCH  11  12
BRANCH  11  37
ATOM     37  C   UNL A   1      33.664  22.570  24.488  1.00  0.00     0.072 C 
BRANCH  37  38
ATOM     38  C   UNL A   1      33.081  21.436  23.684  1.00  0.00    -0.020 A 
ATOM     39  C   UNL A   1      32.192  21.598  22.642  1.00  0.00     0.087 A 
ATOM     40  C   UNL A   1      33.325  20.019  23.781  1.00  0.00     0.003 A 
ATOM     41  N   UNL A   1      31.812  20.365  22.197  1.00  0.00    -0.361 N 
ATOM     42  C   UNL A   1      32.456  19.380  22.893  1.00  0.00     0.046 A 
ATOM     43  C   UNL A   1      34.164  19.201  24.566  1.00  0.00     0.010 A 
ATOM     44  H   UNL A   1      31.164  20.206  21.473  1.00  0.00     0.166 HD
ATOM     45  C   UNL A   1      32.327  17.989  22.802  1.00  0.00     0.026 A 
ATOM     46  C   UNL A   1      34.069  17.804  24.468  1.00  0.00     0.001 A 
ATOM     47  C   UNL A   1      33.148  17.207  23.612  1.00  0.00     0.002 A 
ENDBRANCH  37  38
ENDBRANCH  11  37
ENDBRANCH   8  11
ENDBRANCH   6   7
ENDBRANCH   3   6
ENDBRANCH   1   2
BRANCH   1  48
ATOM     48  C   UNL A   1      40.220  20.139  26.503  1.00  0.00     0.021 C 
BRANCH  48  49
ATOM     49  C   UNL A   1      41.685  20.251  26.051  1.00  0.00     0.002 C 
BRANCH  49  50
ATOM     50  C   UNL A   1      42.585  21.382  26.589  1.00  0.00     0.002 C 
BRANCH  50  51
ATOM     51  C   UNL A   1      42.594  22.773  25.944  1.00  0.00     0.021 C 
BRANCH  51  52
ATOM     52  C   UNL A   1      43.310  22.942  24.607  1.00  0.00     0.116 C 
BRANCH  52  53
ATOM     53  N   UNL A   1      44.420  22.028  24.357  1.00  0.00    -0.352 N 
ATOM     54  C   UNL A   1      45.750  22.127  24.752  1.00  0.00     0.251 C 
ATOM     55  H   UNL A   1      44.195  21.225  23.832  1.00  0.00     0.163 HD
ATOM     56  O   UNL A   1      46.561  21.281  24.421  1.00  0.00    -0.269 OA
BRANCH  54  57
ATOM     57  C   UNL A   1      46.147  23.199  25.704  1.00  0.00     0.039 A 
ATOM     58  C   UNL A   1      46.008  22.947  27.075  1.00  0.00     0.014 A 
ATOM     59  C   UNL A   1      46.434  24.485  25.261  1.00  0.00     0.014 A 
ATOM     60  C   UNL A   1      45.869  24.018  27.957  1.00  0.00     0.010 A 
ATOM     61  C   UNL A   1      46.181  25.543  26.107  1.00  0.00     0.010 A 
ATOM     62  C   UNL A   1      45.821  25.308  27.436  1.00  0.00    -0.014 A 
BRANCH  62  63
ATOM     63  C   UNL A   1      45.315  26.468  28.157  1.00  0.00     0.031 A 
ATOM     64  C   UNL A   1      43.914  26.902  27.988  1.00  0.00     0.074 A 
ATOM     65  C   UNL A   1      46.096  27.039  29.101  1.00  0.00     0.049 A 
ATOM     66  N   UNL A   1      43.458  28.043  28.377  1.00  0.00    -0.248 NA
ATOM     67  C   UNL A   1      42.912  26.076  27.330  1.00  0.00     0.031 C 
ATOM     68  C   UNL A   1      45.695  27.976  30.148  1.00  0.00     0.029 A 
ATOM     69  N   UNL A   1      47.500  27.034  29.164  1.00  0.00    -0.354 N 
ATOM     70  C   UNL A   1      42.090  28.024  28.246  1.00  0.00     0.074 A 
ATOM     71  C   UNL A   1      41.803  26.787  27.554  1.00  0.00     0.031 C 
ATOM     72  C   UNL A   1      46.769  28.688  30.523  1.00  0.00     0.029 A 
ATOM     73  C   UNL A   1      47.852  28.329  29.625  1.00  0.00     0.049 A 
ATOM     74  H   UNL A   1      48.109  26.294  28.939  1.00  0.00     0.167 HD
ATOM     75  C   UNL A   1      41.358  29.020  28.827  1.00  0.00     0.037 A 
ATOM     76  C   UNL A   1      48.522  29.197  28.811  1.00  0.00     0.037 A 
ATOM     77  C   UNL A   1      42.226  30.046  29.400  1.00  0.00     0.049 A 
ATOM     78  C   UNL A   1      47.774  30.477  28.497  1.00  0.00     0.074 A 
ATOM     79  C   UNL A   1      42.718  30.311  30.668  1.00  0.00     0.029 A 
ATOM     80  N   UNL A   1      42.964  30.828  28.534  1.00  0.00    -0.354 N 
ATOM     81  N   UNL A   1      46.541  30.711  28.848  1.00  0.00    -0.248 NA
ATOM     82  C   UNL A   1      48.330  31.553  27.673  1.00  0.00     0.031 C 
ATOM     83  C   UNL A   1      43.785  31.248  30.540  1.00  0.00     0.029 A 
ATOM     84  C   UNL A   1      43.930  31.553  29.200  1.00  0.00     0.049 A 
ATOM     85  H   UNL A   1      42.819  30.864  27.560  1.00  0.00     0.167 HD
ATOM     86  C   UNL A   1      46.126  31.889  28.290  1.00  0.00     0.074 A 
ATOM     87  C   UNL A   1      47.280  32.383  27.564  1.00  0.00     0.031 C 
ATOM     88  C   UNL A   1      44.855  32.360  28.425  1.00  0.00     0.037 A 
BRANCH  75  89
ATOM     89  C   UNL A   1      39.863  28.991  29.044  1.00  0.00     0.064 A 
ATOM     90  C   UNL A   1      38.982  29.319  27.989  1.00  0.00     0.173 A 
ATOM     91  C   UNL A   1      39.230  28.685  30.262  1.00  0.00     0.173 A 
ATOM     92  F   UNL A   1      39.430  29.543  26.746  1.00  0.00    -0.203 F 
ATOM     93  C   UNL A   1      37.600  29.433  28.169  1.00  0.00     0.198 A 
ATOM     94  C   UNL A   1      37.855  28.855  30.458  1.00  0.00     0.198 A 
ATOM     95  F   UNL A   1      39.903  28.146  31.284  1.00  0.00    -0.203 F 
ATOM     96  F   UNL A   1      36.818  29.745  27.127  1.00  0.00    -0.200 F 
ATOM     97  C   UNL A   1      37.041  29.237  29.413  1.00  0.00     0.200 A 
ATOM     98  F   UNL A   1      37.326  28.634  31.671  1.00  0.00    -0.200 F 
ATOM     99  F   UNL A   1      35.723  29.387  29.598  1.00  0.00    -0.200 F 
ENDBRANCH  75  89
BRANCH  76 100
ATOM    100  C   UNL A   1      49.444  28.493  27.877  1.00  0.00     0.064 A 
ATOM    101  C   UNL A   1      50.645  27.969  28.398  1.00  0.00     0.173 A 
ATOM    102  C   UNL A   1      48.993  27.986  26.654  1.00  0.00     0.173 A 
ATOM    103  F   UNL A   1      51.122  28.424  29.568  1.00  0.00    -0.203 F 
ATOM    104  C   UNL A   1      51.279  26.885  27.800  1.00  0.00     0.198 A 
ATOM    105  C   UNL A   1      49.649  26.917  26.042  1.00  0.00     0.198 A 
ATOM    106  F   UNL A   1      47.850  28.431  26.113  1.00  0.00    -0.203 F 
ATOM    107  F   UNL A   1      52.336  26.314  28.398  1.00  0.00    -0.200 F 
ATOM    108  C   UNL A   1      50.763  26.340  26.637  1.00  0.00     0.200 A 
ATOM    109  F   UNL A   1      49.138  26.375  24.928  1.00  0.00    -0.200 F 
ATOM    110  F   UNL A   1      51.306  25.232  26.116  1.00  0.00    -0.200 F 
ENDBRANCH  76 100
BRANCH  88 111
ATOM    111  C   UNL A   1      44.387  33.645  27.818  1.00  0.00     0.064 A 
ATOM    112  C   UNL A   1      44.213  34.807  28.583  1.00  0.00     0.173 A 
ATOM    113  C   UNL A   1      43.974  33.710  26.472  1.00  0.00     0.173 A 
ATOM    114  F   UNL A   1      44.545  34.825  29.883  1.00  0.00    -0.203 F 
ATOM    115  C   UNL A   1      43.679  35.970  28.028  1.00  0.00     0.198 A 
ATOM    116  C   UNL A   1      43.394  34.855  25.934  1.00  0.00     0.198 A 
ATOM    117  F   UNL A   1      44.146  32.671  25.640  1.00  0.00    -0.203 F 
ATOM    118  F   UNL A   1      43.569  37.075  28.777  1.00  0.00    -0.200 F 
ATOM    119  C   UNL A   1      43.255  35.990  26.709  1.00  0.00     0.200 A 
ATOM    120  F   UNL A   1      42.975  34.854  24.661  1.00  0.00    -0.200 F 
ATOM    121  F   UNL A   1      42.720  37.100  26.186  1.00  0.00    -0.200 F 
ENDBRANCH  88 111
ENDBRANCH  62  63
ENDBRANCH  54  57
ENDBRANCH  52  53
ENDBRANCH  51  52
ENDBRANCH  50  51
ENDBRANCH  49  50
ENDBRANCH  48  49
ENDBRANCH   1  48
TORSDOF 22
ENDMDL
MODEL 2
REMARK VINA RESULT:     -13.0      2.432      3.729
REMARK SMILES Cc1ccc(S(=O)(=O)n2cc(C(=O)C(=O)N[C@H](Cc3c[nH]c4ccccc34)C(=O)NCC(=O)NCCCCCCNC(=O)c3ccc(-c4c5nc(c(-c6c(F)c(F)c(F)c(F)c6F)c6ccc([nH]6)c(-c6c(F)c(F)c(F)c(F)c6F)c6nc(c(-c7c(F)c(F)c(F)c(F)c7F)c7ccc4[nH]7)C=C6)C=C5)cc3)c3ccccc32)cc1
REMARK SMILES IDX 35 1 34 2 32 3 33 4 31 6 30 7 28 8 29 9 17 11 16 12 14 13
REMARK SMILES IDX 15 14 12 16 13 17 11 18 9 19 10 20 112 21 107 22 111 23
REMARK SMILES IDX 108 24 110 25 109 26 6 27 7 28 8 29 5 30 1 31 2 32 3 33
REMARK SMILES IDX 114 34 4 35 113 36 18 37 19 38 20 39 27 40 21 41 22 42 26 43
REMARK SMILES IDX 23 45 25 46 24 47 36 48 37 49 38 50 39 51 40 52 41 53 42 54
REMARK SMILES IDX 43 56 44 57 45 58 106 59 46 60 105 61 47 62 48 63 49 64
REMARK SMILES IDX 99 65 50 66 104 67 98 68 100 69 51 70 103 71 97 72 96 73
REMARK SMILES IDX 52 75 84 76 64 77 83 78 65 79 68 80 82 81 101 82 66 83 67 84
REMARK SMILES IDX 81 86 102 87 69 88 53 89 54 90 62 91 55 92 56 93 60 94 63 95
REMARK SMILES IDX 57 96 58 97 61 98 59 99 85 100 86 101 94 102 87 103 88 104
REMARK SMILES IDX 92 105 95 106 89 107 90 108 93 109 91 110 70 111 71 112
REMARK SMILES IDX 79 113 72 114 73 115 77 116 80 117 74 118 75 119 78 120
REMARK SMILES IDX 76 121
REMARK H PARENT 34 5 30 10 16 15 21 44 41 55 100 74 68 85
REMARK Flexibility Score: inf
ROOT
ATOM      1  C   UNL A   1      38.849  21.059  25.383  1.00  0.00     0.116 C 
ENDROOT
BRANCH   1   2
ATOM      2  N   UNL A   1      38.986  22.436  25.838  1.00  0.00    -0.355 N 
ATOM      3  C   UNL A   1      38.041  23.409  26.021  1.00  0.00     0.239 C 
ATOM      4  O   UNL A   1      38.387  24.408  26.664  1.00  0.00    -0.273 OA
ATOM      5  H   UNL A   1      39.907  22.712  26.047  1.00  0.00     0.163 HD
BRANCH   3   6
ATOM      6  C   UNL A   1      36.566  23.246  25.612  1.00  0.00     0.216 C 
BRANCH   6   7
ATOM      7  N   UNL A   1      35.710  22.612  26.584  1.00  0.00    -0.345 N 
ATOM      8  C   UNL A   1      34.572  21.891  26.515  1.00  0.00     0.243 C 
ATOM      9  O   UNL A   1      34.257  21.367  27.594  1.00  0.00    -0.273 OA
ATOM     10  H   UNL A   1      36.028  22.733  27.508  1.00  0.00     0.164 HD
BRANCH   8  11
ATOM     11  C   UNL A   1      33.628  21.718  25.281  1.00  0.00     0.176 C 
BRANCH  11  12
ATOM     12  N   UNL A   1      32.135  21.846  25.391  1.00  0.00    -0.337 N 
ATOM     13  C   UNL A   1      31.249  22.780  25.914  1.00  0.00     0.293 C 
ATOM     14  O   UNL A   1      30.048  22.526  25.944  1.00  0.00    -0.265 OA
ATOM     15  H   UNL A   1      31.667  21.076  24.994  1.00  0.00     0.164 HD
BRANCH  13  16
ATOM     16  C   UNL A   1      31.742  24.132  26.424  1.00  0.00     0.252 C 
ATOM     17  O   UNL A   1      31.426  24.384  27.590  1.00  0.00    -0.283 OA
BRANCH  16  18
ATOM     18  C   UNL A   1      32.519  25.138  25.670  1.00  0.00     0.054 A 
ATOM     19  N   UNL A   1      33.993  26.566  24.698  1.00  0.00    -0.240 N 
ATOM     20  C   UNL A   1      33.588  26.002  25.936  1.00  0.00     0.117 A 
ATOM     21  C   UNL A   1      33.418  25.740  23.718  1.00  0.00     0.065 A 
ATOM     22  C   UNL A   1      32.208  25.414  24.310  1.00  0.00     0.012 A 
ATOM     23  C   UNL A   1      33.609  25.648  22.331  1.00  0.00     0.028 A 
ATOM     24  C   UNL A   1      31.062  25.357  23.510  1.00  0.00     0.011 A 
ATOM     25  C   UNL A   1      32.450  25.540  21.550  1.00  0.00     0.002 A 
ATOM     26  C   UNL A   1      31.187  25.483  22.131  1.00  0.00     0.001 A 
BRANCH  19  27
ATOM     27  S   UNL A   1      33.704  28.296  24.305  1.00  0.00     0.268 S 
ATOM     28  O   UNL A   1      34.604  28.584  23.206  1.00  0.00    -0.201 OA
ATOM     29  O   UNL A   1      33.851  28.958  25.595  1.00  0.00    -0.201 OA
BRANCH  27  30
ATOM     30  C   UNL A   1      32.086  28.792  23.812  1.00  0.00     0.088 A 
ATOM     31  C   UNL A   1      28.384  29.939  21.914  1.00  0.00     0.044 C 
ATOM     32  C   UNL A   1      29.650  29.503  22.593  1.00  0.00    -0.051 A 
ATOM     33  C   UNL A   1      30.814  29.479  21.836  1.00  0.00     0.005 A 
ATOM     34  C   UNL A   1      29.715  29.163  23.961  1.00  0.00     0.005 A 
ATOM     35  C   UNL A   1      32.008  29.116  22.438  1.00  0.00     0.022 A 
ATOM     36  C   UNL A   1      30.934  28.803  24.583  1.00  0.00     0.022 A 
ENDBRANCH  27  30
ENDBRANCH  19  27
ENDBRANCH  16  18
ENDBRANCH  13  16
ENDBRANCH  11  12
BRANCH  11  37
ATOM     37  C   UNL A   1      34.134  20.771  24.144  1.00  0.00     0.072 C 
BRANCH  37  38
ATOM     38  C   UNL A   1      33.525  19.397  24.033  1.00  0.00    -0.020 A 
ATOM     39  C   UNL A   1      32.285  19.136  23.486  1.00  0.00     0.087 A 
ATOM     40  C   UNL A   1      34.068  18.117  24.412  1.00  0.00     0.003 A 
ATOM     41  N   UNL A   1      32.020  17.805  23.622  1.00  0.00    -0.361 N 
ATOM     42  C   UNL A   1      33.070  17.160  24.215  1.00  0.00     0.046 A 
ATOM     43  C   UNL A   1      35.294  17.671  24.948  1.00  0.00     0.010 A 
ATOM     44  H   UNL A   1      31.186  17.368  23.332  1.00  0.00     0.166 HD
ATOM     45  C   UNL A   1      33.199  15.818  24.589  1.00  0.00     0.026 A 
ATOM     46  C   UNL A   1      35.453  16.322  25.304  1.00  0.00     0.001 A 
ATOM     47  C   UNL A   1      34.411  15.413  25.144  1.00  0.00     0.002 A 
ENDBRANCH  37  38
ENDBRANCH  11  37
ENDBRANCH   8  11
ENDBRANCH   6   7
ENDBRANCH   3   6
ENDBRANCH   1   2
BRANCH   1  48
ATOM     48  C   UNL A   1      39.651  20.061  26.222  1.00  0.00     0.021 C 
BRANCH  48  49
ATOM     49  C   UNL A   1      41.152  19.913  25.923  1.00  0.00     0.002 C 
BRANCH  49  50
ATOM     50  C   UNL A   1      42.203  20.487  26.893  1.00  0.00     0.002 C 
BRANCH  50  51
ATOM     51  C   UNL A   1      41.818  21.483  27.994  1.00  0.00     0.021 C 
BRANCH  51  52
ATOM     52  C   UNL A   1      42.471  22.862  27.978  1.00  0.00     0.116 C 
BRANCH  52  53
ATOM     53  N   UNL A   1      42.901  23.349  26.671  1.00  0.00    -0.352 N 
ATOM     54  C   UNL A   1      42.500  24.488  25.979  1.00  0.00     0.251 C 
ATOM     55  H   UNL A   1      43.572  22.793  26.213  1.00  0.00     0.163 HD
ATOM     56  O   UNL A   1      42.940  24.727  24.869  1.00  0.00    -0.269 OA
BRANCH  54  57
ATOM     57  C   UNL A   1      41.639  25.489  26.664  1.00  0.00     0.039 A 
ATOM     58  C   UNL A   1      41.340  26.676  25.983  1.00  0.00     0.014 A 
ATOM     59  C   UNL A   1      41.323  25.365  28.012  1.00  0.00     0.014 A 
ATOM     60  C   UNL A   1      41.000  27.816  26.710  1.00  0.00     0.010 A 
ATOM     61  C   UNL A   1      41.104  26.511  28.744  1.00  0.00     0.010 A 
ATOM     62  C   UNL A   1      41.020  27.749  28.101  1.00  0.00    -0.014 A 
BRANCH  62  63
ATOM     63  C   UNL A   1      41.061  28.910  28.980  1.00  0.00     0.031 A 
ATOM     64  C   UNL A   1      39.900  29.814  29.082  1.00  0.00     0.074 A 
ATOM     65  C   UNL A   1      42.114  29.054  29.817  1.00  0.00     0.049 A 
ATOM     66  N   UNL A   1      39.936  30.982  29.625  1.00  0.00    -0.248 NA
ATOM     67  C   UNL A   1      38.590  29.470  28.545  1.00  0.00     0.031 C 
ATOM     68  C   UNL A   1      42.216  29.929  30.983  1.00  0.00     0.029 A 
ATOM     69  N   UNL A   1      43.418  28.562  29.642  1.00  0.00    -0.354 N 
ATOM     70  C   UNL A   1      38.647  31.448  29.727  1.00  0.00     0.074 A 
ATOM     71  C   UNL A   1      37.849  30.483  29.005  1.00  0.00     0.031 C 
ATOM     72  C   UNL A   1      43.513  30.178  31.221  1.00  0.00     0.029 A 
ATOM     73  C   UNL A   1      44.267  29.589  30.129  1.00  0.00     0.049 A 
ATOM     74  H   UNL A   1      43.687  27.693  29.263  1.00  0.00     0.167 HD
ATOM     75  C   UNL A   1      38.403  32.551  30.495  1.00  0.00     0.037 A 
ATOM     76  C   UNL A   1      45.089  30.272  29.279  1.00  0.00     0.037 A 
ATOM     77  C   UNL A   1      39.649  33.137  30.985  1.00  0.00     0.049 A 
ATOM     78  C   UNL A   1      44.813  31.760  29.190  1.00  0.00     0.074 A 
ATOM     79  C   UNL A   1      40.367  33.053  32.168  1.00  0.00     0.029 A 
ATOM     80  N   UNL A   1      40.496  33.724  30.066  1.00  0.00    -0.354 N 
ATOM     81  N   UNL A   1      43.803  32.354  29.761  1.00  0.00    -0.248 NA
ATOM     82  C   UNL A   1      45.602  32.678  28.365  1.00  0.00     0.031 C 
ATOM     83  C   UNL A   1      41.671  33.578  31.930  1.00  0.00     0.029 A 
ATOM     84  C   UNL A   1      41.736  33.984  30.610  1.00  0.00     0.049 A 
ATOM     85  H   UNL A   1      40.245  33.932  29.137  1.00  0.00     0.167 HD
ATOM     86  C   UNL A   1      43.766  33.664  29.368  1.00  0.00     0.074 A 
ATOM     87  C   UNL A   1      44.913  33.823  28.496  1.00  0.00     0.031 C 
ATOM     88  C   UNL A   1      42.777  34.519  29.751  1.00  0.00     0.037 A 
BRANCH  75  89
ATOM     89  C   UNL A   1      37.040  33.007  30.958  1.00  0.00     0.064 A 
ATOM     90  C   UNL A   1      36.206  33.754  30.097  1.00  0.00     0.173 A 
ATOM     91  C   UNL A   1      36.504  32.776  32.238  1.00  0.00     0.173 A 
ATOM     92  F   UNL A   1      36.538  33.976  28.818  1.00  0.00    -0.203 F 
ATOM     93  C   UNL A   1      34.993  34.309  30.517  1.00  0.00     0.198 A 
ATOM     94  C   UNL A   1      35.320  33.378  32.677  1.00  0.00     0.198 A 
ATOM     95  F   UNL A   1      37.066  31.908  33.085  1.00  0.00    -0.203 F 
ATOM     96  F   UNL A   1      34.246  35.006  29.650  1.00  0.00    -0.200 F 
ATOM     97  C   UNL A   1      34.568  34.152  31.818  1.00  0.00     0.200 A 
ATOM     98  F   UNL A   1      34.910  33.191  33.940  1.00  0.00    -0.200 F 
ATOM     99  F   UNL A   1      33.428  34.717  32.235  1.00  0.00    -0.200 F 
ENDBRANCH  75  89
BRANCH  76 100
ATOM    100  C   UNL A   1      45.566  29.422  28.154  1.00  0.00     0.064 A 
ATOM    101  C   UNL A   1      46.617  28.516  28.405  1.00  0.00     0.173 A 
ATOM    102  C   UNL A   1      44.770  29.194  27.026  1.00  0.00     0.173 A 
ATOM    103  F   UNL A   1      47.412  28.692  29.473  1.00  0.00    -0.203 F 
ATOM    104  C   UNL A   1      46.767  27.356  27.651  1.00  0.00     0.198 A 
ATOM    105  C   UNL A   1      44.943  28.044  26.255  1.00  0.00     0.198 A 
ATOM    106  F   UNL A   1      43.745  30.009  26.740  1.00  0.00    -0.203 F 
ATOM    107  F   UNL A   1      47.683  26.443  28.004  1.00  0.00    -0.200 F 
ATOM    108  C   UNL A   1      45.909  27.106  26.594  1.00  0.00     0.200 A 
ATOM    109  F   UNL A   1      44.099  27.790  25.244  1.00  0.00    -0.200 F 
ATOM    110  F   UNL A   1      45.980  25.944  25.932  1.00  0.00    -0.200 F 
ENDBRANCH  76 100
BRANCH  88 111
ATOM    111  C   UNL A   1      42.722  35.953  29.327  1.00  0.00     0.064 A 
ATOM    112  C   UNL A   1      42.103  36.352  28.135  1.00  0.00     0.173 A 
ATOM    113  C   UNL A   1      43.407  36.954  30.047  1.00  0.00     0.173 A 
ATOM    114  F   UNL A   1      41.460  35.459  27.368  1.00  0.00    -0.203 F 
ATOM    115  C   UNL A   1      42.147  37.677  27.700  1.00  0.00     0.198 A 
ATOM    116  C   UNL A   1      43.494  38.264  29.585  1.00  0.00     0.198 A 
ATOM    117  F   UNL A   1      43.988  36.689  31.227  1.00  0.00    -0.203 F 
ATOM    118  F   UNL A   1      41.505  38.031  26.578  1.00  0.00    -0.200 F 
ATOM    119  C   UNL A   1      42.855  38.629  28.416  1.00  0.00     0.200 A 
ATOM    120  F   UNL A   1      44.194  39.170  30.281  1.00  0.00    -0.200 F 
ATOM    121  F   UNL A   1      42.917  39.895  27.983  1.00  0.00    -0.200 F 
ENDBRANCH  88 111
ENDBRANCH  62  63
ENDBRANCH  54  57
ENDBRANCH  52  53
ENDBRANCH  51  52
ENDBRANCH  50  51
ENDBRANCH  49  50
ENDBRANCH  48  49
ENDBRANCH   1  48
TORSDOF 22
ENDMDL
MODEL 3
REMARK VINA RESULT:     -12.5      2.757      4.337
REMARK SMILES Cc1ccc(S(=O)(=O)n2cc(C(=O)C(=O)N[C@H](Cc3c[nH]c4ccccc34)C(=O)NCC(=O)NCCCCCCNC(=O)c3ccc(-c4c5nc(c(-c6c(F)c(F)c(F)c(F)c6F)c6ccc([nH]6)c(-c6c(F)c(F)c(F)c(F)c6F)c6nc(c(-c7c(F)c(F)c(F)c(F)c7F)c7ccc4[nH]7)C=C6)C=C5)cc3)c3ccccc32)cc1
REMARK SMILES IDX 35 1 34 2 32 3 33 4 31 6 30 7 28 8 29 9 17 11 16 12 14 13
REMARK SMILES IDX 15 14 12 16 13 17 11 18 9 19 10 20 112 21 107 22 111 23
REMARK SMILES IDX 108 24 110 25 109 26 6 27 7 28 8 29 5 30 1 31 2 32 3 33
REMARK SMILES IDX 114 34 4 35 113 36 18 37 19 38 20 39 27 40 21 41 22 42 26 43
REMARK SMILES IDX 23 45 25 46 24 47 36 48 37 49 38 50 39 51 40 52 41 53 42 54
REMARK SMILES IDX 43 56 44 57 45 58 106 59 46 60 105 61 47 62 48 63 49 64
REMARK SMILES IDX 99 65 50 66 104 67 98 68 100 69 51 70 103 71 97 72 96 73
REMARK SMILES IDX 52 75 84 76 64 77 83 78 65 79 68 80 82 81 101 82 66 83 67 84
REMARK SMILES IDX 81 86 102 87 69 88 53 89 54 90 62 91 55 92 56 93 60 94 63 95
REMARK SMILES IDX 57 96 58 97 61 98 59 99 85 100 86 101 94 102 87 103 88 104
REMARK SMILES IDX 92 105 95 106 89 107 90 108 93 109 91 110 70 111 71 112
REMARK SMILES IDX 79 113 72 114 73 115 77 116 80 117 74 118 75 119 78 120
REMARK SMILES IDX 76 121
REMARK H PARENT 34 5 30 10 16 15 21 44 41 55 100 74 68 85
REMARK Flexibility Score: inf
ROOT
ATOM      1  C   UNL A   1      39.203  21.234  25.678  1.00  0.00     0.116 C 
ENDROOT
BRANCH   1   2
ATOM      2  N   UNL A   1      39.195  22.541  26.323  1.00  0.00    -0.355 N 
ATOM      3  C   UNL A   1      38.374  23.619  26.135  1.00  0.00     0.239 C 
ATOM      4  O   UNL A   1      38.416  24.508  26.994  1.00  0.00    -0.273 OA
ATOM      5  H   UNL A   1      39.893  22.669  27.005  1.00  0.00     0.163 HD
BRANCH   3   6
ATOM      6  C   UNL A   1      37.316  23.695  25.018  1.00  0.00     0.216 C 
BRANCH   6   7
ATOM      7  N   UNL A   1      35.951  23.848  25.455  1.00  0.00    -0.345 N 
ATOM      8  C   UNL A   1      34.831  23.107  25.336  1.00  0.00     0.243 C 
ATOM      9  O   UNL A   1      33.891  23.523  26.029  1.00  0.00    -0.273 OA
ATOM     10  H   UNL A   1      35.802  24.685  25.953  1.00  0.00     0.164 HD
BRANCH   8  11
ATOM     11  C   UNL A   1      34.600  21.873  24.403  1.00  0.00     0.176 C 
BRANCH  11  12
ATOM     12  N   UNL A   1      33.422  21.781  23.475  1.00  0.00    -0.337 N 
ATOM     13  C   UNL A   1      32.677  22.675  22.715  1.00  0.00     0.293 C 
ATOM     14  O   UNL A   1      31.673  22.282  22.130  1.00  0.00    -0.265 OA
ATOM     15  H   UNL A   1      33.096  20.857  23.381  1.00  0.00     0.164 HD
BRANCH  13  16
ATOM     16  C   UNL A   1      33.107  24.133  22.570  1.00  0.00     0.252 C 
ATOM     17  O   UNL A   1      34.316  24.292  22.378  1.00  0.00    -0.283 OA
BRANCH  16  18
ATOM     18  C   UNL A   1      32.241  25.327  22.654  1.00  0.00     0.054 A 
ATOM     19  N   UNL A   1      30.827  27.092  22.443  1.00  0.00    -0.240 N 
ATOM     20  C   UNL A   1      31.863  26.369  21.797  1.00  0.00     0.117 A 
ATOM     21  C   UNL A   1      30.372  26.241  23.464  1.00  0.00     0.065 A 
ATOM     22  C   UNL A   1      31.554  25.634  23.861  1.00  0.00     0.012 A 
ATOM     23  C   UNL A   1      29.251  26.292  24.304  1.00  0.00     0.028 A 
ATOM     24  C   UNL A   1      31.766  25.405  25.224  1.00  0.00     0.011 A 
ATOM     25  C   UNL A   1      29.476  26.008  25.659  1.00  0.00     0.002 A 
ATOM     26  C   UNL A   1      30.738  25.654  26.125  1.00  0.00     0.001 A 
BRANCH  19  27
ATOM     27  S   UNL A   1      31.086  28.752  23.083  1.00  0.00     0.268 S 
ATOM     28  O   UNL A   1      29.755  29.301  23.247  1.00  0.00    -0.201 OA
ATOM     29  O   UNL A   1      32.030  29.329  22.133  1.00  0.00    -0.201 OA
BRANCH  27  30
ATOM     30  C   UNL A   1      31.934  28.944  24.617  1.00  0.00     0.088 A 
ATOM     31  C   UNL A   1      34.626  29.350  27.965  1.00  0.00     0.044 C 
ATOM     32  C   UNL A   1      33.673  29.252  26.809  1.00  0.00    -0.051 A 
ATOM     33  C   UNL A   1      34.170  28.778  25.602  1.00  0.00     0.005 A 
ATOM     34  C   UNL A   1      32.303  29.576  26.907  1.00  0.00     0.005 A 
ATOM     35  C   UNL A   1      33.312  28.641  24.521  1.00  0.00     0.022 A 
ATOM     36  C   UNL A   1      31.421  29.425  25.810  1.00  0.00     0.022 A 
ENDBRANCH  27  30
ENDBRANCH  19  27
ENDBRANCH  16  18
ENDBRANCH  13  16
ENDBRANCH  11  12
BRANCH  11  37
ATOM     37  C   UNL A   1      35.161  20.504  24.907  1.00  0.00     0.072 C 
BRANCH  37  38
ATOM     38  C   UNL A   1      34.181  19.451  25.355  1.00  0.00    -0.020 A 
ATOM     39  C   UNL A   1      33.168  19.667  26.267  1.00  0.00     0.087 A 
ATOM     40  C   UNL A   1      34.054  18.076  24.941  1.00  0.00     0.003 A 
ATOM     41  N   UNL A   1      32.528  18.485  26.499  1.00  0.00    -0.361 N 
ATOM     42  C   UNL A   1      33.066  17.487  25.734  1.00  0.00     0.046 A 
ATOM     43  C   UNL A   1      34.707  17.251  24.002  1.00  0.00     0.010 A 
ATOM     44  H   UNL A   1      31.782  18.366  27.129  1.00  0.00     0.166 HD
ATOM     45  C   UNL A   1      32.754  16.123  25.695  1.00  0.00     0.026 A 
ATOM     46  C   UNL A   1      34.388  15.886  23.930  1.00  0.00     0.001 A 
ATOM     47  C   UNL A   1      33.437  15.326  24.779  1.00  0.00     0.002 A 
ENDBRANCH  37  38
ENDBRANCH  11  37
ENDBRANCH   8  11
ENDBRANCH   6   7
ENDBRANCH   3   6
ENDBRANCH   1   2
BRANCH   1  48
ATOM     48  C   UNL A   1      39.947  20.165  26.483  1.00  0.00     0.021 C 
BRANCH  48  49
ATOM     49  C   UNL A   1      41.443  19.958  26.192  1.00  0.00     0.002 C 
BRANCH  49  50
ATOM     50  C   UNL A   1      42.510  20.718  27.004  1.00  0.00     0.002 C 
BRANCH  50  51
ATOM     51  C   UNL A   1      42.125  21.816  28.003  1.00  0.00     0.021 C 
BRANCH  51  52
ATOM     52  C   UNL A   1      42.865  23.148  27.928  1.00  0.00     0.116 C 
BRANCH  52  53
ATOM     53  N   UNL A   1      43.117  23.664  26.586  1.00  0.00    -0.352 N 
ATOM     54  C   UNL A   1      42.549  24.759  25.941  1.00  0.00     0.251 C 
ATOM     55  H   UNL A   1      43.785  23.166  26.062  1.00  0.00     0.163 HD
ATOM     56  O   UNL A   1      42.853  25.029  24.794  1.00  0.00    -0.269 OA
BRANCH  54  57
ATOM     57  C   UNL A   1      41.676  25.684  26.712  1.00  0.00     0.039 A 
ATOM     58  C   UNL A   1      41.151  26.800  26.048  1.00  0.00     0.014 A 
ATOM     59  C   UNL A   1      41.560  25.581  28.093  1.00  0.00     0.014 A 
ATOM     60  C   UNL A   1      40.780  27.924  26.784  1.00  0.00     0.010 A 
ATOM     61  C   UNL A   1      41.307  26.725  28.818  1.00  0.00     0.010 A 
ATOM     62  C   UNL A   1      40.993  27.917  28.160  1.00  0.00    -0.014 A 
BRANCH  62  63
ATOM     63  C   UNL A   1      41.015  29.112  28.995  1.00  0.00     0.031 A 
ATOM     64  C   UNL A   1      39.845  30.009  29.050  1.00  0.00     0.074 A 
ATOM     65  C   UNL A   1      42.056  29.297  29.837  1.00  0.00     0.049 A 
ATOM     66  N   UNL A   1      39.866  31.197  29.547  1.00  0.00    -0.248 NA
ATOM     67  C   UNL A   1      38.545  29.634  28.511  1.00  0.00     0.031 C 
ATOM     68  C   UNL A   1      42.138  30.216  30.970  1.00  0.00     0.029 A 
ATOM     69  N   UNL A   1      43.367  28.809  29.696  1.00  0.00    -0.354 N 
ATOM     70  C   UNL A   1      38.572  31.656  29.616  1.00  0.00     0.074 A 
ATOM     71  C   UNL A   1      37.790  30.657  28.923  1.00  0.00     0.031 C 
ATOM     72  C   UNL A   1      43.431  30.485  31.214  1.00  0.00     0.029 A 
ATOM     73  C   UNL A   1      44.201  29.862  30.154  1.00  0.00     0.049 A 
ATOM     74  H   UNL A   1      43.647  27.929  29.354  1.00  0.00     0.167 HD
ATOM     75  C   UNL A   1      38.310  32.785  30.339  1.00  0.00     0.037 A 
ATOM     76  C   UNL A   1      45.028  30.519  29.287  1.00  0.00     0.037 A 
ATOM     77  C   UNL A   1      39.545  33.401  30.820  1.00  0.00     0.049 A 
ATOM     78  C   UNL A   1      44.741  31.999  29.138  1.00  0.00     0.074 A 
ATOM     79  C   UNL A   1      40.250  33.368  32.013  1.00  0.00     0.029 A 
ATOM     80  N   UNL A   1      40.399  33.959  29.889  1.00  0.00    -0.354 N 
ATOM     81  N   UNL A   1      43.720  32.606  29.675  1.00  0.00    -0.248 NA
ATOM     82  C   UNL A   1      45.532  32.891  28.288  1.00  0.00     0.031 C 
ATOM     83  C   UNL A   1      41.553  33.894  31.771  1.00  0.00     0.029 A 
ATOM     84  C   UNL A   1      41.630  34.250  30.437  1.00  0.00     0.049 A 
ATOM     85  H   UNL A   1      40.157  34.129  28.950  1.00  0.00     0.167 HD
ATOM     86  C   UNL A   1      43.677  33.900  29.232  1.00  0.00     0.074 A 
ATOM     87  C   UNL A   1      44.832  34.035  28.366  1.00  0.00     0.031 C 
ATOM     88  C   UNL A   1      42.677  34.760  29.570  1.00  0.00     0.037 A 
BRANCH  75  89
ATOM     89  C   UNL A   1      36.938  33.247  30.768  1.00  0.00     0.064 A 
ATOM     90  C   UNL A   1      36.006  33.706  29.811  1.00  0.00     0.173 A 
ATOM     91  C   UNL A   1      36.484  33.297  32.099  1.00  0.00     0.173 A 
ATOM     92  F   UNL A   1      36.258  33.634  28.497  1.00  0.00    -0.203 F 
ATOM     93  C   UNL A   1      34.774  34.263  30.166  1.00  0.00     0.198 A 
ATOM     94  C   UNL A   1      35.277  33.907  32.459  1.00  0.00     0.198 A 
ATOM     95  F   UNL A   1      37.154  32.700  33.090  1.00  0.00    -0.203 F 
ATOM     96  F   UNL A   1      33.932  34.678  29.209  1.00  0.00    -0.200 F 
ATOM     97  C   UNL A   1      34.425  34.397  31.492  1.00  0.00     0.200 A 
ATOM     98  F   UNL A   1      34.944  34.004  33.755  1.00  0.00    -0.200 F 
ATOM     99  F   UNL A   1      33.264  34.969  31.837  1.00  0.00    -0.200 F 
ENDBRANCH  75  89
BRANCH  76 100
ATOM    100  C   UNL A   1      45.525  29.630  28.201  1.00  0.00     0.064 A 
ATOM    101  C   UNL A   1      46.598  28.762  28.491  1.00  0.00     0.173 A 
ATOM    102  C   UNL A   1      44.734  29.332  27.086  1.00  0.00     0.173 A 
ATOM    103  F   UNL A   1      47.389  29.005  29.549  1.00  0.00    -0.203 F 
ATOM    104  C   UNL A   1      46.776  27.573  27.790  1.00  0.00     0.198 A 
ATOM    105  C   UNL A   1      44.935  28.152  26.367  1.00  0.00     0.198 A 
ATOM    106  F   UNL A   1      43.689  30.108  26.765  1.00  0.00    -0.203 F 
ATOM    107  F   UNL A   1      47.714  26.699  28.183  1.00  0.00    -0.200 F 
ATOM    108  C   UNL A   1      45.924  27.255  26.747  1.00  0.00     0.200 A 
ATOM    109  F   UNL A   1      44.097  27.833  25.370  1.00  0.00    -0.200 F 
ATOM    110  F   UNL A   1      46.023  26.066  26.138  1.00  0.00    -0.200 F 
ENDBRANCH  76 100
BRANCH  88 111
ATOM    111  C   UNL A   1      42.615  36.177  29.091  1.00  0.00     0.064 A 
ATOM    112  C   UNL A   1      41.986  36.527  27.889  1.00  0.00     0.173 A 
ATOM    113  C   UNL A   1      43.304  37.206  29.766  1.00  0.00     0.173 A 
ATOM    114  F   UNL A   1      41.339  35.604  27.162  1.00  0.00    -0.203 F 
ATOM    115  C   UNL A   1      42.023  37.835  27.402  1.00  0.00     0.198 A 
ATOM    116  C   UNL A   1      43.383  38.497  29.252  1.00  0.00     0.198 A 
ATOM    117  F   UNL A   1      43.894  36.989  30.950  1.00  0.00    -0.203 F 
ATOM    118  F   UNL A   1      41.372  38.143  26.273  1.00  0.00    -0.200 F 
ATOM    119  C   UNL A   1      42.735  38.815  28.075  1.00  0.00     0.200 A 
ATOM    120  F   UNL A   1      44.088  39.431  29.906  1.00  0.00    -0.200 F 
ATOM    121  F   UNL A   1      42.790  40.063  27.593  1.00  0.00    -0.200 F 
ENDBRANCH  88 111
ENDBRANCH  62  63
ENDBRANCH  54  57
ENDBRANCH  52  53
ENDBRANCH  51  52
ENDBRANCH  50  51
ENDBRANCH  49  50
ENDBRANCH  48  49
ENDBRANCH   1  48
TORSDOF 22
ENDMDL
