MODEL 1
REMARK VINA RESULT:     -10.2      0.000      0.000
REMARK SMILES Cc1ccc(N2C(=O)/C(=C3\C(=O)N(CC(=O)NCCCCCCNC(=O)c4ccc(-c5c6nc(c(-c7c(F)c(F)c(F)c(F)c7F)c7ccc([nH]7)c(-c7c(F)c(F)c(F)c(F)c7F)c7nc(c(-c8c(F)c(F)c(F)c(F)c8F)c8ccc5[nH]8)C=C7)C=C6)cc4)c4ccccc43)SC2=S)c(C)c1
REMARK SMILES IDX 20 1 19 2 18 3 17 4 15 5 16 6 14 8 13 9 6 10 7 11 97 12 8 13
REMARK SMILES IDX 9 14 96 15 98 16 10 17 11 18 95 19 12 20 90 21 94 22 91 23
REMARK SMILES IDX 93 24 92 25 5 26 1 27 2 28 3 29 101 30 4 31 99 32 100 33
REMARK SMILES IDX 21 34 22 35 23 36 24 37 25 38 26 40 27 41 28 42 89 43 29 44
REMARK SMILES IDX 88 45 30 46 31 47 32 48 82 49 33 50 87 51 81 52 83 53 34 54
REMARK SMILES IDX 86 55 80 56 79 57 35 59 67 60 47 61 66 62 48 63 51 64 65 65
REMARK SMILES IDX 84 66 49 67 50 68 64 70 85 71 52 72 36 73 37 74 45 75 38 76
REMARK SMILES IDX 39 77 43 78 46 79 40 80 41 81 44 82 42 83 68 84 69 85 77 86
REMARK SMILES IDX 70 87 71 88 75 89 78 90 72 91 73 92 76 93 74 94 53 95 54 96
REMARK SMILES IDX 62 97 55 98 56 99 60 100 63 101 57 102 58 103 61 104 59 105
REMARK H PARENT 17 7 24 39 83 58 51 69
REMARK Flexibility Score: inf
ROOT
ATOM      1  C   UNL A   1      35.688  34.001  31.561  1.00  0.00     0.002 C 
ENDROOT
BRANCH   1   2
ATOM      2  C   UNL A   1      36.984  33.263  31.922  1.00  0.00     0.021 C 
BRANCH   2   3
ATOM      3  C   UNL A   1      36.772  31.819  32.378  1.00  0.00     0.116 C 
BRANCH   3   4
ATOM      4  N   UNL A   1      36.775  31.727  33.823  1.00  0.00    -0.355 N 
ATOM      5  C   UNL A   1      37.839  31.705  34.676  1.00  0.00     0.240 C 
ATOM      6  O   UNL A   1      37.612  31.603  35.884  1.00  0.00    -0.273 OA
ATOM      7  H   UNL A   1      35.889  31.676  34.248  1.00  0.00     0.163 HD
BRANCH   5   8
ATOM      8  C   UNL A   1      39.268  31.881  34.151  1.00  0.00     0.225 C 
BRANCH   8   9
ATOM      9  N   UNL A   1      40.289  31.183  34.909  1.00  0.00    -0.298 N 
ATOM     10  N   UNL A   1      43.452  26.512  35.046  1.00  0.00    -0.261 N 
ATOM     11  C   UNL A   1      42.208  27.149  35.027  1.00  0.00     0.271 C 
ATOM     12  C   UNL A   1      44.259  26.803  36.135  1.00  0.00     0.152 C 
ATOM     13  O   UNL A   1      41.201  26.757  34.462  1.00  0.00    -0.268 OA
ATOM     14  C   UNL A   1      42.277  28.346  35.924  1.00  0.00     0.094 C 
ATOM     15  S   UNL A   1      43.430  27.967  37.157  1.00  0.00    -0.053 SA
ATOM     16  S   UNL A   1      45.824  26.345  36.504  1.00  0.00    -0.051 S 
ATOM     17  C   UNL A   1      41.705  29.547  35.727  1.00  0.00     0.069 C 
ATOM     18  C   UNL A   1      40.633  29.849  34.706  1.00  0.00     0.260 C 
ATOM     19  C   UNL A   1      42.007  30.836  36.394  1.00  0.00     0.012 A 
ATOM     20  O   UNL A   1      40.150  29.101  33.878  1.00  0.00    -0.269 OA
ATOM     21  C   UNL A   1      41.125  31.783  35.861  1.00  0.00     0.053 A 
ATOM     22  C   UNL A   1      43.008  31.252  37.262  1.00  0.00     0.011 A 
ATOM     23  C   UNL A   1      41.177  33.123  36.216  1.00  0.00     0.027 A 
ATOM     24  C   UNL A   1      43.086  32.601  37.617  1.00  0.00     0.001 A 
ATOM     25  C   UNL A   1      42.172  33.528  37.106  1.00  0.00     0.002 A 
BRANCH  10  26
ATOM     26  C   UNL A   1      43.836  25.635  33.985  1.00  0.00     0.054 A 
ATOM     27  C   UNL A   1      44.601  23.114  30.550  1.00  0.00     0.044 C 
ATOM     28  C   UNL A   1      44.377  23.993  31.744  1.00  0.00    -0.051 A 
ATOM     29  C   UNL A   1      44.618  25.363  31.686  1.00  0.00     0.005 A 
ATOM     30  C   UNL A   1      43.902  23.441  32.938  1.00  0.00     0.009 A 
ATOM     31  C   UNL A   1      44.361  26.170  32.797  1.00  0.00     0.027 A 
ATOM     32  C   UNL A   1      43.611  24.243  34.061  1.00  0.00    -0.027 A 
ATOM     33  C   UNL A   1      43.026  23.531  35.253  1.00  0.00     0.046 C 
ENDBRANCH  10  26
ENDBRANCH   8   9
ENDBRANCH   5   8
ENDBRANCH   3   4
ENDBRANCH   2   3
ENDBRANCH   1   2
BRANCH   1  34
ATOM     34  C   UNL A   1      35.235  33.855  30.103  1.00  0.00     0.002 C 
BRANCH  34  35
ATOM     35  C   UNL A   1      34.609  32.506  29.756  1.00  0.00     0.021 C 
BRANCH  35  36
ATOM     36  C   UNL A   1      34.109  32.397  28.322  1.00  0.00     0.116 C 
BRANCH  36  37
ATOM     37  N   UNL A   1      33.613  31.067  27.999  1.00  0.00    -0.352 N 
ATOM     38  C   UNL A   1      34.306  29.888  27.857  1.00  0.00     0.251 C 
ATOM     39  H   UNL A   1      32.640  31.002  27.863  1.00  0.00     0.163 HD
ATOM     40  O   UNL A   1      33.748  28.888  27.414  1.00  0.00    -0.269 OA
BRANCH  38  41
ATOM     41  C   UNL A   1      35.741  29.836  28.212  1.00  0.00     0.039 A 
ATOM     42  C   UNL A   1      36.711  30.181  27.272  1.00  0.00     0.014 A 
ATOM     43  C   UNL A   1      36.122  29.408  29.487  1.00  0.00     0.014 A 
ATOM     44  C   UNL A   1      38.046  29.911  27.535  1.00  0.00     0.010 A 
ATOM     45  C   UNL A   1      37.479  29.249  29.789  1.00  0.00     0.010 A 
ATOM     46  C   UNL A   1      38.451  29.449  28.798  1.00  0.00    -0.014 A 
BRANCH  46  47
ATOM     47  C   UNL A   1      39.899  29.206  29.042  1.00  0.00     0.031 A 
ATOM     48  C   UNL A   1      40.580  27.965  28.533  1.00  0.00     0.074 A 
ATOM     49  C   UNL A   1      40.619  30.163  29.662  1.00  0.00     0.049 A 
ATOM     50  N   UNL A   1      41.850  27.643  28.585  1.00  0.00    -0.248 NA
ATOM     51  C   UNL A   1      39.736  26.948  27.885  1.00  0.00     0.031 C 
ATOM     52  C   UNL A   1      40.067  31.408  30.203  1.00  0.00     0.029 A 
ATOM     53  N   UNL A   1      41.965  30.264  29.908  1.00  0.00    -0.354 N 
ATOM     54  C   UNL A   1      41.954  26.394  27.987  1.00  0.00     0.074 A 
ATOM     55  C   UNL A   1      40.615  25.991  27.618  1.00  0.00     0.031 C 
ATOM     56  C   UNL A   1      41.070  32.178  30.644  1.00  0.00     0.029 A 
ATOM     57  C   UNL A   1      42.328  31.455  30.490  1.00  0.00     0.049 A 
ATOM     58  H   UNL A   1      42.609  29.552  29.689  1.00  0.00     0.167 HD
ATOM     59  C   UNL A   1      43.069  25.662  27.749  1.00  0.00     0.037 A 
ATOM     60  C   UNL A   1      43.535  31.916  30.866  1.00  0.00     0.037 A 
ATOM     61  C   UNL A   1      44.402  26.077  28.103  1.00  0.00     0.049 A 
ATOM     62  C   UNL A   1      44.748  31.060  30.636  1.00  0.00     0.074 A 
ATOM     63  C   UNL A   1      45.595  25.411  27.886  1.00  0.00     0.029 A 
ATOM     64  N   UNL A   1      44.719  27.264  28.748  1.00  0.00    -0.354 N 
ATOM     65  N   UNL A   1      44.833  29.895  30.043  1.00  0.00    -0.248 NA
ATOM     66  C   UNL A   1      46.031  31.577  31.130  1.00  0.00     0.031 C 
ATOM     67  C   UNL A   1      46.627  26.165  28.449  1.00  0.00     0.029 A 
ATOM     68  C   UNL A   1      46.086  27.335  28.958  1.00  0.00     0.049 A 
ATOM     69  H   UNL A   1      44.069  27.953  29.016  1.00  0.00     0.167 HD
ATOM     70  C   UNL A   1      46.176  29.549  30.070  1.00  0.00     0.074 A 
ATOM     71  C   UNL A   1      46.874  30.635  30.726  1.00  0.00     0.031 C 
ATOM     72  C   UNL A   1      46.773  28.430  29.596  1.00  0.00     0.037 A 
BRANCH  59  73
ATOM     73  C   UNL A   1      42.913  24.331  27.068  1.00  0.00     0.064 A 
ATOM     74  C   UNL A   1      43.308  24.138  25.736  1.00  0.00     0.173 A 
ATOM     75  C   UNL A   1      42.458  23.213  27.785  1.00  0.00     0.173 A 
ATOM     76  F   UNL A   1      43.744  25.174  25.004  1.00  0.00    -0.203 F 
ATOM     77  C   UNL A   1      43.243  22.878  25.144  1.00  0.00     0.198 A 
ATOM     78  C   UNL A   1      42.423  21.949  27.199  1.00  0.00     0.198 A 
ATOM     79  F   UNL A   1      42.078  23.338  29.065  1.00  0.00    -0.203 F 
ATOM     80  F   UNL A   1      43.599  22.724  23.862  1.00  0.00    -0.200 F 
ATOM     81  C   UNL A   1      42.813  21.784  25.880  1.00  0.00     0.200 A 
ATOM     82  F   UNL A   1      42.027  20.889  27.918  1.00  0.00    -0.200 F 
ATOM     83  F   UNL A   1      42.775  20.569  25.316  1.00  0.00    -0.200 F 
ENDBRANCH  59  73
BRANCH  60  84
ATOM     84  C   UNL A   1      43.647  33.265  31.483  1.00  0.00     0.064 A 
ATOM     85  C   UNL A   1      43.702  34.419  30.691  1.00  0.00     0.173 A 
ATOM     86  C   UNL A   1      43.666  33.429  32.877  1.00  0.00     0.173 A 
ATOM     87  F   UNL A   1      43.703  34.314  29.354  1.00  0.00    -0.203 F 
ATOM     88  C   UNL A   1      43.779  35.685  31.268  1.00  0.00     0.198 A 
ATOM     89  C   UNL A   1      43.708  34.697  33.453  1.00  0.00     0.198 A 
ATOM     90  F   UNL A   1      43.611  32.357  33.681  1.00  0.00    -0.203 F 
ATOM     91  F   UNL A   1      43.866  36.770  30.486  1.00  0.00    -0.200 F 
ATOM     92  C   UNL A   1      43.771  35.823  32.648  1.00  0.00     0.200 A 
ATOM     93  F   UNL A   1      43.678  34.826  34.786  1.00  0.00    -0.200 F 
ATOM     94  F   UNL A   1      43.827  37.042  33.202  1.00  0.00    -0.200 F 
ENDBRANCH  60  84
BRANCH  72  95
ATOM     95  C   UNL A   1      48.264  28.318  29.728  1.00  0.00     0.064 A 
ATOM     96  C   UNL A   1      48.856  27.649  30.808  1.00  0.00     0.173 A 
ATOM     97  C   UNL A   1      49.102  28.792  28.706  1.00  0.00     0.173 A 
ATOM     98  F   UNL A   1      48.100  27.190  31.816  1.00  0.00    -0.203 F 
ATOM     99  C   UNL A   1      50.236  27.461  30.861  1.00  0.00     0.198 A 
ATOM    100  C   UNL A   1      50.475  28.576  28.748  1.00  0.00     0.198 A 
ATOM    101  F   UNL A   1      48.583  29.433  27.648  1.00  0.00    -0.203 F 
ATOM    102  F   UNL A   1      50.785  26.840  31.914  1.00  0.00    -0.200 F 
ATOM    103  C   UNL A   1      51.042  27.911  29.826  1.00  0.00     0.200 A 
ATOM    104  F   UNL A   1      51.250  28.994  27.738  1.00  0.00    -0.200 F 
ATOM    105  F   UNL A   1      52.364  27.702  29.866  1.00  0.00    -0.200 F 
ENDBRANCH  72  95
ENDBRANCH  46  47
ENDBRANCH  38  41
ENDBRANCH  36  37
ENDBRANCH  35  36
ENDBRANCH  34  35
ENDBRANCH   1  34
TORSDOF 15
ENDMDL
MODEL 2
REMARK VINA RESULT:     -10.0      4.895     11.307
REMARK SMILES Cc1ccc(N2C(=O)/C(=C3\C(=O)N(CC(=O)NCCCCCCNC(=O)c4ccc(-c5c6nc(c(-c7c(F)c(F)c(F)c(F)c7F)c7ccc([nH]7)c(-c7c(F)c(F)c(F)c(F)c7F)c7nc(c(-c8c(F)c(F)c(F)c(F)c8F)c8ccc5[nH]8)C=C7)C=C6)cc4)c4ccccc43)SC2=S)c(C)c1
REMARK SMILES IDX 20 1 19 2 18 3 17 4 15 5 16 6 14 8 13 9 6 10 7 11 97 12 8 13
REMARK SMILES IDX 9 14 96 15 98 16 10 17 11 18 95 19 12 20 90 21 94 22 91 23
REMARK SMILES IDX 93 24 92 25 5 26 1 27 2 28 3 29 101 30 4 31 99 32 100 33
REMARK SMILES IDX 21 34 22 35 23 36 24 37 25 38 26 40 27 41 28 42 89 43 29 44
REMARK SMILES IDX 88 45 30 46 31 47 32 48 82 49 33 50 87 51 81 52 83 53 34 54
REMARK SMILES IDX 86 55 80 56 79 57 35 59 67 60 47 61 66 62 48 63 51 64 65 65
REMARK SMILES IDX 84 66 49 67 50 68 64 70 85 71 52 72 36 73 37 74 45 75 38 76
REMARK SMILES IDX 39 77 43 78 46 79 40 80 41 81 44 82 42 83 68 84 69 85 77 86
REMARK SMILES IDX 70 87 71 88 75 89 78 90 72 91 73 92 76 93 74 94 53 95 54 96
REMARK SMILES IDX 62 97 55 98 56 99 60 100 63 101 57 102 58 103 61 104 59 105
REMARK H PARENT 17 7 24 39 83 58 51 69
REMARK Flexibility Score: inf
ROOT
ATOM      1  C   UNL A   1      32.371  29.234  27.141  1.00  0.00     0.002 C 
ENDROOT
BRANCH   1   2
ATOM      2  C   UNL A   1      32.795  28.600  25.809  1.00  0.00     0.021 C 
BRANCH   2   3
ATOM      3  C   UNL A   1      32.607  29.513  24.598  1.00  0.00     0.116 C 
BRANCH   3   4
ATOM      4  N   UNL A   1      33.707  29.372  23.668  1.00  0.00    -0.355 N 
ATOM      5  C   UNL A   1      33.774  28.622  22.531  1.00  0.00     0.240 C 
ATOM      6  O   UNL A   1      34.828  28.634  21.890  1.00  0.00    -0.273 OA
ATOM      7  H   UNL A   1      34.516  29.889  23.884  1.00  0.00     0.163 HD
BRANCH   5   8
ATOM      8  C   UNL A   1      32.550  27.852  22.026  1.00  0.00     0.225 C 
BRANCH   8   9
ATOM      9  N   UNL A   1      32.313  26.579  22.681  1.00  0.00    -0.298 N 
ATOM     10  N   UNL A   1      34.826  21.860  24.484  1.00  0.00    -0.261 N 
ATOM     11  C   UNL A   1      34.490  22.757  23.467  1.00  0.00     0.271 C 
ATOM     12  C   UNL A   1      33.757  21.251  25.125  1.00  0.00     0.152 C 
ATOM     13  O   UNL A   1      35.186  23.067  22.514  1.00  0.00    -0.268 OA
ATOM     14  C   UNL A   1      33.072  23.192  23.669  1.00  0.00     0.094 C 
ATOM     15  S   UNL A   1      32.262  21.873  24.443  1.00  0.00    -0.053 SA
ATOM     16  S   UNL A   1      33.701  20.207  26.430  1.00  0.00    -0.051 S 
ATOM     17  C   UNL A   1      32.557  24.417  23.464  1.00  0.00     0.069 C 
ATOM     18  C   UNL A   1      33.234  25.536  22.709  1.00  0.00     0.260 C 
ATOM     19  C   UNL A   1      31.274  24.975  23.955  1.00  0.00     0.012 A 
ATOM     20  O   UNL A   1      34.345  25.545  22.213  1.00  0.00    -0.269 OA
ATOM     21  C   UNL A   1      31.182  26.278  23.452  1.00  0.00     0.053 A 
ATOM     22  C   UNL A   1      30.315  24.523  24.851  1.00  0.00     0.011 A 
ATOM     23  C   UNL A   1      30.129  27.122  23.775  1.00  0.00     0.027 A 
ATOM     24  C   UNL A   1      29.256  25.365  25.200  1.00  0.00     0.001 A 
ATOM     25  C   UNL A   1      29.158  26.652  24.660  1.00  0.00     0.002 A 
BRANCH  10  26
ATOM     26  C   UNL A   1      36.194  21.623  24.822  1.00  0.00     0.054 A 
ATOM     27  C   UNL A   1      40.176  20.664  26.223  1.00  0.00     0.044 C 
ATOM     28  C   UNL A   1      38.811  20.993  25.698  1.00  0.00    -0.051 A 
ATOM     29  C   UNL A   1      38.043  20.039  25.036  1.00  0.00     0.005 A 
ATOM     30  C   UNL A   1      38.281  22.274  25.886  1.00  0.00     0.009 A 
ATOM     31  C   UNL A   1      36.756  20.355  24.595  1.00  0.00     0.027 A 
ATOM     32  C   UNL A   1      36.974  22.604  25.471  1.00  0.00    -0.027 A 
ATOM     33  C   UNL A   1      36.500  23.993  25.810  1.00  0.00     0.046 C 
ENDBRANCH  10  26
ENDBRANCH   8   9
ENDBRANCH   5   8
ENDBRANCH   3   4
ENDBRANCH   2   3
ENDBRANCH   1   2
BRANCH   1  34
ATOM     34  C   UNL A   1      33.121  30.516  27.524  1.00  0.00     0.002 C 
BRANCH  34  35
ATOM     35  C   UNL A   1      32.314  31.804  27.368  1.00  0.00     0.021 C 
BRANCH  35  36
ATOM     36  C   UNL A   1      33.145  33.024  26.998  1.00  0.00     0.116 C 
BRANCH  36  37
ATOM     37  N   UNL A   1      32.642  34.250  27.600  1.00  0.00    -0.352 N 
ATOM     38  C   UNL A   1      33.031  34.876  28.761  1.00  0.00     0.251 C 
ATOM     39  H   UNL A   1      31.917  34.696  27.105  1.00  0.00     0.163 HD
ATOM     40  O   UNL A   1      32.381  35.815  29.210  1.00  0.00    -0.269 OA
BRANCH  38  41
ATOM     41  C   UNL A   1      34.225  34.391  29.487  1.00  0.00     0.039 A 
ATOM     42  C   UNL A   1      35.503  34.732  29.046  1.00  0.00     0.014 A 
ATOM     43  C   UNL A   1      34.067  33.561  30.600  1.00  0.00     0.014 A 
ATOM     44  C   UNL A   1      36.609  34.091  29.588  1.00  0.00     0.010 A 
ATOM     45  C   UNL A   1      35.193  33.007  31.220  1.00  0.00     0.010 A 
ATOM     46  C   UNL A   1      36.472  33.226  30.686  1.00  0.00    -0.014 A 
BRANCH  46  47
ATOM     47  C   UNL A   1      37.691  32.589  31.253  1.00  0.00     0.031 A 
ATOM     48  C   UNL A   1      38.183  32.932  32.632  1.00  0.00     0.074 A 
ATOM     49  C   UNL A   1      38.311  31.628  30.537  1.00  0.00     0.049 A 
ATOM     50  N   UNL A   1      39.177  32.407  33.306  1.00  0.00    -0.248 NA
ATOM     51  C   UNL A   1      37.480  34.005  33.352  1.00  0.00     0.031 C 
ATOM     52  C   UNL A   1      37.926  31.211  29.186  1.00  0.00     0.029 A 
ATOM     53  N   UNL A   1      39.359  30.801  30.851  1.00  0.00    -0.354 N 
ATOM     54  C   UNL A   1      39.220  33.084  34.518  1.00  0.00     0.074 A 
ATOM     55  C   UNL A   1      38.183  34.092  34.474  1.00  0.00     0.031 C 
ATOM     56  C   UNL A   1      38.673  30.161  28.820  1.00  0.00     0.029 A 
ATOM     57  C   UNL A   1      39.641  29.876  29.875  1.00  0.00     0.049 A 
ATOM     58  H   UNL A   1      39.862  30.865  31.695  1.00  0.00     0.167 HD
ATOM     59  C   UNL A   1      40.037  32.868  35.577  1.00  0.00     0.037 A 
ATOM     60  C   UNL A   1      40.575  28.908  29.825  1.00  0.00     0.037 A 
ATOM     61  C   UNL A   1      41.055  31.851  35.621  1.00  0.00     0.049 A 
ATOM     62  C   UNL A   1      41.500  28.726  30.995  1.00  0.00     0.074 A 
ATOM     63  C   UNL A   1      41.919  31.545  36.658  1.00  0.00     0.029 A 
ATOM     64  N   UNL A   1      41.348  30.975  34.586  1.00  0.00    -0.354 N 
ATOM     65  N   UNL A   1      41.508  29.355  32.145  1.00  0.00    -0.248 NA
ATOM     66  C   UNL A   1      42.549  27.706  30.861  1.00  0.00     0.031 C 
ATOM     67  C   UNL A   1      42.772  30.525  36.232  1.00  0.00     0.029 A 
ATOM     68  C   UNL A   1      42.397  30.147  34.952  1.00  0.00     0.049 A 
ATOM     69  H   UNL A   1      40.880  30.946  33.720  1.00  0.00     0.167 HD
ATOM     70  C   UNL A   1      42.542  28.794  32.879  1.00  0.00     0.074 A 
ATOM     71  C   UNL A   1      43.131  27.762  32.052  1.00  0.00     0.031 C 
ATOM     72  C   UNL A   1      42.964  29.110  34.127  1.00  0.00     0.037 A 
BRANCH  59  73
ATOM     73  C   UNL A   1      39.871  33.740  36.791  1.00  0.00     0.064 A 
ATOM     74  C   UNL A   1      40.488  34.997  36.880  1.00  0.00     0.173 A 
ATOM     75  C   UNL A   1      39.005  33.360  37.828  1.00  0.00     0.173 A 
ATOM     76  F   UNL A   1      41.329  35.406  35.919  1.00  0.00    -0.203 F 
ATOM     77  C   UNL A   1      40.254  35.834  37.969  1.00  0.00     0.198 A 
ATOM     78  C   UNL A   1      38.750  34.212  38.900  1.00  0.00     0.198 A 
ATOM     79  F   UNL A   1      38.380  32.173  37.788  1.00  0.00    -0.203 F 
ATOM     80  F   UNL A   1      40.877  37.017  38.047  1.00  0.00    -0.200 F 
ATOM     81  C   UNL A   1      39.376  35.447  38.970  1.00  0.00     0.200 A 
ATOM     82  F   UNL A   1      37.885  33.844  39.856  1.00  0.00    -0.200 F 
ATOM     83  F   UNL A   1      39.133  36.264  40.004  1.00  0.00    -0.200 F 
ENDBRANCH  59  73
BRANCH  60  84
ATOM     84  C   UNL A   1      40.661  28.031  28.627  1.00  0.00     0.064 A 
ATOM     85  C   UNL A   1      41.450  28.390  27.526  1.00  0.00     0.173 A 
ATOM     86  C   UNL A   1      39.986  26.802  28.574  1.00  0.00     0.173 A 
ATOM     87  F   UNL A   1      42.102  29.562  27.522  1.00  0.00    -0.203 F 
ATOM     88  C   UNL A   1      41.554  27.557  26.414  1.00  0.00     0.198 A 
ATOM     89  C   UNL A   1      40.119  25.954  27.477  1.00  0.00     0.198 A 
ATOM     90  F   UNL A   1      39.222  26.409  29.604  1.00  0.00    -0.203 F 
ATOM     91  F   UNL A   1      42.288  27.939  25.360  1.00  0.00    -0.200 F 
ATOM     92  C   UNL A   1      40.898  26.335  26.395  1.00  0.00     0.200 A 
ATOM     93  F   UNL A   1      39.501  24.765  27.473  1.00  0.00    -0.200 F 
ATOM     94  F   UNL A   1      41.014  25.526  25.333  1.00  0.00    -0.200 F 
ENDBRANCH  60  84
BRANCH  72  95
ATOM     95  C   UNL A   1      44.099  28.318  34.708  1.00  0.00     0.064 A 
ATOM     96  C   UNL A   1      43.881  27.101  35.368  1.00  0.00     0.173 A 
ATOM     97  C   UNL A   1      45.425  28.731  34.506  1.00  0.00     0.173 A 
ATOM     98  F   UNL A   1      42.632  26.670  35.597  1.00  0.00    -0.203 F 
ATOM     99  C   UNL A   1      44.953  26.326  35.807  1.00  0.00     0.198 A 
ATOM    100  C   UNL A   1      46.492  27.940  34.919  1.00  0.00     0.198 A 
ATOM    101  F   UNL A   1      45.686  29.886  33.875  1.00  0.00    -0.203 F 
ATOM    102  F   UNL A   1      44.723  25.177  36.457  1.00  0.00    -0.200 F 
ATOM    103  C   UNL A   1      46.255  26.738  35.569  1.00  0.00     0.200 A 
ATOM    104  F   UNL A   1      47.750  28.330  34.671  1.00  0.00    -0.200 F 
ATOM    105  F   UNL A   1      47.283  25.976  35.967  1.00  0.00    -0.200 F 
ENDBRANCH  72  95
ENDBRANCH  46  47
ENDBRANCH  38  41
ENDBRANCH  36  37
ENDBRANCH  35  36
ENDBRANCH  34  35
ENDBRANCH   1  34
TORSDOF 15
ENDMDL
MODEL 3
REMARK VINA RESULT:      -9.9      4.032     10.356
REMARK SMILES Cc1ccc(N2C(=O)/C(=C3\C(=O)N(CC(=O)NCCCCCCNC(=O)c4ccc(-c5c6nc(c(-c7c(F)c(F)c(F)c(F)c7F)c7ccc([nH]7)c(-c7c(F)c(F)c(F)c(F)c7F)c7nc(c(-c8c(F)c(F)c(F)c(F)c8F)c8ccc5[nH]8)C=C7)C=C6)cc4)c4ccccc43)SC2=S)c(C)c1
REMARK SMILES IDX 20 1 19 2 18 3 17 4 15 5 16 6 14 8 13 9 6 10 7 11 97 12 8 13
REMARK SMILES IDX 9 14 96 15 98 16 10 17 11 18 95 19 12 20 90 21 94 22 91 23
REMARK SMILES IDX 93 24 92 25 5 26 1 27 2 28 3 29 101 30 4 31 99 32 100 33
REMARK SMILES IDX 21 34 22 35 23 36 24 37 25 38 26 40 27 41 28 42 89 43 29 44
REMARK SMILES IDX 88 45 30 46 31 47 32 48 82 49 33 50 87 51 81 52 83 53 34 54
REMARK SMILES IDX 86 55 80 56 79 57 35 59 67 60 47 61 66 62 48 63 51 64 65 65
REMARK SMILES IDX 84 66 49 67 50 68 64 70 85 71 52 72 36 73 37 74 45 75 38 76
REMARK SMILES IDX 39 77 43 78 46 79 40 80 41 81 44 82 42 83 68 84 69 85 77 86
REMARK SMILES IDX 70 87 71 88 75 89 78 90 72 91 73 92 76 93 74 94 53 95 54 96
REMARK SMILES IDX 62 97 55 98 56 99 60 100 63 101 57 102 58 103 61 104 59 105
REMARK H PARENT 17 7 24 39 83 58 51 69
REMARK Flexibility Score: inf
ROOT
ATOM      1  C   UNL A   1      43.595  24.630  26.499  1.00  0.00     0.002 C 
ENDROOT
BRANCH   1   2
ATOM      2  C   UNL A   1      44.684  25.397  25.736  1.00  0.00     0.021 C 
BRANCH   2   3
ATOM      3  C   UNL A   1      44.450  26.906  25.667  1.00  0.00     0.116 C 
BRANCH   3   4
ATOM      4  N   UNL A   1      45.187  27.494  24.568  1.00  0.00    -0.355 N 
ATOM      5  C   UNL A   1      46.435  28.043  24.573  1.00  0.00     0.240 C 
ATOM      6  O   UNL A   1      46.868  28.508  23.516  1.00  0.00    -0.273 OA
ATOM      7  H   UNL A   1      44.725  27.496  23.699  1.00  0.00     0.163 HD
BRANCH   5   8
ATOM      8  C   UNL A   1      47.301  28.012  25.837  1.00  0.00     0.225 C 
BRANCH   8   9
ATOM      9  N   UNL A   1      47.645  29.314  26.377  1.00  0.00    -0.298 N 
ATOM     10  N   UNL A   1      45.491  34.255  28.046  1.00  0.00    -0.261 N 
ATOM     11  C   UNL A   1      45.700  33.277  27.070  1.00  0.00     0.271 C 
ATOM     12  C   UNL A   1      46.636  34.856  28.546  1.00  0.00     0.152 C 
ATOM     13  O   UNL A   1      44.910  32.935  26.205  1.00  0.00    -0.268 OA
ATOM     14  C   UNL A   1      47.112  32.792  27.181  1.00  0.00     0.094 C 
ATOM     15  S   UNL A   1      48.039  34.122  27.786  1.00  0.00    -0.053 SA
ATOM     16  S   UNL A   1      46.850  35.983  29.763  1.00  0.00    -0.051 S 
ATOM     17  C   UNL A   1      47.557  31.533  27.021  1.00  0.00     0.069 C 
ATOM     18  C   UNL A   1      46.772  30.397  26.408  1.00  0.00     0.260 C 
ATOM     19  C   UNL A   1      48.855  30.952  27.438  1.00  0.00     0.012 A 
ATOM     20  O   UNL A   1      45.622  30.406  26.012  1.00  0.00    -0.269 OA
ATOM     21  C   UNL A   1      48.851  29.614  27.024  1.00  0.00     0.053 A 
ATOM     22  C   UNL A   1      49.908  31.419  28.214  1.00  0.00     0.011 A 
ATOM     23  C   UNL A   1      49.894  28.748  27.315  1.00  0.00     0.027 A 
ATOM     24  C   UNL A   1      50.959  30.555  28.531  1.00  0.00     0.001 A 
ATOM     25  C   UNL A   1      50.957  29.232  28.077  1.00  0.00     0.002 A 
BRANCH  10  26
ATOM     26  C   UNL A   1      44.169  34.577  28.482  1.00  0.00     0.054 A 
ATOM     27  C   UNL A   1      40.013  35.202  29.519  1.00  0.00     0.044 C 
ATOM     28  C   UNL A   1      41.464  34.996  29.199  1.00  0.00    -0.051 A 
ATOM     29  C   UNL A   1      42.182  33.941  29.754  1.00  0.00     0.005 A 
ATOM     30  C   UNL A   1      42.113  35.864  28.314  1.00  0.00     0.009 A 
ATOM     31  C   UNL A   1      43.521  33.742  29.407  1.00  0.00     0.027 A 
ATOM     32  C   UNL A   1      43.455  35.664  27.932  1.00  0.00    -0.027 A 
ATOM     33  C   UNL A   1      44.005  36.623  26.909  1.00  0.00     0.046 C 
ENDBRANCH  10  26
ENDBRANCH   8   9
ENDBRANCH   5   8
ENDBRANCH   3   4
ENDBRANCH   2   3
ENDBRANCH   1   2
BRANCH   1  34
ATOM     34  C   UNL A   1      43.672  23.102  26.392  1.00  0.00     0.002 C 
BRANCH  34  35
ATOM     35  C   UNL A   1      42.490  22.446  25.681  1.00  0.00     0.021 C 
BRANCH  35  36
ATOM     36  C   UNL A   1      41.334  22.073  26.598  1.00  0.00     0.116 C 
BRANCH  36  37
ATOM     37  N   UNL A   1      40.042  22.146  25.931  1.00  0.00    -0.352 N 
ATOM     38  C   UNL A   1      39.054  23.095  26.042  1.00  0.00     0.251 C 
ATOM     39  H   UNL A   1      39.847  21.406  25.310  1.00  0.00     0.163 HD
ATOM     40  O   UNL A   1      37.953  22.910  25.533  1.00  0.00    -0.269 OA
BRANCH  38  41
ATOM     41  C   UNL A   1      39.315  24.334  26.808  1.00  0.00     0.039 A 
ATOM     42  C   UNL A   1      40.006  25.392  26.219  1.00  0.00     0.014 A 
ATOM     43  C   UNL A   1      38.893  24.426  28.137  1.00  0.00     0.014 A 
ATOM     44  C   UNL A   1      40.445  26.447  27.007  1.00  0.00     0.010 A 
ATOM     45  C   UNL A   1      39.238  25.548  28.899  1.00  0.00     0.010 A 
ATOM     46  C   UNL A   1      40.062  26.545  28.355  1.00  0.00    -0.014 A 
BRANCH  46  47
ATOM     47  C   UNL A   1      40.530  27.712  29.150  1.00  0.00     0.031 A 
ATOM     48  C   UNL A   1      39.606  28.850  29.486  1.00  0.00     0.074 A 
ATOM     49  C   UNL A   1      41.786  27.698  29.641  1.00  0.00     0.049 A 
ATOM     50  N   UNL A   1      39.832  29.899  30.240  1.00  0.00    -0.248 NA
ATOM     51  C   UNL A   1      38.256  28.820  28.902  1.00  0.00     0.031 C 
ATOM     52  C   UNL A   1      42.775  26.649  29.380  1.00  0.00     0.029 A 
ATOM     53  N   UNL A   1      42.436  28.559  30.488  1.00  0.00    -0.354 N 
ATOM     54  C   UNL A   1      38.662  30.648  30.216  1.00  0.00     0.074 A 
ATOM     55  C   UNL A   1      37.741  29.962  29.336  1.00  0.00     0.031 C 
ATOM     56  C   UNL A   1      43.872  26.886  30.111  1.00  0.00     0.029 A 
ATOM     57  C   UNL A   1      43.699  28.142  30.834  1.00  0.00     0.049 A 
ATOM     58  H   UNL A   1      42.035  29.397  30.817  1.00  0.00     0.167 HD
ATOM     59  C   UNL A   1      38.379  31.792  30.884  1.00  0.00     0.037 A 
ATOM     60  C   UNL A   1      44.620  28.705  31.636  1.00  0.00     0.037 A 
ATOM     61  C   UNL A   1      39.295  32.460  31.772  1.00  0.00     0.049 A 
ATOM     62  C   UNL A   1      44.296  30.001  32.324  1.00  0.00     0.074 A 
ATOM     63  C   UNL A   1      39.090  33.615  32.507  1.00  0.00     0.029 A 
ATOM     64  N   UNL A   1      40.587  32.037  32.046  1.00  0.00    -0.354 N 
ATOM     65  N   UNL A   1      43.176  30.681  32.313  1.00  0.00    -0.248 NA
ATOM     66  C   UNL A   1      45.362  30.612  33.130  1.00  0.00     0.031 C 
ATOM     67  C   UNL A   1      40.275  33.922  33.180  1.00  0.00     0.029 A 
ATOM     68  C   UNL A   1      41.198  32.922  32.918  1.00  0.00     0.049 A 
ATOM     69  H   UNL A   1      41.008  31.227  31.675  1.00  0.00     0.167 HD
ATOM     70  C   UNL A   1      43.392  31.785  33.126  1.00  0.00     0.074 A 
ATOM     71  C   UNL A   1      44.746  31.677  33.627  1.00  0.00     0.031 C 
ATOM     72  C   UNL A   1      42.541  32.796  33.426  1.00  0.00     0.037 A 
BRANCH  59  73
ATOM     73  C   UNL A   1      37.020  32.407  30.694  1.00  0.00     0.064 A 
ATOM     74  C   UNL A   1      36.016  32.280  31.665  1.00  0.00     0.173 A 
ATOM     75  C   UNL A   1      36.754  33.216  29.577  1.00  0.00     0.173 A 
ATOM     76  F   UNL A   1      36.216  31.514  32.747  1.00  0.00    -0.203 F 
ATOM     77  C   UNL A   1      34.792  32.930  31.519  1.00  0.00     0.198 A 
ATOM     78  C   UNL A   1      35.541  33.889  29.450  1.00  0.00     0.198 A 
ATOM     79  F   UNL A   1      37.683  33.381  28.624  1.00  0.00    -0.203 F 
ATOM     80  F   UNL A   1      33.837  32.771  32.445  1.00  0.00    -0.200 F 
ATOM     81  C   UNL A   1      34.561  33.743  30.420  1.00  0.00     0.200 A 
ATOM     82  F   UNL A   1      35.328  34.690  28.397  1.00  0.00    -0.200 F 
ATOM     83  F   UNL A   1      33.393  34.387  30.294  1.00  0.00    -0.200 F 
ENDBRANCH  59  73
BRANCH  60  84
ATOM     84  C   UNL A   1      45.929  28.029  31.840  1.00  0.00     0.064 A 
ATOM     85  C   UNL A   1      47.041  28.355  31.051  1.00  0.00     0.173 A 
ATOM     86  C   UNL A   1      46.105  27.070  32.849  1.00  0.00     0.173 A 
ATOM     87  F   UNL A   1      46.920  29.254  30.063  1.00  0.00    -0.203 F 
ATOM     88  C   UNL A   1      48.275  27.742  31.258  1.00  0.00     0.198 A 
ATOM     89  C   UNL A   1      47.348  26.484  33.079  1.00  0.00     0.198 A 
ATOM     90  F   UNL A   1      45.075  26.726  33.636  1.00  0.00    -0.203 F 
ATOM     91  F   UNL A   1      49.312  28.047  30.467  1.00  0.00    -0.200 F 
ATOM     92  C   UNL A   1      48.430  26.816  32.279  1.00  0.00     0.200 A 
ATOM     93  F   UNL A   1      47.497  25.606  34.080  1.00  0.00    -0.200 F 
ATOM     94  F   UNL A   1      49.622  26.241  32.489  1.00  0.00    -0.200 F 
ENDBRANCH  60  84
BRANCH  72  95
ATOM     95  C   UNL A   1      43.021  33.863  34.366  1.00  0.00     0.064 A 
ATOM     96  C   UNL A   1      43.580  35.058  33.895  1.00  0.00     0.173 A 
ATOM     97  C   UNL A   1      42.818  33.728  35.749  1.00  0.00     0.173 A 
ATOM     98  F   UNL A   1      43.805  35.229  32.584  1.00  0.00    -0.203 F 
ATOM     99  C   UNL A   1      43.921  36.082  34.776  1.00  0.00     0.198 A 
ATOM    100  C   UNL A   1      43.132  34.765  36.622  1.00  0.00     0.198 A 
ATOM    101  F   UNL A   1      42.281  32.606  36.249  1.00  0.00    -0.203 F 
ATOM    102  F   UNL A   1      44.476  37.208  34.308  1.00  0.00    -0.200 F 
ATOM    103  C   UNL A   1      43.684  35.941  36.135  1.00  0.00     0.200 A 
ATOM    104  F   UNL A   1      42.885  34.634  37.932  1.00  0.00    -0.200 F 
ATOM    105  F   UNL A   1      43.986  36.939  36.977  1.00  0.00    -0.200 F 
ENDBRANCH  72  95
ENDBRANCH  46  47
ENDBRANCH  38  41
ENDBRANCH  36  37
ENDBRANCH  35  36
ENDBRANCH  34  35
ENDBRANCH   1  34
TORSDOF 15
ENDMDL
