MODEL 1
REMARK VINA RESULT:     -13.0      0.000      0.000
REMARK SMILES CC(C)c1cc(N2CCC(C(=O)NCCCCCCNC(=O)c3ccc(-c4c5nc(c(-c6c(F)c(F)c(F)c(F)c6F)c6ccc([nH]6)c(-c6c(F)c(F)c(F)c(F)c6F)c6nc(c(-c7c(F)c(F)c(F)c(F)c7F)c7ccc4[nH]7)C=C6)C=C5)cc3)CC2)nc(-c2ccc(F)cc2)n1
REMARK SMILES IDX 16 1 15 2 14 3 13 4 11 5 12 6 10 8 7 9 8 10 87 11 9 12 86 13
REMARK SMILES IDX 6 14 4 15 5 16 97 17 89 18 88 19 2 20 1 21 3 22 90 23 91 24
REMARK SMILES IDX 96 25 92 26 95 27 93 28 94 29 17 30 18 31 19 32 20 33 21 34
REMARK SMILES IDX 22 36 23 37 24 38 85 39 25 40 84 41 26 42 27 43 28 44 78 45
REMARK SMILES IDX 29 46 83 47 77 48 79 49 30 50 82 51 76 52 75 53 31 55 63 56
REMARK SMILES IDX 43 57 62 58 44 59 47 60 61 61 80 62 45 63 46 64 60 66 81 67
REMARK SMILES IDX 48 68 32 69 33 70 41 71 34 72 35 73 39 74 42 75 36 76 37 77
REMARK SMILES IDX 40 78 38 79 64 80 65 81 73 82 66 83 67 84 71 85 74 86 68 87
REMARK SMILES IDX 69 88 72 89 70 90 49 91 50 92 58 93 51 94 52 95 56 96 59 97
REMARK SMILES IDX 53 98 54 99 57 100 55 101
REMARK H PARENT 13 7 20 35 79 54 47 65
REMARK Flexibility Score: inf
ROOT
ATOM      1  C   UNL A   1      33.402  28.887  23.320  1.00  0.00     0.002 C 
ENDROOT
BRANCH   1   2
ATOM      2  C   UNL A   1      33.689  27.424  22.969  1.00  0.00     0.021 C 
BRANCH   2   3
ATOM      3  C   UNL A   1      32.543  26.713  22.251  1.00  0.00     0.116 C 
BRANCH   3   4
ATOM      4  N   UNL A   1      31.252  27.294  22.591  1.00  0.00    -0.356 N 
ATOM      5  C   UNL A   1      30.269  26.847  23.421  1.00  0.00     0.223 C 
ATOM      6  O   UNL A   1      29.247  27.529  23.530  1.00  0.00    -0.275 OA
ATOM      7  H   UNL A   1      31.059  28.152  22.148  1.00  0.00     0.163 HD
BRANCH   5   8
ATOM      8  C   UNL A   1      30.422  25.552  24.208  1.00  0.00     0.082 C 
ATOM      9  N   UNL A   1      32.371  23.577  24.663  1.00  0.00    -0.356 N 
ATOM     10  C   UNL A   1      31.224  23.141  23.883  1.00  0.00     0.119 C 
ATOM     11  C   UNL A   1      32.075  24.409  25.812  1.00  0.00     0.119 C 
ATOM     12  C   UNL A   1      30.572  24.357  23.250  1.00  0.00     0.035 C 
ATOM     13  C   UNL A   1      31.491  25.723  25.306  1.00  0.00     0.035 C 
BRANCH   9  14
ATOM     14  C   UNL A   1      33.443  22.709  24.672  1.00  0.00     0.132 A 
ATOM     15  C   UNL A   1      35.760  22.234  24.821  1.00  0.00     0.049 A 
ATOM     16  C   UNL A   1      34.747  23.169  24.701  1.00  0.00     0.071 A 
ATOM     17  N   UNL A   1      35.483  20.914  24.861  1.00  0.00    -0.233 NA
ATOM     18  C   UNL A   1      34.191  20.553  24.796  1.00  0.00     0.161 A 
ATOM     19  N   UNL A   1      33.154  21.401  24.714  1.00  0.00    -0.211 NA
BRANCH  15  20
ATOM     20  C   UNL A   1      37.233  22.606  24.887  1.00  0.00     0.032 C 
ATOM     21  C   UNL A   1      37.586  23.713  25.889  1.00  0.00     0.014 C 
ATOM     22  C   UNL A   1      38.086  21.368  25.192  1.00  0.00     0.014 C 
ENDBRANCH  15  20
BRANCH  18  23
ATOM     23  C   UNL A   1      33.889  19.119  24.811  1.00  0.00     0.019 A 
ATOM     24  C   UNL A   1      32.620  18.649  25.198  1.00  0.00     0.015 A 
ATOM     25  C   UNL A   1      34.866  18.172  24.445  1.00  0.00     0.015 A 
ATOM     26  C   UNL A   1      32.333  17.280  25.207  1.00  0.00     0.040 A 
ATOM     27  C   UNL A   1      34.586  16.803  24.472  1.00  0.00     0.040 A 
ATOM     28  C   UNL A   1      33.320  16.371  24.847  1.00  0.00     0.123 A 
ATOM     29  F   UNL A   1      33.047  15.060  24.854  1.00  0.00    -0.207 F 
ENDBRANCH  18  23
ENDBRANCH   9  14
ENDBRANCH   5   8
ENDBRANCH   3   4
ENDBRANCH   2   3
ENDBRANCH   1   2
BRANCH   1  30
ATOM     30  C   UNL A   1      33.213  29.173  24.814  1.00  0.00     0.002 C 
BRANCH  30  31
ATOM     31  C   UNL A   1      34.012  28.270  25.756  1.00  0.00     0.021 C 
BRANCH  31  32
ATOM     32  C   UNL A   1      33.739  28.495  27.239  1.00  0.00     0.116 C 
BRANCH  32  33
ATOM     33  N   UNL A   1      33.651  29.906  27.574  1.00  0.00    -0.352 N 
ATOM     34  C   UNL A   1      34.562  30.702  28.220  1.00  0.00     0.251 C 
ATOM     35  H   UNL A   1      32.819  30.355  27.299  1.00  0.00     0.163 HD
ATOM     36  O   UNL A   1      34.248  31.835  28.583  1.00  0.00    -0.269 OA
BRANCH  34  37
ATOM     37  C   UNL A   1      35.920  30.191  28.502  1.00  0.00     0.039 A 
ATOM     38  C   UNL A   1      36.888  30.265  27.498  1.00  0.00     0.014 A 
ATOM     39  C   UNL A   1      36.234  29.635  29.745  1.00  0.00     0.014 A 
ATOM     40  C   UNL A   1      38.188  29.827  27.758  1.00  0.00     0.010 A 
ATOM     41  C   UNL A   1      37.548  29.267  30.027  1.00  0.00     0.010 A 
ATOM     42  C   UNL A   1      38.536  29.353  29.034  1.00  0.00    -0.014 A 
BRANCH  42  43
ATOM     43  C   UNL A   1      39.923  28.921  29.341  1.00  0.00     0.031 A 
ATOM     44  C   UNL A   1      40.828  29.816  30.143  1.00  0.00     0.074 A 
ATOM     45  C   UNL A   1      40.380  27.748  28.860  1.00  0.00     0.049 A 
ATOM     46  N   UNL A   1      42.089  29.654  30.455  1.00  0.00    -0.248 NA
ATOM     47  C   UNL A   1      40.242  31.067  30.649  1.00  0.00     0.031 C 
ATOM     48  C   UNL A   1      39.608  26.809  28.045  1.00  0.00     0.029 A 
ATOM     49  N   UNL A   1      41.610  27.151  28.979  1.00  0.00    -0.354 N 
ATOM     50  C   UNL A   1      42.446  30.781  31.182  1.00  0.00     0.074 A 
ATOM     51  C   UNL A   1      41.287  31.647  31.221  1.00  0.00     0.031 C 
ATOM     52  C   UNL A   1      40.377  25.746  27.753  1.00  0.00     0.029 A 
ATOM     53  C   UNL A   1      41.706  25.948  28.322  1.00  0.00     0.049 A 
ATOM     54  H   UNL A   1      42.355  27.548  29.488  1.00  0.00     0.167 HD
ATOM     55  C   UNL A   1      43.626  31.059  31.786  1.00  0.00     0.037 A 
ATOM     56  C   UNL A   1      42.752  25.112  28.185  1.00  0.00     0.037 A 
ATOM     57  C   UNL A   1      44.773  30.191  31.758  1.00  0.00     0.049 A 
ATOM     58  C   UNL A   1      44.062  25.464  28.842  1.00  0.00     0.074 A 
ATOM     59  C   UNL A   1      46.006  30.371  32.359  1.00  0.00     0.029 A 
ATOM     60  N   UNL A   1      44.826  28.974  31.094  1.00  0.00    -0.354 N 
ATOM     61  N   UNL A   1      44.370  26.508  29.573  1.00  0.00    -0.248 NA
ATOM     62  C   UNL A   1      45.170  24.515  28.659  1.00  0.00     0.031 C 
ATOM     63  C   UNL A   1      46.819  29.282  32.028  1.00  0.00     0.029 A 
ATOM     64  C   UNL A   1      46.075  28.399  31.263  1.00  0.00     0.049 A 
ATOM     65  H   UNL A   1      44.086  28.579  30.579  1.00  0.00     0.167 HD
ATOM     66  C   UNL A   1      45.688  26.321  29.968  1.00  0.00     0.074 A 
ATOM     67  C   UNL A   1      46.117  25.057  29.409  1.00  0.00     0.031 C 
ATOM     68  C   UNL A   1      46.474  27.125  30.725  1.00  0.00     0.037 A 
BRANCH  55  69
ATOM     69  C   UNL A   1      43.735  32.348  32.546  1.00  0.00     0.064 A 
ATOM     70  C   UNL A   1      44.168  33.528  31.924  1.00  0.00     0.173 A 
ATOM     71  C   UNL A   1      43.345  32.421  33.891  1.00  0.00     0.173 A 
ATOM     72  F   UNL A   1      44.563  33.510  30.642  1.00  0.00    -0.203 F 
ATOM     73  C   UNL A   1      44.221  34.730  32.623  1.00  0.00     0.198 A 
ATOM     74  C   UNL A   1      43.371  33.631  34.581  1.00  0.00     0.198 A 
ATOM     75  F   UNL A   1      42.918  31.323  34.533  1.00  0.00    -0.203 F 
ATOM     76  F   UNL A   1      44.672  35.838  32.018  1.00  0.00    -0.200 F 
ATOM     77  C   UNL A   1      43.814  34.783  33.948  1.00  0.00     0.200 A 
ATOM     78  F   UNL A   1      42.963  33.684  35.856  1.00  0.00    -0.200 F 
ATOM     79  F   UNL A   1      43.849  35.945  34.615  1.00  0.00    -0.200 F 
ENDBRANCH  55  69
BRANCH  56  80
ATOM     80  C   UNL A   1      42.615  23.853  27.405  1.00  0.00     0.064 A 
ATOM     81  C   UNL A   1      42.109  22.688  27.999  1.00  0.00     0.173 A 
ATOM     82  C   UNL A   1      43.032  23.772  26.068  1.00  0.00     0.173 A 
ATOM     83  F   UNL A   1      41.715  22.707  29.282  1.00  0.00    -0.203 F 
ATOM     84  C   UNL A   1      42.062  21.483  27.300  1.00  0.00     0.198 A 
ATOM     85  C   UNL A   1      42.953  22.574  25.360  1.00  0.00     0.198 A 
ATOM     86  F   UNL A   1      43.519  24.858  25.449  1.00  0.00    -0.203 F 
ATOM     87  F   UNL A   1      41.638  20.371  27.916  1.00  0.00    -0.200 F 
ATOM     88  C   UNL A   1      42.483  21.428  25.981  1.00  0.00     0.200 A 
ATOM     89  F   UNL A   1      43.347  22.530  24.079  1.00  0.00    -0.200 F 
ATOM     90  F   UNL A   1      42.447  20.268  25.312  1.00  0.00    -0.200 F 
ENDBRANCH  56  80
BRANCH  68  91
ATOM     91  C   UNL A   1      47.857  26.636  31.043  1.00  0.00     0.064 A 
ATOM     92  C   UNL A   1      48.955  26.931  30.222  1.00  0.00     0.173 A 
ATOM     93  C   UNL A   1      48.091  25.892  32.210  1.00  0.00     0.173 A 
ATOM     94  F   UNL A   1      48.781  27.627  29.088  1.00  0.00    -0.203 F 
ATOM     95  C   UNL A   1      50.230  26.475  30.542  1.00  0.00     0.198 A 
ATOM     96  C   UNL A   1      49.372  25.466  32.544  1.00  0.00     0.198 A 
ATOM     97  F   UNL A   1      47.077  25.589  33.034  1.00  0.00    -0.203 F 
ATOM     98  F   UNL A   1      51.256  26.725  29.716  1.00  0.00    -0.200 F 
ATOM     99  C   UNL A   1      50.440  25.751  31.706  1.00  0.00     0.200 A 
ATOM    100  F   UNL A   1      49.576  24.779  33.677  1.00  0.00    -0.200 F 
ATOM    101  F   UNL A   1      51.670  25.320  32.016  1.00  0.00    -0.200 F 
ENDBRANCH  68  91
ENDBRANCH  42  43
ENDBRANCH  34  37
ENDBRANCH  32  33
ENDBRANCH  31  32
ENDBRANCH  30  31
ENDBRANCH   1  30
TORSDOF 16
ENDMDL
MODEL 2
REMARK VINA RESULT:     -12.8      2.481      3.714
REMARK SMILES CC(C)c1cc(N2CCC(C(=O)NCCCCCCNC(=O)c3ccc(-c4c5nc(c(-c6c(F)c(F)c(F)c(F)c6F)c6ccc([nH]6)c(-c6c(F)c(F)c(F)c(F)c6F)c6nc(c(-c7c(F)c(F)c(F)c(F)c7F)c7ccc4[nH]7)C=C6)C=C5)cc3)CC2)nc(-c2ccc(F)cc2)n1
REMARK SMILES IDX 16 1 15 2 14 3 13 4 11 5 12 6 10 8 7 9 8 10 87 11 9 12 86 13
REMARK SMILES IDX 6 14 4 15 5 16 97 17 89 18 88 19 2 20 1 21 3 22 90 23 91 24
REMARK SMILES IDX 96 25 92 26 95 27 93 28 94 29 17 30 18 31 19 32 20 33 21 34
REMARK SMILES IDX 22 36 23 37 24 38 85 39 25 40 84 41 26 42 27 43 28 44 78 45
REMARK SMILES IDX 29 46 83 47 77 48 79 49 30 50 82 51 76 52 75 53 31 55 63 56
REMARK SMILES IDX 43 57 62 58 44 59 47 60 61 61 80 62 45 63 46 64 60 66 81 67
REMARK SMILES IDX 48 68 32 69 33 70 41 71 34 72 35 73 39 74 42 75 36 76 37 77
REMARK SMILES IDX 40 78 38 79 64 80 65 81 73 82 66 83 67 84 71 85 74 86 68 87
REMARK SMILES IDX 69 88 72 89 70 90 49 91 50 92 58 93 51 94 52 95 56 96 59 97
REMARK SMILES IDX 53 98 54 99 57 100 55 101
REMARK H PARENT 13 7 20 35 79 54 47 65
REMARK Flexibility Score: inf
ROOT
ATOM      1  C   UNL A   1      33.764  28.061  22.383  1.00  0.00     0.002 C 
ENDROOT
BRANCH   1   2
ATOM      2  C   UNL A   1      33.587  26.557  22.154  1.00  0.00     0.021 C 
BRANCH   2   3
ATOM      3  C   UNL A   1      32.229  26.165  21.576  1.00  0.00     0.116 C 
BRANCH   3   4
ATOM      4  N   UNL A   1      31.155  26.983  22.121  1.00  0.00    -0.356 N 
ATOM      5  C   UNL A   1      30.369  26.798  23.218  1.00  0.00     0.223 C 
ATOM      6  O   UNL A   1      29.506  27.645  23.464  1.00  0.00    -0.275 OA
ATOM      7  H   UNL A   1      30.966  27.804  21.613  1.00  0.00     0.163 HD
BRANCH   5   8
ATOM      8  C   UNL A   1      30.552  25.594  24.133  1.00  0.00     0.082 C 
ATOM      9  N   UNL A   1      32.483  23.620  24.662  1.00  0.00    -0.356 N 
ATOM     10  C   UNL A   1      31.270  23.138  24.024  1.00  0.00     0.119 C 
ATOM     11  C   UNL A   1      32.297  24.583  25.728  1.00  0.00     0.119 C 
ATOM     12  C   UNL A   1      30.599  24.296  23.307  1.00  0.00     0.035 C 
ATOM     13  C   UNL A   1      31.706  25.851  25.122  1.00  0.00     0.035 C 
BRANCH   9  14
ATOM     14  C   UNL A   1      33.532  22.725  24.689  1.00  0.00     0.132 A 
ATOM     15  C   UNL A   1      35.833  22.190  24.870  1.00  0.00     0.049 A 
ATOM     16  C   UNL A   1      34.847  23.150  24.733  1.00  0.00     0.071 A 
ATOM     17  N   UNL A   1      35.521  20.878  24.914  1.00  0.00    -0.233 NA
ATOM     18  C   UNL A   1      34.221  20.550  24.834  1.00  0.00     0.161 A 
ATOM     19  N   UNL A   1      33.209  21.424  24.734  1.00  0.00    -0.211 NA
BRANCH  15  20
ATOM     20  C   UNL A   1      37.314  22.524  24.954  1.00  0.00     0.032 C 
ATOM     21  C   UNL A   1      37.684  23.625  25.955  1.00  0.00     0.014 C 
ATOM     22  C   UNL A   1      38.131  21.265  25.276  1.00  0.00     0.014 C 
ENDBRANCH  15  20
BRANCH  18  23
ATOM     23  C   UNL A   1      33.882  19.125  24.851  1.00  0.00     0.019 A 
ATOM     24  C   UNL A   1      32.714  18.665  25.488  1.00  0.00     0.015 A 
ATOM     25  C   UNL A   1      34.721  18.175  24.236  1.00  0.00     0.015 A 
ATOM     26  C   UNL A   1      32.390  17.305  25.500  1.00  0.00     0.040 A 
ATOM     27  C   UNL A   1      34.409  16.813  24.264  1.00  0.00     0.040 A 
ATOM     28  C   UNL A   1      33.242  16.392  24.890  1.00  0.00     0.123 A 
ATOM     29  F   UNL A   1      32.934  15.089  24.900  1.00  0.00    -0.207 F 
ENDBRANCH  18  23
ENDBRANCH   9  14
ENDBRANCH   5   8
ENDBRANCH   3   4
ENDBRANCH   2   3
ENDBRANCH   1   2
BRANCH   1  30
ATOM     30  C   UNL A   1      33.962  28.478  23.845  1.00  0.00     0.002 C 
BRANCH  30  31
ATOM     31  C   UNL A   1      32.830  29.317  24.441  1.00  0.00     0.021 C 
BRANCH  31  32
ATOM     32  C   UNL A   1      32.943  29.566  25.942  1.00  0.00     0.116 C 
BRANCH  32  33
ATOM     33  N   UNL A   1      32.702  30.956  26.289  1.00  0.00    -0.352 N 
ATOM     34  C   UNL A   1      33.349  31.746  27.203  1.00  0.00     0.251 C 
ATOM     35  H   UNL A   1      31.969  31.393  25.798  1.00  0.00     0.163 HD
ATOM     36  O   UNL A   1      32.895  32.851  27.499  1.00  0.00    -0.269 OA
BRANCH  34  37
ATOM     37  C   UNL A   1      34.585  31.263  27.853  1.00  0.00     0.039 A 
ATOM     38  C   UNL A   1      35.671  32.135  27.964  1.00  0.00     0.014 A 
ATOM     39  C   UNL A   1      34.677  29.956  28.341  1.00  0.00     0.014 A 
ATOM     40  C   UNL A   1      36.833  31.712  28.613  1.00  0.00     0.010 A 
ATOM     41  C   UNL A   1      35.807  29.561  29.052  1.00  0.00     0.010 A 
ATOM     42  C   UNL A   1      36.900  30.431  29.188  1.00  0.00    -0.014 A 
BRANCH  42  43
ATOM     43  C   UNL A   1      38.111  29.979  29.916  1.00  0.00     0.031 A 
ATOM     44  C   UNL A   1      38.417  30.531  31.282  1.00  0.00     0.074 A 
ATOM     45  C   UNL A   1      38.958  29.109  29.331  1.00  0.00     0.049 A 
ATOM     46  N   UNL A   1      39.458  30.318  32.048  1.00  0.00    -0.248 NA
ATOM     47  C   UNL A   1      37.430  31.458  31.857  1.00  0.00     0.031 C 
ATOM     48  C   UNL A   1      38.786  28.526  27.999  1.00  0.00     0.029 A 
ATOM     49  N   UNL A   1      40.138  28.570  29.778  1.00  0.00    -0.354 N 
ATOM     50  C   UNL A   1      39.254  31.089  33.184  1.00  0.00     0.074 A 
ATOM     51  C   UNL A   1      38.018  31.816  32.988  1.00  0.00     0.031 C 
ATOM     52  C   UNL A   1      39.813  27.699  27.745  1.00  0.00     0.029 A 
ATOM     53  C   UNL A   1      40.736  27.724  28.875  1.00  0.00     0.049 A 
ATOM     54  H   UNL A   1      40.521  28.771  30.664  1.00  0.00     0.167 HD
ATOM     55  C   UNL A   1      40.014  31.164  34.303  1.00  0.00     0.037 A 
ATOM     56  C   UNL A   1      41.903  27.057  28.949  1.00  0.00     0.037 A 
ATOM     57  C   UNL A   1      41.235  30.429  34.501  1.00  0.00     0.049 A 
ATOM     58  C   UNL A   1      42.743  27.185  30.194  1.00  0.00     0.074 A 
ATOM     59  C   UNL A   1      42.064  30.417  35.609  1.00  0.00     0.029 A 
ATOM     60  N   UNL A   1      41.800  29.571  33.569  1.00  0.00    -0.354 N 
ATOM     61  N   UNL A   1      42.511  27.874  31.284  1.00  0.00    -0.248 NA
ATOM     62  C   UNL A   1      44.007  26.434  30.219  1.00  0.00     0.031 C 
ATOM     63  C   UNL A   1      43.152  29.583  35.333  1.00  0.00     0.029 A 
ATOM     64  C   UNL A   1      42.973  29.034  34.074  1.00  0.00     0.049 A 
ATOM     65  H   UNL A   1      41.424  29.375  32.681  1.00  0.00     0.167 HD
ATOM     66  C   UNL A   1      43.575  27.609  32.136  1.00  0.00     0.074 A 
ATOM     67  C   UNL A   1      44.446  26.684  31.444  1.00  0.00     0.031 C 
ATOM     68  C   UNL A   1      43.811  28.090  33.381  1.00  0.00     0.037 A 
BRANCH  55  69
ATOM     69  C   UNL A   1      39.540  32.058  35.410  1.00  0.00     0.064 A 
ATOM     70  C   UNL A   1      38.677  31.585  36.410  1.00  0.00     0.173 A 
ATOM     71  C   UNL A   1      40.001  33.379  35.513  1.00  0.00     0.173 A 
ATOM     72  F   UNL A   1      38.198  30.333  36.353  1.00  0.00    -0.203 F 
ATOM     73  C   UNL A   1      38.279  32.406  37.461  1.00  0.00     0.198 A 
ATOM     74  C   UNL A   1      39.625  34.188  36.581  1.00  0.00     0.198 A 
ATOM     75  F   UNL A   1      40.833  33.879  34.587  1.00  0.00    -0.203 F 
ATOM     76  F   UNL A   1      37.424  31.944  38.385  1.00  0.00    -0.200 F 
ATOM     77  C   UNL A   1      38.760  33.704  37.551  1.00  0.00     0.200 A 
ATOM     78  F   UNL A   1      40.103  35.437  36.676  1.00  0.00    -0.200 F 
ATOM     79  F   UNL A   1      38.390  34.488  38.573  1.00  0.00    -0.200 F 
ENDBRANCH  55  69
BRANCH  56  80
ATOM     80  C   UNL A   1      42.353  26.197  27.822  1.00  0.00     0.064 A 
ATOM     81  C   UNL A   1      43.301  26.657  26.897  1.00  0.00     0.173 A 
ATOM     82  C   UNL A   1      41.810  24.920  27.614  1.00  0.00     0.173 A 
ATOM     83  F   UNL A   1      43.836  27.880  27.039  1.00  0.00    -0.203 F 
ATOM     84  C   UNL A   1      43.659  25.893  25.788  1.00  0.00     0.198 A 
ATOM     85  C   UNL A   1      42.195  24.142  26.524  1.00  0.00     0.198 A 
ATOM     86  F   UNL A   1      40.904  24.428  28.472  1.00  0.00    -0.203 F 
ATOM     87  F   UNL A   1      44.516  26.388  24.884  1.00  0.00    -0.200 F 
ATOM     88  C   UNL A   1      43.107  24.635  25.603  1.00  0.00     0.200 A 
ATOM     89  F   UNL A   1      41.670  22.920  26.358  1.00  0.00    -0.200 F 
ATOM     90  F   UNL A   1      43.444  23.904  24.534  1.00  0.00    -0.200 F 
ENDBRANCH  56  80
BRANCH  68  91
ATOM     91  C   UNL A   1      45.027  27.581  34.098  1.00  0.00     0.064 A 
ATOM     92  C   UNL A   1      44.995  26.416  34.877  1.00  0.00     0.173 A 
ATOM     93  C   UNL A   1      46.254  28.252  33.971  1.00  0.00     0.173 A 
ATOM     94  F   UNL A   1      43.843  25.746  35.041  1.00  0.00    -0.203 F 
ATOM     95  C   UNL A   1      46.137  25.957  35.525  1.00  0.00     0.198 A 
ATOM     96  C   UNL A   1      47.402  27.771  34.593  1.00  0.00     0.198 A 
ATOM     97  F   UNL A   1      46.342  29.367  33.232  1.00  0.00    -0.203 F 
ATOM     98  F   UNL A   1      46.071  24.869  36.307  1.00  0.00    -0.200 F 
ATOM     99  C   UNL A   1      47.341  26.629  35.377  1.00  0.00     0.200 A 
ATOM    100  F   UNL A   1      48.568  28.414  34.437  1.00  0.00    -0.200 F 
ATOM    101  F   UNL A   1      48.442  26.180  35.995  1.00  0.00    -0.200 F 
ENDBRANCH  68  91
ENDBRANCH  42  43
ENDBRANCH  34  37
ENDBRANCH  32  33
ENDBRANCH  31  32
ENDBRANCH  30  31
ENDBRANCH   1  30
TORSDOF 16
ENDMDL
MODEL 3
REMARK VINA RESULT:     -12.6      3.295      8.183
REMARK SMILES CC(C)c1cc(N2CCC(C(=O)NCCCCCCNC(=O)c3ccc(-c4c5nc(c(-c6c(F)c(F)c(F)c(F)c6F)c6ccc([nH]6)c(-c6c(F)c(F)c(F)c(F)c6F)c6nc(c(-c7c(F)c(F)c(F)c(F)c7F)c7ccc4[nH]7)C=C6)C=C5)cc3)CC2)nc(-c2ccc(F)cc2)n1
REMARK SMILES IDX 16 1 15 2 14 3 13 4 11 5 12 6 10 8 7 9 8 10 87 11 9 12 86 13
REMARK SMILES IDX 6 14 4 15 5 16 97 17 89 18 88 19 2 20 1 21 3 22 90 23 91 24
REMARK SMILES IDX 96 25 92 26 95 27 93 28 94 29 17 30 18 31 19 32 20 33 21 34
REMARK SMILES IDX 22 36 23 37 24 38 85 39 25 40 84 41 26 42 27 43 28 44 78 45
REMARK SMILES IDX 29 46 83 47 77 48 79 49 30 50 82 51 76 52 75 53 31 55 63 56
REMARK SMILES IDX 43 57 62 58 44 59 47 60 61 61 80 62 45 63 46 64 60 66 81 67
REMARK SMILES IDX 48 68 32 69 33 70 41 71 34 72 35 73 39 74 42 75 36 76 37 77
REMARK SMILES IDX 40 78 38 79 64 80 65 81 73 82 66 83 67 84 71 85 74 86 68 87
REMARK SMILES IDX 69 88 72 89 70 90 49 91 50 92 58 93 51 94 52 95 56 96 59 97
REMARK SMILES IDX 53 98 54 99 57 100 55 101
REMARK H PARENT 13 7 20 35 79 54 47 65
REMARK Flexibility Score: inf
ROOT
ATOM      1  C   UNL A   1      31.829  29.419  27.010  1.00  0.00     0.002 C 
ENDROOT
BRANCH   1   2
ATOM      2  C   UNL A   1      32.781  28.315  26.537  1.00  0.00     0.021 C 
BRANCH   2   3
ATOM      3  C   UNL A   1      32.082  27.100  25.931  1.00  0.00     0.116 C 
BRANCH   3   4
ATOM      4  N   UNL A   1      30.989  27.490  25.051  1.00  0.00    -0.356 N 
ATOM      5  C   UNL A   1      30.096  26.733  24.356  1.00  0.00     0.223 C 
ATOM      6  O   UNL A   1      29.260  27.313  23.660  1.00  0.00    -0.275 OA
ATOM      7  H   UNL A   1      30.879  28.462  24.941  1.00  0.00     0.163 HD
BRANCH   5   8
ATOM      8  C   UNL A   1      30.109  25.212  24.441  1.00  0.00     0.082 C 
ATOM      9  N   UNL A   1      31.986  23.123  24.585  1.00  0.00    -0.356 N 
ATOM     10  C   UNL A   1      31.240  23.195  23.339  1.00  0.00     0.119 C 
ATOM     11  C   UNL A   1      31.216  23.327  25.796  1.00  0.00     0.119 C 
ATOM     12  C   UNL A   1      30.717  24.609  23.162  1.00  0.00     0.035 C 
ATOM     13  C   UNL A   1      30.701  24.762  25.791  1.00  0.00     0.035 C 
BRANCH   9  14
ATOM     14  C   UNL A   1      33.077  22.280  24.572  1.00  0.00     0.132 A 
ATOM     15  C   UNL A   1      35.409  21.861  24.630  1.00  0.00     0.049 A 
ATOM     16  C   UNL A   1      34.370  22.769  24.529  1.00  0.00     0.071 A 
ATOM     17  N   UNL A   1      35.165  20.537  24.723  1.00  0.00    -0.233 NA
ATOM     18  C   UNL A   1      33.880  20.146  24.728  1.00  0.00     0.161 A 
ATOM     19  N   UNL A   1      32.822  20.967  24.667  1.00  0.00    -0.211 NA
BRANCH  15  20
ATOM     20  C   UNL A   1      36.874  22.268  24.619  1.00  0.00     0.032 C 
ATOM     21  C   UNL A   1      37.218  23.508  25.453  1.00  0.00     0.014 C 
ATOM     22  C   UNL A   1      37.759  21.101  25.077  1.00  0.00     0.014 C 
ENDBRANCH  15  20
BRANCH  18  23
ATOM     23  C   UNL A   1      33.613  18.707  24.799  1.00  0.00     0.019 A 
ATOM     24  C   UNL A   1      32.715  18.182  25.747  1.00  0.00     0.015 A 
ATOM     25  C   UNL A   1      34.256  17.809  23.923  1.00  0.00     0.015 A 
ATOM     26  C   UNL A   1      32.458  16.809  25.810  1.00  0.00     0.040 A 
ATOM     27  C   UNL A   1      34.015  16.434  23.998  1.00  0.00     0.040 A 
ATOM     28  C   UNL A   1      33.113  15.948  24.937  1.00  0.00     0.123 A 
ATOM     29  F   UNL A   1      32.869  14.633  24.996  1.00  0.00    -0.207 F 
ENDBRANCH  18  23
ENDBRANCH   9  14
ENDBRANCH   5   8
ENDBRANCH   3   4
ENDBRANCH   2   3
ENDBRANCH   1   2
BRANCH   1  30
ATOM     30  C   UNL A   1      31.673  30.600  26.046  1.00  0.00     0.002 C 
BRANCH  30  31
ATOM     31  C   UNL A   1      31.452  31.960  26.713  1.00  0.00     0.021 C 
BRANCH  31  32
ATOM     32  C   UNL A   1      32.727  32.660  27.171  1.00  0.00     0.116 C 
BRANCH  32  33
ATOM     33  N   UNL A   1      32.488  34.041  27.557  1.00  0.00    -0.352 N 
ATOM     34  C   UNL A   1      33.082  34.779  28.547  1.00  0.00     0.251 C 
ATOM     35  H   UNL A   1      31.801  34.512  27.033  1.00  0.00     0.163 HD
ATOM     36  O   UNL A   1      32.628  35.880  28.855  1.00  0.00    -0.269 OA
BRANCH  34  37
ATOM     37  C   UNL A   1      34.258  34.243  29.264  1.00  0.00     0.039 A 
ATOM     38  C   UNL A   1      34.053  33.469  30.408  1.00  0.00     0.014 A 
ATOM     39  C   UNL A   1      35.555  34.511  28.817  1.00  0.00     0.014 A 
ATOM     40  C   UNL A   1      35.149  32.919  31.076  1.00  0.00     0.010 A 
ATOM     41  C   UNL A   1      36.642  33.902  29.439  1.00  0.00     0.010 A 
ATOM     42  C   UNL A   1      36.451  33.106  30.579  1.00  0.00    -0.014 A 
BRANCH  42  43
ATOM     43  C   UNL A   1      37.624  32.495  31.252  1.00  0.00     0.031 A 
ATOM     44  C   UNL A   1      38.375  31.376  30.583  1.00  0.00     0.074 A 
ATOM     45  C   UNL A   1      37.985  32.915  32.480  1.00  0.00     0.049 A 
ATOM     46  N   UNL A   1      39.378  30.665  31.034  1.00  0.00    -0.248 NA
ATOM     47  C   UNL A   1      37.929  30.994  29.234  1.00  0.00     0.031 C 
ATOM     48  C   UNL A   1      37.318  33.971  33.243  1.00  0.00     0.029 A 
ATOM     49  N   UNL A   1      38.997  32.497  33.308  1.00  0.00    -0.354 N 
ATOM     50  C   UNL A   1      39.674  29.751  30.032  1.00  0.00     0.074 A 
ATOM     51  C   UNL A   1      38.713  29.959  28.970  1.00  0.00     0.031 C 
ATOM     52  C   UNL A   1      37.949  34.130  34.419  1.00  0.00     0.029 A 
ATOM     53  C   UNL A   1      39.036  33.161  34.510  1.00  0.00     0.049 A 
ATOM     54  H   UNL A   1      39.636  31.788  33.062  1.00  0.00     0.167 HD
ATOM     55  C   UNL A   1      40.673  28.838  29.989  1.00  0.00     0.037 A 
ATOM     56  C   UNL A   1      39.851  32.994  35.570  1.00  0.00     0.037 A 
ATOM     57  C   UNL A   1      41.636  28.642  31.040  1.00  0.00     0.049 A 
ATOM     58  C   UNL A   1      40.934  31.949  35.504  1.00  0.00     0.074 A 
ATOM     59  C   UNL A   1      42.702  27.760  31.080  1.00  0.00     0.029 A 
ATOM     60  N   UNL A   1      41.652  29.344  32.236  1.00  0.00    -0.354 N 
ATOM     61  N   UNL A   1      41.237  31.129  34.528  1.00  0.00    -0.248 NA
ATOM     62  C   UNL A   1      41.793  31.811  36.689  1.00  0.00     0.031 C 
ATOM     63  C   UNL A   1      43.340  27.901  32.317  1.00  0.00     0.029 A 
ATOM     64  C   UNL A   1      42.702  28.906  33.026  1.00  0.00     0.049 A 
ATOM     65  H   UNL A   1      41.010  30.048  32.487  1.00  0.00     0.167 HD
ATOM     66  C   UNL A   1      42.342  30.409  34.964  1.00  0.00     0.074 A 
ATOM     67  C   UNL A   1      42.666  30.900  36.286  1.00  0.00     0.031 C 
ATOM     68  C   UNL A   1      43.027  29.428  34.327  1.00  0.00     0.037 A 
BRANCH  55  69
ATOM     69  C   UNL A   1      40.792  27.990  28.757  1.00  0.00     0.064 A 
ATOM     70  C   UNL A   1      40.096  26.777  28.636  1.00  0.00     0.173 A 
ATOM     71  C   UNL A   1      41.555  28.420  27.661  1.00  0.00     0.173 A 
ATOM     72  F   UNL A   1      39.362  26.315  29.659  1.00  0.00    -0.203 F 
ATOM     73  C   UNL A   1      40.174  26.019  27.471  1.00  0.00     0.198 A 
ATOM     74  C   UNL A   1      41.607  27.674  26.487  1.00  0.00     0.198 A 
ATOM     75  F   UNL A   1      42.235  29.575  27.722  1.00  0.00    -0.203 F 
ATOM     76  F   UNL A   1      39.530  24.846  27.392  1.00  0.00    -0.200 F 
ATOM     77  C   UNL A   1      40.921  26.472  26.394  1.00  0.00     0.200 A 
ATOM     78  F   UNL A   1      42.316  28.121  25.441  1.00  0.00    -0.200 F 
ATOM     79  F   UNL A   1      40.980  25.750  25.267  1.00  0.00    -0.200 F 
ENDBRANCH  55  69
BRANCH  56  80
ATOM     80  C   UNL A   1      39.690  33.838  36.784  1.00  0.00     0.064 A 
ATOM     81  C   UNL A   1      38.890  33.415  37.855  1.00  0.00     0.173 A 
ATOM     82  C   UNL A   1      40.289  35.103  36.880  1.00  0.00     0.173 A 
ATOM     83  F   UNL A   1      38.278  32.221  37.804  1.00  0.00    -0.203 F 
ATOM     84  C   UNL A   1      38.662  34.239  38.956  1.00  0.00     0.198 A 
ATOM     85  C   UNL A   1      40.088  35.912  37.997  1.00  0.00     0.198 A 
ATOM     86  F   UNL A   1      41.069  35.554  35.887  1.00  0.00    -0.203 F 
ATOM     87  F   UNL A   1      37.837  33.836  39.932  1.00  0.00    -0.200 F 
ATOM     88  C   UNL A   1      39.263  35.486  39.027  1.00  0.00     0.200 A 
ATOM     89  F   UNL A   1      40.683  37.111  38.068  1.00  0.00    -0.200 F 
ATOM     90  F   UNL A   1      39.037  36.281  40.080  1.00  0.00    -0.200 F 
ENDBRANCH  56  80
BRANCH  68  91
ATOM     91  C   UNL A   1      44.229  28.862  35.025  1.00  0.00     0.064 A 
ATOM     92  C   UNL A   1      44.137  27.754  35.880  1.00  0.00     0.173 A 
ATOM     93  C   UNL A   1      45.500  29.416  34.804  1.00  0.00     0.173 A 
ATOM     94  F   UNL A   1      42.943  27.197  36.135  1.00  0.00    -0.203 F 
ATOM     95  C   UNL A   1      45.267  27.240  36.509  1.00  0.00     0.198 A 
ATOM     96  C   UNL A   1      46.632  28.879  35.408  1.00  0.00     0.198 A 
ATOM     97  F   UNL A   1      45.645  30.472  33.989  1.00  0.00    -0.203 F 
ATOM     98  F   UNL A   1      45.148  26.213  37.362  1.00  0.00    -0.200 F 
ATOM     99  C   UNL A   1      46.514  27.797  36.267  1.00  0.00     0.200 A 
ATOM    100  F   UNL A   1      47.839  29.409  35.161  1.00  0.00    -0.200 F 
ATOM    101  F   UNL A   1      47.602  27.295  36.867  1.00  0.00    -0.200 F 
ENDBRANCH  68  91
ENDBRANCH  42  43
ENDBRANCH  34  37
ENDBRANCH  32  33
ENDBRANCH  31  32
ENDBRANCH  30  31
ENDBRANCH   1  30
TORSDOF 16
ENDMDL
