MODEL 1
REMARK VINA RESULT:     -12.5      0.000      0.000
REMARK SMILES COc1ccc(-c2ncn(CC(=O)NCCCCCCNC(=O)c3ccc(-c4c5nc(c(-c6c(F)c(F)c(F)c(F)c6F)c6ccc([nH]6)c(-c6c(F)c(F)c(F)c(F)c6F)c6nc(c(-c7c(F)c(F)c(F)c(F)c7F)c7ccc4[nH]7)C=C6)C=C5)cc3)c2-c2ccc(OC)cc2)cc1
REMARK SMILES IDX 17 1 16 2 15 3 14 4 12 5 13 6 11 8 10 9 7 10 8 11 87 12 9 13
REMARK SMILES IDX 6 14 3 15 4 16 97 17 5 18 96 19 2 20 1 21 88 22 89 23 95 24
REMARK SMILES IDX 90 25 94 26 91 27 92 28 93 29 18 30 19 31 20 32 21 33 22 34
REMARK SMILES IDX 23 36 24 37 25 38 86 39 26 40 85 41 27 42 28 43 29 44 79 45
REMARK SMILES IDX 30 46 84 47 78 48 80 49 31 50 83 51 77 52 76 53 32 55 64 56
REMARK SMILES IDX 44 57 63 58 45 59 48 60 62 61 81 62 46 63 47 64 61 66 82 67
REMARK SMILES IDX 49 68 33 69 34 70 42 71 35 72 36 73 40 74 43 75 37 76 38 77
REMARK SMILES IDX 41 78 39 79 65 80 66 81 74 82 67 83 68 84 72 85 75 86 69 87
REMARK SMILES IDX 70 88 73 89 71 90 50 91 51 92 59 93 52 94 53 95 57 96 60 97
REMARK SMILES IDX 54 98 55 99 58 100 56 101
REMARK H PARENT 14 7 21 35 80 54 48 65
REMARK Flexibility Score: inf
ROOT
ATOM      1  C   UNL A   1      33.854  28.140  26.017  1.00  0.00     0.002 C 
ENDROOT
BRANCH   1   2
ATOM      2  C   UNL A   1      33.165  28.824  24.829  1.00  0.00     0.021 C 
BRANCH   2   3
ATOM      3  C   UNL A   1      31.638  28.750  24.854  1.00  0.00     0.116 C 
BRANCH   3   4
ATOM      4  N   UNL A   1      31.049  29.145  23.592  1.00  0.00    -0.355 N 
ATOM      5  C   UNL A   1      30.550  28.376  22.582  1.00  0.00     0.239 C 
ATOM      6  O   UNL A   1      29.994  28.960  21.648  1.00  0.00    -0.273 OA
ATOM      7  H   UNL A   1      31.001  30.117  23.439  1.00  0.00     0.163 HD
BRANCH   5   8
ATOM      8  C   UNL A   1      30.590  26.864  22.643  1.00  0.00     0.223 C 
BRANCH   8   9
ATOM      9  N   UNL A   1      31.921  26.279  22.641  1.00  0.00    -0.321 N 
ATOM     10  C   UNL A   1      33.756  25.199  23.094  1.00  0.00     0.096 A 
ATOM     11  N   UNL A   1      34.075  26.104  22.115  1.00  0.00    -0.236 NA
ATOM     12  C   UNL A   1      32.420  25.295  23.467  1.00  0.00     0.076 A 
ATOM     13  C   UNL A   1      32.963  26.759  21.888  1.00  0.00     0.201 A 
BRANCH  10  14
ATOM     14  C   UNL A   1      34.736  24.370  23.766  1.00  0.00     0.003 A 
ATOM     15  C   UNL A   1      36.902  22.991  24.880  1.00  0.00     0.118 A 
ATOM     16  C   UNL A   1      36.236  23.972  25.618  1.00  0.00     0.047 A 
ATOM     17  C   UNL A   1      36.433  22.644  23.614  1.00  0.00     0.047 A 
ATOM     18  C   UNL A   1      35.160  24.665  25.064  1.00  0.00     0.014 A 
ATOM     19  C   UNL A   1      35.347  23.328  23.059  1.00  0.00     0.014 A 
BRANCH  15  20
ATOM     20  O   UNL A   1      37.957  22.405  25.526  1.00  0.00    -0.497 OA
ATOM     21  C   UNL A   1      38.133  21.014  25.294  1.00  0.00     0.278 C 
ENDBRANCH  15  20
ENDBRANCH  10  14
BRANCH  12  22
ATOM     22  C   UNL A   1      31.704  24.673  24.578  1.00  0.00     0.001 A 
ATOM     23  C   UNL A   1      31.255  25.417  25.670  1.00  0.00     0.014 A 
ATOM     24  C   UNL A   1      31.421  23.303  24.530  1.00  0.00     0.014 A 
ATOM     25  C   UNL A   1      30.583  24.786  26.719  1.00  0.00     0.047 A 
ATOM     26  C   UNL A   1      30.724  22.678  25.568  1.00  0.00     0.047 A 
ATOM     27  C   UNL A   1      30.310  23.417  26.674  1.00  0.00     0.118 A 
BRANCH  27  28
ATOM     28  O   UNL A   1      29.643  22.927  27.762  1.00  0.00    -0.497 OA
ATOM     29  C   UNL A   1      28.467  22.171  27.500  1.00  0.00     0.278 C 
ENDBRANCH  27  28
ENDBRANCH  12  22
ENDBRANCH   8   9
ENDBRANCH   5   8
ENDBRANCH   3   4
ENDBRANCH   2   3
ENDBRANCH   1   2
BRANCH   1  30
ATOM     30  C   UNL A   1      34.665  29.057  26.945  1.00  0.00     0.002 C 
BRANCH  30  31
ATOM     31  C   UNL A   1      33.951  30.316  27.458  1.00  0.00     0.021 C 
BRANCH  31  32
ATOM     32  C   UNL A   1      34.878  31.503  27.659  1.00  0.00     0.116 C 
BRANCH  32  33
ATOM     33  N   UNL A   1      34.577  32.245  28.881  1.00  0.00    -0.352 N 
ATOM     34  C   UNL A   1      35.083  32.045  30.153  1.00  0.00     0.251 C 
ATOM     35  H   UNL A   1      33.932  32.983  28.787  1.00  0.00     0.163 HD
ATOM     36  O   UNL A   1      34.514  32.478  31.138  1.00  0.00    -0.269 OA
BRANCH  34  37
ATOM     37  C   UNL A   1      36.343  31.292  30.290  1.00  0.00     0.039 A 
ATOM     38  C   UNL A   1      36.352  29.899  30.405  1.00  0.00     0.014 A 
ATOM     39  C   UNL A   1      37.530  32.018  30.279  1.00  0.00     0.014 A 
ATOM     40  C   UNL A   1      37.577  29.238  30.438  1.00  0.00     0.010 A 
ATOM     41  C   UNL A   1      38.722  31.363  30.138  1.00  0.00     0.010 A 
ATOM     42  C   UNL A   1      38.757  29.981  30.292  1.00  0.00    -0.014 A 
BRANCH  42  43
ATOM     43  C   UNL A   1      40.061  29.336  30.227  1.00  0.00     0.031 A 
ATOM     44  C   UNL A   1      40.725  29.121  31.541  1.00  0.00     0.074 A 
ATOM     45  C   UNL A   1      40.487  28.740  29.092  1.00  0.00     0.049 A 
ATOM     46  N   UNL A   1      41.863  29.579  31.947  1.00  0.00    -0.248 NA
ATOM     47  C   UNL A   1      39.979  28.387  32.579  1.00  0.00     0.031 C 
ATOM     48  C   UNL A   1      39.761  28.573  27.825  1.00  0.00     0.029 A 
ATOM     49  N   UNL A   1      41.626  28.031  28.872  1.00  0.00    -0.354 N 
ATOM     50  C   UNL A   1      42.066  29.043  33.219  1.00  0.00     0.074 A 
ATOM     51  C   UNL A   1      40.807  28.475  33.621  1.00  0.00     0.031 C 
ATOM     52  C   UNL A   1      40.361  27.621  27.079  1.00  0.00     0.029 A 
ATOM     53  C   UNL A   1      41.601  27.242  27.729  1.00  0.00     0.049 A 
ATOM     54  H   UNL A   1      42.404  28.072  29.473  1.00  0.00     0.167 HD
ATOM     55  C   UNL A   1      43.323  28.897  33.727  1.00  0.00     0.037 A 
ATOM     56  C   UNL A   1      42.512  26.304  27.374  1.00  0.00     0.037 A 
ATOM     57  C   UNL A   1      44.268  29.702  32.995  1.00  0.00     0.049 A 
ATOM     58  C   UNL A   1      43.736  26.544  28.172  1.00  0.00     0.074 A 
ATOM     59  C   UNL A   1      44.402  31.054  32.739  1.00  0.00     0.029 A 
ATOM     60  N   UNL A   1      45.070  29.073  32.075  1.00  0.00    -0.354 N 
ATOM     61  N   UNL A   1      44.507  27.583  28.016  1.00  0.00    -0.248 NA
ATOM     62  C   UNL A   1      43.841  25.871  29.459  1.00  0.00     0.031 C 
ATOM     63  C   UNL A   1      44.858  31.129  31.389  1.00  0.00     0.029 A 
ATOM     64  C   UNL A   1      45.044  29.826  30.930  1.00  0.00     0.049 A 
ATOM     65  H   UNL A   1      45.571  28.237  32.211  1.00  0.00     0.167 HD
ATOM     66  C   UNL A   1      44.852  27.956  29.305  1.00  0.00     0.074 A 
ATOM     67  C   UNL A   1      44.491  26.815  30.145  1.00  0.00     0.031 C 
ATOM     68  C   UNL A   1      45.116  29.260  29.605  1.00  0.00     0.037 A 
BRANCH  55  69
ATOM     69  C   UNL A   1      43.772  27.756  34.616  1.00  0.00     0.064 A 
ATOM     70  C   UNL A   1      43.698  26.437  34.115  1.00  0.00     0.173 A 
ATOM     71  C   UNL A   1      43.965  27.858  36.011  1.00  0.00     0.173 A 
ATOM     72  F   UNL A   1      43.521  26.211  32.805  1.00  0.00    -0.203 F 
ATOM     73  C   UNL A   1      43.699  25.322  34.957  1.00  0.00     0.198 A 
ATOM     74  C   UNL A   1      44.022  26.739  36.842  1.00  0.00     0.198 A 
ATOM     75  F   UNL A   1      43.998  29.032  36.648  1.00  0.00    -0.203 F 
ATOM     76  F   UNL A   1      43.479  24.103  34.447  1.00  0.00    -0.200 F 
ATOM     77  C   UNL A   1      43.849  25.475  36.322  1.00  0.00     0.200 A 
ATOM     78  F   UNL A   1      44.159  26.909  38.164  1.00  0.00    -0.200 F 
ATOM     79  F   UNL A   1      43.778  24.416  37.138  1.00  0.00    -0.200 F 
ENDBRANCH  55  69
BRANCH  56  80
ATOM     80  C   UNL A   1      42.268  25.022  26.681  1.00  0.00     0.064 A 
ATOM     81  C   UNL A   1      43.059  24.610  25.597  1.00  0.00     0.173 A 
ATOM     82  C   UNL A   1      41.453  24.044  27.274  1.00  0.00     0.173 A 
ATOM     83  F   UNL A   1      43.910  25.469  25.021  1.00  0.00    -0.203 F 
ATOM     84  C   UNL A   1      43.043  23.286  25.142  1.00  0.00     0.198 A 
ATOM     85  C   UNL A   1      41.459  22.725  26.833  1.00  0.00     0.198 A 
ATOM     86  F   UNL A   1      40.725  24.323  28.366  1.00  0.00    -0.203 F 
ATOM     87  F   UNL A   1      43.855  22.911  24.143  1.00  0.00    -0.200 F 
ATOM     88  C   UNL A   1      42.250  22.340  25.768  1.00  0.00     0.200 A 
ATOM     89  F   UNL A   1      40.768  21.813  27.519  1.00  0.00    -0.200 F 
ATOM     90  F   UNL A   1      42.293  21.055  25.388  1.00  0.00    -0.200 F 
ENDBRANCH  56  80
BRANCH  68  91
ATOM     91  C   UNL A   1      45.258  30.225  28.463  1.00  0.00     0.064 A 
ATOM     92  C   UNL A   1      44.191  30.963  27.918  1.00  0.00     0.173 A 
ATOM     93  C   UNL A   1      46.544  30.520  27.999  1.00  0.00     0.173 A 
ATOM     94  F   UNL A   1      42.944  30.814  28.375  1.00  0.00    -0.203 F 
ATOM     95  C   UNL A   1      44.402  31.921  26.928  1.00  0.00     0.198 A 
ATOM     96  C   UNL A   1      46.757  31.503  27.037  1.00  0.00     0.198 A 
ATOM     97  F   UNL A   1      47.606  29.886  28.520  1.00  0.00    -0.203 F 
ATOM     98  F   UNL A   1      43.365  32.604  26.421  1.00  0.00    -0.200 F 
ATOM     99  C   UNL A   1      45.686  32.196  26.494  1.00  0.00     0.200 A 
ATOM    100  F   UNL A   1      48.007  31.800  26.657  1.00  0.00    -0.200 F 
ATOM    101  F   UNL A   1      45.897  33.148  25.575  1.00  0.00    -0.200 F 
ENDBRANCH  68  91
ENDBRANCH  42  43
ENDBRANCH  34  37
ENDBRANCH  32  33
ENDBRANCH  31  32
ENDBRANCH  30  31
ENDBRANCH   1  30
TORSDOF 18
ENDMDL
MODEL 2
REMARK VINA RESULT:     -12.4      1.656      2.784
REMARK SMILES COc1ccc(-c2ncn(CC(=O)NCCCCCCNC(=O)c3ccc(-c4c5nc(c(-c6c(F)c(F)c(F)c(F)c6F)c6ccc([nH]6)c(-c6c(F)c(F)c(F)c(F)c6F)c6nc(c(-c7c(F)c(F)c(F)c(F)c7F)c7ccc4[nH]7)C=C6)C=C5)cc3)c2-c2ccc(OC)cc2)cc1
REMARK SMILES IDX 17 1 16 2 15 3 14 4 12 5 13 6 11 8 10 9 7 10 8 11 87 12 9 13
REMARK SMILES IDX 6 14 3 15 4 16 97 17 5 18 96 19 2 20 1 21 88 22 89 23 95 24
REMARK SMILES IDX 90 25 94 26 91 27 92 28 93 29 18 30 19 31 20 32 21 33 22 34
REMARK SMILES IDX 23 36 24 37 25 38 86 39 26 40 85 41 27 42 28 43 29 44 79 45
REMARK SMILES IDX 30 46 84 47 78 48 80 49 31 50 83 51 77 52 76 53 32 55 64 56
REMARK SMILES IDX 44 57 63 58 45 59 48 60 62 61 81 62 46 63 47 64 61 66 82 67
REMARK SMILES IDX 49 68 33 69 34 70 42 71 35 72 36 73 40 74 43 75 37 76 38 77
REMARK SMILES IDX 41 78 39 79 65 80 66 81 74 82 67 83 68 84 72 85 75 86 69 87
REMARK SMILES IDX 70 88 73 89 71 90 50 91 51 92 59 93 52 94 53 95 57 96 60 97
REMARK SMILES IDX 54 98 55 99 58 100 56 101
REMARK H PARENT 14 7 21 35 80 54 48 65
REMARK Flexibility Score: inf
ROOT
ATOM      1  C   UNL A   1      31.427  28.915  25.054  1.00  0.00     0.002 C 
ENDROOT
BRANCH   1   2
ATOM      2  C   UNL A   1      31.046  29.202  23.595  1.00  0.00     0.021 C 
BRANCH   2   3
ATOM      3  C   UNL A   1      30.699  27.959  22.775  1.00  0.00     0.116 C 
BRANCH   3   4
ATOM      4  N   UNL A   1      31.802  27.524  21.945  1.00  0.00    -0.355 N 
ATOM      5  C   UNL A   1      32.817  26.657  22.226  1.00  0.00     0.239 C 
ATOM      6  O   UNL A   1      33.580  26.361  21.302  1.00  0.00    -0.273 OA
ATOM      7  H   UNL A   1      31.824  27.912  21.041  1.00  0.00     0.163 HD
BRANCH   5   8
ATOM      8  C   UNL A   1      32.952  26.007  23.587  1.00  0.00     0.223 C 
BRANCH   8   9
ATOM      9  N   UNL A   1      32.383  24.675  23.696  1.00  0.00    -0.321 N 
ATOM     10  C   UNL A   1      32.031  22.539  23.938  1.00  0.00     0.096 A 
ATOM     11  N   UNL A   1      30.898  23.053  23.361  1.00  0.00    -0.236 NA
ATOM     12  C   UNL A   1      32.994  23.521  24.141  1.00  0.00     0.076 A 
ATOM     13  C   UNL A   1      31.153  24.328  23.199  1.00  0.00     0.201 A 
BRANCH  10  14
ATOM     14  C   UNL A   1      32.249  21.123  24.148  1.00  0.00     0.003 A 
ATOM     15  C   UNL A   1      33.042  18.453  24.429  1.00  0.00     0.118 A 
ATOM     16  C   UNL A   1      32.993  19.295  25.542  1.00  0.00     0.047 A 
ATOM     17  C   UNL A   1      32.617  18.926  23.188  1.00  0.00     0.047 A 
ATOM     18  C   UNL A   1      32.604  20.627  25.405  1.00  0.00     0.014 A 
ATOM     19  C   UNL A   1      32.214  20.257  23.049  1.00  0.00     0.014 A 
BRANCH  15  20
ATOM     20  O   UNL A   1      33.466  17.178  24.692  1.00  0.00    -0.497 OA
ATOM     21  C   UNL A   1      32.659  16.426  25.587  1.00  0.00     0.278 C 
ENDBRANCH  15  20
ENDBRANCH  10  14
BRANCH  12  22
ATOM     22  C   UNL A   1      34.393  23.401  24.544  1.00  0.00     0.001 A 
ATOM     23  C   UNL A   1      34.792  23.583  25.869  1.00  0.00     0.014 A 
ATOM     24  C   UNL A   1      35.355  23.051  23.589  1.00  0.00     0.014 A 
ATOM     25  C   UNL A   1      36.141  23.470  26.216  1.00  0.00     0.047 A 
ATOM     26  C   UNL A   1      36.700  22.911  23.943  1.00  0.00     0.047 A 
ATOM     27  C   UNL A   1      37.100  23.131  25.259  1.00  0.00     0.118 A 
BRANCH  27  28
ATOM     28  O   UNL A   1      38.381  23.050  25.732  1.00  0.00    -0.497 OA
ATOM     29  C   UNL A   1      38.833  24.135  26.533  1.00  0.00     0.278 C 
ENDBRANCH  27  28
ENDBRANCH  12  22
ENDBRANCH   8   9
ENDBRANCH   5   8
ENDBRANCH   3   4
ENDBRANCH   2   3
ENDBRANCH   1   2
BRANCH   1  30
ATOM     30  C   UNL A   1      32.585  29.748  25.624  1.00  0.00     0.002 C 
BRANCH  30  31
ATOM     31  C   UNL A   1      33.215  29.239  26.930  1.00  0.00     0.021 C 
BRANCH  31  32
ATOM     32  C   UNL A   1      34.536  29.908  27.269  1.00  0.00     0.116 C 
BRANCH  32  33
ATOM     33  N   UNL A   1      34.359  31.121  28.065  1.00  0.00    -0.352 N 
ATOM     34  C   UNL A   1      35.032  31.499  29.213  1.00  0.00     0.251 C 
ATOM     35  H   UNL A   1      33.674  31.750  27.743  1.00  0.00     0.163 HD
ATOM     36  O   UNL A   1      34.574  32.333  29.972  1.00  0.00    -0.269 OA
BRANCH  34  37
ATOM     37  C   UNL A   1      36.333  30.867  29.497  1.00  0.00     0.039 A 
ATOM     38  C   UNL A   1      36.418  29.562  29.991  1.00  0.00     0.014 A 
ATOM     39  C   UNL A   1      37.480  31.609  29.235  1.00  0.00     0.014 A 
ATOM     40  C   UNL A   1      37.676  28.987  30.152  1.00  0.00     0.010 A 
ATOM     41  C   UNL A   1      38.699  30.991  29.229  1.00  0.00     0.010 A 
ATOM     42  C   UNL A   1      38.811  29.708  29.755  1.00  0.00    -0.014 A 
BRANCH  42  43
ATOM     43  C   UNL A   1      40.144  29.126  29.813  1.00  0.00     0.031 A 
ATOM     44  C   UNL A   1      40.702  28.963  31.184  1.00  0.00     0.074 A 
ATOM     45  C   UNL A   1      40.693  28.532  28.731  1.00  0.00     0.049 A 
ATOM     46  N   UNL A   1      41.779  29.481  31.675  1.00  0.00    -0.248 NA
ATOM     47  C   UNL A   1      39.906  28.212  32.169  1.00  0.00     0.031 C 
ATOM     48  C   UNL A   1      40.085  28.310  27.411  1.00  0.00     0.029 A 
ATOM     49  N   UNL A   1      41.877  27.874  28.623  1.00  0.00    -0.354 N 
ATOM     50  C   UNL A   1      41.898  28.977  32.970  1.00  0.00     0.074 A 
ATOM     51  C   UNL A   1      40.637  28.356  33.275  1.00  0.00     0.031 C 
ATOM     52  C   UNL A   1      40.790  27.375  26.738  1.00  0.00     0.029 A 
ATOM     53  C   UNL A   1      41.986  27.066  27.498  1.00  0.00     0.049 A 
ATOM     54  H   UNL A   1      42.598  27.962  29.286  1.00  0.00     0.167 HD
ATOM     55  C   UNL A   1      43.112  28.899  33.585  1.00  0.00     0.037 A 
ATOM     56  C   UNL A   1      42.967  26.167  27.240  1.00  0.00     0.037 A 
ATOM     57  C   UNL A   1      44.079  29.736  32.920  1.00  0.00     0.049 A 
ATOM     58  C   UNL A   1      44.105  26.478  28.134  1.00  0.00     0.074 A 
ATOM     59  C   UNL A   1      44.171  31.088  32.648  1.00  0.00     0.029 A 
ATOM     60  N   UNL A   1      44.984  29.131  32.082  1.00  0.00    -0.354 N 
ATOM     61  N   UNL A   1      44.838  27.549  28.022  1.00  0.00    -0.248 NA
ATOM     62  C   UNL A   1      44.131  25.832  29.438  1.00  0.00     0.031 C 
ATOM     63  C   UNL A   1      44.737  31.163  31.340  1.00  0.00     0.029 A 
ATOM     64  C   UNL A   1      45.021  29.863  30.925  1.00  0.00     0.049 A 
ATOM     65  H   UNL A   1      45.509  28.322  32.278  1.00  0.00     0.167 HD
ATOM     66  C   UNL A   1      45.055  27.959  29.328  1.00  0.00     0.074 A 
ATOM     67  C   UNL A   1      44.676  26.817  30.157  1.00  0.00     0.031 C 
ATOM     68  C   UNL A   1      45.232  29.280  29.623  1.00  0.00     0.037 A 
BRANCH  55  69
ATOM     69  C   UNL A   1      43.536  27.795  34.532  1.00  0.00     0.064 A 
ATOM     70  C   UNL A   1      43.502  26.459  34.074  1.00  0.00     0.173 A 
ATOM     71  C   UNL A   1      43.665  27.947  35.929  1.00  0.00     0.173 A 
ATOM     72  F   UNL A   1      43.387  26.187  32.765  1.00  0.00    -0.203 F 
ATOM     73  C   UNL A   1      43.480  25.373  34.953  1.00  0.00     0.198 A 
ATOM     74  C   UNL A   1      43.699  26.858  36.800  1.00  0.00     0.198 A 
ATOM     75  F   UNL A   1      43.653  29.142  36.527  1.00  0.00    -0.203 F 
ATOM     76  F   UNL A   1      43.299  24.135  34.475  1.00  0.00    -0.200 F 
ATOM     77  C   UNL A   1      43.566  25.574  36.317  1.00  0.00     0.200 A 
ATOM     78  F   UNL A   1      43.774  27.074  38.121  1.00  0.00    -0.200 F 
ATOM     79  F   UNL A   1      43.473  24.543  37.165  1.00  0.00    -0.200 F 
ENDBRANCH  55  69
BRANCH  56  80
ATOM     80  C   UNL A   1      42.841  24.864  26.555  1.00  0.00     0.064 A 
ATOM     81  C   UNL A   1      43.545  24.584  25.373  1.00  0.00     0.173 A 
ATOM     82  C   UNL A   1      42.271  23.768  27.223  1.00  0.00     0.173 A 
ATOM     83  F   UNL A   1      44.172  25.568  24.715  1.00  0.00    -0.203 F 
ATOM     84  C   UNL A   1      43.680  23.275  24.895  1.00  0.00     0.198 A 
ATOM     85  C   UNL A   1      42.428  22.468  26.756  1.00  0.00     0.198 A 
ATOM     86  F   UNL A   1      41.650  23.926  28.402  1.00  0.00    -0.203 F 
ATOM     87  F   UNL A   1      44.409  23.035  23.796  1.00  0.00    -0.200 F 
ATOM     88  C   UNL A   1      43.130  22.214  25.594  1.00  0.00     0.200 A 
ATOM     89  F   UNL A   1      41.980  21.456  27.502  1.00  0.00    -0.200 F 
ATOM     90  F   UNL A   1      43.325  20.953  25.183  1.00  0.00    -0.200 F 
ENDBRANCH  56  80
BRANCH  68  91
ATOM     91  C   UNL A   1      45.426  30.231  28.477  1.00  0.00     0.064 A 
ATOM     92  C   UNL A   1      44.375  30.898  27.820  1.00  0.00     0.173 A 
ATOM     93  C   UNL A   1      46.731  30.591  28.127  1.00  0.00     0.173 A 
ATOM     94  F   UNL A   1      43.101  30.686  28.163  1.00  0.00    -0.203 F 
ATOM     95  C   UNL A   1      44.625  31.849  26.833  1.00  0.00     0.198 A 
ATOM     96  C   UNL A   1      46.979  31.569  27.167  1.00  0.00     0.198 A 
ATOM     97  F   UNL A   1      47.774  30.028  28.758  1.00  0.00    -0.203 F 
ATOM     98  F   UNL A   1      43.603  32.463  26.217  1.00  0.00    -0.200 F 
ATOM     99  C   UNL A   1      45.927  32.190  26.513  1.00  0.00     0.200 A 
ATOM    100  F   UNL A   1      48.240  31.929  26.897  1.00  0.00    -0.200 F 
ATOM    101  F   UNL A   1      46.169  33.136  25.595  1.00  0.00    -0.200 F 
ENDBRANCH  68  91
ENDBRANCH  42  43
ENDBRANCH  34  37
ENDBRANCH  32  33
ENDBRANCH  31  32
ENDBRANCH  30  31
ENDBRANCH   1  30
TORSDOF 18
ENDMDL
MODEL 3
REMARK VINA RESULT:     -12.2      2.820      8.799
REMARK SMILES COc1ccc(-c2ncn(CC(=O)NCCCCCCNC(=O)c3ccc(-c4c5nc(c(-c6c(F)c(F)c(F)c(F)c6F)c6ccc([nH]6)c(-c6c(F)c(F)c(F)c(F)c6F)c6nc(c(-c7c(F)c(F)c(F)c(F)c7F)c7ccc4[nH]7)C=C6)C=C5)cc3)c2-c2ccc(OC)cc2)cc1
REMARK SMILES IDX 17 1 16 2 15 3 14 4 12 5 13 6 11 8 10 9 7 10 8 11 87 12 9 13
REMARK SMILES IDX 6 14 3 15 4 16 97 17 5 18 96 19 2 20 1 21 88 22 89 23 95 24
REMARK SMILES IDX 90 25 94 26 91 27 92 28 93 29 18 30 19 31 20 32 21 33 22 34
REMARK SMILES IDX 23 36 24 37 25 38 86 39 26 40 85 41 27 42 28 43 29 44 79 45
REMARK SMILES IDX 30 46 84 47 78 48 80 49 31 50 83 51 77 52 76 53 32 55 64 56
REMARK SMILES IDX 44 57 63 58 45 59 48 60 62 61 81 62 46 63 47 64 61 66 82 67
REMARK SMILES IDX 49 68 33 69 34 70 42 71 35 72 36 73 40 74 43 75 37 76 38 77
REMARK SMILES IDX 41 78 39 79 65 80 66 81 74 82 67 83 68 84 72 85 75 86 69 87
REMARK SMILES IDX 70 88 73 89 71 90 50 91 51 92 59 93 52 94 53 95 57 96 60 97
REMARK SMILES IDX 54 98 55 99 58 100 56 101
REMARK H PARENT 14 7 21 35 80 54 48 65
REMARK Flexibility Score: inf
ROOT
ATOM      1  C   UNL A   1      35.013  21.105  24.638  1.00  0.00     0.002 C 
ENDROOT
BRANCH   1   2
ATOM      2  C   UNL A   1      34.114  20.862  25.858  1.00  0.00     0.021 C 
BRANCH   2   3
ATOM      3  C   UNL A   1      32.616  20.961  25.569  1.00  0.00     0.116 C 
BRANCH   3   4
ATOM      4  N   UNL A   1      31.934  21.835  26.500  1.00  0.00    -0.355 N 
ATOM      5  C   UNL A   1      31.849  23.196  26.517  1.00  0.00     0.239 C 
ATOM      6  O   UNL A   1      31.107  23.706  27.361  1.00  0.00    -0.273 OA
ATOM      7  H   UNL A   1      31.460  21.378  27.232  1.00  0.00     0.163 HD
BRANCH   5   8
ATOM      8  C   UNL A   1      32.559  24.049  25.487  1.00  0.00     0.223 C 
BRANCH   8   9
ATOM      9  N   UNL A   1      31.687  24.784  24.586  1.00  0.00    -0.321 N 
ATOM     10  C   UNL A   1      30.505  26.289  23.547  1.00  0.00     0.096 A 
ATOM     11  N   UNL A   1      30.045  25.072  23.114  1.00  0.00    -0.236 NA
ATOM     12  C   UNL A   1      31.518  26.149  24.489  1.00  0.00     0.076 A 
ATOM     13  C   UNL A   1      30.750  24.191  23.778  1.00  0.00     0.201 A 
BRANCH  10  14
ATOM     14  C   UNL A   1      29.889  27.550  23.189  1.00  0.00     0.003 A 
ATOM     15  C   UNL A   1      28.661  29.833  22.132  1.00  0.00     0.118 A 
ATOM     16  C   UNL A   1      27.916  28.908  22.868  1.00  0.00     0.047 A 
ATOM     17  C   UNL A   1      30.037  29.655  21.995  1.00  0.00     0.047 A 
ATOM     18  C   UNL A   1      28.523  27.767  23.391  1.00  0.00     0.014 A 
ATOM     19  C   UNL A   1      30.652  28.519  22.528  1.00  0.00     0.014 A 
BRANCH  15  20
ATOM     20  O   UNL A   1      27.944  30.895  21.651  1.00  0.00    -0.497 OA
ATOM     21  C   UNL A   1      28.181  32.145  22.285  1.00  0.00     0.278 C 
ENDBRANCH  15  20
ENDBRANCH  10  14
BRANCH  12  22
ATOM     22  C   UNL A   1      32.157  27.148  25.342  1.00  0.00     0.001 A 
ATOM     23  C   UNL A   1      33.397  27.700  25.021  1.00  0.00     0.014 A 
ATOM     24  C   UNL A   1      31.491  27.597  26.489  1.00  0.00     0.014 A 
ATOM     25  C   UNL A   1      33.983  28.646  25.866  1.00  0.00     0.047 A 
ATOM     26  C   UNL A   1      32.067  28.564  27.319  1.00  0.00     0.047 A 
ATOM     27  C   UNL A   1      33.322  29.086  27.015  1.00  0.00     0.118 A 
BRANCH  27  28
ATOM     28  O   UNL A   1      34.004  30.015  27.751  1.00  0.00    -0.497 OA
ATOM     29  C   UNL A   1      35.423  29.929  27.726  1.00  0.00     0.278 C 
ENDBRANCH  27  28
ENDBRANCH  12  22
ENDBRANCH   8   9
ENDBRANCH   5   8
ENDBRANCH   3   4
ENDBRANCH   2   3
ENDBRANCH   1   2
BRANCH   1  30
ATOM     30  C   UNL A   1      35.938  22.329  24.715  1.00  0.00     0.002 C 
BRANCH  30  31
ATOM     31  C   UNL A   1      36.742  22.499  26.013  1.00  0.00     0.021 C 
BRANCH  31  32
ATOM     32  C   UNL A   1      38.042  23.262  25.829  1.00  0.00     0.116 C 
BRANCH  32  33
ATOM     33  N   UNL A   1      39.217  22.406  25.979  1.00  0.00    -0.352 N 
ATOM     34  C   UNL A   1      40.528  22.782  26.209  1.00  0.00     0.251 C 
ATOM     35  H   UNL A   1      39.055  21.438  25.907  1.00  0.00     0.163 HD
ATOM     36  O   UNL A   1      41.455  22.031  25.969  1.00  0.00    -0.269 OA
BRANCH  34  37
ATOM     37  C   UNL A   1      40.780  24.124  26.763  1.00  0.00     0.039 A 
ATOM     38  C   UNL A   1      40.352  25.279  26.101  1.00  0.00     0.014 A 
ATOM     39  C   UNL A   1      41.442  24.203  27.983  1.00  0.00     0.014 A 
ATOM     40  C   UNL A   1      40.537  26.513  26.718  1.00  0.00     0.010 A 
ATOM     41  C   UNL A   1      41.469  25.389  28.663  1.00  0.00     0.010 A 
ATOM     42  C   UNL A   1      41.087  26.554  28.007  1.00  0.00    -0.014 A 
BRANCH  42  43
ATOM     43  C   UNL A   1      41.220  27.806  28.740  1.00  0.00     0.031 A 
ATOM     44  C   UNL A   1      42.374  28.654  28.335  1.00  0.00     0.074 A 
ATOM     45  C   UNL A   1      40.217  28.269  29.516  1.00  0.00     0.049 A 
ATOM     46  N   UNL A   1      43.367  29.053  29.060  1.00  0.00    -0.248 NA
ATOM     47  C   UNL A   1      42.496  29.021  26.913  1.00  0.00     0.031 C 
ATOM     48  C   UNL A   1      38.878  27.692  29.711  1.00  0.00     0.029 A 
ATOM     49  N   UNL A   1      40.133  29.439  30.202  1.00  0.00    -0.354 N 
ATOM     50  C   UNL A   1      44.142  29.872  28.239  1.00  0.00     0.074 A 
ATOM     51  C   UNL A   1      43.662  29.668  26.899  1.00  0.00     0.031 C 
ATOM     52  C   UNL A   1      38.057  28.620  30.247  1.00  0.00     0.029 A 
ATOM     53  C   UNL A   1      38.847  29.786  30.595  1.00  0.00     0.049 A 
ATOM     54  H   UNL A   1      40.919  29.996  30.404  1.00  0.00     0.167 HD
ATOM     55  C   UNL A   1      44.950  30.835  28.770  1.00  0.00     0.037 A 
ATOM     56  C   UNL A   1      38.453  30.972  31.120  1.00  0.00     0.037 A 
ATOM     57  C   UNL A   1      45.177  30.597  30.174  1.00  0.00     0.049 A 
ATOM     58  C   UNL A   1      39.667  31.678  31.589  1.00  0.00     0.074 A 
ATOM     59  C   UNL A   1      45.726  29.565  30.909  1.00  0.00     0.029 A 
ATOM     60  N   UNL A   1      44.467  31.353  31.075  1.00  0.00    -0.354 N 
ATOM     61  N   UNL A   1      40.384  31.284  32.603  1.00  0.00    -0.248 NA
ATOM     62  C   UNL A   1      40.346  32.549  30.641  1.00  0.00     0.031 C 
ATOM     63  C   UNL A   1      44.914  29.473  32.079  1.00  0.00     0.029 A 
ATOM     64  C   UNL A   1      43.969  30.496  32.021  1.00  0.00     0.049 A 
ATOM     65  H   UNL A   1      44.340  32.328  31.047  1.00  0.00     0.167 HD
ATOM     66  C   UNL A   1      41.695  31.482  32.200  1.00  0.00     0.074 A 
ATOM     67  C   UNL A   1      41.609  32.346  31.024  1.00  0.00     0.031 C 
ATOM     68  C   UNL A   1      42.697  30.686  32.674  1.00  0.00     0.037 A 
BRANCH  55  69
ATOM     69  C   UNL A   1      45.220  32.185  28.139  1.00  0.00     0.064 A 
ATOM     70  C   UNL A   1      44.136  33.068  27.936  1.00  0.00     0.173 A 
ATOM     71  C   UNL A   1      46.404  32.522  27.448  1.00  0.00     0.173 A 
ATOM     72  F   UNL A   1      42.958  32.856  28.543  1.00  0.00    -0.203 F 
ATOM     73  C   UNL A   1      44.200  34.127  27.028  1.00  0.00     0.198 A 
ATOM     74  C   UNL A   1      46.482  33.614  26.585  1.00  0.00     0.198 A 
ATOM     75  F   UNL A   1      47.501  31.759  27.487  1.00  0.00    -0.203 F 
ATOM     76  F   UNL A   1      43.100  34.844  26.763  1.00  0.00    -0.200 F 
ATOM     77  C   UNL A   1      45.371  34.392  26.343  1.00  0.00     0.200 A 
ATOM     78  F   UNL A   1      47.623  33.849  25.923  1.00  0.00    -0.200 F 
ATOM     79  F   UNL A   1      45.416  35.361  25.420  1.00  0.00    -0.200 F 
ENDBRANCH  55  69
BRANCH  56  80
ATOM     80  C   UNL A   1      37.172  31.674  30.907  1.00  0.00     0.064 A 
ATOM     81  C   UNL A   1      36.240  31.836  31.945  1.00  0.00     0.173 A 
ATOM     82  C   UNL A   1      36.984  32.468  29.763  1.00  0.00     0.173 A 
ATOM     83  F   UNL A   1      36.390  31.162  33.093  1.00  0.00    -0.203 F 
ATOM     84  C   UNL A   1      35.186  32.751  31.846  1.00  0.00     0.198 A 
ATOM     85  C   UNL A   1      35.949  33.393  29.680  1.00  0.00     0.198 A 
ATOM     86  F   UNL A   1      37.868  32.443  28.755  1.00  0.00    -0.203 F 
ATOM     87  F   UNL A   1      34.349  32.924  32.879  1.00  0.00    -0.200 F 
ATOM     88  C   UNL A   1      35.047  33.539  30.716  1.00  0.00     0.200 A 
ATOM     89  F   UNL A   1      35.899  34.212  28.628  1.00  0.00    -0.200 F 
ATOM     90  F   UNL A   1      34.088  34.474  30.651  1.00  0.00    -0.200 F 
ENDBRANCH  56  80
BRANCH  68  91
ATOM     91  C   UNL A   1      42.375  29.762  33.814  1.00  0.00     0.064 A 
ATOM     92  C   UNL A   1      41.854  28.465  33.654  1.00  0.00     0.173 A 
ATOM     93  C   UNL A   1      42.743  30.151  35.106  1.00  0.00     0.173 A 
ATOM     94  F   UNL A   1      41.570  27.979  32.443  1.00  0.00    -0.203 F 
ATOM     95  C   UNL A   1      41.675  27.616  34.745  1.00  0.00     0.198 A 
ATOM     96  C   UNL A   1      42.598  29.288  36.189  1.00  0.00     0.198 A 
ATOM     97  F   UNL A   1      43.296  31.357  35.312  1.00  0.00    -0.203 F 
ATOM     98  F   UNL A   1      41.168  26.387  34.564  1.00  0.00    -0.200 F 
ATOM     99  C   UNL A   1      42.054  28.025  36.010  1.00  0.00     0.200 A 
ATOM    100  F   UNL A   1      43.013  29.671  37.403  1.00  0.00    -0.200 F 
ATOM    101  F   UNL A   1      41.924  27.195  37.054  1.00  0.00    -0.200 F 
ENDBRANCH  68  91
ENDBRANCH  42  43
ENDBRANCH  34  37
ENDBRANCH  32  33
ENDBRANCH  31  32
ENDBRANCH  30  31
ENDBRANCH   1  30
TORSDOF 18
ENDMDL
