MODEL 1
REMARK VINA RESULT:     -12.4      0.000      0.000
REMARK SMILES O=C(NCCCCCCNC(=O)C1([C@H]2CS(=O)(=O)C[C@H]2O)CCCC1)c1ccc(-c2c3nc(c(-c4c(F)c(F)c(F)c(F)c4F)c4ccc([nH]4)c(-c4c(F)c(F)c(F)c(F)c4F)c4nc(c(-c5c(F)c(F)c(F)c(F)c5F)c5ccc2[nH]5)C=C4)C=C3)cc1
REMARK SMILES IDX 6 1 5 2 4 3 3 4 1 5 2 6 26 8 27 9 88 10 28 11 87 12 29 13
REMARK SMILES IDX 30 14 31 15 81 16 32 17 86 18 80 19 82 20 33 21 85 22 79 23
REMARK SMILES IDX 78 24 34 26 66 27 46 28 65 29 47 30 50 31 64 32 83 33 48 34
REMARK SMILES IDX 49 35 63 37 84 38 51 39 35 40 36 41 44 42 37 43 38 44 42 45
REMARK SMILES IDX 45 46 39 47 40 48 43 49 41 50 67 51 68 52 76 53 69 54 70 55
REMARK SMILES IDX 74 56 77 57 71 58 72 59 75 60 73 61 52 62 53 63 61 64 54 65
REMARK SMILES IDX 55 66 59 67 62 68 56 69 57 70 60 71 58 72 7 73 8 74 9 75
REMARK SMILES IDX 10 76 11 77 12 79 13 80 22 81 25 82 23 83 24 84 14 85 15 86
REMARK SMILES IDX 20 87 16 88 19 89 17 90 18 91 21 92
REMARK H PARENT 3 7 82 25 50 36 10 78 21 93
REMARK Flexibility Score: inf
ROOT
ATOM      1  C   UNL A   1      31.701  30.710  26.202  1.00  0.00     0.002 C 
ENDROOT
BRANCH   1   2
ATOM      2  C   UNL A   1      31.474  32.139  26.694  1.00  0.00     0.021 C 
BRANCH   2   3
ATOM      3  C   UNL A   1      32.705  32.743  27.356  1.00  0.00     0.116 C 
BRANCH   3   4
ATOM      4  N   UNL A   1      32.499  34.154  27.639  1.00  0.00    -0.352 N 
ATOM      5  O   UNL A   1      32.574  35.991  28.951  1.00  0.00    -0.269 OA
ATOM      6  C   UNL A   1      33.050  34.905  28.644  1.00  0.00     0.251 C 
ATOM      7  H   UNL A   1      31.888  34.630  27.031  1.00  0.00     0.163 HD
BRANCH   6   8
ATOM      8  C   UNL A   1      34.239  34.385  29.346  1.00  0.00     0.039 A 
ATOM      9  C   UNL A   1      34.085  33.713  30.562  1.00  0.00     0.014 A 
ATOM     10  C   UNL A   1      35.503  34.548  28.776  1.00  0.00     0.014 A 
ATOM     11  C   UNL A   1      35.204  33.282  31.258  1.00  0.00     0.010 A 
ATOM     12  C   UNL A   1      36.620  34.032  29.433  1.00  0.00     0.010 A 
ATOM     13  C   UNL A   1      36.476  33.394  30.677  1.00  0.00    -0.014 A 
BRANCH  13  14
ATOM     14  C   UNL A   1      37.619  32.702  31.312  1.00  0.00     0.031 A 
ATOM     15  C   UNL A   1      38.293  31.539  30.653  1.00  0.00     0.074 A 
ATOM     16  C   UNL A   1      38.021  33.139  32.523  1.00  0.00     0.049 A 
ATOM     17  N   UNL A   1      39.266  30.791  31.105  1.00  0.00    -0.248 NA
ATOM     18  C   UNL A   1      37.812  31.156  29.316  1.00  0.00     0.031 C 
ATOM     19  C   UNL A   1      37.418  34.256  33.256  1.00  0.00     0.029 A 
ATOM     20  N   UNL A   1      39.018  32.701  33.354  1.00  0.00    -0.354 N 
ATOM     21  C   UNL A   1      39.499  29.836  30.126  1.00  0.00     0.074 A 
ATOM     22  C   UNL A   1      38.559  30.090  29.056  1.00  0.00     0.031 C 
ATOM     23  C   UNL A   1      38.067  34.428  34.415  1.00  0.00     0.029 A 
ATOM     24  C   UNL A   1      39.077  33.386  34.543  1.00  0.00     0.049 A 
ATOM     25  H   UNL A   1      39.633  31.967  33.122  1.00  0.00     0.167 HD
ATOM     26  C   UNL A   1      40.417  28.841  30.134  1.00  0.00     0.037 A 
ATOM     27  C   UNL A   1      39.827  33.170  35.639  1.00  0.00     0.037 A 
ATOM     28  C   UNL A   1      41.357  28.618  31.205  1.00  0.00     0.049 A 
ATOM     29  C   UNL A   1      40.802  32.028  35.628  1.00  0.00     0.074 A 
ATOM     30  C   UNL A   1      42.379  27.688  31.271  1.00  0.00     0.029 A 
ATOM     31  N   UNL A   1      41.374  29.318  32.403  1.00  0.00    -0.354 N 
ATOM     32  N   UNL A   1      41.070  31.180  34.664  1.00  0.00    -0.248 NA
ATOM     33  C   UNL A   1      41.574  31.805  36.857  1.00  0.00     0.031 C 
ATOM     34  C   UNL A   1      42.966  27.775  32.536  1.00  0.00     0.029 A 
ATOM     35  C   UNL A   1      42.356  28.803  33.235  1.00  0.00     0.049 A 
ATOM     36  H   UNL A   1      40.778  30.069  32.628  1.00  0.00     0.167 HD
ATOM     37  C   UNL A   1      42.048  30.334  35.164  1.00  0.00     0.074 A 
ATOM     38  C   UNL A   1      42.348  30.789  36.506  1.00  0.00     0.031 C 
ATOM     39  C   UNL A   1      42.638  29.270  34.569  1.00  0.00     0.037 A 
BRANCH  26  40
ATOM     40  C   UNL A   1      40.449  27.890  28.974  1.00  0.00     0.064 A 
ATOM     41  C   UNL A   1      39.665  26.728  28.943  1.00  0.00     0.173 A 
ATOM     42  C   UNL A   1      41.203  28.202  27.831  1.00  0.00     0.173 A 
ATOM     43  F   UNL A   1      38.931  26.379  30.011  1.00  0.00    -0.203 F 
ATOM     44  C   UNL A   1      39.641  25.910  27.815  1.00  0.00     0.198 A 
ATOM     45  C   UNL A   1      41.156  27.397  26.697  1.00  0.00     0.198 A 
ATOM     46  F   UNL A   1      41.965  29.306  27.805  1.00  0.00    -0.203 F 
ATOM     47  F   UNL A   1      38.903  24.791  27.817  1.00  0.00    -0.200 F 
ATOM     48  C   UNL A   1      40.376  26.251  26.690  1.00  0.00     0.200 A 
ATOM     49  F   UNL A   1      41.855  27.739  25.604  1.00  0.00    -0.200 F 
ATOM     50  F   UNL A   1      40.335  25.475  25.598  1.00  0.00    -0.200 F 
ENDBRANCH  26  40
BRANCH  27  51
ATOM     51  C   UNL A   1      39.642  34.016  36.848  1.00  0.00     0.064 A 
ATOM     52  C   UNL A   1      38.840  33.592  37.914  1.00  0.00     0.173 A 
ATOM     53  C   UNL A   1      40.249  35.278  36.950  1.00  0.00     0.173 A 
ATOM     54  F   UNL A   1      38.226  32.400  37.858  1.00  0.00    -0.203 F 
ATOM     55  C   UNL A   1      38.624  34.409  39.022  1.00  0.00     0.198 A 
ATOM     56  C   UNL A   1      40.064  36.078  38.074  1.00  0.00     0.198 A 
ATOM     57  F   UNL A   1      41.033  35.730  35.961  1.00  0.00    -0.203 F 
ATOM     58  F   UNL A   1      37.802  34.005  39.999  1.00  0.00    -0.200 F 
ATOM     59  C   UNL A   1      39.241  35.649  39.103  1.00  0.00     0.200 A 
ATOM     60  F   UNL A   1      40.680  37.266  38.157  1.00  0.00    -0.200 F 
ATOM     61  F   UNL A   1      39.032  36.435  40.167  1.00  0.00    -0.200 F 
ENDBRANCH  27  51
BRANCH  39  62
ATOM     62  C   UNL A   1      43.678  28.533  35.360  1.00  0.00     0.064 A 
ATOM     63  C   UNL A   1      43.333  27.483  36.223  1.00  0.00     0.173 A 
ATOM     64  C   UNL A   1      45.037  28.848  35.216  1.00  0.00     0.173 A 
ATOM     65  F   UNL A   1      42.044  27.158  36.410  1.00  0.00    -0.203 F 
ATOM     66  C   UNL A   1      44.311  26.786  36.927  1.00  0.00     0.198 A 
ATOM     67  C   UNL A   1      46.014  28.127  35.895  1.00  0.00     0.198 A 
ATOM     68  F   UNL A   1      45.419  29.842  34.400  1.00  0.00    -0.203 F 
ATOM     69  F   UNL A   1      43.955  25.816  37.781  1.00  0.00    -0.200 F 
ATOM     70  C   UNL A   1      45.650  27.101  36.754  1.00  0.00     0.200 A 
ATOM     71  F   UNL A   1      47.309  28.422  35.714  1.00  0.00    -0.200 F 
ATOM     72  F   UNL A   1      46.591  26.419  37.420  1.00  0.00    -0.200 F 
ENDBRANCH  39  62
ENDBRANCH  13  14
ENDBRANCH   6   8
ENDBRANCH   3   4
ENDBRANCH   2   3
ENDBRANCH   1   2
BRANCH   1  73
ATOM     73  C   UNL A   1      32.941  30.033  26.797  1.00  0.00     0.002 C 
BRANCH  73  74
ATOM     74  C   UNL A   1      32.712  28.583  27.237  1.00  0.00     0.021 C 
BRANCH  74  75
ATOM     75  C   UNL A   1      31.777  27.813  26.297  1.00  0.00     0.116 C 
BRANCH  75  76
ATOM     76  N   UNL A   1      31.416  26.558  26.913  1.00  0.00    -0.356 N 
ATOM     77  C   UNL A   1      31.694  25.277  26.576  1.00  0.00     0.226 C 
ATOM     78  H   UNL A   1      30.868  26.651  27.725  1.00  0.00     0.163 HD
ATOM     79  O   UNL A   1      31.039  24.427  27.191  1.00  0.00    -0.274 OA
BRANCH  77  80
ATOM     80  C   UNL A   1      32.838  24.848  25.599  1.00  0.00     0.055 C 
ATOM     81  C   UNL A   1      34.185  25.577  25.732  1.00  0.00     0.017 C 
ATOM     82  C   UNL A   1      33.154  23.379  25.994  1.00  0.00     0.017 C 
ATOM     83  C   UNL A   1      35.287  24.531  25.660  1.00  0.00     0.001 C 
ATOM     84  C   UNL A   1      34.666  23.209  26.060  1.00  0.00     0.001 C 
BRANCH  80  85
ATOM     85  C   UNL A   1      32.232  24.965  24.135  1.00  0.00     0.049 C 
ATOM     86  C   UNL A   1      33.296  25.249  23.044  1.00  0.00     0.144 C 
ATOM     87  C   UNL A   1      31.362  23.836  23.540  1.00  0.00     0.134 C 
ATOM     88  S   UNL A   1      33.563  23.738  22.133  1.00  0.00     0.153 S 
ATOM     89  C   UNL A   1      32.249  22.798  22.869  1.00  0.00     0.169 C 
ATOM     90  O   UNL A   1      33.240  23.966  20.742  1.00  0.00    -0.229 OA
ATOM     91  O   UNL A   1      34.830  23.158  22.540  1.00  0.00    -0.229 OA
BRANCH  87  92
ATOM     92  O   UNL A   1      30.470  23.287  24.490  1.00  0.00    -0.392 OA
ATOM     93  H   UNL A   1      30.825  23.425  25.382  1.00  0.00     0.211 HD
ENDBRANCH  87  92
ENDBRANCH  80  85
ENDBRANCH  77  80
ENDBRANCH  75  76
ENDBRANCH  74  75
ENDBRANCH  73  74
ENDBRANCH   1  73
TORSDOF 15
ENDMDL
MODEL 2
REMARK VINA RESULT:     -12.4      0.193      1.613
REMARK SMILES O=C(NCCCCCCNC(=O)C1([C@H]2CS(=O)(=O)C[C@H]2O)CCCC1)c1ccc(-c2c3nc(c(-c4c(F)c(F)c(F)c(F)c4F)c4ccc([nH]4)c(-c4c(F)c(F)c(F)c(F)c4F)c4nc(c(-c5c(F)c(F)c(F)c(F)c5F)c5ccc2[nH]5)C=C4)C=C3)cc1
REMARK SMILES IDX 6 1 5 2 4 3 3 4 1 5 2 6 26 8 27 9 88 10 28 11 87 12 29 13
REMARK SMILES IDX 30 14 31 15 81 16 32 17 86 18 80 19 82 20 33 21 85 22 79 23
REMARK SMILES IDX 78 24 34 26 66 27 46 28 65 29 47 30 50 31 64 32 83 33 48 34
REMARK SMILES IDX 49 35 63 37 84 38 51 39 35 40 36 41 44 42 37 43 38 44 42 45
REMARK SMILES IDX 45 46 39 47 40 48 43 49 41 50 67 51 68 52 76 53 69 54 70 55
REMARK SMILES IDX 74 56 77 57 71 58 72 59 75 60 73 61 52 62 53 63 61 64 54 65
REMARK SMILES IDX 55 66 59 67 62 68 56 69 57 70 60 71 58 72 7 73 8 74 9 75
REMARK SMILES IDX 10 76 11 77 12 79 13 80 22 81 25 82 23 83 24 84 14 85 15 86
REMARK SMILES IDX 20 87 16 88 19 89 17 90 18 91 21 92
REMARK H PARENT 3 7 82 25 50 36 10 78 21 93
REMARK Flexibility Score: inf
ROOT
ATOM      1  C   UNL A   1      31.605  30.784  26.138  1.00  0.00     0.002 C 
ENDROOT
BRANCH   1   2
ATOM      2  C   UNL A   1      31.400  32.219  26.622  1.00  0.00     0.021 C 
BRANCH   2   3
ATOM      3  C   UNL A   1      32.636  32.804  27.291  1.00  0.00     0.116 C 
BRANCH   3   4
ATOM      4  N   UNL A   1      32.433  34.207  27.615  1.00  0.00    -0.352 N 
ATOM      5  O   UNL A   1      32.515  36.006  28.978  1.00  0.00    -0.269 OA
ATOM      6  C   UNL A   1      32.989  34.929  28.639  1.00  0.00     0.251 C 
ATOM      7  H   UNL A   1      31.821  34.701  27.023  1.00  0.00     0.163 HD
BRANCH   6   8
ATOM      8  C   UNL A   1      34.178  34.387  29.322  1.00  0.00     0.039 A 
ATOM      9  C   UNL A   1      34.028  33.687  30.523  1.00  0.00     0.014 A 
ATOM     10  C   UNL A   1      35.440  34.557  28.750  1.00  0.00     0.014 A 
ATOM     11  C   UNL A   1      35.149  33.236  31.203  1.00  0.00     0.010 A 
ATOM     12  C   UNL A   1      36.559  34.021  29.388  1.00  0.00     0.010 A 
ATOM     13  C   UNL A   1      36.418  33.356  30.618  1.00  0.00    -0.014 A 
BRANCH  13  14
ATOM     14  C   UNL A   1      37.562  32.643  31.231  1.00  0.00     0.031 A 
ATOM     15  C   UNL A   1      38.222  31.488  30.544  1.00  0.00     0.074 A 
ATOM     16  C   UNL A   1      37.976  33.054  32.446  1.00  0.00     0.049 A 
ATOM     17  N   UNL A   1      39.193  30.725  30.974  1.00  0.00    -0.248 NA
ATOM     18  C   UNL A   1      37.728  31.135  29.204  1.00  0.00     0.031 C 
ATOM     19  C   UNL A   1      37.386  34.162  33.206  1.00  0.00     0.029 A 
ATOM     20  N   UNL A   1      38.976  32.594  33.261  1.00  0.00    -0.354 N 
ATOM     21  C   UNL A   1      39.413  29.788  29.975  1.00  0.00     0.074 A 
ATOM     22  C   UNL A   1      38.466  30.069  28.918  1.00  0.00     0.031 C 
ATOM     23  C   UNL A   1      38.046  34.307  34.362  1.00  0.00     0.029 A 
ATOM     24  C   UNL A   1      39.049  33.256  34.462  1.00  0.00     0.049 A 
ATOM     25  H   UNL A   1      39.584  31.861  33.010  1.00  0.00     0.167 HD
ATOM     26  C   UNL A   1      40.324  28.787  29.957  1.00  0.00     0.037 A 
ATOM     27  C   UNL A   1      39.806  33.014  35.548  1.00  0.00     0.037 A 
ATOM     28  C   UNL A   1      41.270  28.538  31.016  1.00  0.00     0.049 A 
ATOM     29  C   UNL A   1      40.773  31.866  35.507  1.00  0.00     0.074 A 
ATOM     30  C   UNL A   1      42.287  27.600  31.057  1.00  0.00     0.029 A 
ATOM     31  N   UNL A   1      41.301  29.214  32.227  1.00  0.00    -0.354 N 
ATOM     32  N   UNL A   1      41.028  31.035  34.526  1.00  0.00    -0.248 NA
ATOM     33  C   UNL A   1      41.553  31.615  36.725  1.00  0.00     0.031 C 
ATOM     34  C   UNL A   1      42.884  27.658  32.318  1.00  0.00     0.029 A 
ATOM     35  C   UNL A   1      42.286  28.677  33.042  1.00  0.00     0.049 A 
ATOM     36  H   UNL A   1      40.713  29.965  32.471  1.00  0.00     0.167 HD
ATOM     37  C   UNL A   1      42.004  30.173  35.001  1.00  0.00     0.074 A 
ATOM     38  C   UNL A   1      42.317  30.600  36.349  1.00  0.00     0.031 C 
ATOM     39  C   UNL A   1      42.582  29.116  34.382  1.00  0.00     0.037 A 
BRANCH  26  40
ATOM     40  C   UNL A   1      40.340  27.858  28.779  1.00  0.00     0.064 A 
ATOM     41  C   UNL A   1      41.108  28.119  27.637  1.00  0.00     0.173 A 
ATOM     42  C   UNL A   1      39.651  26.635  28.840  1.00  0.00     0.173 A 
ATOM     43  F   UNL A   1      41.781  29.275  27.524  1.00  0.00    -0.203 F 
ATOM     44  C   UNL A   1      41.180  27.196  26.595  1.00  0.00     0.198 A 
ATOM     45  C   UNL A   1      39.746  25.704  27.810  1.00  0.00     0.198 A 
ATOM     46  F   UNL A   1      38.906  26.332  29.914  1.00  0.00    -0.203 F 
ATOM     47  F   UNL A   1      41.902  27.477  25.501  1.00  0.00    -0.200 F 
ATOM     48  C   UNL A   1      40.510  25.985  26.688  1.00  0.00     0.200 A 
ATOM     49  F   UNL A   1      39.111  24.528  27.911  1.00  0.00    -0.200 F 
ATOM     50  F   UNL A   1      40.598  25.089  25.695  1.00  0.00    -0.200 F 
ENDBRANCH  26  40
BRANCH  27  51
ATOM     51  C   UNL A   1      39.636  33.838  36.774  1.00  0.00     0.064 A 
ATOM     52  C   UNL A   1      38.818  33.412  37.826  1.00  0.00     0.173 A 
ATOM     53  C   UNL A   1      40.275  35.081  36.906  1.00  0.00     0.173 A 
ATOM     54  F   UNL A   1      38.174  32.238  37.741  1.00  0.00    -0.203 F 
ATOM     55  C   UNL A   1      38.617  34.210  38.951  1.00  0.00     0.198 A 
ATOM     56  C   UNL A   1      40.105  35.861  38.047  1.00  0.00     0.198 A 
ATOM     57  F   UNL A   1      41.076  35.535  35.931  1.00  0.00    -0.203 F 
ATOM     58  F   UNL A   1      37.780  33.806  39.915  1.00  0.00    -0.200 F 
ATOM     59  C   UNL A   1      39.265  35.432  39.062  1.00  0.00     0.200 A 
ATOM     60  F   UNL A   1      40.750  37.031  38.159  1.00  0.00    -0.200 F 
ATOM     61  F   UNL A   1      39.071  36.199  40.142  1.00  0.00    -0.200 F 
ENDBRANCH  27  51
BRANCH  39  62
ATOM     62  C   UNL A   1      43.623  28.358  35.150  1.00  0.00     0.064 A 
ATOM     63  C   UNL A   1      44.978  28.716  35.098  1.00  0.00     0.173 A 
ATOM     64  C   UNL A   1      43.254  27.294  35.987  1.00  0.00     0.173 A 
ATOM     65  F   UNL A   1      45.382  29.714  34.297  1.00  0.00    -0.203 F 
ATOM     66  C   UNL A   1      45.929  28.024  35.843  1.00  0.00     0.198 A 
ATOM     67  C   UNL A   1      44.203  26.627  36.756  1.00  0.00     0.198 A 
ATOM     68  F   UNL A   1      41.971  26.915  36.075  1.00  0.00    -0.203 F 
ATOM     69  F   UNL A   1      47.224  28.353  35.742  1.00  0.00    -0.200 F 
ATOM     70  C   UNL A   1      45.540  26.987  36.678  1.00  0.00     0.200 A 
ATOM     71  F   UNL A   1      43.823  25.636  37.575  1.00  0.00    -0.200 F 
ATOM     72  F   UNL A   1      46.454  26.333  37.406  1.00  0.00    -0.200 F 
ENDBRANCH  39  62
ENDBRANCH  13  14
ENDBRANCH   6   8
ENDBRANCH   3   4
ENDBRANCH   2   3
ENDBRANCH   1   2
BRANCH   1  73
ATOM     73  C   UNL A   1      32.835  30.092  26.735  1.00  0.00     0.002 C 
BRANCH  73  74
ATOM     74  C   UNL A   1      32.576  28.659  27.213  1.00  0.00     0.021 C 
BRANCH  74  75
ATOM     75  C   UNL A   1      31.681  27.862  26.257  1.00  0.00     0.116 C 
BRANCH  75  76
ATOM     76  N   UNL A   1      31.327  26.607  26.876  1.00  0.00    -0.356 N 
ATOM     77  C   UNL A   1      31.621  25.326  26.549  1.00  0.00     0.226 C 
ATOM     78  H   UNL A   1      30.769  26.699  27.682  1.00  0.00     0.163 HD
ATOM     79  O   UNL A   1      30.967  24.474  27.163  1.00  0.00    -0.274 OA
BRANCH  77  80
ATOM     80  C   UNL A   1      32.779  24.904  25.587  1.00  0.00     0.055 C 
ATOM     81  C   UNL A   1      34.127  25.624  25.751  1.00  0.00     0.017 C 
ATOM     82  C   UNL A   1      33.081  23.429  25.970  1.00  0.00     0.017 C 
ATOM     83  C   UNL A   1      35.225  24.573  25.686  1.00  0.00     0.001 C 
ATOM     84  C   UNL A   1      34.591  23.249  26.059  1.00  0.00     0.001 C 
BRANCH  80  85
ATOM     85  C   UNL A   1      32.199  25.041  24.114  1.00  0.00     0.049 C 
ATOM     86  C   UNL A   1      33.279  25.359  23.049  1.00  0.00     0.144 C 
ATOM     87  C   UNL A   1      31.354  23.913  23.481  1.00  0.00     0.134 C 
ATOM     88  S   UNL A   1      33.583  23.869  22.115  1.00  0.00     0.153 S 
ATOM     89  C   UNL A   1      32.267  22.899  22.808  1.00  0.00     0.169 C 
ATOM     90  O   UNL A   1      33.282  24.120  20.723  1.00  0.00    -0.229 OA
ATOM     91  O   UNL A   1      34.848  23.297  22.534  1.00  0.00    -0.229 OA
BRANCH  87  92
ATOM     92  O   UNL A   1      30.452  23.335  24.405  1.00  0.00    -0.392 OA
ATOM     93  H   UNL A   1      29.595  23.193  23.973  1.00  0.00     0.211 HD
ENDBRANCH  87  92
ENDBRANCH  80  85
ENDBRANCH  77  80
ENDBRANCH  75  76
ENDBRANCH  74  75
ENDBRANCH  73  74
ENDBRANCH   1  73
TORSDOF 15
ENDMDL
MODEL 3
REMARK VINA RESULT:     -12.4      0.093      1.137
REMARK SMILES O=C(NCCCCCCNC(=O)C1([C@H]2CS(=O)(=O)C[C@H]2O)CCCC1)c1ccc(-c2c3nc(c(-c4c(F)c(F)c(F)c(F)c4F)c4ccc([nH]4)c(-c4c(F)c(F)c(F)c(F)c4F)c4nc(c(-c5c(F)c(F)c(F)c(F)c5F)c5ccc2[nH]5)C=C4)C=C3)cc1
REMARK SMILES IDX 6 1 5 2 4 3 3 4 1 5 2 6 26 8 27 9 88 10 28 11 87 12 29 13
REMARK SMILES IDX 30 14 31 15 81 16 32 17 86 18 80 19 82 20 33 21 85 22 79 23
REMARK SMILES IDX 78 24 34 26 66 27 46 28 65 29 47 30 50 31 64 32 83 33 48 34
REMARK SMILES IDX 49 35 63 37 84 38 51 39 35 40 36 41 44 42 37 43 38 44 42 45
REMARK SMILES IDX 45 46 39 47 40 48 43 49 41 50 67 51 68 52 76 53 69 54 70 55
REMARK SMILES IDX 74 56 77 57 71 58 72 59 75 60 73 61 52 62 53 63 61 64 54 65
REMARK SMILES IDX 55 66 59 67 62 68 56 69 57 70 60 71 58 72 7 73 8 74 9 75
REMARK SMILES IDX 10 76 11 77 12 79 13 80 22 81 25 82 23 83 24 84 14 85 15 86
REMARK SMILES IDX 20 87 16 88 19 89 17 90 18 91 21 92
REMARK H PARENT 3 7 82 25 50 36 10 78 21 93
REMARK Flexibility Score: inf
ROOT
ATOM      1  C   UNL A   1      31.699  30.700  26.308  1.00  0.00     0.002 C 
ENDROOT
BRANCH   1   2
ATOM      2  C   UNL A   1      31.507  32.174  26.664  1.00  0.00     0.021 C 
BRANCH   2   3
ATOM      3  C   UNL A   1      32.746  32.802  27.288  1.00  0.00     0.116 C 
BRANCH   3   4
ATOM      4  N   UNL A   1      32.512  34.201  27.606  1.00  0.00    -0.352 N 
ATOM      5  O   UNL A   1      32.536  36.003  28.968  1.00  0.00    -0.269 OA
ATOM      6  C   UNL A   1      33.036  34.934  28.639  1.00  0.00     0.251 C 
ATOM      7  H   UNL A   1      31.901  34.683  27.003  1.00  0.00     0.163 HD
BRANCH   6   8
ATOM      8  C   UNL A   1      34.223  34.415  29.344  1.00  0.00     0.039 A 
ATOM      9  C   UNL A   1      34.066  33.733  30.554  1.00  0.00     0.014 A 
ATOM     10  C   UNL A   1      35.489  34.589  28.782  1.00  0.00     0.014 A 
ATOM     11  C   UNL A   1      35.184  33.304  31.253  1.00  0.00     0.010 A 
ATOM     12  C   UNL A   1      36.606  34.075  29.441  1.00  0.00     0.010 A 
ATOM     13  C   UNL A   1      36.458  33.427  30.680  1.00  0.00    -0.014 A 
BRANCH  13  14
ATOM     14  C   UNL A   1      37.602  32.736  31.317  1.00  0.00     0.031 A 
ATOM     15  C   UNL A   1      38.280  31.577  30.656  1.00  0.00     0.074 A 
ATOM     16  C   UNL A   1      37.999  33.171  32.529  1.00  0.00     0.049 A 
ATOM     17  N   UNL A   1      39.255  30.830  31.109  1.00  0.00    -0.248 NA
ATOM     18  C   UNL A   1      37.804  31.196  29.317  1.00  0.00     0.031 C 
ATOM     19  C   UNL A   1      37.392  34.286  33.264  1.00  0.00     0.029 A 
ATOM     20  N   UNL A   1      38.996  32.735  33.362  1.00  0.00    -0.354 N 
ATOM     21  C   UNL A   1      39.493  29.879  30.128  1.00  0.00     0.074 A 
ATOM     22  C   UNL A   1      38.555  30.132  29.056  1.00  0.00     0.031 C 
ATOM     23  C   UNL A   1      38.038  34.456  34.425  1.00  0.00     0.029 A 
ATOM     24  C   UNL A   1      39.050  33.417  34.553  1.00  0.00     0.049 A 
ATOM     25  H   UNL A   1      39.613  32.003  33.129  1.00  0.00     0.167 HD
ATOM     26  C   UNL A   1      40.414  28.886  30.136  1.00  0.00     0.037 A 
ATOM     27  C   UNL A   1      39.798  33.200  35.650  1.00  0.00     0.037 A 
ATOM     28  C   UNL A   1      41.351  28.663  31.209  1.00  0.00     0.049 A 
ATOM     29  C   UNL A   1      40.776  32.062  35.638  1.00  0.00     0.074 A 
ATOM     30  C   UNL A   1      42.376  27.736  31.276  1.00  0.00     0.029 A 
ATOM     31  N   UNL A   1      41.363  29.360  32.408  1.00  0.00    -0.354 N 
ATOM     32  N   UNL A   1      41.049  31.217  34.673  1.00  0.00    -0.248 NA
ATOM     33  C   UNL A   1      41.545  31.838  36.869  1.00  0.00     0.031 C 
ATOM     34  C   UNL A   1      42.960  27.821  32.542  1.00  0.00     0.029 A 
ATOM     35  C   UNL A   1      42.345  28.846  33.242  1.00  0.00     0.049 A 
ATOM     36  H   UNL A   1      40.765  30.109  32.634  1.00  0.00     0.167 HD
ATOM     37  C   UNL A   1      42.028  30.372  35.173  1.00  0.00     0.074 A 
ATOM     38  C   UNL A   1      42.323  30.825  36.517  1.00  0.00     0.031 C 
ATOM     39  C   UNL A   1      42.623  29.311  34.578  1.00  0.00     0.037 A 
BRANCH  26  40
ATOM     40  C   UNL A   1      40.451  27.937  28.974  1.00  0.00     0.064 A 
ATOM     41  C   UNL A   1      39.660  26.781  28.932  1.00  0.00     0.173 A 
ATOM     42  C   UNL A   1      41.218  28.248  27.840  1.00  0.00     0.173 A 
ATOM     43  F   UNL A   1      38.912  26.435  29.992  1.00  0.00    -0.203 F 
ATOM     44  C   UNL A   1      39.642  25.966  27.802  1.00  0.00     0.198 A 
ATOM     45  C   UNL A   1      41.178  27.446  26.703  1.00  0.00     0.198 A 
ATOM     46  F   UNL A   1      41.989  29.347  27.825  1.00  0.00    -0.203 F 
ATOM     47  F   UNL A   1      38.896  24.852  27.793  1.00  0.00    -0.200 F 
ATOM     48  C   UNL A   1      40.391  26.305  26.685  1.00  0.00     0.200 A 
ATOM     49  F   UNL A   1      41.890  27.786  25.619  1.00  0.00    -0.200 F 
ATOM     50  F   UNL A   1      40.355  25.532  25.591  1.00  0.00    -0.200 F 
ENDBRANCH  26  40
BRANCH  27  51
ATOM     51  C   UNL A   1      39.607  34.043  36.860  1.00  0.00     0.064 A 
ATOM     52  C   UNL A   1      38.819  33.606  37.931  1.00  0.00     0.173 A 
ATOM     53  C   UNL A   1      40.195  35.314  36.959  1.00  0.00     0.173 A 
ATOM     54  F   UNL A   1      38.223  32.405  37.878  1.00  0.00    -0.203 F 
ATOM     55  C   UNL A   1      38.597  34.420  39.040  1.00  0.00     0.198 A 
ATOM     56  C   UNL A   1      40.006  36.111  38.084  1.00  0.00     0.198 A 
ATOM     57  F   UNL A   1      40.967  35.779  35.965  1.00  0.00    -0.203 F 
ATOM     58  F   UNL A   1      37.788  34.003  40.022  1.00  0.00    -0.200 F 
ATOM     59  C   UNL A   1      39.195  35.670  39.118  1.00  0.00     0.200 A 
ATOM     60  F   UNL A   1      40.603  37.308  38.164  1.00  0.00    -0.200 F 
ATOM     61  F   UNL A   1      38.982  36.452  40.184  1.00  0.00    -0.200 F 
ENDBRANCH  27  51
BRANCH  39  62
ATOM     62  C   UNL A   1      43.662  28.575  35.370  1.00  0.00     0.064 A 
ATOM     63  C   UNL A   1      45.022  28.904  35.276  1.00  0.00     0.173 A 
ATOM     64  C   UNL A   1      43.289  27.565  36.269  1.00  0.00     0.173 A 
ATOM     65  F   UNL A   1      45.431  29.849  34.416  1.00  0.00    -0.203 F 
ATOM     66  C   UNL A   1      45.973  28.235  36.042  1.00  0.00     0.198 A 
ATOM     67  C   UNL A   1      44.238  26.923  37.057  1.00  0.00     0.198 A 
ATOM     68  F   UNL A   1      42.000  27.217  36.398  1.00  0.00    -0.203 F 
ATOM     69  F   UNL A   1      47.272  28.533  35.903  1.00  0.00    -0.200 F 
ATOM     70  C   UNL A   1      45.579  27.253  36.938  1.00  0.00     0.200 A 
ATOM     71  F   UNL A   1      43.854  25.986  37.936  1.00  0.00    -0.200 F 
ATOM     72  F   UNL A   1      46.494  26.622  37.686  1.00  0.00    -0.200 F 
ENDBRANCH  39  62
ENDBRANCH  13  14
ENDBRANCH   6   8
ENDBRANCH   3   4
ENDBRANCH   2   3
ENDBRANCH   1   2
BRANCH   1  73
ATOM     73  C   UNL A   1      32.969  30.075  26.895  1.00  0.00     0.002 C 
BRANCH  73  74
ATOM     74  C   UNL A   1      32.869  28.565  27.138  1.00  0.00     0.021 C 
BRANCH  74  75
ATOM     75  C   UNL A   1      31.802  27.889  26.268  1.00  0.00     0.116 C 
BRANCH  75  76
ATOM     76  N   UNL A   1      31.407  26.646  26.886  1.00  0.00    -0.356 N 
ATOM     77  C   UNL A   1      31.651  25.357  26.552  1.00  0.00     0.226 C 
ATOM     78  H   UNL A   1      30.859  26.756  27.697  1.00  0.00     0.163 HD
ATOM     79  O   UNL A   1      30.971  24.527  27.169  1.00  0.00    -0.274 OA
BRANCH  77  80
ATOM     80  C   UNL A   1      32.785  24.895  25.580  1.00  0.00     0.055 C 
ATOM     81  C   UNL A   1      34.152  25.582  25.719  1.00  0.00     0.017 C 
ATOM     82  C   UNL A   1      33.055  23.417  25.974  1.00  0.00     0.017 C 
ATOM     83  C   UNL A   1      35.222  24.503  25.650  1.00  0.00     0.001 C 
ATOM     84  C   UNL A   1      34.560  23.200  26.045  1.00  0.00     0.001 C 
BRANCH  80  85
ATOM     85  C   UNL A   1      32.189  25.032  24.113  1.00  0.00     0.049 C 
ATOM     86  C   UNL A   1      33.257  25.344  23.036  1.00  0.00     0.144 C 
ATOM     87  C   UNL A   1      31.332  23.905  23.492  1.00  0.00     0.134 C 
ATOM     88  S   UNL A   1      33.545  23.851  22.100  1.00  0.00     0.153 S 
ATOM     89  C   UNL A   1      32.234  22.888  22.810  1.00  0.00     0.169 C 
ATOM     90  O   UNL A   1      33.229  24.101  20.712  1.00  0.00    -0.229 OA
ATOM     91  O   UNL A   1      34.813  23.275  22.507  1.00  0.00    -0.229 OA
BRANCH  87  92
ATOM     92  O   UNL A   1      30.439  23.333  24.427  1.00  0.00    -0.392 OA
ATOM     93  H   UNL A   1      29.526  23.479  24.132  1.00  0.00     0.211 HD
ENDBRANCH  87  92
ENDBRANCH  80  85
ENDBRANCH  77  80
ENDBRANCH  75  76
ENDBRANCH  74  75
ENDBRANCH  73  74
ENDBRANCH   1  73
TORSDOF 15
ENDMDL
