MODEL 1
REMARK VINA RESULT:     -11.7      0.000      0.000
REMARK SMILES O=C(NCCCCCCNC(=O)c1cccc([C@@H]2CCC[N@@H+](Cc3cccc(OCCO)c3)C2)c1)c1ccc(-c2c3nc(c(-c4c(F)c(F)c(F)c(F)c4F)c4ccc([nH]4)c(-c4c(F)c(F)c(F)c(F)c4F)c4nc(c(-c5c(F)c(F)c(F)c(F)c5F)c5ccc2[nH]5)C=C4)C=C3)cc1
REMARK SMILES IDX 9 1 8 2 7 3 6 4 5 5 4 6 3 7 1 8 2 9 36 11 37 12 98 13 38 14
REMARK SMILES IDX 97 15 39 16 40 17 41 18 91 19 42 20 96 21 90 22 92 23 43 24
REMARK SMILES IDX 95 25 89 26 88 27 44 29 76 30 56 31 75 32 57 33 60 34 74 35
REMARK SMILES IDX 93 36 58 37 59 38 73 40 94 41 61 42 45 43 46 44 54 45 47 46
REMARK SMILES IDX 48 47 52 48 55 49 49 50 50 51 53 52 51 53 77 54 78 55 86 56
REMARK SMILES IDX 79 57 80 58 84 59 87 60 81 61 82 62 85 63 83 64 62 65 63 66
REMARK SMILES IDX 71 67 64 68 65 69 69 70 72 71 66 72 67 73 70 74 68 75 10 76
REMARK SMILES IDX 11 77 12 79 13 80 14 81 35 82 15 83 17 84 16 85 18 86 19 87
REMARK SMILES IDX 34 88 20 89 22 90 21 91 23 93 24 94 25 95 33 96 26 97 28 98
REMARK SMILES IDX 27 99 29 100 30 101 31 102 32 103
REMARK H PARENT 3 10 92 28 60 39 10 78 22 92 32 104
REMARK Flexibility Score: inf
ROOT
ATOM      1  C   UNL A   1      37.602  22.477  25.753  1.00  0.00     0.116 C 
ENDROOT
BRANCH   1   2
ATOM      2  C   UNL A   1      38.526  21.330  25.333  1.00  0.00     0.021 C 
BRANCH   2   3
ATOM      3  C   UNL A   1      39.835  21.197  26.120  1.00  0.00     0.002 C 
BRANCH   3   4
ATOM      4  C   UNL A   1      40.588  19.865  25.989  1.00  0.00     0.002 C 
BRANCH   4   5
ATOM      5  C   UNL A   1      41.195  19.294  27.269  1.00  0.00     0.021 C 
BRANCH   5   6
ATOM      6  C   UNL A   1      42.678  18.959  27.238  1.00  0.00     0.116 C 
BRANCH   6   7
ATOM      7  N   UNL A   1      43.198  18.738  25.901  1.00  0.00    -0.352 N 
ATOM      8  O   UNL A   1      44.044  19.246  23.875  1.00  0.00    -0.269 OA
ATOM      9  C   UNL A   1      43.773  19.618  25.008  1.00  0.00     0.251 C 
ATOM     10  H   UNL A   1      43.128  17.810  25.579  1.00  0.00     0.163 HD
BRANCH   9  11
ATOM     11  C   UNL A   1      44.047  21.025  25.400  1.00  0.00     0.039 A 
ATOM     12  C   UNL A   1      45.094  21.345  26.261  1.00  0.00     0.014 A 
ATOM     13  C   UNL A   1      43.255  22.051  24.868  1.00  0.00     0.014 A 
ATOM     14  C   UNL A   1      45.240  22.647  26.726  1.00  0.00     0.010 A 
ATOM     15  C   UNL A   1      43.482  23.383  25.244  1.00  0.00     0.010 A 
ATOM     16  C   UNL A   1      44.461  23.690  26.199  1.00  0.00    -0.014 A 
BRANCH  16  17
ATOM     17  C   UNL A   1      44.782  25.088  26.598  1.00  0.00     0.031 A 
ATOM     18  C   UNL A   1      46.154  25.674  26.411  1.00  0.00     0.074 A 
ATOM     19  C   UNL A   1      43.784  25.851  27.090  1.00  0.00     0.049 A 
ATOM     20  N   UNL A   1      46.569  26.892  26.662  1.00  0.00    -0.248 NA
ATOM     21  C   UNL A   1      47.199  24.784  25.883  1.00  0.00     0.031 C 
ATOM     22  C   UNL A   1      42.417  25.384  27.340  1.00  0.00     0.029 A 
ATOM     23  N   UNL A   1      43.746  27.176  27.438  1.00  0.00    -0.354 N 
ATOM     24  C   UNL A   1      47.918  26.914  26.331  1.00  0.00     0.074 A 
ATOM     25  C   UNL A   1      48.263  25.578  25.894  1.00  0.00     0.031 C 
ATOM     26  C   UNL A   1      41.663  26.417  27.738  1.00  0.00     0.029 A 
ATOM     27  C   UNL A   1      42.506  27.600  27.849  1.00  0.00     0.049 A 
ATOM     28  H   UNL A   1      44.533  27.768  27.398  1.00  0.00     0.167 HD
ATOM     29  C   UNL A   1      48.780  27.960  26.377  1.00  0.00     0.037 A 
ATOM     30  C   UNL A   1      42.091  28.800  28.291  1.00  0.00     0.037 A 
ATOM     31  C   UNL A   1      48.426  29.291  26.809  1.00  0.00     0.049 A 
ATOM     32  C   UNL A   1      43.082  29.928  28.357  1.00  0.00     0.074 A 
ATOM     33  C   UNL A   1      49.227  30.419  26.875  1.00  0.00     0.029 A 
ATOM     34  N   UNL A   1      47.168  29.672  27.252  1.00  0.00    -0.354 N 
ATOM     35  N   UNL A   1      44.344  29.942  28.007  1.00  0.00    -0.248 NA
ATOM     36  C   UNL A   1      42.588  31.208  28.880  1.00  0.00     0.031 C 
ATOM     37  C   UNL A   1      48.468  31.468  27.403  1.00  0.00     0.029 A 
ATOM     38  C   UNL A   1      47.177  31.013  27.611  1.00  0.00     0.049 A 
ATOM     39  H   UNL A   1      46.382  29.080  27.303  1.00  0.00     0.167 HD
ATOM     40  C   UNL A   1      44.792  31.231  28.254  1.00  0.00     0.074 A 
ATOM     41  C   UNL A   1      43.655  31.980  28.745  1.00  0.00     0.031 C 
ATOM     42  C   UNL A   1      46.037  31.745  28.101  1.00  0.00     0.037 A 
BRANCH  29  43
ATOM     43  C   UNL A   1      50.202  27.719  25.954  1.00  0.00     0.064 A 
ATOM     44  C   UNL A   1      51.220  27.486  26.891  1.00  0.00     0.173 A 
ATOM     45  C   UNL A   1      50.537  27.634  24.593  1.00  0.00     0.173 A 
ATOM     46  F   UNL A   1      50.958  27.563  28.206  1.00  0.00    -0.203 F 
ATOM     47  C   UNL A   1      52.519  27.191  26.483  1.00  0.00     0.198 A 
ATOM     48  C   UNL A   1      51.830  27.311  24.188  1.00  0.00     0.198 A 
ATOM     49  F   UNL A   1      49.602  27.838  23.653  1.00  0.00    -0.203 F 
ATOM     50  F   UNL A   1      53.480  27.003  27.398  1.00  0.00    -0.200 F 
ATOM     51  C   UNL A   1      52.821  27.093  25.133  1.00  0.00     0.200 A 
ATOM     52  F   UNL A   1      52.116  27.201  22.883  1.00  0.00    -0.200 F 
ATOM     53  F   UNL A   1      54.066  26.791  24.744  1.00  0.00    -0.200 F 
ENDBRANCH  29  43
BRANCH  30  54
ATOM     54  C   UNL A   1      40.684  28.989  28.734  1.00  0.00     0.064 A 
ATOM     55  C   UNL A   1      39.659  29.250  27.815  1.00  0.00     0.173 A 
ATOM     56  C   UNL A   1      40.341  28.935  30.095  1.00  0.00     0.173 A 
ATOM     57  F   UNL A   1      39.938  29.329  26.506  1.00  0.00    -0.203 F 
ATOM     58  C   UNL A   1      38.352  29.483  28.241  1.00  0.00     0.198 A 
ATOM     59  C   UNL A   1      39.028  29.127  30.515  1.00  0.00     0.198 A 
ATOM     60  F   UNL A   1      41.281  28.682  31.016  1.00  0.00    -0.203 F 
ATOM     61  F   UNL A   1      37.406  29.794  27.347  1.00  0.00    -0.200 F 
ATOM     62  C   UNL A   1      38.037  29.416  29.590  1.00  0.00     0.200 A 
ATOM     63  F   UNL A   1      38.725  29.040  31.818  1.00  0.00    -0.200 F 
ATOM     64  F   UNL A   1      36.781  29.639  29.999  1.00  0.00    -0.200 F 
ENDBRANCH  30  54
BRANCH  42  65
ATOM     65  C   UNL A   1      46.216  33.196  28.446  1.00  0.00     0.064 A 
ATOM     66  C   UNL A   1      46.027  34.209  27.493  1.00  0.00     0.173 A 
ATOM     67  C   UNL A   1      46.589  33.579  29.744  1.00  0.00     0.173 A 
ATOM     68  F   UNL A   1      45.689  33.895  26.233  1.00  0.00    -0.203 F 
ATOM     69  C   UNL A   1      46.249  35.545  27.814  1.00  0.00     0.198 A 
ATOM     70  C   UNL A   1      46.772  34.919  30.071  1.00  0.00     0.198 A 
ATOM     71  F   UNL A   1      46.776  32.652  30.695  1.00  0.00    -0.203 F 
ATOM     72  F   UNL A   1      46.134  36.487  26.868  1.00  0.00    -0.200 F 
ATOM     73  C   UNL A   1      46.616  35.900  29.103  1.00  0.00     0.200 A 
ATOM     74  F   UNL A   1      47.113  35.261  31.321  1.00  0.00    -0.200 F 
ATOM     75  F   UNL A   1      46.832  37.186  29.409  1.00  0.00    -0.200 F 
ENDBRANCH  42  65
ENDBRANCH  16  17
ENDBRANCH   9  11
ENDBRANCH   6   7
ENDBRANCH   5   6
ENDBRANCH   4   5
ENDBRANCH   3   4
ENDBRANCH   2   3
ENDBRANCH   1   2
BRANCH   1  76
ATOM     76  N   UNL A   1      36.427  22.072  26.499  1.00  0.00    -0.352 N 
ATOM     77  C   UNL A   1      35.100  22.357  26.241  1.00  0.00     0.251 C 
ATOM     78  H   UNL A   1      36.597  21.519  27.296  1.00  0.00     0.163 HD
ATOM     79  O   UNL A   1      34.226  21.916  26.983  1.00  0.00    -0.269 OA
BRANCH  77  80
ATOM     80  C   UNL A   1      34.717  23.241  25.112  1.00  0.00     0.040 A 
ATOM     81  C   UNL A   1      34.413  22.659  23.881  1.00  0.00     0.014 A 
ATOM     82  C   UNL A   1      34.620  24.627  25.266  1.00  0.00     0.018 A 
ATOM     83  C   UNL A   1      33.960  23.459  22.831  1.00  0.00     0.001 A 
ATOM     84  C   UNL A   1      34.085  25.438  24.248  1.00  0.00    -0.039 A 
ATOM     85  C   UNL A   1      33.781  24.832  23.018  1.00  0.00     0.004 A 
BRANCH  84  86
ATOM     86  C   UNL A   1      33.655  26.885  24.498  1.00  0.00     0.074 C 
ATOM     87  C   UNL A   1      33.377  27.281  25.957  1.00  0.00     0.020 C 
ATOM     88  C   UNL A   1      32.437  27.248  23.617  1.00  0.00     0.270 C 
ATOM     89  C   UNL A   1      32.011  26.826  26.467  1.00  0.00     0.062 C 
ATOM     90  N   UNL A   1      31.206  26.643  24.130  1.00  0.00    -0.331 N 
ATOM     91  C   UNL A   1      30.870  27.097  25.476  1.00  0.00     0.262 C 
ATOM     92  H   UNL A   1      31.421  25.651  24.234  1.00  0.00     0.348 HD
BRANCH  90  93
ATOM     93  C   UNL A   1      30.094  26.610  23.190  1.00  0.00     0.299 C 
BRANCH  93  94
ATOM     94  C   UNL A   1      29.189  27.808  23.126  1.00  0.00     0.010 A 
ATOM     95  C   UNL A   1      27.845  27.707  23.502  1.00  0.00     0.010 A 
ATOM     96  C   UNL A   1      29.684  29.034  22.678  1.00  0.00     0.056 A 
ATOM     97  C   UNL A   1      27.015  28.823  23.436  1.00  0.00     0.004 A 
ATOM     98  C   UNL A   1      28.889  30.175  22.707  1.00  0.00     0.119 A 
ATOM     99  C   UNL A   1      27.542  30.056  23.051  1.00  0.00     0.046 A 
BRANCH  98 100
ATOM    100  O   UNL A   1      29.335  31.450  22.489  1.00  0.00    -0.491 OA
BRANCH 100 101
ATOM    101  C   UNL A   1      28.361  32.476  22.253  1.00  0.00     0.257 C 
BRANCH 101 102
ATOM    102  C   UNL A   1      27.995  32.636  20.770  1.00  0.00     0.197 C 
BRANCH 102 103
ATOM    103  O   UNL A   1      27.277  33.828  20.475  1.00  0.00    -0.393 OA
ATOM    104  H   UNL A   1      27.821  34.403  19.914  1.00  0.00     0.210 HD
ENDBRANCH 102 103
ENDBRANCH 101 102
ENDBRANCH 100 101
ENDBRANCH  98 100
ENDBRANCH  93  94
ENDBRANCH  90  93
ENDBRANCH  84  86
ENDBRANCH  77  80
ENDBRANCH   1  76
TORSDOF 20
ENDMDL
MODEL 2
REMARK VINA RESULT:     -11.7      6.306      9.618
REMARK SMILES O=C(NCCCCCCNC(=O)c1cccc([C@@H]2CCC[N@@H+](Cc3cccc(OCCO)c3)C2)c1)c1ccc(-c2c3nc(c(-c4c(F)c(F)c(F)c(F)c4F)c4ccc([nH]4)c(-c4c(F)c(F)c(F)c(F)c4F)c4nc(c(-c5c(F)c(F)c(F)c(F)c5F)c5ccc2[nH]5)C=C4)C=C3)cc1
REMARK SMILES IDX 9 1 8 2 7 3 6 4 5 5 4 6 3 7 1 8 2 9 36 11 37 12 98 13 38 14
REMARK SMILES IDX 97 15 39 16 40 17 41 18 91 19 42 20 96 21 90 22 92 23 43 24
REMARK SMILES IDX 95 25 89 26 88 27 44 29 76 30 56 31 75 32 57 33 60 34 74 35
REMARK SMILES IDX 93 36 58 37 59 38 73 40 94 41 61 42 45 43 46 44 54 45 47 46
REMARK SMILES IDX 48 47 52 48 55 49 49 50 50 51 53 52 51 53 77 54 78 55 86 56
REMARK SMILES IDX 79 57 80 58 84 59 87 60 81 61 82 62 85 63 83 64 62 65 63 66
REMARK SMILES IDX 71 67 64 68 65 69 69 70 72 71 66 72 67 73 70 74 68 75 10 76
REMARK SMILES IDX 11 77 12 79 13 80 14 81 35 82 15 83 17 84 16 85 18 86 19 87
REMARK SMILES IDX 34 88 20 89 22 90 21 91 23 93 24 94 25 95 33 96 26 97 28 98
REMARK SMILES IDX 27 99 29 100 30 101 31 102 32 103
REMARK H PARENT 3 10 92 28 60 39 10 78 22 92 32 104
REMARK Flexibility Score: inf
ROOT
ATOM      1  C   UNL A   1      42.333  24.361  26.840  1.00  0.00     0.116 C 
ENDROOT
BRANCH   1   2
ATOM      2  C   UNL A   1      43.061  24.064  28.154  1.00  0.00     0.021 C 
BRANCH   2   3
ATOM      3  C   UNL A   1      44.387  24.804  28.372  1.00  0.00     0.002 C 
BRANCH   3   4
ATOM      4  C   UNL A   1      45.665  23.953  28.342  1.00  0.00     0.002 C 
BRANCH   4   5
ATOM      5  C   UNL A   1      46.557  24.103  27.111  1.00  0.00     0.021 C 
BRANCH   5   6
ATOM      6  C   UNL A   1      45.863  24.148  25.758  1.00  0.00     0.116 C 
BRANCH   6   7
ATOM      7  N   UNL A   1      46.492  25.049  24.810  1.00  0.00    -0.352 N 
ATOM      8  O   UNL A   1      47.040  27.002  23.828  1.00  0.00    -0.269 OA
ATOM      9  C   UNL A   1      46.550  26.428  24.790  1.00  0.00     0.251 C 
ATOM     10  H   UNL A   1      46.950  24.606  24.059  1.00  0.00     0.163 HD
BRANCH   9  11
ATOM     11  C   UNL A   1      46.001  27.226  25.917  1.00  0.00     0.039 A 
ATOM     12  C   UNL A   1      46.836  27.775  26.888  1.00  0.00     0.014 A 
ATOM     13  C   UNL A   1      44.621  27.457  25.985  1.00  0.00     0.014 A 
ATOM     14  C   UNL A   1      46.289  28.392  28.007  1.00  0.00     0.010 A 
ATOM     15  C   UNL A   1      44.080  28.187  27.054  1.00  0.00     0.010 A 
ATOM     16  C   UNL A   1      44.909  28.639  28.089  1.00  0.00    -0.014 A 
BRANCH  16  17
ATOM     17  C   UNL A   1      44.402  29.463  29.221  1.00  0.00     0.031 A 
ATOM     18  C   UNL A   1      44.134  28.872  30.578  1.00  0.00     0.074 A 
ATOM     19  C   UNL A   1      44.236  30.786  29.017  1.00  0.00     0.049 A 
ATOM     20  N   UNL A   1      43.740  29.475  31.674  1.00  0.00    -0.248 NA
ATOM     21  C   UNL A   1      44.321  27.421  30.729  1.00  0.00     0.031 C 
ATOM     22  C   UNL A   1      44.440  31.469  27.736  1.00  0.00     0.029 A 
ATOM     23  N   UNL A   1      43.892  31.798  29.876  1.00  0.00    -0.354 N 
ATOM     24  C   UNL A   1      43.627  28.482  32.639  1.00  0.00     0.074 A 
ATOM     25  C   UNL A   1      43.959  27.230  31.991  1.00  0.00     0.031 C 
ATOM     26  C   UNL A   1      44.282  32.788  27.908  1.00  0.00     0.029 A 
ATOM     27  C   UNL A   1      43.887  33.039  29.288  1.00  0.00     0.049 A 
ATOM     28  H   UNL A   1      43.670  31.649  30.825  1.00  0.00     0.167 HD
ATOM     29  C   UNL A   1      43.290  28.611  33.946  1.00  0.00     0.037 A 
ATOM     30  C   UNL A   1      43.575  34.246  29.791  1.00  0.00     0.037 A 
ATOM     31  C   UNL A   1      42.968  29.864  34.585  1.00  0.00     0.049 A 
ATOM     32  C   UNL A   1      43.178  34.347  31.236  1.00  0.00     0.074 A 
ATOM     33  C   UNL A   1      42.630  30.097  35.908  1.00  0.00     0.029 A 
ATOM     34  N   UNL A   1      42.938  31.095  33.947  1.00  0.00    -0.354 N 
ATOM     35  N   UNL A   1      43.110  33.404  32.143  1.00  0.00    -0.248 NA
ATOM     36  C   UNL A   1      42.814  35.682  31.726  1.00  0.00     0.031 C 
ATOM     37  C   UNL A   1      42.349  31.458  36.058  1.00  0.00     0.029 A 
ATOM     38  C   UNL A   1      42.568  32.087  34.844  1.00  0.00     0.049 A 
ATOM     39  H   UNL A   1      43.150  31.245  32.997  1.00  0.00     0.167 HD
ATOM     40  C   UNL A   1      42.709  34.032  33.313  1.00  0.00     0.074 A 
ATOM     41  C   UNL A   1      42.589  35.442  33.009  1.00  0.00     0.031 C 
ATOM     42  C   UNL A   1      42.450  33.488  34.527  1.00  0.00     0.037 A 
BRANCH  29  43
ATOM     43  C   UNL A   1      43.246  27.366  34.788  1.00  0.00     0.064 A 
ATOM     44  C   UNL A   1      42.075  26.605  34.916  1.00  0.00     0.173 A 
ATOM     45  C   UNL A   1      44.411  26.881  35.405  1.00  0.00     0.173 A 
ATOM     46  F   UNL A   1      40.931  27.026  34.354  1.00  0.00    -0.203 F 
ATOM     47  C   UNL A   1      42.067  25.414  35.639  1.00  0.00     0.198 A 
ATOM     48  C   UNL A   1      44.407  25.676  36.104  1.00  0.00     0.198 A 
ATOM     49  F   UNL A   1      45.562  27.563  35.309  1.00  0.00    -0.203 F 
ATOM     50  F   UNL A   1      40.928  24.721  35.772  1.00  0.00    -0.200 F 
ATOM     51  C   UNL A   1      43.234  24.945  36.223  1.00  0.00     0.200 A 
ATOM     52  F   UNL A   1      45.539  25.216  36.654  1.00  0.00    -0.200 F 
ATOM     53  F   UNL A   1      43.229  23.791  36.902  1.00  0.00    -0.200 F 
ENDBRANCH  29  43
BRANCH  30  54
ATOM     54  C   UNL A   1      43.597  35.449  28.916  1.00  0.00     0.064 A 
ATOM     55  C   UNL A   1      42.429  35.930  28.308  1.00  0.00     0.173 A 
ATOM     56  C   UNL A   1      44.797  36.130  28.651  1.00  0.00     0.173 A 
ATOM     57  F   UNL A   1      41.261  35.305  28.515  1.00  0.00    -0.203 F 
ATOM     58  C   UNL A   1      42.465  37.023  27.444  1.00  0.00     0.198 A 
ATOM     59  C   UNL A   1      44.824  37.246  27.820  1.00  0.00     0.198 A 
ATOM     60  F   UNL A   1      45.942  35.717  29.212  1.00  0.00    -0.203 F 
ATOM     61  F   UNL A   1      41.346  37.421  26.826  1.00  0.00    -0.200 F 
ATOM     62  C   UNL A   1      43.661  37.683  27.205  1.00  0.00     0.200 A 
ATOM     63  F   UNL A   1      45.979  37.893  27.611  1.00  0.00    -0.200 F 
ATOM     64  F   UNL A   1      43.695  38.734  26.375  1.00  0.00    -0.200 F 
ENDBRANCH  30  54
BRANCH  42  65
ATOM     65  C   UNL A   1      42.038  34.434  35.618  1.00  0.00     0.064 A 
ATOM     66  C   UNL A   1      42.976  35.226  36.299  1.00  0.00     0.173 A 
ATOM     67  C   UNL A   1      40.691  34.545  35.994  1.00  0.00     0.173 A 
ATOM     68  F   UNL A   1      44.279  35.145  35.991  1.00  0.00    -0.203 F 
ATOM     69  C   UNL A   1      42.586  36.059  37.344  1.00  0.00     0.198 A 
ATOM     70  C   UNL A   1      40.300  35.407  37.014  1.00  0.00     0.198 A 
ATOM     71  F   UNL A   1      39.753  33.815  35.372  1.00  0.00    -0.203 F 
ATOM     72  F   UNL A   1      43.508  36.751  38.027  1.00  0.00    -0.200 F 
ATOM     73  C   UNL A   1      41.248  36.153  37.697  1.00  0.00     0.200 A 
ATOM     74  F   UNL A   1      39.005  35.507  37.344  1.00  0.00    -0.200 F 
ATOM     75  F   UNL A   1      40.875  36.953  38.705  1.00  0.00    -0.200 F 
ENDBRANCH  42  65
ENDBRANCH  16  17
ENDBRANCH   9  11
ENDBRANCH   6   7
ENDBRANCH   5   6
ENDBRANCH   4   5
ENDBRANCH   3   4
ENDBRANCH   2   3
ENDBRANCH   1   2
BRANCH   1  76
ATOM     76  N   UNL A   1      40.895  24.193  26.887  1.00  0.00    -0.352 N 
ATOM     77  C   UNL A   1      39.923  25.134  27.164  1.00  0.00     0.251 C 
ATOM     78  H   UNL A   1      40.565  23.284  26.696  1.00  0.00     0.163 HD
ATOM     79  O   UNL A   1      38.738  24.811  27.149  1.00  0.00    -0.269 OA
BRANCH  77  80
ATOM     80  C   UNL A   1      40.293  26.522  27.539  1.00  0.00     0.040 A 
ATOM     81  C   UNL A   1      40.440  27.472  26.528  1.00  0.00     0.014 A 
ATOM     82  C   UNL A   1      40.461  26.901  28.874  1.00  0.00     0.018 A 
ATOM     83  C   UNL A   1      40.695  28.803  26.860  1.00  0.00     0.001 A 
ATOM     84  C   UNL A   1      40.634  28.251  29.233  1.00  0.00    -0.039 A 
ATOM     85  C   UNL A   1      40.773  29.191  28.200  1.00  0.00     0.004 A 
BRANCH  84  86
ATOM     86  C   UNL A   1      40.484  28.738  30.676  1.00  0.00     0.074 C 
ATOM     87  C   UNL A   1      39.731  27.811  31.643  1.00  0.00     0.020 C 
ATOM     88  C   UNL A   1      39.855  30.149  30.709  1.00  0.00     0.270 C 
ATOM     89  C   UNL A   1      38.211  27.880  31.501  1.00  0.00     0.062 C 
ATOM     90  N   UNL A   1      38.420  30.102  30.425  1.00  0.00    -0.331 N 
ATOM     91  C   UNL A   1      37.675  29.314  31.402  1.00  0.00     0.262 C 
ATOM     92  H   UNL A   1      38.339  29.581  29.551  1.00  0.00     0.348 HD
BRANCH  90  93
ATOM     93  C   UNL A   1      37.817  31.379  30.068  1.00  0.00     0.299 C 
BRANCH  93  94
ATOM     94  C   UNL A   1      37.894  32.500  31.066  1.00  0.00     0.010 A 
ATOM     95  C   UNL A   1      38.803  33.549  30.892  1.00  0.00     0.010 A 
ATOM     96  C   UNL A   1      37.060  32.496  32.186  1.00  0.00     0.056 A 
ATOM     97  C   UNL A   1      38.867  34.581  31.824  1.00  0.00     0.004 A 
ATOM     98  C   UNL A   1      37.046  33.572  33.066  1.00  0.00     0.119 A 
ATOM     99  C   UNL A   1      37.981  34.596  32.901  1.00  0.00     0.046 A 
BRANCH  98 100
ATOM    100  O   UNL A   1      36.131  33.760  34.065  1.00  0.00    -0.491 OA
BRANCH 100 101
ATOM    101  C   UNL A   1      35.213  34.855  33.946  1.00  0.00     0.257 C 
BRANCH 101 102
ATOM    102  C   UNL A   1      34.066  34.580  32.961  1.00  0.00     0.197 C 
BRANCH 102 103
ATOM    103  O   UNL A   1      33.259  33.461  33.308  1.00  0.00    -0.393 OA
ATOM    104  H   UNL A   1      32.808  33.636  34.148  1.00  0.00     0.210 HD
ENDBRANCH 102 103
ENDBRANCH 101 102
ENDBRANCH 100 101
ENDBRANCH  98 100
ENDBRANCH  93  94
ENDBRANCH  90  93
ENDBRANCH  84  86
ENDBRANCH  77  80
ENDBRANCH   1  76
TORSDOF 20
ENDMDL
MODEL 3
REMARK VINA RESULT:     -11.6      5.124      9.423
REMARK SMILES O=C(NCCCCCCNC(=O)c1cccc([C@@H]2CCC[N@@H+](Cc3cccc(OCCO)c3)C2)c1)c1ccc(-c2c3nc(c(-c4c(F)c(F)c(F)c(F)c4F)c4ccc([nH]4)c(-c4c(F)c(F)c(F)c(F)c4F)c4nc(c(-c5c(F)c(F)c(F)c(F)c5F)c5ccc2[nH]5)C=C4)C=C3)cc1
REMARK SMILES IDX 9 1 8 2 7 3 6 4 5 5 4 6 3 7 1 8 2 9 36 11 37 12 98 13 38 14
REMARK SMILES IDX 97 15 39 16 40 17 41 18 91 19 42 20 96 21 90 22 92 23 43 24
REMARK SMILES IDX 95 25 89 26 88 27 44 29 76 30 56 31 75 32 57 33 60 34 74 35
REMARK SMILES IDX 93 36 58 37 59 38 73 40 94 41 61 42 45 43 46 44 54 45 47 46
REMARK SMILES IDX 48 47 52 48 55 49 49 50 50 51 53 52 51 53 77 54 78 55 86 56
REMARK SMILES IDX 79 57 80 58 84 59 87 60 81 61 82 62 85 63 83 64 62 65 63 66
REMARK SMILES IDX 71 67 64 68 65 69 69 70 72 71 66 72 67 73 70 74 68 75 10 76
REMARK SMILES IDX 11 77 12 79 13 80 14 81 35 82 15 83 17 84 16 85 18 86 19 87
REMARK SMILES IDX 34 88 20 89 22 90 21 91 23 93 24 94 25 95 33 96 26 97 28 98
REMARK SMILES IDX 27 99 29 100 30 101 31 102 32 103
REMARK H PARENT 3 10 92 28 60 39 10 78 22 92 32 104
REMARK Flexibility Score: inf
ROOT
ATOM      1  C   UNL A   1      38.898  23.657  26.755  1.00  0.00     0.116 C 
ENDROOT
BRANCH   1   2
ATOM      2  C   UNL A   1      40.122  24.365  27.344  1.00  0.00     0.021 C 
BRANCH   2   3
ATOM      3  C   UNL A   1      40.422  25.763  26.791  1.00  0.00     0.002 C 
BRANCH   3   4
ATOM      4  C   UNL A   1      41.549  25.868  25.753  1.00  0.00     0.002 C 
BRANCH   4   5
ATOM      5  C   UNL A   1      42.289  24.575  25.415  1.00  0.00     0.021 C 
BRANCH   5   6
ATOM      6  C   UNL A   1      43.668  24.714  24.788  1.00  0.00     0.116 C 
BRANCH   6   7
ATOM      7  N   UNL A   1      44.694  23.938  25.462  1.00  0.00    -0.352 N 
ATOM      8  O   UNL A   1      46.159  23.362  27.074  1.00  0.00    -0.269 OA
ATOM      9  C   UNL A   1      45.207  24.052  26.738  1.00  0.00     0.251 C 
ATOM     10  H   UNL A   1      45.089  23.216  24.921  1.00  0.00     0.163 HD
BRANCH   9  11
ATOM     11  C   UNL A   1      44.629  25.021  27.704  1.00  0.00     0.039 A 
ATOM     12  C   UNL A   1      43.766  24.607  28.715  1.00  0.00     0.014 A 
ATOM     13  C   UNL A   1      44.986  26.373  27.615  1.00  0.00     0.014 A 
ATOM     14  C   UNL A   1      43.126  25.548  29.514  1.00  0.00     0.010 A 
ATOM     15  C   UNL A   1      44.433  27.308  28.502  1.00  0.00     0.010 A 
ATOM     16  C   UNL A   1      43.476  26.906  29.444  1.00  0.00    -0.014 A 
BRANCH  16  17
ATOM     17  C   UNL A   1      42.893  27.842  30.445  1.00  0.00     0.031 A 
ATOM     18  C   UNL A   1      41.601  28.569  30.197  1.00  0.00     0.074 A 
ATOM     19  C   UNL A   1      43.531  27.986  31.624  1.00  0.00     0.049 A 
ATOM     20  N   UNL A   1      40.943  29.374  30.996  1.00  0.00    -0.248 NA
ATOM     21  C   UNL A   1      40.963  28.379  28.885  1.00  0.00     0.031 C 
ATOM     22  C   UNL A   1      44.807  27.350  31.971  1.00  0.00     0.029 A 
ATOM     23  N   UNL A   1      43.192  28.677  32.759  1.00  0.00    -0.354 N 
ATOM     24  C   UNL A   1      39.824  29.790  30.286  1.00  0.00     0.074 A 
ATOM     25  C   UNL A   1      39.907  29.178  28.977  1.00  0.00     0.031 C 
ATOM     26  C   UNL A   1      45.107  27.628  33.246  1.00  0.00     0.029 A 
ATOM     27  C   UNL A   1      44.092  28.524  33.784  1.00  0.00     0.049 A 
ATOM     28  H   UNL A   1      42.380  29.231  32.831  1.00  0.00     0.167 HD
ATOM     29  C   UNL A   1      38.817  30.599  30.699  1.00  0.00     0.037 A 
ATOM     30  C   UNL A   1      44.118  29.062  35.017  1.00  0.00     0.037 A 
ATOM     31  C   UNL A   1      38.738  31.201  32.008  1.00  0.00     0.049 A 
ATOM     32  C   UNL A   1      43.000  29.976  35.430  1.00  0.00     0.074 A 
ATOM     33  C   UNL A   1      37.749  32.021  32.524  1.00  0.00     0.029 A 
ATOM     34  N   UNL A   1      39.688  31.051  33.008  1.00  0.00    -0.354 N 
ATOM     35  N   UNL A   1      41.931  30.332  34.759  1.00  0.00    -0.248 NA
ATOM     36  C   UNL A   1      43.092  30.565  36.771  1.00  0.00     0.031 C 
ATOM     37  C   UNL A   1      38.123  32.407  33.815  1.00  0.00     0.029 A 
ATOM     38  C   UNL A   1      39.318  31.780  34.129  1.00  0.00     0.049 A 
ATOM     39  H   UNL A   1      40.506  30.506  32.935  1.00  0.00     0.167 HD
ATOM     40  C   UNL A   1      41.219  31.173  35.600  1.00  0.00     0.074 A 
ATOM     41  C   UNL A   1      41.957  31.242  36.844  1.00  0.00     0.031 C 
ATOM     42  C   UNL A   1      40.064  31.841  35.360  1.00  0.00     0.037 A 
BRANCH  29  43
ATOM     43  C   UNL A   1      37.706  30.893  29.729  1.00  0.00     0.064 A 
ATOM     44  C   UNL A   1      36.709  29.949  29.444  1.00  0.00     0.173 A 
ATOM     45  C   UNL A   1      37.590  32.163  29.142  1.00  0.00     0.173 A 
ATOM     46  F   UNL A   1      36.775  28.716  29.971  1.00  0.00    -0.203 F 
ATOM     47  C   UNL A   1      35.645  30.260  28.600  1.00  0.00     0.198 A 
ATOM     48  C   UNL A   1      36.510  32.480  28.321  1.00  0.00     0.198 A 
ATOM     49  F   UNL A   1      38.510  33.108  29.386  1.00  0.00    -0.203 F 
ATOM     50  F   UNL A   1      34.720  29.331  28.320  1.00  0.00    -0.200 F 
ATOM     51  C   UNL A   1      35.540  31.528  28.048  1.00  0.00     0.200 A 
ATOM     52  F   UNL A   1      36.402  33.711  27.801  1.00  0.00    -0.200 F 
ATOM     53  F   UNL A   1      34.507  31.830  27.251  1.00  0.00    -0.200 F 
ENDBRANCH  29  43
BRANCH  30  54
ATOM     54  C   UNL A   1      45.252  28.774  35.935  1.00  0.00     0.064 A 
ATOM     55  C   UNL A   1      46.426  29.539  35.905  1.00  0.00     0.173 A 
ATOM     56  C   UNL A   1      45.191  27.709  36.848  1.00  0.00     0.173 A 
ATOM     57  F   UNL A   1      46.541  30.556  35.039  1.00  0.00    -0.203 F 
ATOM     58  C   UNL A   1      47.508  29.229  36.729  1.00  0.00     0.198 A 
ATOM     59  C   UNL A   1      46.256  27.427  37.699  1.00  0.00     0.198 A 
ATOM     60  F   UNL A   1      44.089  26.950  36.924  1.00  0.00    -0.203 F 
ATOM     61  F   UNL A   1      48.641  29.935  36.633  1.00  0.00    -0.200 F 
ATOM     62  C   UNL A   1      47.420  28.177  37.628  1.00  0.00     0.200 A 
ATOM     63  F   UNL A   1      46.157  26.423  38.581  1.00  0.00    -0.200 F 
ATOM     64  F   UNL A   1      48.459  27.880  38.419  1.00  0.00    -0.200 F 
ENDBRANCH  30  54
BRANCH  42  65
ATOM     65  C   UNL A   1      39.521  32.679  36.483  1.00  0.00     0.064 A 
ATOM     66  C   UNL A   1      40.011  33.968  36.743  1.00  0.00     0.173 A 
ATOM     67  C   UNL A   1      38.504  32.185  37.314  1.00  0.00     0.173 A 
ATOM     68  F   UNL A   1      40.996  34.480  35.990  1.00  0.00    -0.203 F 
ATOM     69  C   UNL A   1      39.536  34.712  37.819  1.00  0.00     0.198 A 
ATOM     70  C   UNL A   1      38.005  32.946  38.366  1.00  0.00     0.198 A 
ATOM     71  F   UNL A   1      37.996  30.960  37.105  1.00  0.00    -0.203 F 
ATOM     72  F   UNL A   1      40.070  35.910  38.092  1.00  0.00    -0.200 F 
ATOM     73  C   UNL A   1      38.529  34.202  38.627  1.00  0.00     0.200 A 
ATOM     74  F   UNL A   1      37.023  32.458  39.136  1.00  0.00    -0.200 F 
ATOM     75  F   UNL A   1      38.075  34.919  39.664  1.00  0.00    -0.200 F 
ENDBRANCH  42  65
ENDBRANCH  16  17
ENDBRANCH   9  11
ENDBRANCH   6   7
ENDBRANCH   5   6
ENDBRANCH   4   5
ENDBRANCH   3   4
ENDBRANCH   2   3
ENDBRANCH   1   2
BRANCH   1  76
ATOM     76  N   UNL A   1      39.115  22.273  26.382  1.00  0.00    -0.352 N 
ATOM     77  C   UNL A   1      38.330  21.459  25.591  1.00  0.00     0.251 C 
ATOM     78  H   UNL A   1      39.932  21.857  26.742  1.00  0.00     0.163 HD
ATOM     79  O   UNL A   1      38.679  20.302  25.370  1.00  0.00    -0.269 OA
BRANCH  77  80
ATOM     80  C   UNL A   1      37.036  21.943  25.048  1.00  0.00     0.040 A 
ATOM     81  C   UNL A   1      37.025  22.571  23.802  1.00  0.00     0.014 A 
ATOM     82  C   UNL A   1      35.835  21.754  25.738  1.00  0.00     0.018 A 
ATOM     83  C   UNL A   1      35.811  22.951  23.229  1.00  0.00     0.001 A 
ATOM     84  C   UNL A   1      34.595  22.052  25.141  1.00  0.00    -0.039 A 
ATOM     85  C   UNL A   1      34.607  22.678  23.884  1.00  0.00     0.004 A 
BRANCH  84  86
ATOM     86  C   UNL A   1      33.269  21.553  25.718  1.00  0.00     0.074 C 
ATOM     87  C   UNL A   1      32.211  21.081  24.709  1.00  0.00     0.020 C 
ATOM     88  C   UNL A   1      32.655  22.613  26.660  1.00  0.00     0.270 C 
ATOM     89  C   UNL A   1      31.448  22.223  24.039  1.00  0.00     0.062 C 
ATOM     90  N   UNL A   1      32.074  23.727  25.907  1.00  0.00    -0.331 N 
ATOM     91  C   UNL A   1      30.989  23.307  25.024  1.00  0.00     0.262 C 
ATOM     92  H   UNL A   1      32.815  24.040  25.281  1.00  0.00     0.348 HD
BRANCH  90  93
ATOM     93  C   UNL A   1      31.811  24.930  26.685  1.00  0.00     0.299 C 
BRANCH  93  94
ATOM     94  C   UNL A   1      31.877  26.255  25.979  1.00  0.00     0.010 A 
ATOM     95  C   UNL A   1      31.717  27.450  26.689  1.00  0.00     0.010 A 
ATOM     96  C   UNL A   1      32.089  26.302  24.600  1.00  0.00     0.056 A 
ATOM     97  C   UNL A   1      31.778  28.672  26.024  1.00  0.00     0.004 A 
ATOM     98  C   UNL A   1      32.253  27.518  23.947  1.00  0.00     0.119 A 
ATOM     99  C   UNL A   1      32.058  28.703  24.658  1.00  0.00     0.046 A 
BRANCH  98 100
ATOM    100  O   UNL A   1      32.667  27.666  22.651  1.00  0.00    -0.491 OA
BRANCH 100 101
ATOM    101  C   UNL A   1      33.278  26.543  22.003  1.00  0.00     0.257 C 
BRANCH 101 102
ATOM    102  C   UNL A   1      32.420  25.952  20.874  1.00  0.00     0.197 C 
BRANCH 102 103
ATOM    103  O   UNL A   1      32.905  24.717  20.363  1.00  0.00    -0.393 OA
ATOM    104  H   UNL A   1      33.512  24.887  19.626  1.00  0.00     0.210 HD
ENDBRANCH 102 103
ENDBRANCH 101 102
ENDBRANCH 100 101
ENDBRANCH  98 100
ENDBRANCH  93  94
ENDBRANCH  90  93
ENDBRANCH  84  86
ENDBRANCH  77  80
ENDBRANCH   1  76
TORSDOF 20
ENDMDL
