MODEL 1
REMARK VINA RESULT:     -11.3      0.000      0.000
REMARK SMILES Cc1cc(C[N@@H+]2CC[C@@H](C(=O)NCCCCCCNC(=O)c3ccc(-c4c5nc(c(-c6c(F)c(F)c(F)c(F)c6F)c6ccc([nH]6)c(-c6c(F)c(F)c(F)c(F)c6F)c6nc(c(-c7c(F)c(F)c(F)c(F)c7F)c7ccc4[nH]7)C=C6)C=C5)cc3)C2)ccc1Br
REMARK SMILES IDX 15 1 14 2 13 3 12 4 10 5 11 6 9 8 6 9 7 10 85 11 8 13 5 14
REMARK SMILES IDX 4 15 1 16 2 17 3 18 88 19 87 20 89 21 86 22 16 23 17 24
REMARK SMILES IDX 18 25 19 26 20 27 21 29 22 30 23 31 84 32 24 33 83 34 25 35
REMARK SMILES IDX 26 36 27 37 77 38 28 39 82 40 76 41 78 42 29 43 81 44 75 45
REMARK SMILES IDX 74 46 30 48 62 49 42 50 61 51 43 52 46 53 60 54 79 55 44 56
REMARK SMILES IDX 45 57 59 59 80 60 47 61 31 62 32 63 40 64 33 65 34 66 38 67
REMARK SMILES IDX 41 68 35 69 36 70 39 71 37 72 63 73 64 74 72 75 65 76 66 77
REMARK SMILES IDX 70 78 73 79 67 80 68 81 71 82 69 83 48 84 49 85 57 86 50 87
REMARK SMILES IDX 51 88 55 89 58 90 52 91 53 92 56 93 54 94
REMARK H PARENT 12 7 6 12 19 28 78 47 46 58
REMARK Flexibility Score: inf
ROOT
ATOM      1  C   UNL A   1      34.731  32.760  28.001  1.00  0.00     0.002 C 
ENDROOT
BRANCH   1   2
ATOM      2  C   UNL A   1      35.213  31.379  28.441  1.00  0.00     0.021 C 
BRANCH   2   3
ATOM      3  C   UNL A   1      34.843  30.218  27.532  1.00  0.00     0.116 C 
BRANCH   3   4
ATOM      4  N   UNL A   1      33.580  29.586  27.824  1.00  0.00    -0.356 N 
ATOM      5  C   UNL A   1      33.007  28.513  27.203  1.00  0.00     0.229 C 
ATOM      6  O   UNL A   1      31.912  28.133  27.627  1.00  0.00    -0.275 OA
ATOM      7  H   UNL A   1      33.064  29.980  28.564  1.00  0.00     0.163 HD
BRANCH   5   8
ATOM      8  C   UNL A   1      33.652  27.808  26.007  1.00  0.00     0.139 C 
ATOM      9  N   UNL A   1      32.910  26.178  24.388  1.00  0.00    -0.330 N 
ATOM     10  C   UNL A   1      32.716  27.494  23.789  1.00  0.00     0.263 C 
ATOM     11  C   UNL A   1      33.182  26.369  25.820  1.00  0.00     0.276 C 
ATOM     12  H   UNL A   1      32.050  25.641  24.286  1.00  0.00     0.348 HD
ATOM     13  C   UNL A   1      33.481  28.487  24.653  1.00  0.00     0.081 C 
BRANCH   9  14
ATOM     14  C   UNL A   1      33.844  25.290  23.681  1.00  0.00     0.299 C 
BRANCH  14  15
ATOM     15  C   UNL A   1      33.777  23.811  24.001  1.00  0.00     0.007 A 
ATOM     16  C   UNL A   1      36.055  21.082  25.375  1.00  0.00     0.045 C 
ATOM     17  C   UNL A   1      34.854  21.750  24.771  1.00  0.00    -0.036 A 
ATOM     18  C   UNL A   1      34.896  23.131  24.503  1.00  0.00     0.014 A 
ATOM     19  C   UNL A   1      33.687  21.038  24.454  1.00  0.00     0.020 A 
ATOM     20  C   UNL A   1      32.555  21.709  23.996  1.00  0.00     0.016 A 
ATOM     21  Br  UNL A   1      33.573  19.151  24.620  1.00  0.00    -0.051 Br
ATOM     22  C   UNL A   1      32.589  23.091  23.818  1.00  0.00     0.011 A 
ENDBRANCH  14  15
ENDBRANCH   9  14
ENDBRANCH   5   8
ENDBRANCH   3   4
ENDBRANCH   2   3
ENDBRANCH   1   2
BRANCH   1  23
ATOM     23  C   UNL A   1      34.405  33.759  29.115  1.00  0.00     0.002 C 
BRANCH  23  24
ATOM     24  C   UNL A   1      33.224  34.704  28.875  1.00  0.00     0.021 C 
BRANCH  24  25
ATOM     25  C   UNL A   1      33.321  36.085  29.519  1.00  0.00     0.116 C 
BRANCH  25  26
ATOM     26  N   UNL A   1      32.441  36.241  30.664  1.00  0.00    -0.352 N 
ATOM     27  C   UNL A   1      32.564  35.759  31.939  1.00  0.00     0.251 C 
ATOM     28  H   UNL A   1      31.632  36.777  30.497  1.00  0.00     0.163 HD
ATOM     29  O   UNL A   1      31.632  35.895  32.737  1.00  0.00    -0.269 OA
BRANCH  27  30
ATOM     30  C   UNL A   1      33.790  35.054  32.369  1.00  0.00     0.039 A 
ATOM     31  C   UNL A   1      33.674  33.754  32.868  1.00  0.00     0.014 A 
ATOM     32  C   UNL A   1      35.042  35.674  32.318  1.00  0.00     0.014 A 
ATOM     33  C   UNL A   1      34.816  33.054  33.263  1.00  0.00     0.010 A 
ATOM     34  C   UNL A   1      36.188  34.954  32.649  1.00  0.00     0.010 A 
ATOM     35  C   UNL A   1      36.086  33.639  33.129  1.00  0.00    -0.014 A 
BRANCH  35  36
ATOM     36  C   UNL A   1      37.316  32.890  33.493  1.00  0.00     0.031 A 
ATOM     37  C   UNL A   1      38.020  33.174  34.789  1.00  0.00     0.074 A 
ATOM     38  C   UNL A   1      37.828  31.993  32.628  1.00  0.00     0.049 A 
ATOM     39  N   UNL A   1      39.135  32.672  35.255  1.00  0.00    -0.248 NA
ATOM     40  C   UNL A   1      37.400  34.177  35.670  1.00  0.00     0.031 C 
ATOM     41  C   UNL A   1      37.257  31.656  31.325  1.00  0.00     0.029 A 
ATOM     42  N   UNL A   1      38.949  31.206  32.715  1.00  0.00    -0.354 N 
ATOM     43  C   UNL A   1      39.354  33.303  36.472  1.00  0.00     0.074 A 
ATOM     44  C   UNL A   1      38.287  34.264  36.649  1.00  0.00     0.031 C 
ATOM     45  C   UNL A   1      38.017  30.714  30.743  1.00  0.00     0.029 A 
ATOM     46  C   UNL A   1      39.146  30.407  31.616  1.00  0.00     0.049 A 
ATOM     47  H   UNL A   1      39.554  31.213  33.491  1.00  0.00     0.167 HD
ATOM     48  C   UNL A   1      40.343  33.083  37.373  1.00  0.00     0.037 A 
ATOM     49  C   UNL A   1      40.131  29.530  31.342  1.00  0.00     0.037 A 
ATOM     50  C   UNL A   1      41.393  32.113  37.202  1.00  0.00     0.049 A 
ATOM     51  C   UNL A   1      41.227  29.319  32.349  1.00  0.00     0.074 A 
ATOM     52  C   UNL A   1      42.413  31.781  38.076  1.00  0.00     0.029 A 
ATOM     53  N   UNL A   1      41.557  31.318  36.077  1.00  0.00    -0.354 N 
ATOM     54  N   UNL A   1      41.393  29.878  33.523  1.00  0.00    -0.248 NA
ATOM     55  C   UNL A   1      42.273  28.350  31.994  1.00  0.00     0.031 C 
ATOM     56  C   UNL A   1      43.220  30.817  37.461  1.00  0.00     0.029 A 
ATOM     57  C   UNL A   1      42.674  30.511  36.225  1.00  0.00     0.049 A 
ATOM     58  H   UNL A   1      40.967  31.327  35.288  1.00  0.00     0.167 HD
ATOM     59  C   UNL A   1      42.539  29.309  34.059  1.00  0.00     0.074 A 
ATOM     60  C   UNL A   1      43.023  28.350  33.087  1.00  0.00     0.031 C 
ATOM     61  C   UNL A   1      43.138  29.557  35.250  1.00  0.00     0.037 A 
BRANCH  48  62
ATOM     62  C   UNL A   1      40.331  33.910  38.627  1.00  0.00     0.064 A 
ATOM     63  C   UNL A   1      41.038  35.119  38.717  1.00  0.00     0.173 A 
ATOM     64  C   UNL A   1      39.589  33.501  39.745  1.00  0.00     0.173 A 
ATOM     65  F   UNL A   1      41.773  35.550  37.680  1.00  0.00    -0.203 F 
ATOM     66  C   UNL A   1      41.031  35.870  39.890  1.00  0.00     0.198 A 
ATOM     67  C   UNL A   1      39.558  34.270  40.906  1.00  0.00     0.198 A 
ATOM     68  F   UNL A   1      38.888  32.358  39.712  1.00  0.00    -0.203 F 
ATOM     69  F   UNL A   1      41.759  36.991  39.970  1.00  0.00    -0.200 F 
ATOM     70  C   UNL A   1      40.286  35.448  40.981  1.00  0.00     0.200 A 
ATOM     71  F   UNL A   1      38.828  33.868  41.956  1.00  0.00    -0.200 F 
ATOM     72  F   UNL A   1      40.278  36.172  42.109  1.00  0.00    -0.200 F 
ENDBRANCH  48  62
BRANCH  49  73
ATOM     73  C   UNL A   1      40.105  28.761  30.071  1.00  0.00     0.064 A 
ATOM     74  C   UNL A   1      39.478  27.509  30.004  1.00  0.00     0.173 A 
ATOM     75  C   UNL A   1      40.700  29.256  28.901  1.00  0.00     0.173 A 
ATOM     76  F   UNL A   1      38.913  26.985  31.102  1.00  0.00    -0.203 F 
ATOM     77  C   UNL A   1      39.462  26.773  28.821  1.00  0.00     0.198 A 
ATOM     78  C   UNL A   1      40.660  28.531  27.712  1.00  0.00     0.198 A 
ATOM     79  F   UNL A   1      41.309  30.451  28.911  1.00  0.00    -0.203 F 
ATOM     80  F   UNL A   1      38.893  25.560  28.797  1.00  0.00    -0.200 F 
ATOM     81  C   UNL A   1      40.048  27.287  27.675  1.00  0.00     0.200 A 
ATOM     82  F   UNL A   1      41.216  29.038  26.603  1.00  0.00    -0.200 F 
ATOM     83  F   UNL A   1      40.029  26.581  26.536  1.00  0.00    -0.200 F 
ENDBRANCH  49  73
BRANCH  61  84
ATOM     84  C   UNL A   1      44.359  28.753  35.585  1.00  0.00     0.064 A 
ATOM     85  C   UNL A   1      45.647  29.197  35.252  1.00  0.00     0.173 A 
ATOM     86  C   UNL A   1      44.241  27.540  36.281  1.00  0.00     0.173 A 
ATOM     87  F   UNL A   1      45.812  30.342  34.573  1.00  0.00    -0.203 F 
ATOM     88  C   UNL A   1      46.771  28.444  35.581  1.00  0.00     0.198 A 
ATOM     89  C   UNL A   1      45.369  26.803  36.634  1.00  0.00     0.198 A 
ATOM     90  F   UNL A   1      43.032  27.074  36.627  1.00  0.00    -0.203 F 
ATOM     91  F   UNL A   1      47.989  28.862  35.211  1.00  0.00    -0.200 F 
ATOM     92  C   UNL A   1      46.631  27.251  36.278  1.00  0.00     0.200 A 
ATOM     93  F   UNL A   1      45.232  25.659  37.317  1.00  0.00    -0.200 F 
ATOM     94  F   UNL A   1      47.715  26.531  36.599  1.00  0.00    -0.200 F 
ENDBRANCH  61  84
ENDBRANCH  35  36
ENDBRANCH  27  30
ENDBRANCH  25  26
ENDBRANCH  24  25
ENDBRANCH  23  24
ENDBRANCH   1  23
TORSDOF 15
ENDMDL
MODEL 2
REMARK VINA RESULT:     -11.2      1.639      7.525
REMARK SMILES Cc1cc(C[N@@H+]2CC[C@@H](C(=O)NCCCCCCNC(=O)c3ccc(-c4c5nc(c(-c6c(F)c(F)c(F)c(F)c6F)c6ccc([nH]6)c(-c6c(F)c(F)c(F)c(F)c6F)c6nc(c(-c7c(F)c(F)c(F)c(F)c7F)c7ccc4[nH]7)C=C6)C=C5)cc3)C2)ccc1Br
REMARK SMILES IDX 15 1 14 2 13 3 12 4 10 5 11 6 9 8 6 9 7 10 85 11 8 13 5 14
REMARK SMILES IDX 4 15 1 16 2 17 3 18 88 19 87 20 89 21 86 22 16 23 17 24
REMARK SMILES IDX 18 25 19 26 20 27 21 29 22 30 23 31 84 32 24 33 83 34 25 35
REMARK SMILES IDX 26 36 27 37 77 38 28 39 82 40 76 41 78 42 29 43 81 44 75 45
REMARK SMILES IDX 74 46 30 48 62 49 42 50 61 51 43 52 46 53 60 54 79 55 44 56
REMARK SMILES IDX 45 57 59 59 80 60 47 61 31 62 32 63 40 64 33 65 34 66 38 67
REMARK SMILES IDX 41 68 35 69 36 70 39 71 37 72 63 73 64 74 72 75 65 76 66 77
REMARK SMILES IDX 70 78 73 79 67 80 68 81 71 82 69 83 48 84 49 85 57 86 50 87
REMARK SMILES IDX 51 88 55 89 58 90 52 91 53 92 56 93 54 94
REMARK H PARENT 12 7 6 12 19 28 78 47 46 58
REMARK Flexibility Score: inf
ROOT
ATOM      1  C   UNL A   1      32.385  30.059  27.099  1.00  0.00     0.002 C 
ENDROOT
BRANCH   1   2
ATOM      2  C   UNL A   1      32.990  28.835  26.414  1.00  0.00     0.021 C 
BRANCH   2   3
ATOM      3  C   UNL A   1      32.303  27.507  26.683  1.00  0.00     0.116 C 
BRANCH   3   4
ATOM      4  N   UNL A   1      31.062  27.302  25.977  1.00  0.00    -0.356 N 
ATOM      5  C   UNL A   1      30.833  26.529  24.874  1.00  0.00     0.229 C 
ATOM      6  O   UNL A   1      29.680  26.495  24.436  1.00  0.00    -0.275 OA
ATOM      7  H   UNL A   1      30.281  27.784  26.333  1.00  0.00     0.163 HD
BRANCH   5   8
ATOM      8  C   UNL A   1      31.944  25.749  24.166  1.00  0.00     0.139 C 
ATOM      9  N   UNL A   1      32.192  24.734  21.990  1.00  0.00    -0.330 N 
ATOM     10  C   UNL A   1      32.774  26.070  21.908  1.00  0.00     0.263 C 
ATOM     11  C   UNL A   1      31.426  24.651  23.243  1.00  0.00     0.276 C 
ATOM     12  H   UNL A   1      31.554  24.606  21.206  1.00  0.00     0.348 HD
ATOM     13  C   UNL A   1      32.922  26.573  23.337  1.00  0.00     0.081 C 
BRANCH   9  14
ATOM     14  C   UNL A   1      33.119  23.621  21.741  1.00  0.00     0.299 C 
BRANCH  14  15
ATOM     15  C   UNL A   1      33.030  22.421  22.662  1.00  0.00     0.007 A 
ATOM     16  C   UNL A   1      34.572  21.211  25.931  1.00  0.00     0.045 C 
ATOM     17  C   UNL A   1      33.765  21.217  24.664  1.00  0.00    -0.036 A 
ATOM     18  C   UNL A   1      33.816  22.343  23.821  1.00  0.00     0.014 A 
ATOM     19  C   UNL A   1      32.965  20.128  24.286  1.00  0.00     0.020 A 
ATOM     20  C   UNL A   1      32.147  20.212  23.162  1.00  0.00     0.016 A 
ATOM     21  Br  UNL A   1      32.945  18.498  25.259  1.00  0.00    -0.051 Br
ATOM     22  C   UNL A   1      32.147  21.369  22.386  1.00  0.00     0.011 A 
ENDBRANCH  14  15
ENDBRANCH   9  14
ENDBRANCH   5   8
ENDBRANCH   3   4
ENDBRANCH   2   3
ENDBRANCH   1   2
BRANCH   1  23
ATOM     23  C   UNL A   1      31.403  30.893  26.270  1.00  0.00     0.002 C 
BRANCH  23  24
ATOM     24  C   UNL A   1      31.354  32.396  26.558  1.00  0.00     0.021 C 
BRANCH  24  25
ATOM     25  C   UNL A   1      32.592  32.999  27.216  1.00  0.00     0.116 C 
BRANCH  25  26
ATOM     26  N   UNL A   1      32.376  34.351  27.702  1.00  0.00    -0.352 N 
ATOM     27  C   UNL A   1      33.005  35.036  28.706  1.00  0.00     0.251 C 
ATOM     28  H   UNL A   1      31.667  34.852  27.236  1.00  0.00     0.163 HD
ATOM     29  O   UNL A   1      32.580  36.141  29.053  1.00  0.00    -0.269 OA
BRANCH  27  30
ATOM     30  C   UNL A   1      34.176  34.459  29.400  1.00  0.00     0.039 A 
ATOM     31  C   UNL A   1      33.982  33.838  30.636  1.00  0.00     0.014 A 
ATOM     32  C   UNL A   1      35.462  34.555  28.860  1.00  0.00     0.014 A 
ATOM     33  C   UNL A   1      35.065  33.266  31.307  1.00  0.00     0.010 A 
ATOM     34  C   UNL A   1      36.531  33.927  29.495  1.00  0.00     0.010 A 
ATOM     35  C   UNL A   1      36.344  33.280  30.727  1.00  0.00    -0.014 A 
BRANCH  35  36
ATOM     36  C   UNL A   1      37.497  32.628  31.399  1.00  0.00     0.031 A 
ATOM     37  C   UNL A   1      38.221  31.494  30.730  1.00  0.00     0.074 A 
ATOM     38  C   UNL A   1      37.858  33.025  32.636  1.00  0.00     0.049 A 
ATOM     39  N   UNL A   1      39.207  30.760  31.179  1.00  0.00    -0.248 NA
ATOM     40  C   UNL A   1      37.756  31.118  29.386  1.00  0.00     0.031 C 
ATOM     41  C   UNL A   1      37.211  34.089  33.403  1.00  0.00     0.029 A 
ATOM     42  N   UNL A   1      38.851  32.571  33.466  1.00  0.00    -0.354 N 
ATOM     43  C   UNL A   1      39.472  29.832  30.181  1.00  0.00     0.074 A 
ATOM     44  C   UNL A   1      38.508  30.060  29.126  1.00  0.00     0.031 C 
ATOM     45  C   UNL A   1      37.840  34.224  34.581  1.00  0.00     0.029 A 
ATOM     46  C   UNL A   1      38.908  33.234  34.667  1.00  0.00     0.049 A 
ATOM     47  H   UNL A   1      39.465  31.841  33.224  1.00  0.00     0.167 HD
ATOM     48  C   UNL A   1      40.446  28.892  30.137  1.00  0.00     0.037 A 
ATOM     49  C   UNL A   1      39.727  33.056  35.722  1.00  0.00     0.037 A 
ATOM     50  C   UNL A   1      41.416  28.680  31.182  1.00  0.00     0.049 A 
ATOM     51  C   UNL A   1      40.788  31.993  35.656  1.00  0.00     0.074 A 
ATOM     52  C   UNL A   1      42.471  27.787  31.213  1.00  0.00     0.029 A 
ATOM     53  N   UNL A   1      41.444  29.375  32.382  1.00  0.00    -0.354 N 
ATOM     54  N   UNL A   1      41.067  31.160  34.684  1.00  0.00    -0.248 NA
ATOM     55  C   UNL A   1      41.651  31.847  36.837  1.00  0.00     0.031 C 
ATOM     56  C   UNL A   1      43.112  27.910  32.451  1.00  0.00     0.029 A 
ATOM     57  C   UNL A   1      42.487  28.915  33.172  1.00  0.00     0.049 A 
ATOM     58  H   UNL A   1      40.816  30.089  32.637  1.00  0.00     0.167 HD
ATOM     59  C   UNL A   1      42.154  30.415  35.119  1.00  0.00     0.074 A 
ATOM     60  C   UNL A   1      42.492  30.903  36.440  1.00  0.00     0.031 C 
ATOM     61  C   UNL A   1      42.814  29.416  34.482  1.00  0.00     0.037 A 
BRANCH  48  62
ATOM     62  C   UNL A   1      40.512  28.020  28.916  1.00  0.00     0.064 A 
ATOM     63  C   UNL A   1      41.311  28.360  27.813  1.00  0.00     0.173 A 
ATOM     64  C   UNL A   1      39.785  26.822  28.854  1.00  0.00     0.173 A 
ATOM     65  F   UNL A   1      42.017  29.500  27.817  1.00  0.00    -0.203 F 
ATOM     66  C   UNL A   1      41.352  27.550  26.680  1.00  0.00     0.198 A 
ATOM     67  C   UNL A   1      39.853  25.999  27.733  1.00  0.00     0.198 A 
ATOM     68  F   UNL A   1      39.011  26.445  29.883  1.00  0.00    -0.203 F 
ATOM     69  F   UNL A   1      42.078  27.924  25.618  1.00  0.00    -0.200 F 
ATOM     70  C   UNL A   1      40.629  26.368  26.643  1.00  0.00     0.200 A 
ATOM     71  F   UNL A   1      39.164  24.850  27.702  1.00  0.00    -0.200 F 
ATOM     72  F   UNL A   1      40.671  25.588  25.554  1.00  0.00    -0.200 F 
ENDBRANCH  48  62
BRANCH  49  73
ATOM     73  C   UNL A   1      39.597  33.931  36.916  1.00  0.00     0.064 A 
ATOM     74  C   UNL A   1      38.824  33.533  38.015  1.00  0.00     0.173 A 
ATOM     75  C   UNL A   1      40.241  35.175  36.988  1.00  0.00     0.173 A 
ATOM     76  F   UNL A   1      38.172  32.361  37.984  1.00  0.00    -0.203 F 
ATOM     77  C   UNL A   1      38.684  34.352  39.133  1.00  0.00     0.198 A 
ATOM     78  C   UNL A   1      40.123  35.982  38.117  1.00  0.00     0.198 A 
ATOM     79  F   UNL A   1      40.998  35.600  35.965  1.00  0.00    -0.203 F 
ATOM     80  F   UNL A   1      37.904  33.966  40.152  1.00  0.00    -0.200 F 
ATOM     81  C   UNL A   1      39.339  35.573  39.186  1.00  0.00     0.200 A 
ATOM     82  F   UNL A   1      40.768  37.155  38.170  1.00  0.00    -0.200 F 
ATOM     83  F   UNL A   1      39.208  36.360  40.262  1.00  0.00    -0.200 F 
ENDBRANCH  49  73
BRANCH  61  84
ATOM     84  C   UNL A   1      43.991  28.811  35.189  1.00  0.00     0.064 A 
ATOM     85  C   UNL A   1      45.288  29.320  35.027  1.00  0.00     0.173 A 
ATOM     86  C   UNL A   1      43.812  27.733  36.069  1.00  0.00     0.173 A 
ATOM     87  F   UNL A   1      45.513  30.339  34.185  1.00  0.00    -0.203 F 
ATOM     88  C   UNL A   1      46.367  28.753  35.700  1.00  0.00     0.198 A 
ATOM     89  C   UNL A   1      44.889  27.188  36.763  1.00  0.00     0.198 A 
ATOM     90  F   UNL A   1      42.591  27.215  36.263  1.00  0.00    -0.203 F 
ATOM     91  F   UNL A   1      47.606  29.223  35.493  1.00  0.00    -0.200 F 
ATOM     92  C   UNL A   1      46.166  27.693  36.573  1.00  0.00     0.200 A 
ATOM     93  F   UNL A   1      44.690  26.173  37.615  1.00  0.00    -0.200 F 
ATOM     94  F   UNL A   1      47.205  27.154  37.225  1.00  0.00    -0.200 F 
ENDBRANCH  61  84
ENDBRANCH  35  36
ENDBRANCH  27  30
ENDBRANCH  25  26
ENDBRANCH  24  25
ENDBRANCH  23  24
ENDBRANCH   1  23
TORSDOF 15
ENDMDL
MODEL 3
REMARK VINA RESULT:     -11.2      4.704      8.401
REMARK SMILES Cc1cc(C[N@@H+]2CC[C@@H](C(=O)NCCCCCCNC(=O)c3ccc(-c4c5nc(c(-c6c(F)c(F)c(F)c(F)c6F)c6ccc([nH]6)c(-c6c(F)c(F)c(F)c(F)c6F)c6nc(c(-c7c(F)c(F)c(F)c(F)c7F)c7ccc4[nH]7)C=C6)C=C5)cc3)C2)ccc1Br
REMARK SMILES IDX 15 1 14 2 13 3 12 4 10 5 11 6 9 8 6 9 7 10 85 11 8 13 5 14
REMARK SMILES IDX 4 15 1 16 2 17 3 18 88 19 87 20 89 21 86 22 16 23 17 24
REMARK SMILES IDX 18 25 19 26 20 27 21 29 22 30 23 31 84 32 24 33 83 34 25 35
REMARK SMILES IDX 26 36 27 37 77 38 28 39 82 40 76 41 78 42 29 43 81 44 75 45
REMARK SMILES IDX 74 46 30 48 62 49 42 50 61 51 43 52 46 53 60 54 79 55 44 56
REMARK SMILES IDX 45 57 59 59 80 60 47 61 31 62 32 63 40 64 33 65 34 66 38 67
REMARK SMILES IDX 41 68 35 69 36 70 39 71 37 72 63 73 64 74 72 75 65 76 66 77
REMARK SMILES IDX 70 78 73 79 67 80 68 81 71 82 69 83 48 84 49 85 57 86 50 87
REMARK SMILES IDX 51 88 55 89 58 90 52 91 53 92 56 93 54 94
REMARK H PARENT 12 7 6 12 19 28 78 47 46 58
REMARK Flexibility Score: inf
ROOT
ATOM      1  C   UNL A   1      37.443  33.171  30.707  1.00  0.00     0.002 C 
ENDROOT
BRANCH   1   2
ATOM      2  C   UNL A   1      36.892  34.115  31.773  1.00  0.00     0.021 C 
BRANCH   2   3
ATOM      3  C   UNL A   1      37.784  34.360  32.978  1.00  0.00     0.116 C 
BRANCH   3   4
ATOM      4  N   UNL A   1      37.419  33.637  34.172  1.00  0.00    -0.356 N 
ATOM      5  C   UNL A   1      37.841  32.402  34.575  1.00  0.00     0.229 C 
ATOM      6  O   UNL A   1      37.399  31.975  35.646  1.00  0.00    -0.275 OA
ATOM      7  H   UNL A   1      36.783  34.090  34.771  1.00  0.00     0.163 HD
BRANCH   5   8
ATOM      8  C   UNL A   1      38.794  31.541  33.743  1.00  0.00     0.139 C 
ATOM      9  N   UNL A   1      39.898  29.419  34.069  1.00  0.00    -0.330 N 
ATOM     10  C   UNL A   1      38.664  29.151  33.337  1.00  0.00     0.263 C 
ATOM     11  C   UNL A   1      39.832  30.797  34.578  1.00  0.00     0.276 C 
ATOM     12  H   UNL A   1      39.955  28.779  34.860  1.00  0.00     0.348 HD
ATOM     13  C   UNL A   1      38.146  30.495  32.844  1.00  0.00     0.081 C 
BRANCH   9  14
ATOM     14  C   UNL A   1      41.141  29.062  33.370  1.00  0.00     0.299 C 
BRANCH  14  15
ATOM     15  C   UNL A   1      41.860  27.809  33.825  1.00  0.00     0.007 A 
ATOM     16  C   UNL A   1      41.255  24.860  36.163  1.00  0.00     0.045 C 
ATOM     17  C   UNL A   1      41.951  25.794  35.215  1.00  0.00    -0.036 A 
ATOM     18  C   UNL A   1      41.276  26.943  34.761  1.00  0.00     0.014 A 
ATOM     19  C   UNL A   1      43.262  25.564  34.771  1.00  0.00     0.020 A 
ATOM     20  C   UNL A   1      43.836  26.392  33.809  1.00  0.00     0.016 A 
ATOM     21  Br  UNL A   1      44.324  24.140  35.441  1.00  0.00    -0.051 Br
ATOM     22  C   UNL A   1      43.119  27.477  33.308  1.00  0.00     0.011 A 
ENDBRANCH  14  15
ENDBRANCH   9  14
ENDBRANCH   5   8
ENDBRANCH   3   4
ENDBRANCH   2   3
ENDBRANCH   1   2
BRANCH   1  23
ATOM     23  C   UNL A   1      37.120  33.519  29.250  1.00  0.00     0.002 C 
BRANCH  23  24
ATOM     24  C   UNL A   1      35.649  33.459  28.832  1.00  0.00     0.021 C 
BRANCH  24  25
ATOM     25  C   UNL A   1      34.787  32.416  29.537  1.00  0.00     0.116 C 
BRANCH  25  26
ATOM     26  N   UNL A   1      34.157  31.484  28.617  1.00  0.00    -0.352 N 
ATOM     27  C   UNL A   1      34.684  30.404  27.962  1.00  0.00     0.251 C 
ATOM     28  H   UNL A   1      33.204  31.656  28.438  1.00  0.00     0.163 HD
ATOM     29  O   UNL A   1      34.009  29.813  27.114  1.00  0.00    -0.269 OA
BRANCH  27  30
ATOM     30  C   UNL A   1      36.062  29.947  28.239  1.00  0.00     0.039 A 
ATOM     31  C   UNL A   1      37.033  30.112  27.247  1.00  0.00     0.014 A 
ATOM     32  C   UNL A   1      36.396  29.330  29.448  1.00  0.00     0.014 A 
ATOM     33  C   UNL A   1      38.349  29.709  27.486  1.00  0.00     0.010 A 
ATOM     34  C   UNL A   1      37.721  28.989  29.712  1.00  0.00     0.010 A 
ATOM     35  C   UNL A   1      38.710  29.171  28.732  1.00  0.00    -0.014 A 
BRANCH  35  36
ATOM     36  C   UNL A   1      40.115  28.788  29.023  1.00  0.00     0.031 A 
ATOM     37  C   UNL A   1      41.018  29.733  29.765  1.00  0.00     0.074 A 
ATOM     38  C   UNL A   1      40.591  27.612  28.572  1.00  0.00     0.049 A 
ATOM     39  N   UNL A   1      42.287  29.607  30.060  1.00  0.00    -0.248 NA
ATOM     40  C   UNL A   1      40.421  31.000  30.212  1.00  0.00     0.031 C 
ATOM     41  C   UNL A   1      39.824  26.626  27.811  1.00  0.00     0.029 A 
ATOM     42  N   UNL A   1      41.838  27.050  28.683  1.00  0.00    -0.354 N 
ATOM     43  C   UNL A   1      42.640  30.778  30.716  1.00  0.00     0.074 A 
ATOM     44  C   UNL A   1      41.468  31.626  30.728  1.00  0.00     0.031 C 
ATOM     45  C   UNL A   1      40.608  25.570  27.543  1.00  0.00     0.029 A 
ATOM     46  C   UNL A   1      41.942  25.819  28.083  1.00  0.00     0.049 A 
ATOM     47  H   UNL A   1      42.586  27.486  29.149  1.00  0.00     0.167 HD
ATOM     48  C   UNL A   1      43.828  31.107  31.279  1.00  0.00     0.037 A 
ATOM     49  C   UNL A   1      42.996  24.989  27.975  1.00  0.00     0.037 A 
ATOM     50  C   UNL A   1      44.988  30.253  31.282  1.00  0.00     0.049 A 
ATOM     51  C   UNL A   1      44.309  25.386  28.592  1.00  0.00     0.074 A 
ATOM     52  C   UNL A   1      46.222  30.473  31.866  1.00  0.00     0.029 A 
ATOM     53  N   UNL A   1      45.053  29.011  30.667  1.00  0.00    -0.354 N 
ATOM     54  N   UNL A   1      44.616  26.470  29.260  1.00  0.00    -0.248 NA
ATOM     55  C   UNL A   1      45.423  24.438  28.441  1.00  0.00     0.031 C 
ATOM     56  C   UNL A   1      47.048  29.384  31.567  1.00  0.00     0.029 A 
ATOM     57  C   UNL A   1      46.314  28.462  30.840  1.00  0.00     0.049 A 
ATOM     58  H   UNL A   1      44.312  28.582  30.179  1.00  0.00     0.167 HD
ATOM     59  C   UNL A   1      45.944  26.325  29.636  1.00  0.00     0.074 A 
ATOM     60  C   UNL A   1      46.381  25.039  29.132  1.00  0.00     0.031 C 
ATOM     61  C   UNL A   1      46.731  27.177  30.337  1.00  0.00     0.037 A 
BRANCH  48  62
ATOM     62  C   UNL A   1      43.930  32.451  31.942  1.00  0.00     0.064 A 
ATOM     63  C   UNL A   1      43.610  32.629  33.297  1.00  0.00     0.173 A 
ATOM     64  C   UNL A   1      44.373  33.571  31.222  1.00  0.00     0.173 A 
ATOM     65  F   UNL A   1      43.172  31.593  34.028  1.00  0.00    -0.203 F 
ATOM     66  C   UNL A   1      43.697  33.883  33.896  1.00  0.00     0.198 A 
ATOM     67  C   UNL A   1      44.488  34.817  31.832  1.00  0.00     0.198 A 
ATOM     68  F   UNL A   1      44.698  33.457  29.925  1.00  0.00    -0.203 F 
ATOM     69  F   UNL A   1      43.331  34.038  35.176  1.00  0.00    -0.200 F 
ATOM     70  C   UNL A   1      44.140  34.975  33.165  1.00  0.00     0.200 A 
ATOM     71  F   UNL A   1      44.929  35.869  31.128  1.00  0.00    -0.200 F 
ATOM     72  F   UNL A   1      44.225  36.181  33.744  1.00  0.00    -0.200 F 
ENDBRANCH  48  62
BRANCH  49  73
ATOM     73  C   UNL A   1      42.843  23.683  27.283  1.00  0.00     0.064 A 
ATOM     74  C   UNL A   1      42.305  22.575  27.953  1.00  0.00     0.173 A 
ATOM     75  C   UNL A   1      43.227  23.512  25.944  1.00  0.00     0.173 A 
ATOM     76  F   UNL A   1      41.943  22.685  29.240  1.00  0.00    -0.203 F 
ATOM     77  C   UNL A   1      42.172  21.343  27.318  1.00  0.00     0.198 A 
ATOM     78  C   UNL A   1      43.068  22.286  25.302  1.00  0.00     0.198 A 
ATOM     79  F   UNL A   1      43.743  24.541  25.257  1.00  0.00    -0.203 F 
ATOM     80  F   UNL A   1      41.694  20.290  27.995  1.00  0.00    -0.200 F 
ATOM     81  C   UNL A   1      42.548  21.201  25.991  1.00  0.00     0.200 A 
ATOM     82  F   UNL A   1      43.420  22.157  24.015  1.00  0.00    -0.200 F 
ATOM     83  F   UNL A   1      42.417  20.017  25.378  1.00  0.00    -0.200 F 
ENDBRANCH  49  73
BRANCH  61  84
ATOM     84  C   UNL A   1      48.132  26.732  30.633  1.00  0.00     0.064 A 
ATOM     85  C   UNL A   1      48.431  25.928  31.743  1.00  0.00     0.173 A 
ATOM     86  C   UNL A   1      49.185  27.083  29.773  1.00  0.00     0.173 A 
ATOM     87  F   UNL A   1      47.462  25.579  32.603  1.00  0.00    -0.203 F 
ATOM     88  C   UNL A   1      49.736  25.514  31.996  1.00  0.00     0.198 A 
ATOM     89  C   UNL A   1      50.484  26.643  30.013  1.00  0.00     0.198 A 
ATOM     90  F   UNL A   1      48.951  27.845  28.695  1.00  0.00    -0.203 F 
ATOM     91  F   UNL A   1      50.007  24.787  33.089  1.00  0.00    -0.200 F 
ATOM     92  C   UNL A   1      50.759  25.866  31.127  1.00  0.00     0.200 A 
ATOM     93  F   UNL A   1      51.468  26.973  29.166  1.00  0.00    -0.200 F 
ATOM     94  F   UNL A   1      52.014  25.460  31.369  1.00  0.00    -0.200 F 
ENDBRANCH  61  84
ENDBRANCH  35  36
ENDBRANCH  27  30
ENDBRANCH  25  26
ENDBRANCH  24  25
ENDBRANCH  23  24
ENDBRANCH   1  23
TORSDOF 15
ENDMDL
