MODEL 1
REMARK VINA RESULT:     -11.5      0.000      0.000
REMARK SMILES O=C(C[NH+]1CC[NH+](Cc2cc(Cl)ccc2[N+](=O)[O-])CC1)NCCCCCCNC(=O)c1ccc(-c2c3nc(c(-c4c(F)c(F)c(F)c(F)c4F)c4ccc([nH]4)c(-c4c(F)c(F)c(F)c(F)c4F)c4nc(c(-c5c(F)c(F)c(F)c(F)c5F)c5ccc2[nH]5)C=C4)C=C3)cc1
REMARK SMILES IDX 23 1 22 2 21 3 1 4 2 5 3 7 4 8 5 9 20 10 6 12 19 13 7 14
REMARK SMILES IDX 8 16 9 17 10 18 15 19 11 20 14 21 12 22 13 23 16 24 17 25
REMARK SMILES IDX 18 26 24 27 25 28 26 29 27 30 28 31 29 32 30 34 31 35 32 36
REMARK SMILES IDX 93 37 33 38 92 39 34 40 35 41 36 42 86 43 37 44 91 45 85 46
REMARK SMILES IDX 87 47 38 48 90 49 84 50 83 51 39 53 71 54 51 55 70 56 52 57
REMARK SMILES IDX 55 58 69 59 88 60 53 61 54 62 68 64 89 65 56 66 40 67 41 68
REMARK SMILES IDX 49 69 42 70 43 71 47 72 50 73 44 74 45 75 48 76 46 77 72 78
REMARK SMILES IDX 73 79 81 80 74 81 75 82 79 83 82 84 76 85 77 86 80 87 78 88
REMARK SMILES IDX 57 89 58 90 66 91 59 92 60 93 64 94 67 95 61 96 62 97 65 98
REMARK SMILES IDX 63 99
REMARK H PARENT 21 6 4 11 7 15 28 33 87 52 55 63
REMARK Flexibility Score: inf
ROOT
ATOM      1  C   UNL A   1      35.222  31.859  27.715  1.00  0.00     0.021 C 
ENDROOT
BRANCH   1   2
ATOM      2  C   UNL A   1      33.927  31.070  27.537  1.00  0.00     0.116 C 
BRANCH   2   3
ATOM      3  N   UNL A   1      34.036  30.106  26.469  1.00  0.00    -0.351 N 
ATOM      4  O   UNL A   1      31.888  30.335  25.681  1.00  0.00    -0.269 OA
ATOM      5  C   UNL A   1      33.004  29.828  25.598  1.00  0.00     0.275 C 
ATOM      6  H   UNL A   1      34.886  29.623  26.357  1.00  0.00     0.163 HD
BRANCH   5   7
ATOM      7  C   UNL A   1      33.340  28.772  24.539  1.00  0.00     0.363 C 
BRANCH   7   8
ATOM      8  N   UNL A   1      32.451  27.589  24.626  1.00  0.00    -0.318 N 
ATOM      9  C   UNL A   1      32.544  26.800  23.379  1.00  0.00     0.325 C 
ATOM     10  C   UNL A   1      32.751  26.738  25.801  1.00  0.00     0.325 C 
ATOM     11  H   UNL A   1      31.498  27.931  24.747  1.00  0.00     0.348 HD
ATOM     12  C   UNL A   1      33.721  25.794  23.275  1.00  0.00     0.324 C 
ATOM     13  C   UNL A   1      33.963  25.787  25.679  1.00  0.00     0.324 C 
ATOM     14  N   UNL A   1      33.982  24.976  24.462  1.00  0.00    -0.322 N 
ATOM     15  H   UNL A   1      34.942  24.648  24.355  1.00  0.00     0.348 HD
BRANCH  14  16
ATOM     16  C   UNL A   1      33.337  23.657  24.534  1.00  0.00     0.306 C 
BRANCH  16  17
ATOM     17  C   UNL A   1      34.229  22.472  24.863  1.00  0.00     0.085 A 
ATOM     18  C   UNL A   1      35.524  22.780  25.340  1.00  0.00     0.037 A 
ATOM     19  C   UNL A   1      33.931  21.107  24.643  1.00  0.00     0.278 A 
ATOM     20  C   UNL A   1      36.526  21.812  25.426  1.00  0.00     0.042 A 
ATOM     21  C   UNL A   1      34.950  20.131  24.750  1.00  0.00     0.088 A 
ATOM     22  Cl  UNL A   1      38.123  22.278  25.856  1.00  0.00    -0.084 Cl
ATOM     23  C   UNL A   1      36.249  20.492  25.106  1.00  0.00     0.027 A 
BRANCH  19  24
ATOM     24  N   UNL A   1      32.584  20.610  24.292  1.00  0.00     0.063 N 
ATOM     25  O   UNL A   1      31.780  20.440  25.220  1.00  0.00    -0.258 OA
ATOM     26  O   UNL A   1      32.310  20.422  23.103  1.00  0.00    -0.258 OA
ENDBRANCH  19  24
ENDBRANCH  16  17
ENDBRANCH  14  16
ENDBRANCH   7   8
ENDBRANCH   5   7
ENDBRANCH   2   3
ENDBRANCH   1   2
BRANCH   1  27
ATOM     27  C   UNL A   1      35.020  33.341  28.051  1.00  0.00     0.002 C 
BRANCH  27  28
ATOM     28  C   UNL A   1      34.055  33.631  29.206  1.00  0.00     0.002 C 
BRANCH  28  29
ATOM     29  C   UNL A   1      32.991  34.693  28.923  1.00  0.00     0.021 C 
BRANCH  29  30
ATOM     30  C   UNL A   1      33.289  36.071  29.502  1.00  0.00     0.116 C 
BRANCH  30  31
ATOM     31  N   UNL A   1      32.492  36.361  30.683  1.00  0.00    -0.352 N 
ATOM     32  C   UNL A   1      32.650  35.909  31.967  1.00  0.00     0.251 C 
ATOM     33  H   UNL A   1      31.730  36.968  30.540  1.00  0.00     0.163 HD
ATOM     34  O   UNL A   1      31.776  36.123  32.809  1.00  0.00    -0.269 OA
BRANCH  32  35
ATOM     35  C   UNL A   1      33.857  35.144  32.346  1.00  0.00     0.039 A 
ATOM     36  C   UNL A   1      33.708  33.850  32.850  1.00  0.00     0.014 A 
ATOM     37  C   UNL A   1      35.133  35.704  32.225  1.00  0.00     0.014 A 
ATOM     38  C   UNL A   1      34.837  33.103  33.193  1.00  0.00     0.010 A 
ATOM     39  C   UNL A   1      36.260  34.931  32.491  1.00  0.00     0.010 A 
ATOM     40  C   UNL A   1      36.125  33.627  32.992  1.00  0.00    -0.014 A 
BRANCH  40  41
ATOM     41  C   UNL A   1      37.339  32.844  33.343  1.00  0.00     0.031 A 
ATOM     42  C   UNL A   1      38.077  33.136  34.623  1.00  0.00     0.074 A 
ATOM     43  C   UNL A   1      37.801  31.901  32.498  1.00  0.00     0.049 A 
ATOM     44  N   UNL A   1      39.192  32.621  35.075  1.00  0.00    -0.248 NA
ATOM     45  C   UNL A   1      37.495  34.165  35.502  1.00  0.00     0.031 C 
ATOM     46  C   UNL A   1      37.201  31.550  31.210  1.00  0.00     0.029 A 
ATOM     47  N   UNL A   1      38.893  31.073  32.591  1.00  0.00    -0.354 N 
ATOM     48  C   UNL A   1      39.444  33.260  36.281  1.00  0.00     0.074 A 
ATOM     49  C   UNL A   1      38.406  34.252  36.459  1.00  0.00     0.031 C 
ATOM     50  C   UNL A   1      37.922  30.570  30.642  1.00  0.00     0.029 A 
ATOM     51  C   UNL A   1      39.055  30.249  31.503  1.00  0.00     0.049 A 
ATOM     52  H   UNL A   1      39.501  31.070  33.364  1.00  0.00     0.167 HD
ATOM     53  C   UNL A   1      40.431  33.023  37.178  1.00  0.00     0.037 A 
ATOM     54  C   UNL A   1      40.016  29.347  31.229  1.00  0.00     0.037 A 
ATOM     55  C   UNL A   1      41.455  32.026  37.007  1.00  0.00     0.049 A 
ATOM     56  C   UNL A   1      41.114  29.117  32.235  1.00  0.00     0.074 A 
ATOM     57  C   UNL A   1      42.494  31.701  37.861  1.00  0.00     0.029 A 
ATOM     58  N   UNL A   1      41.565  31.189  35.907  1.00  0.00    -0.354 N 
ATOM     59  N   UNL A   1      41.314  29.698  33.394  1.00  0.00    -0.248 NA
ATOM     60  C   UNL A   1      42.115  28.093  31.902  1.00  0.00     0.031 C 
ATOM     61  C   UNL A   1      43.255  30.691  37.263  1.00  0.00     0.029 A 
ATOM     62  C   UNL A   1      42.656  30.349  36.061  1.00  0.00     0.049 A 
ATOM     63  H   UNL A   1      40.959  31.192  35.132  1.00  0.00     0.167 HD
ATOM     64  C   UNL A   1      42.430  29.080  33.944  1.00  0.00     0.074 A 
ATOM     65  C   UNL A   1      42.856  28.072  32.999  1.00  0.00     0.031 C 
ATOM     66  C   UNL A   1      43.048  29.327  35.125  1.00  0.00     0.037 A 
BRANCH  53  67
ATOM     67  C   UNL A   1      40.439  33.839  38.438  1.00  0.00     0.064 A 
ATOM     68  C   UNL A   1      41.218  35.001  38.549  1.00  0.00     0.173 A 
ATOM     69  C   UNL A   1      39.621  33.493  39.524  1.00  0.00     0.173 A 
ATOM     70  F   UNL A   1      42.027  35.371  37.545  1.00  0.00    -0.203 F 
ATOM     71  C   UNL A   1      41.195  35.773  39.707  1.00  0.00     0.198 A 
ATOM     72  C   UNL A   1      39.576  34.285  40.669  1.00  0.00     0.198 A 
ATOM     73  F   UNL A   1      38.852  32.395  39.469  1.00  0.00    -0.203 F 
ATOM     74  F   UNL A   1      41.981  36.854  39.806  1.00  0.00    -0.200 F 
ATOM     75  C   UNL A   1      40.367  35.420  40.761  1.00  0.00     0.200 A 
ATOM     76  F   UNL A   1      38.764  33.950  41.681  1.00  0.00    -0.200 F 
ATOM     77  F   UNL A   1      40.333  36.172  41.870  1.00  0.00    -0.200 F 
ENDBRANCH  53  67
BRANCH  54  78
ATOM     78  C   UNL A   1      39.990  28.580  29.954  1.00  0.00     0.064 A 
ATOM     79  C   UNL A   1      39.378  27.320  29.878  1.00  0.00     0.173 A 
ATOM     80  C   UNL A   1      40.619  29.067  28.798  1.00  0.00     0.173 A 
ATOM     81  F   UNL A   1      38.778  26.800  30.959  1.00  0.00    -0.203 F 
ATOM     82  C   UNL A   1      39.435  26.560  28.712  1.00  0.00     0.198 A 
ATOM     83  C   UNL A   1      40.643  28.321  27.622  1.00  0.00     0.198 A 
ATOM     84  F   UNL A   1      41.212  30.269  28.812  1.00  0.00    -0.203 F 
ATOM     85  F   UNL A   1      38.906  25.328  28.691  1.00  0.00    -0.200 F 
ATOM     86  C   UNL A   1      40.067  27.062  27.584  1.00  0.00     0.200 A 
ATOM     87  F   UNL A   1      41.241  28.818  26.529  1.00  0.00    -0.200 F 
ATOM     88  F   UNL A   1      40.129  26.326  26.466  1.00  0.00    -0.200 F 
ENDBRANCH  54  78
BRANCH  66  89
ATOM     89  C   UNL A   1      44.203  28.443  35.499  1.00  0.00     0.064 A 
ATOM     90  C   UNL A   1      44.028  27.264  36.240  1.00  0.00     0.173 A 
ATOM     91  C   UNL A   1      45.503  28.767  35.079  1.00  0.00     0.173 A 
ATOM     92  F   UNL A   1      42.808  26.914  36.675  1.00  0.00    -0.203 F 
ATOM     93  C   UNL A   1      45.116  26.464  36.578  1.00  0.00     0.198 A 
ATOM     94  C   UNL A   1      46.583  27.946  35.389  1.00  0.00     0.198 A 
ATOM     95  F   UNL A   1      45.724  29.878  34.360  1.00  0.00    -0.203 F 
ATOM     96  F   UNL A   1      44.933  25.375  37.336  1.00  0.00    -0.200 F 
ATOM     97  C   UNL A   1      46.391  26.802  36.147  1.00  0.00     0.200 A 
ATOM     98  F   UNL A   1      47.811  28.265  34.956  1.00  0.00    -0.200 F 
ATOM     99  F   UNL A   1      47.436  26.027  36.469  1.00  0.00    -0.200 F 
ENDBRANCH  66  89
ENDBRANCH  40  41
ENDBRANCH  32  35
ENDBRANCH  30  31
ENDBRANCH  29  30
ENDBRANCH  28  29
ENDBRANCH  27  28
ENDBRANCH   1  27
TORSDOF 17
ENDMDL
MODEL 2
REMARK VINA RESULT:     -11.2      6.619     12.409
REMARK SMILES O=C(C[NH+]1CC[NH+](Cc2cc(Cl)ccc2[N+](=O)[O-])CC1)NCCCCCCNC(=O)c1ccc(-c2c3nc(c(-c4c(F)c(F)c(F)c(F)c4F)c4ccc([nH]4)c(-c4c(F)c(F)c(F)c(F)c4F)c4nc(c(-c5c(F)c(F)c(F)c(F)c5F)c5ccc2[nH]5)C=C4)C=C3)cc1
REMARK SMILES IDX 23 1 22 2 21 3 1 4 2 5 3 7 4 8 5 9 20 10 6 12 19 13 7 14
REMARK SMILES IDX 8 16 9 17 10 18 15 19 11 20 14 21 12 22 13 23 16 24 17 25
REMARK SMILES IDX 18 26 24 27 25 28 26 29 27 30 28 31 29 32 30 34 31 35 32 36
REMARK SMILES IDX 93 37 33 38 92 39 34 40 35 41 36 42 86 43 37 44 91 45 85 46
REMARK SMILES IDX 87 47 38 48 90 49 84 50 83 51 39 53 71 54 51 55 70 56 52 57
REMARK SMILES IDX 55 58 69 59 88 60 53 61 54 62 68 64 89 65 56 66 40 67 41 68
REMARK SMILES IDX 49 69 42 70 43 71 47 72 50 73 44 74 45 75 48 76 46 77 72 78
REMARK SMILES IDX 73 79 81 80 74 81 75 82 79 83 82 84 76 85 77 86 80 87 78 88
REMARK SMILES IDX 57 89 58 90 66 91 59 92 60 93 64 94 67 95 61 96 62 97 65 98
REMARK SMILES IDX 63 99
REMARK H PARENT 21 6 4 11 7 15 28 33 87 52 55 63
REMARK Flexibility Score: inf
ROOT
ATOM      1  C   UNL A   1      40.217  22.240  26.595  1.00  0.00     0.021 C 
ENDROOT
BRANCH   1   2
ATOM      2  C   UNL A   1      39.226  21.254  25.981  1.00  0.00     0.116 C 
BRANCH   2   3
ATOM      3  N   UNL A   1      38.013  21.914  25.561  1.00  0.00    -0.351 N 
ATOM      4  O   UNL A   1      36.851  20.009  25.005  1.00  0.00    -0.269 OA
ATOM      5  C   UNL A   1      36.897  21.230  25.124  1.00  0.00     0.275 C 
ATOM      6  H   UNL A   1      37.979  22.897  25.587  1.00  0.00     0.163 HD
BRANCH   5   7
ATOM      7  C   UNL A   1      35.721  22.131  24.730  1.00  0.00     0.363 C 
BRANCH   7   8
ATOM      8  N   UNL A   1      35.355  23.078  25.810  1.00  0.00    -0.318 N 
ATOM      9  C   UNL A   1      35.257  24.448  25.261  1.00  0.00     0.325 C 
ATOM     10  C   UNL A   1      34.096  22.703  26.493  1.00  0.00     0.325 C 
ATOM     11  H   UNL A   1      36.093  23.040  26.513  1.00  0.00     0.348 HD
ATOM     12  C   UNL A   1      33.914  24.837  24.590  1.00  0.00     0.324 C 
ATOM     13  C   UNL A   1      32.778  23.061  25.769  1.00  0.00     0.324 C 
ATOM     14  N   UNL A   1      32.696  24.443  25.301  1.00  0.00    -0.322 N 
ATOM     15  H   UNL A   1      31.957  24.460  24.597  1.00  0.00     0.348 HD
BRANCH  14  16
ATOM     16  C   UNL A   1      32.099  25.421  26.224  1.00  0.00     0.306 C 
BRANCH  16  17
ATOM     17  C   UNL A   1      32.068  26.869  25.767  1.00  0.00     0.085 A 
ATOM     18  C   UNL A   1      32.907  27.762  26.472  1.00  0.00     0.037 A 
ATOM     19  C   UNL A   1      31.214  27.425  24.786  1.00  0.00     0.278 A 
ATOM     20  C   UNL A   1      32.784  29.146  26.340  1.00  0.00     0.042 A 
ATOM     21  C   UNL A   1      31.110  28.829  24.648  1.00  0.00     0.088 A 
ATOM     22  Cl  UNL A   1      33.718  30.183  27.342  1.00  0.00    -0.084 Cl
ATOM     23  C   UNL A   1      31.867  29.683  25.449  1.00  0.00     0.027 A 
BRANCH  19  24
ATOM     24  N   UNL A   1      30.390  26.614  23.864  1.00  0.00     0.063 N 
ATOM     25  O   UNL A   1      29.159  26.667  24.006  1.00  0.00    -0.258 OA
ATOM     26  O   UNL A   1      30.953  25.958  22.983  1.00  0.00    -0.258 OA
ENDBRANCH  19  24
ENDBRANCH  16  17
ENDBRANCH  14  16
ENDBRANCH   7   8
ENDBRANCH   5   7
ENDBRANCH   2   3
ENDBRANCH   1   2
BRANCH   1  27
ATOM     27  C   UNL A   1      41.662  21.732  26.653  1.00  0.00     0.002 C 
BRANCH  27  28
ATOM     28  C   UNL A   1      41.900  20.518  27.557  1.00  0.00     0.002 C 
BRANCH  28  29
ATOM     29  C   UNL A   1      42.399  19.258  26.848  1.00  0.00     0.021 C 
BRANCH  29  30
ATOM     30  C   UNL A   1      42.399  19.335  25.326  1.00  0.00     0.116 C 
BRANCH  30  31
ATOM     31  N   UNL A   1      43.639  18.847  24.745  1.00  0.00    -0.352 N 
ATOM     32  C   UNL A   1      44.782  19.538  24.439  1.00  0.00     0.251 C 
ATOM     33  H   UNL A   1      43.660  17.884  24.542  1.00  0.00     0.163 HD
ATOM     34  O   UNL A   1      45.678  18.994  23.791  1.00  0.00    -0.269 OA
BRANCH  32  35
ATOM     35  C   UNL A   1      44.941  20.945  24.865  1.00  0.00     0.039 A 
ATOM     36  C   UNL A   1      44.559  21.965  23.990  1.00  0.00     0.014 A 
ATOM     37  C   UNL A   1      45.482  21.264  26.115  1.00  0.00     0.014 A 
ATOM     38  C   UNL A   1      44.680  23.299  24.382  1.00  0.00     0.010 A 
ATOM     39  C   UNL A   1      45.528  22.590  26.535  1.00  0.00     0.010 A 
ATOM     40  C   UNL A   1      45.142  23.624  25.669  1.00  0.00    -0.014 A 
BRANCH  40  41
ATOM     41  C   UNL A   1      45.269  25.039  26.107  1.00  0.00     0.031 A 
ATOM     42  C   UNL A   1      46.609  25.723  26.053  1.00  0.00     0.074 A 
ATOM     43  C   UNL A   1      44.195  25.695  26.590  1.00  0.00     0.049 A 
ATOM     44  N   UNL A   1      46.947  26.922  26.457  1.00  0.00    -0.248 NA
ATOM     45  C   UNL A   1      47.728  24.945  25.493  1.00  0.00     0.031 C 
ATOM     46  C   UNL A   1      42.851  25.133  26.730  1.00  0.00     0.029 A 
ATOM     47  N   UNL A   1      44.068  26.978  27.063  1.00  0.00    -0.354 N 
ATOM     48  C   UNL A   1      48.306  27.039  26.202  1.00  0.00     0.074 A 
ATOM     49  C   UNL A   1      48.750  25.767  25.675  1.00  0.00     0.031 C 
ATOM     50  C   UNL A   1      42.034  26.069  27.239  1.00  0.00     0.029 A 
ATOM     51  C   UNL A   1      42.801  27.283  27.497  1.00  0.00     0.049 A 
ATOM     52  H   UNL A   1      44.815  27.618  27.089  1.00  0.00     0.167 HD
ATOM     53  C   UNL A   1      49.109  28.119  26.360  1.00  0.00     0.037 A 
ATOM     54  C   UNL A   1      42.317  28.411  28.051  1.00  0.00     0.037 A 
ATOM     55  C   UNL A   1      48.664  29.389  26.871  1.00  0.00     0.049 A 
ATOM     56  C   UNL A   1      43.238  29.590  28.235  1.00  0.00     0.074 A 
ATOM     57  C   UNL A   1      49.397  30.548  27.060  1.00  0.00     0.029 A 
ATOM     58  N   UNL A   1      47.365  29.668  27.268  1.00  0.00    -0.354 N 
ATOM     59  N   UNL A   1      44.512  29.702  27.947  1.00  0.00    -0.248 NA
ATOM     60  C   UNL A   1      42.648  30.809  28.808  1.00  0.00     0.031 C 
ATOM     61  C   UNL A   1      48.551  31.518  27.606  1.00  0.00     0.029 A 
ATOM     62  C   UNL A   1      47.277  30.980  27.702  1.00  0.00     0.049 A 
ATOM     63  H   UNL A   1      46.618  29.028  27.245  1.00  0.00     0.167 HD
ATOM     64  C   UNL A   1      44.862  31.009  28.259  1.00  0.00     0.074 A 
ATOM     65  C   UNL A   1      43.664  31.656  28.747  1.00  0.00     0.031 C 
ATOM     66  C   UNL A   1      46.068  31.619  28.154  1.00  0.00     0.037 A 
BRANCH  53  67
ATOM     67  C   UNL A   1      50.548  27.982  25.956  1.00  0.00     0.064 A 
ATOM     68  C   UNL A   1      50.945  28.118  24.616  1.00  0.00     0.173 A 
ATOM     69  C   UNL A   1      51.548  27.770  26.916  1.00  0.00     0.173 A 
ATOM     70  F   UNL A   1      50.028  28.310  23.656  1.00  0.00    -0.203 F 
ATOM     71  C   UNL A   1      52.285  28.025  24.251  1.00  0.00     0.198 A 
ATOM     72  C   UNL A   1      52.891  27.708  26.551  1.00  0.00     0.198 A 
ATOM     73  F   UNL A   1      51.226  27.637  28.211  1.00  0.00    -0.203 F 
ATOM     74  F   UNL A   1      52.635  28.114  22.960  1.00  0.00    -0.200 F 
ATOM     75  C   UNL A   1      53.257  27.830  25.219  1.00  0.00     0.200 A 
ATOM     76  F   UNL A   1      53.831  27.535  27.491  1.00  0.00    -0.200 F 
ATOM     77  F   UNL A   1      54.549  27.756  24.869  1.00  0.00    -0.200 F 
ENDBRANCH  53  67
BRANCH  54  78
ATOM     78  C   UNL A   1      40.892  28.496  28.469  1.00  0.00     0.064 A 
ATOM     79  C   UNL A   1      39.908  28.982  27.594  1.00  0.00     0.173 A 
ATOM     80  C   UNL A   1      40.489  28.141  29.765  1.00  0.00     0.173 A 
ATOM     81  F   UNL A   1      40.242  29.352  26.349  1.00  0.00    -0.203 F 
ATOM     82  C   UNL A   1      38.590  29.152  28.013  1.00  0.00     0.198 A 
ATOM     83  C   UNL A   1      39.164  28.277  30.171  1.00  0.00     0.198 A 
ATOM     84  F   UNL A   1      41.386  27.663  30.639  1.00  0.00    -0.203 F 
ATOM     85  F   UNL A   1      37.688  29.688  27.179  1.00  0.00    -0.200 F 
ATOM     86  C   UNL A   1      38.219  28.798  29.301  1.00  0.00     0.200 A 
ATOM     87  F   UNL A   1      38.806  27.918  31.412  1.00  0.00    -0.200 F 
ATOM     88  F   UNL A   1      36.953  28.970  29.707  1.00  0.00    -0.200 F 
ENDBRANCH  54  78
BRANCH  66  89
ATOM     89  C   UNL A   1      46.137  33.080  28.500  1.00  0.00     0.064 A 
ATOM     90  C   UNL A   1      46.446  33.524  29.793  1.00  0.00     0.173 A 
ATOM     91  C   UNL A   1      45.919  34.049  27.508  1.00  0.00     0.173 A 
ATOM     92  F   UNL A   1      46.652  32.639  30.781  1.00  0.00    -0.203 F 
ATOM     93  C   UNL A   1      46.498  34.883  30.089  1.00  0.00     0.198 A 
ATOM     94  C   UNL A   1      46.007  35.406  27.799  1.00  0.00     0.198 A 
ATOM     95  F   UNL A   1      45.629  33.677  26.251  1.00  0.00    -0.203 F 
ATOM     96  F   UNL A   1      46.738  35.285  31.345  1.00  0.00    -0.200 F 
ATOM     97  C   UNL A   1      46.285  35.823  29.091  1.00  0.00     0.200 A 
ATOM     98  F   UNL A   1      45.818  36.312  26.829  1.00  0.00    -0.200 F 
ATOM     99  F   UNL A   1      46.342  37.131  29.377  1.00  0.00    -0.200 F 
ENDBRANCH  66  89
ENDBRANCH  40  41
ENDBRANCH  32  35
ENDBRANCH  30  31
ENDBRANCH  29  30
ENDBRANCH  28  29
ENDBRANCH  27  28
ENDBRANCH   1  27
TORSDOF 17
ENDMDL
MODEL 3
REMARK VINA RESULT:     -11.2      1.290      2.168
REMARK SMILES O=C(C[NH+]1CC[NH+](Cc2cc(Cl)ccc2[N+](=O)[O-])CC1)NCCCCCCNC(=O)c1ccc(-c2c3nc(c(-c4c(F)c(F)c(F)c(F)c4F)c4ccc([nH]4)c(-c4c(F)c(F)c(F)c(F)c4F)c4nc(c(-c5c(F)c(F)c(F)c(F)c5F)c5ccc2[nH]5)C=C4)C=C3)cc1
REMARK SMILES IDX 23 1 22 2 21 3 1 4 2 5 3 7 4 8 5 9 20 10 6 12 19 13 7 14
REMARK SMILES IDX 8 16 9 17 10 18 15 19 11 20 14 21 12 22 13 23 16 24 17 25
REMARK SMILES IDX 18 26 24 27 25 28 26 29 27 30 28 31 29 32 30 34 31 35 32 36
REMARK SMILES IDX 93 37 33 38 92 39 34 40 35 41 36 42 86 43 37 44 91 45 85 46
REMARK SMILES IDX 87 47 38 48 90 49 84 50 83 51 39 53 71 54 51 55 70 56 52 57
REMARK SMILES IDX 55 58 69 59 88 60 53 61 54 62 68 64 89 65 56 66 40 67 41 68
REMARK SMILES IDX 49 69 42 70 43 71 47 72 50 73 44 74 45 75 48 76 46 77 72 78
REMARK SMILES IDX 73 79 81 80 74 81 75 82 79 83 82 84 76 85 77 86 80 87 78 88
REMARK SMILES IDX 57 89 58 90 66 91 59 92 60 93 64 94 67 95 61 96 62 97 65 98
REMARK SMILES IDX 63 99
REMARK H PARENT 21 6 4 11 7 15 28 33 87 52 55 63
REMARK Flexibility Score: inf
ROOT
ATOM      1  C   UNL A   1      34.296  31.412  27.914  1.00  0.00     0.021 C 
ENDROOT
BRANCH   1   2
ATOM      2  C   UNL A   1      32.915  31.136  27.325  1.00  0.00     0.116 C 
BRANCH   2   3
ATOM      3  N   UNL A   1      32.728  29.732  27.047  1.00  0.00    -0.351 N 
ATOM      4  O   UNL A   1      31.311  30.000  25.256  1.00  0.00    -0.269 OA
ATOM      5  C   UNL A   1      31.951  29.268  26.006  1.00  0.00     0.275 C 
ATOM      6  H   UNL A   1      33.175  29.074  27.627  1.00  0.00     0.163 HD
BRANCH   5   7
ATOM      7  C   UNL A   1      31.895  27.740  25.895  1.00  0.00     0.363 C 
BRANCH   7   8
ATOM      8  N   UNL A   1      32.922  27.208  24.968  1.00  0.00    -0.318 N 
ATOM      9  C   UNL A   1      33.553  26.008  25.556  1.00  0.00     0.325 C 
ATOM     10  C   UNL A   1      32.373  26.900  23.627  1.00  0.00     0.325 C 
ATOM     11  H   UNL A   1      33.623  27.938  24.838  1.00  0.00     0.348 HD
ATOM     12  C   UNL A   1      32.810  24.660  25.360  1.00  0.00     0.324 C 
ATOM     13  C   UNL A   1      31.594  25.574  23.483  1.00  0.00     0.324 C 
ATOM     14  N   UNL A   1      32.282  24.400  24.018  1.00  0.00    -0.322 N 
ATOM     15  H   UNL A   1      31.566  23.685  24.146  1.00  0.00     0.348 HD
BRANCH  14  16
ATOM     16  C   UNL A   1      33.135  23.649  23.085  1.00  0.00     0.306 C 
BRANCH  16  17
ATOM     17  C   UNL A   1      33.791  22.386  23.615  1.00  0.00     0.085 A 
ATOM     18  C   UNL A   1      32.941  21.270  23.793  1.00  0.00     0.037 A 
ATOM     19  C   UNL A   1      35.132  22.249  24.042  1.00  0.00     0.278 A 
ATOM     20  C   UNL A   1      33.346  20.145  24.512  1.00  0.00     0.042 A 
ATOM     21  C   UNL A   1      35.537  21.096  24.754  1.00  0.00     0.088 A 
ATOM     22  Cl  UNL A   1      32.216  18.891  24.834  1.00  0.00    -0.084 Cl
ATOM     23  C   UNL A   1      34.634  20.066  25.017  1.00  0.00     0.027 A 
BRANCH  19  24
ATOM     24  N   UNL A   1      36.178  23.263  23.791  1.00  0.00     0.063 N 
ATOM     25  O   UNL A   1      36.366  24.116  24.672  1.00  0.00    -0.258 OA
ATOM     26  O   UNL A   1      36.836  23.196  22.749  1.00  0.00    -0.258 OA
ENDBRANCH  19  24
ENDBRANCH  16  17
ENDBRANCH  14  16
ENDBRANCH   7   8
ENDBRANCH   5   7
ENDBRANCH   2   3
ENDBRANCH   1   2
BRANCH   1  27
ATOM     27  C   UNL A   1      34.671  32.898  27.982  1.00  0.00     0.002 C 
BRANCH  27  28
ATOM     28  C   UNL A   1      34.139  33.657  29.202  1.00  0.00     0.002 C 
BRANCH  28  29
ATOM     29  C   UNL A   1      33.035  34.675  28.912  1.00  0.00     0.021 C 
BRANCH  29  30
ATOM     30  C   UNL A   1      33.267  36.060  29.505  1.00  0.00     0.116 C 
BRANCH  30  31
ATOM     31  N   UNL A   1      32.449  36.305  30.682  1.00  0.00    -0.352 N 
ATOM     32  C   UNL A   1      32.599  35.823  31.956  1.00  0.00     0.251 C 
ATOM     33  H   UNL A   1      31.679  36.903  30.544  1.00  0.00     0.163 HD
ATOM     34  O   UNL A   1      31.710  35.999  32.791  1.00  0.00    -0.269 OA
BRANCH  32  35
ATOM     35  C   UNL A   1      33.815  35.070  32.331  1.00  0.00     0.039 A 
ATOM     36  C   UNL A   1      33.682  33.766  32.816  1.00  0.00     0.014 A 
ATOM     37  C   UNL A   1      35.083  35.650  32.226  1.00  0.00     0.014 A 
ATOM     38  C   UNL A   1      34.819  33.031  33.155  1.00  0.00     0.010 A 
ATOM     39  C   UNL A   1      36.220  34.889  32.488  1.00  0.00     0.010 A 
ATOM     40  C   UNL A   1      36.100  33.577  32.970  1.00  0.00    -0.014 A 
BRANCH  40  41
ATOM     41  C   UNL A   1      37.323  32.806  33.317  1.00  0.00     0.031 A 
ATOM     42  C   UNL A   1      38.060  33.103  34.596  1.00  0.00     0.074 A 
ATOM     43  C   UNL A   1      37.795  31.870  32.468  1.00  0.00     0.049 A 
ATOM     44  N   UNL A   1      39.182  32.599  35.045  1.00  0.00    -0.248 NA
ATOM     45  C   UNL A   1      37.469  34.123  35.478  1.00  0.00     0.031 C 
ATOM     46  C   UNL A   1      37.196  31.515  31.181  1.00  0.00     0.029 A 
ATOM     47  N   UNL A   1      38.895  31.054  32.558  1.00  0.00    -0.354 N 
ATOM     48  C   UNL A   1      39.428  33.238  36.253  1.00  0.00     0.074 A 
ATOM     49  C   UNL A   1      38.379  34.218  36.435  1.00  0.00     0.031 C 
ATOM     50  C   UNL A   1      37.927  30.545  30.609  1.00  0.00     0.029 A 
ATOM     51  C   UNL A   1      39.064  30.234  31.468  1.00  0.00     0.049 A 
ATOM     52  H   UNL A   1      39.505  31.056  33.330  1.00  0.00     0.167 HD
ATOM     53  C   UNL A   1      40.419  33.009  37.147  1.00  0.00     0.037 A 
ATOM     54  C   UNL A   1      40.035  29.343  31.190  1.00  0.00     0.037 A 
ATOM     55  C   UNL A   1      41.454  32.024  36.972  1.00  0.00     0.049 A 
ATOM     56  C   UNL A   1      41.138  29.123  32.194  1.00  0.00     0.074 A 
ATOM     57  C   UNL A   1      42.498  31.708  37.825  1.00  0.00     0.029 A 
ATOM     58  N   UNL A   1      41.571  31.191  35.870  1.00  0.00    -0.354 N 
ATOM     59  N   UNL A   1      41.333  29.703  33.354  1.00  0.00    -0.248 NA
ATOM     60  C   UNL A   1      42.149  28.110  31.857  1.00  0.00     0.031 C 
ATOM     61  C   UNL A   1      43.268  30.709  37.222  1.00  0.00     0.029 A 
ATOM     62  C   UNL A   1      42.671  30.363  36.021  1.00  0.00     0.049 A 
ATOM     63  H   UNL A   1      40.964  31.190  35.096  1.00  0.00     0.167 HD
ATOM     64  C   UNL A   1      42.456  29.097  33.901  1.00  0.00     0.074 A 
ATOM     65  C   UNL A   1      42.892  28.095  32.953  1.00  0.00     0.031 C 
ATOM     66  C   UNL A   1      43.073  29.347  35.082  1.00  0.00     0.037 A 
BRANCH  53  67
ATOM     67  C   UNL A   1      40.420  33.822  38.409  1.00  0.00     0.064 A 
ATOM     68  C   UNL A   1      39.676  33.427  39.532  1.00  0.00     0.173 A 
ATOM     69  C   UNL A   1      41.213  34.974  38.522  1.00  0.00     0.173 A 
ATOM     70  F   UNL A   1      38.891  32.340  39.474  1.00  0.00    -0.203 F 
ATOM     71  C   UNL A   1      39.708  34.166  40.711  1.00  0.00     0.198 A 
ATOM     72  C   UNL A   1      41.267  35.693  39.713  1.00  0.00     0.198 A 
ATOM     73  F   UNL A   1      41.948  35.394  37.481  1.00  0.00    -0.203 F 
ATOM     74  F   UNL A   1      38.954  33.793  41.755  1.00  0.00    -0.200 F 
ATOM     75  C   UNL A   1      40.510  35.292  40.804  1.00  0.00     0.200 A 
ATOM     76  F   UNL A   1      42.055  36.773  39.806  1.00  0.00    -0.200 F 
ATOM     77  F   UNL A   1      40.553  35.995  41.945  1.00  0.00    -0.200 F 
ENDBRANCH  53  67
BRANCH  54  78
ATOM     78  C   UNL A   1      40.016  28.580  29.913  1.00  0.00     0.064 A 
ATOM     79  C   UNL A   1      39.446  27.299  29.842  1.00  0.00     0.173 A 
ATOM     80  C   UNL A   1      40.609  29.091  28.750  1.00  0.00     0.173 A 
ATOM     81  F   UNL A   1      38.880  26.757  30.931  1.00  0.00    -0.203 F 
ATOM     82  C   UNL A   1      39.510  26.544  28.673  1.00  0.00     0.198 A 
ATOM     83  C   UNL A   1      40.641  28.349  27.570  1.00  0.00     0.198 A 
ATOM     84  F   UNL A   1      41.162  30.312  28.758  1.00  0.00    -0.203 F 
ATOM     85  F   UNL A   1      39.023  25.295  28.657  1.00  0.00    -0.200 F 
ATOM     86  C   UNL A   1      40.107  27.070  27.538  1.00  0.00     0.200 A 
ATOM     87  F   UNL A   1      41.205  28.868  26.471  1.00  0.00    -0.200 F 
ATOM     88  F   UNL A   1      40.178  26.340  26.416  1.00  0.00    -0.200 F 
ENDBRANCH  54  78
BRANCH  66  89
ATOM     89  C   UNL A   1      44.238  28.475  35.452  1.00  0.00     0.064 A 
ATOM     90  C   UNL A   1      45.554  28.797  35.089  1.00  0.00     0.173 A 
ATOM     91  C   UNL A   1      44.034  27.312  36.211  1.00  0.00     0.173 A 
ATOM     92  F   UNL A   1      45.803  29.892  34.354  1.00  0.00    -0.203 F 
ATOM     93  C   UNL A   1      46.616  27.969  35.440  1.00  0.00     0.198 A 
ATOM     94  C   UNL A   1      45.102  26.505  36.591  1.00  0.00     0.198 A 
ATOM     95  F   UNL A   1      42.796  26.962  36.594  1.00  0.00    -0.203 F 
ATOM     96  F   UNL A   1      47.858  28.266  35.032  1.00  0.00    -0.200 F 
ATOM     97  C   UNL A   1      46.391  26.828  36.196  1.00  0.00     0.200 A 
ATOM     98  F   UNL A   1      44.883  25.412  37.336  1.00  0.00    -0.200 F 
ATOM     99  F   UNL A   1      47.416  26.035  36.537  1.00  0.00    -0.200 F 
ENDBRANCH  66  89
ENDBRANCH  40  41
ENDBRANCH  32  35
ENDBRANCH  30  31
ENDBRANCH  29  30
ENDBRANCH  28  29
ENDBRANCH  27  28
ENDBRANCH   1  27
TORSDOF 17
ENDMDL
