MODEL 1
REMARK VINA RESULT:     -12.1      0.000      0.000
REMARK SMILES Cn1nc(C(=O)N2C[C@@H](O)C[C@H]2C(=O)NCCCCCCNC(=O)c2ccc(-c3c4nc(c(-c5c(F)c(F)c(F)c(F)c5F)c5ccc([nH]5)c(-c5c(F)c(F)c(F)c(F)c5F)c5nc(c(-c6c(F)c(F)c(F)c(F)c6F)c6ccc3[nH]6)C=C5)C=C4)cc2)ccc1=O
REMARK SMILES IDX 18 1 17 2 16 3 15 4 13 5 14 6 12 8 7 9 8 10 9 11 11 12 5 13
REMARK SMILES IDX 6 14 4 15 1 16 2 17 3 18 90 19 89 20 91 21 88 22 10 23 19 25
REMARK SMILES IDX 20 26 21 27 22 28 23 29 24 31 25 32 26 33 87 34 27 35 86 36
REMARK SMILES IDX 28 37 29 38 30 39 80 40 31 41 85 42 79 43 81 44 32 45 84 46
REMARK SMILES IDX 78 47 77 48 33 50 65 51 45 52 64 53 46 54 49 55 63 56 82 57
REMARK SMILES IDX 47 58 48 59 62 61 83 62 50 63 34 64 35 65 43 66 36 67 37 68
REMARK SMILES IDX 41 69 44 70 38 71 39 72 42 73 40 74 66 75 67 76 75 77 68 78
REMARK SMILES IDX 69 79 73 80 76 81 70 82 71 83 74 84 72 85 51 86 52 87 60 88
REMARK SMILES IDX 53 89 54 90 58 91 61 92 55 93 56 94 59 95 57 96
REMARK H PARENT 15 7 10 24 22 30 81 49 49 60
REMARK Flexibility Score: inf
ROOT
ATOM      1  C   UNL A   1      37.695  22.076  25.112  1.00  0.00     0.002 C 
ENDROOT
BRANCH   1   2
ATOM      2  C   UNL A   1      36.852  23.160  24.431  1.00  0.00     0.021 C 
BRANCH   2   3
ATOM      3  C   UNL A   1      35.972  23.956  25.386  1.00  0.00     0.116 C 
BRANCH   3   4
ATOM      4  N   UNL A   1      35.565  23.181  26.532  1.00  0.00    -0.354 N 
ATOM      5  C   UNL A   1      34.329  22.771  26.931  1.00  0.00     0.242 C 
ATOM      6  O   UNL A   1      34.289  21.922  27.828  1.00  0.00    -0.273 OA
ATOM      7  H   UNL A   1      36.302  22.902  27.123  1.00  0.00     0.163 HD
BRANCH   5   8
ATOM      8  C   UNL A   1      33.043  23.171  26.181  1.00  0.00     0.177 C 
ATOM      9  N   UNL A   1      32.360  22.145  25.388  1.00  0.00    -0.323 N 
ATOM     10  C   UNL A   1      30.956  22.032  25.750  1.00  0.00     0.152 C 
ATOM     11  C   UNL A   1      30.647  23.304  26.533  1.00  0.00     0.136 C 
ATOM     12  C   UNL A   1      31.984  23.716  27.144  1.00  0.00     0.069 C 
BRANCH   9  13
ATOM     13  C   UNL A   1      32.953  21.783  24.185  1.00  0.00     0.275 C 
ATOM     14  O   UNL A   1      33.262  22.592  23.316  1.00  0.00    -0.267 OA
BRANCH  13  15
ATOM     15  C   UNL A   1      33.111  20.302  23.860  1.00  0.00     0.149 A 
ATOM     16  C   UNL A   1      35.161  17.565  24.933  1.00  0.00     0.178 C 
ATOM     17  N   UNL A   1      34.094  18.273  24.251  1.00  0.00    -0.232 N 
ATOM     18  N   UNL A   1      34.007  19.622  24.507  1.00  0.00    -0.165 NA
ATOM     19  C   UNL A   1      33.262  17.591  23.373  1.00  0.00     0.266 A 
ATOM     20  C   UNL A   1      32.234  18.411  22.691  1.00  0.00     0.076 A 
ATOM     21  O   UNL A   1      33.331  16.391  23.124  1.00  0.00    -0.268 OA
ATOM     22  C   UNL A   1      32.155  19.728  22.894  1.00  0.00     0.042 A 
ENDBRANCH  13  15
ENDBRANCH   9  13
BRANCH  11  23
ATOM     23  O   UNL A   1      29.669  23.093  27.540  1.00  0.00    -0.391 OA
ATOM     24  H   UNL A   1      29.973  23.486  28.373  1.00  0.00     0.211 HD
ENDBRANCH  11  23
ENDBRANCH   5   8
ENDBRANCH   3   4
ENDBRANCH   2   3
ENDBRANCH   1   2
BRANCH   1  25
ATOM     25  C   UNL A   1      37.271  20.630  24.823  1.00  0.00     0.002 C 
BRANCH  25  26
ATOM     26  C   UNL A   1      38.364  19.575  25.006  1.00  0.00     0.021 C 
BRANCH  26  27
ATOM     27  C   UNL A   1      39.470  19.970  25.977  1.00  0.00     0.116 C 
BRANCH  27  28
ATOM     28  N   UNL A   1      40.521  18.969  26.041  1.00  0.00    -0.352 N 
ATOM     29  C   UNL A   1      41.878  19.160  26.119  1.00  0.00     0.251 C 
ATOM     30  H   UNL A   1      40.221  18.031  26.029  1.00  0.00     0.163 HD
ATOM     31  O   UNL A   1      42.658  18.222  25.991  1.00  0.00    -0.269 OA
BRANCH  29  32
ATOM     32  C   UNL A   1      42.392  20.523  26.341  1.00  0.00     0.039 A 
ATOM     33  C   UNL A   1      42.644  21.342  25.239  1.00  0.00     0.014 A 
ATOM     34  C   UNL A   1      42.601  20.992  27.643  1.00  0.00     0.014 A 
ATOM     35  C   UNL A   1      43.061  22.657  25.442  1.00  0.00     0.010 A 
ATOM     36  C   UNL A   1      42.970  22.318  27.845  1.00  0.00     0.010 A 
ATOM     37  C   UNL A   1      43.208  23.158  26.747  1.00  0.00    -0.014 A 
BRANCH  37  38
ATOM     38  C   UNL A   1      43.654  24.552  26.976  1.00  0.00     0.031 A 
ATOM     39  C   UNL A   1      42.673  25.572  27.473  1.00  0.00     0.074 A 
ATOM     40  C   UNL A   1      44.926  24.901  26.708  1.00  0.00     0.049 A 
ATOM     41  N   UNL A   1      42.857  26.842  27.726  1.00  0.00    -0.248 NA
ATOM     42  C   UNL A   1      41.294  25.108  27.702  1.00  0.00     0.031 C 
ATOM     43  C   UNL A   1      45.958  24.003  26.191  1.00  0.00     0.029 A 
ATOM     44  N   UNL A   1      45.566  26.110  26.831  1.00  0.00    -0.354 N 
ATOM     45  C   UNL A   1      41.627  27.322  28.150  1.00  0.00     0.074 A 
ATOM     46  C   UNL A   1      40.687  26.228  28.063  1.00  0.00     0.031 C 
ATOM     47  C   UNL A   1      47.108  24.685  26.062  1.00  0.00     0.029 A 
ATOM     48  C   UNL A   1      46.889  26.072  26.466  1.00  0.00     0.049 A 
ATOM     49  H   UNL A   1      45.118  26.926  27.152  1.00  0.00     0.167 HD
ATOM     50  C   UNL A   1      41.319  28.560  28.602  1.00  0.00     0.037 A 
ATOM     51  C   UNL A   1      47.818  27.048  26.463  1.00  0.00     0.037 A 
ATOM     52  C   UNL A   1      42.262  29.639  28.710  1.00  0.00     0.049 A 
ATOM     53  C   UNL A   1      47.438  28.427  26.932  1.00  0.00     0.074 A 
ATOM     54  C   UNL A   1      42.060  30.912  29.211  1.00  0.00     0.029 A 
ATOM     55  N   UNL A   1      43.588  29.569  28.308  1.00  0.00    -0.354 N 
ATOM     56  N   UNL A   1      46.288  28.852  27.394  1.00  0.00    -0.248 NA
ATOM     57  C   UNL A   1      48.483  29.459  26.879  1.00  0.00     0.031 C 
ATOM     58  C   UNL A   1      43.255  31.626  29.079  1.00  0.00     0.029 A 
ATOM     59  C   UNL A   1      44.209  30.786  28.527  1.00  0.00     0.049 A 
ATOM     60  H   UNL A   1      44.021  28.773  27.924  1.00  0.00     0.167 HD
ATOM     61  C   UNL A   1      46.474  30.191  27.708  1.00  0.00     0.074 A 
ATOM     62  C   UNL A   1      47.852  30.508  27.391  1.00  0.00     0.031 C 
ATOM     63  C   UNL A   1      45.583  31.078  28.212  1.00  0.00     0.037 A 
BRANCH  50  64
ATOM     64  C   UNL A   1      39.909  28.807  29.043  1.00  0.00     0.064 A 
ATOM     65  C   UNL A   1      38.935  29.257  28.139  1.00  0.00     0.173 A 
ATOM     66  C   UNL A   1      39.512  28.537  30.360  1.00  0.00     0.173 A 
ATOM     67  F   UNL A   1      39.271  29.540  26.871  1.00  0.00    -0.203 F 
ATOM     68  C   UNL A   1      37.617  29.442  28.543  1.00  0.00     0.198 A 
ATOM     69  C   UNL A   1      38.188  28.701  30.754  1.00  0.00     0.198 A 
ATOM     70  F   UNL A   1      40.407  28.102  31.260  1.00  0.00    -0.203 F 
ATOM     71  F   UNL A   1      36.709  29.903  27.671  1.00  0.00    -0.200 F 
ATOM     72  C   UNL A   1      37.242  29.156  29.847  1.00  0.00     0.200 A 
ATOM     73  F   UNL A   1      37.824  28.416  32.012  1.00  0.00    -0.200 F 
ATOM     74  F   UNL A   1      35.969  29.322  30.231  1.00  0.00    -0.200 F 
ENDBRANCH  50  64
BRANCH  51  75
ATOM     75  C   UNL A   1      49.207  26.746  26.034  1.00  0.00     0.064 A 
ATOM     76  C   UNL A   1      50.150  26.266  26.953  1.00  0.00     0.173 A 
ATOM     77  C   UNL A   1      49.619  26.920  24.706  1.00  0.00     0.173 A 
ATOM     78  F   UNL A   1      49.807  26.101  28.239  1.00  0.00    -0.203 F 
ATOM     79  C   UNL A   1      51.456  25.981  26.562  1.00  0.00     0.198 A 
ATOM     80  C   UNL A   1      50.919  26.615  24.310  1.00  0.00     0.198 A 
ATOM     81  F   UNL A   1      48.752  27.374  23.789  1.00  0.00    -0.203 F 
ATOM     82  F   UNL A   1      52.346  25.552  27.467  1.00  0.00    -0.200 F 
ATOM     83  C   UNL A   1      51.839  26.150  25.240  1.00  0.00     0.200 A 
ATOM     84  F   UNL A   1      51.282  26.770  23.030  1.00  0.00    -0.200 F 
ATOM     85  F   UNL A   1      53.093  25.870  24.861  1.00  0.00    -0.200 F 
ENDBRANCH  51  75
BRANCH  63  86
ATOM     86  C   UNL A   1      46.058  32.476  28.466  1.00  0.00     0.064 A 
ATOM     87  C   UNL A   1      45.894  33.483  27.505  1.00  0.00     0.173 A 
ATOM     88  C   UNL A   1      46.580  32.833  29.718  1.00  0.00     0.173 A 
ATOM     89  F   UNL A   1      45.411  33.183  26.290  1.00  0.00    -0.203 F 
ATOM     90  C   UNL A   1      46.237  34.801  27.789  1.00  0.00     0.198 A 
ATOM     91  C   UNL A   1      46.901  34.157  30.006  1.00  0.00     0.198 A 
ATOM     92  F   UNL A   1      46.746  31.905  30.671  1.00  0.00    -0.203 F 
ATOM     93  F   UNL A   1      46.088  35.747  26.852  1.00  0.00    -0.200 F 
ATOM     94  C   UNL A   1      46.729  35.139  29.042  1.00  0.00     0.200 A 
ATOM     95  F   UNL A   1      47.361  34.484  31.221  1.00  0.00    -0.200 F 
ATOM     96  F   UNL A   1      47.034  36.414  29.321  1.00  0.00    -0.200 F 
ENDBRANCH  63  86
ENDBRANCH  37  38
ENDBRANCH  29  32
ENDBRANCH  27  28
ENDBRANCH  26  27
ENDBRANCH  25  26
ENDBRANCH   1  25
TORSDOF 16
ENDMDL
MODEL 2
REMARK VINA RESULT:     -12.1      6.699     11.853
REMARK SMILES Cn1nc(C(=O)N2C[C@@H](O)C[C@H]2C(=O)NCCCCCCNC(=O)c2ccc(-c3c4nc(c(-c5c(F)c(F)c(F)c(F)c5F)c5ccc([nH]5)c(-c5c(F)c(F)c(F)c(F)c5F)c5nc(c(-c6c(F)c(F)c(F)c(F)c6F)c6ccc3[nH]6)C=C5)C=C4)cc2)ccc1=O
REMARK SMILES IDX 18 1 17 2 16 3 15 4 13 5 14 6 12 8 7 9 8 10 9 11 11 12 5 13
REMARK SMILES IDX 6 14 4 15 1 16 2 17 3 18 90 19 89 20 91 21 88 22 10 23 19 25
REMARK SMILES IDX 20 26 21 27 22 28 23 29 24 31 25 32 26 33 87 34 27 35 86 36
REMARK SMILES IDX 28 37 29 38 30 39 80 40 31 41 85 42 79 43 81 44 32 45 84 46
REMARK SMILES IDX 78 47 77 48 33 50 65 51 45 52 64 53 46 54 49 55 63 56 82 57
REMARK SMILES IDX 47 58 48 59 62 61 83 62 50 63 34 64 35 65 43 66 36 67 37 68
REMARK SMILES IDX 41 69 44 70 38 71 39 72 42 73 40 74 66 75 67 76 75 77 68 78
REMARK SMILES IDX 69 79 73 80 76 81 70 82 71 83 74 84 72 85 51 86 52 87 60 88
REMARK SMILES IDX 53 89 54 90 58 91 61 92 55 93 56 94 59 95 57 96
REMARK H PARENT 15 7 10 24 22 30 81 49 49 60
REMARK Flexibility Score: inf
ROOT
ATOM      1  C   UNL A   1      32.706  30.059  27.215  1.00  0.00     0.002 C 
ENDROOT
BRANCH   1   2
ATOM      2  C   UNL A   1      33.129  28.682  26.688  1.00  0.00     0.021 C 
BRANCH   2   3
ATOM      3  C   UNL A   1      32.271  28.163  25.542  1.00  0.00     0.116 C 
BRANCH   3   4
ATOM      4  N   UNL A   1      31.300  27.189  25.981  1.00  0.00    -0.354 N 
ATOM      5  C   UNL A   1      30.498  26.353  25.265  1.00  0.00     0.242 C 
ATOM      6  O   UNL A   1      29.926  25.458  25.896  1.00  0.00    -0.273 OA
ATOM      7  H   UNL A   1      31.202  27.117  26.958  1.00  0.00     0.163 HD
BRANCH   5   8
ATOM      8  C   UNL A   1      30.450  26.371  23.724  1.00  0.00     0.177 C 
ATOM      9  N   UNL A   1      30.262  27.661  23.055  1.00  0.00    -0.323 N 
ATOM     10  C   UNL A   1      31.294  27.905  22.058  1.00  0.00     0.152 C 
ATOM     11  C   UNL A   1      31.937  26.543  21.816  1.00  0.00     0.136 C 
ATOM     12  C   UNL A   1      31.727  25.778  23.121  1.00  0.00     0.069 C 
BRANCH   9  13
ATOM     13  C   UNL A   1      28.990  28.215  23.104  1.00  0.00     0.275 C 
ATOM     14  O   UNL A   1      27.975  27.556  23.309  1.00  0.00    -0.267 OA
BRANCH  13  15
ATOM     15  C   UNL A   1      28.816  29.689  22.758  1.00  0.00     0.149 A 
ATOM     16  C   UNL A   1      27.790  31.635  19.928  1.00  0.00     0.178 C 
ATOM     17  N   UNL A   1      28.180  31.326  21.291  1.00  0.00    -0.232 N 
ATOM     18  N   UNL A   1      28.395  29.996  21.569  1.00  0.00    -0.165 NA
ATOM     19  C   UNL A   1      28.349  32.352  22.211  1.00  0.00     0.266 A 
ATOM     20  C   UNL A   1      28.793  31.939  23.562  1.00  0.00     0.076 A 
ATOM     21  O   UNL A   1      28.172  33.545  21.980  1.00  0.00    -0.268 OA
ATOM     22  C   UNL A   1      29.046  30.659  23.845  1.00  0.00     0.042 A 
ENDBRANCH  13  15
ENDBRANCH   9  13
BRANCH  11  23
ATOM     23  O   UNL A   1      33.318  26.647  21.503  1.00  0.00    -0.391 OA
ATOM     24  H   UNL A   1      33.591  27.577  21.549  1.00  0.00     0.211 HD
ENDBRANCH  11  23
ENDBRANCH   5   8
ENDBRANCH   3   4
ENDBRANCH   2   3
ENDBRANCH   1   2
BRANCH   1  25
ATOM     25  C   UNL A   1      31.582  30.750  26.431  1.00  0.00     0.002 C 
BRANCH  25  26
ATOM     26  C   UNL A   1      31.510  32.271  26.589  1.00  0.00     0.021 C 
BRANCH  26  27
ATOM     27  C   UNL A   1      32.706  32.892  27.301  1.00  0.00     0.116 C 
BRANCH  27  28
ATOM     28  N   UNL A   1      32.461  34.276  27.669  1.00  0.00    -0.352 N 
ATOM     29  C   UNL A   1      33.031  35.002  28.685  1.00  0.00     0.251 C 
ATOM     30  H   UNL A   1      31.802  34.756  27.117  1.00  0.00     0.163 HD
ATOM     31  O   UNL A   1      32.602  36.110  28.989  1.00  0.00    -0.269 OA
BRANCH  29  32
ATOM     32  C   UNL A   1      34.165  34.420  29.425  1.00  0.00     0.039 A 
ATOM     33  C   UNL A   1      33.915  33.697  30.593  1.00  0.00     0.014 A 
ATOM     34  C   UNL A   1      35.471  34.574  28.946  1.00  0.00     0.014 A 
ATOM     35  C   UNL A   1      34.973  33.082  31.260  1.00  0.00     0.010 A 
ATOM     36  C   UNL A   1      36.519  33.919  29.584  1.00  0.00     0.010 A 
ATOM     37  C   UNL A   1      36.279  33.174  30.748  1.00  0.00    -0.014 A 
BRANCH  37  38
ATOM     38  C   UNL A   1      37.413  32.528  31.449  1.00  0.00     0.031 A 
ATOM     39  C   UNL A   1      38.138  31.390  30.794  1.00  0.00     0.074 A 
ATOM     40  C   UNL A   1      37.765  32.944  32.680  1.00  0.00     0.049 A 
ATOM     41  N   UNL A   1      39.145  30.685  31.240  1.00  0.00    -0.248 NA
ATOM     42  C   UNL A   1      37.659  30.978  29.464  1.00  0.00     0.031 C 
ATOM     43  C   UNL A   1      37.111  34.019  33.428  1.00  0.00     0.029 A 
ATOM     44  N   UNL A   1      38.760  32.509  33.521  1.00  0.00    -0.354 N 
ATOM     45  C   UNL A   1      39.422  29.757  30.248  1.00  0.00     0.074 A 
ATOM     46  C   UNL A   1      38.443  29.943  29.201  1.00  0.00     0.031 C 
ATOM     47  C   UNL A   1      37.736  34.174  34.607  1.00  0.00     0.029 A 
ATOM     48  C   UNL A   1      38.818  33.197  34.707  1.00  0.00     0.049 A 
ATOM     49  H   UNL A   1      39.372  31.773  33.293  1.00  0.00     0.167 HD
ATOM     50  C   UNL A   1      40.426  28.851  30.202  1.00  0.00     0.037 A 
ATOM     51  C   UNL A   1      39.655  33.056  35.753  1.00  0.00     0.037 A 
ATOM     52  C   UNL A   1      41.412  28.684  31.233  1.00  0.00     0.049 A 
ATOM     53  C   UNL A   1      40.737  32.012  35.693  1.00  0.00     0.074 A 
ATOM     54  C   UNL A   1      42.504  27.834  31.252  1.00  0.00     0.029 A 
ATOM     55  N   UNL A   1      41.425  29.384  32.431  1.00  0.00    -0.354 N 
ATOM     56  N   UNL A   1      41.032  31.185  34.720  1.00  0.00    -0.248 NA
ATOM     57  C   UNL A   1      41.603  31.881  36.875  1.00  0.00     0.031 C 
ATOM     58  C   UNL A   1      43.156  27.992  32.478  1.00  0.00     0.029 A 
ATOM     59  C   UNL A   1      42.491  28.966  33.207  1.00  0.00     0.049 A 
ATOM     60  H   UNL A   1      40.773  30.074  32.689  1.00  0.00     0.167 HD
ATOM     61  C   UNL A   1      42.127  30.453  35.159  1.00  0.00     0.074 A 
ATOM     62  C   UNL A   1      42.451  30.938  36.485  1.00  0.00     0.031 C 
ATOM     63  C   UNL A   1      42.801  29.467  34.521  1.00  0.00     0.037 A 
BRANCH  50  64
ATOM     64  C   UNL A   1      40.527  27.987  28.981  1.00  0.00     0.064 A 
ATOM     65  C   UNL A   1      39.802  26.792  28.878  1.00  0.00     0.173 A 
ATOM     66  C   UNL A   1      41.305  28.385  27.885  1.00  0.00     0.173 A 
ATOM     67  F   UNL A   1      39.053  26.365  29.906  1.00  0.00    -0.203 F 
ATOM     68  C   UNL A   1      39.864  26.016  27.724  1.00  0.00     0.198 A 
ATOM     69  C   UNL A   1      41.346  27.619  26.724  1.00  0.00     0.198 A 
ATOM     70  F   UNL A   1      42.015  29.522  27.936  1.00  0.00    -0.203 F 
ATOM     71  F   UNL A   1      39.188  24.861  27.658  1.00  0.00    -0.200 F 
ATOM     72  C   UNL A   1      40.630  26.434  26.645  1.00  0.00     0.200 A 
ATOM     73  F   UNL A   1      42.078  28.028  25.679  1.00  0.00    -0.200 F 
ATOM     74  F   UNL A   1      40.678  25.693  25.530  1.00  0.00    -0.200 F 
ENDBRANCH  50  64
BRANCH  51  75
ATOM     75  C   UNL A   1      39.524  33.950  36.932  1.00  0.00     0.064 A 
ATOM     76  C   UNL A   1      38.787  33.550  38.054  1.00  0.00     0.173 A 
ATOM     77  C   UNL A   1      40.136  35.210  36.967  1.00  0.00     0.173 A 
ATOM     78  F   UNL A   1      38.169  32.359  38.059  1.00  0.00    -0.203 F 
ATOM     79  C   UNL A   1      38.658  34.381  39.164  1.00  0.00     0.198 A 
ATOM     80  C   UNL A   1      40.024  36.033  38.085  1.00  0.00     0.198 A 
ATOM     81  F   UNL A   1      40.855  35.637  35.918  1.00  0.00    -0.203 F 
ATOM     82  F   UNL A   1      37.922  33.986  40.212  1.00  0.00    -0.200 F 
ATOM     83  C   UNL A   1      39.281  35.620  39.182  1.00  0.00     0.200 A 
ATOM     84  F   UNL A   1      40.636  37.224  38.103  1.00  0.00    -0.200 F 
ATOM     85  F   UNL A   1      39.162  36.417  40.251  1.00  0.00    -0.200 F 
ENDBRANCH  51  75
BRANCH  63  86
ATOM     86  C   UNL A   1      43.964  28.844  35.231  1.00  0.00     0.064 A 
ATOM     87  C   UNL A   1      45.258  29.365  35.098  1.00  0.00     0.173 A 
ATOM     88  C   UNL A   1      43.764  27.788  36.132  1.00  0.00     0.173 A 
ATOM     89  F   UNL A   1      45.497  30.366  34.237  1.00  0.00    -0.203 F 
ATOM     90  C   UNL A   1      46.313  28.850  35.844  1.00  0.00     0.198 A 
ATOM     91  C   UNL A   1      44.818  27.291  36.895  1.00  0.00     0.198 A 
ATOM     92  F   UNL A   1      42.541  27.264  36.299  1.00  0.00    -0.203 F 
ATOM     93  F   UNL A   1      47.547  29.352  35.692  1.00  0.00    -0.200 F 
ATOM     94  C   UNL A   1      46.091  27.823  36.750  1.00  0.00     0.200 A 
ATOM     95  F   UNL A   1      44.598  26.309  37.779  1.00  0.00    -0.200 F 
ATOM     96  F   UNL A   1      47.104  27.346  37.486  1.00  0.00    -0.200 F 
ENDBRANCH  63  86
ENDBRANCH  37  38
ENDBRANCH  29  32
ENDBRANCH  27  28
ENDBRANCH  26  27
ENDBRANCH  25  26
ENDBRANCH   1  25
TORSDOF 16
ENDMDL
MODEL 3
REMARK VINA RESULT:     -12.0      6.266     10.386
REMARK SMILES Cn1nc(C(=O)N2C[C@@H](O)C[C@H]2C(=O)NCCCCCCNC(=O)c2ccc(-c3c4nc(c(-c5c(F)c(F)c(F)c(F)c5F)c5ccc([nH]5)c(-c5c(F)c(F)c(F)c(F)c5F)c5nc(c(-c6c(F)c(F)c(F)c(F)c6F)c6ccc3[nH]6)C=C5)C=C4)cc2)ccc1=O
REMARK SMILES IDX 18 1 17 2 16 3 15 4 13 5 14 6 12 8 7 9 8 10 9 11 11 12 5 13
REMARK SMILES IDX 6 14 4 15 1 16 2 17 3 18 90 19 89 20 91 21 88 22 10 23 19 25
REMARK SMILES IDX 20 26 21 27 22 28 23 29 24 31 25 32 26 33 87 34 27 35 86 36
REMARK SMILES IDX 28 37 29 38 30 39 80 40 31 41 85 42 79 43 81 44 32 45 84 46
REMARK SMILES IDX 78 47 77 48 33 50 65 51 45 52 64 53 46 54 49 55 63 56 82 57
REMARK SMILES IDX 47 58 48 59 62 61 83 62 50 63 34 64 35 65 43 66 36 67 37 68
REMARK SMILES IDX 41 69 44 70 38 71 39 72 42 73 40 74 66 75 67 76 75 77 68 78
REMARK SMILES IDX 69 79 73 80 76 81 70 82 71 83 74 84 72 85 51 86 52 87 60 88
REMARK SMILES IDX 53 89 54 90 58 91 61 92 55 93 56 94 59 95 57 96
REMARK H PARENT 15 7 10 24 22 30 81 49 49 60
REMARK Flexibility Score: inf
ROOT
ATOM      1  C   UNL A   1      33.972  30.374  27.383  1.00  0.00     0.002 C 
ENDROOT
BRANCH   1   2
ATOM      2  C   UNL A   1      34.575  28.997  27.078  1.00  0.00     0.021 C 
BRANCH   2   3
ATOM      3  C   UNL A   1      33.852  28.229  25.980  1.00  0.00     0.116 C 
BRANCH   3   4
ATOM      4  N   UNL A   1      34.022  28.837  24.682  1.00  0.00    -0.354 N 
ATOM      5  C   UNL A   1      33.587  28.439  23.455  1.00  0.00     0.242 C 
ATOM      6  O   UNL A   1      33.676  29.266  22.540  1.00  0.00    -0.273 OA
ATOM      7  H   UNL A   1      34.536  29.676  24.685  1.00  0.00     0.163 HD
BRANCH   5   8
ATOM      8  C   UNL A   1      32.833  27.113  23.233  1.00  0.00     0.177 C 
ATOM      9  N   UNL A   1      31.503  27.171  22.619  1.00  0.00    -0.323 N 
ATOM     10  C   UNL A   1      31.408  26.295  21.461  1.00  0.00     0.152 C 
ATOM     11  C   UNL A   1      32.603  25.354  21.579  1.00  0.00     0.136 C 
ATOM     12  C   UNL A   1      33.644  26.149  22.364  1.00  0.00     0.069 C 
BRANCH   9  13
ATOM     13  C   UNL A   1      30.463  27.635  23.414  1.00  0.00     0.275 C 
ATOM     14  O   UNL A   1      29.869  26.932  24.224  1.00  0.00    -0.267 OA
BRANCH  13  15
ATOM     15  C   UNL A   1      29.935  29.047  23.184  1.00  0.00     0.149 A 
ATOM     16  C   UNL A   1      27.969  30.765  20.729  1.00  0.00     0.178 C 
ATOM     17  N   UNL A   1      28.694  30.532  21.964  1.00  0.00    -0.232 N 
ATOM     18  N   UNL A   1      29.219  29.271  22.125  1.00  0.00    -0.165 NA
ATOM     19  C   UNL A   1      28.853  31.565  22.878  1.00  0.00     0.266 A 
ATOM     20  C   UNL A   1      29.647  31.241  24.085  1.00  0.00     0.076 A 
ATOM     21  O   UNL A   1      28.402  32.699  22.748  1.00  0.00    -0.268 OA
ATOM     22  C   UNL A   1      30.199  30.036  24.246  1.00  0.00     0.042 A 
ENDBRANCH  13  15
ENDBRANCH   9  13
BRANCH  11  23
ATOM     23  O   UNL A   1      33.108  24.963  20.312  1.00  0.00    -0.391 OA
ATOM     24  H   UNL A   1      32.943  24.018  20.175  1.00  0.00     0.211 HD
ENDBRANCH  11  23
ENDBRANCH   5   8
ENDBRANCH   3   4
ENDBRANCH   2   3
ENDBRANCH   1   2
BRANCH   1  25
ATOM     25  C   UNL A   1      32.447  30.472  27.247  1.00  0.00     0.002 C 
BRANCH  25  26
ATOM     26  C   UNL A   1      31.893  31.886  27.057  1.00  0.00     0.021 C 
BRANCH  26  27
ATOM     27  C   UNL A   1      32.957  32.968  26.906  1.00  0.00     0.116 C 
BRANCH  27  28
ATOM     28  N   UNL A   1      32.576  34.201  27.574  1.00  0.00    -0.352 N 
ATOM     29  C   UNL A   1      33.061  34.719  28.749  1.00  0.00     0.251 C 
ATOM     30  H   UNL A   1      31.882  34.735  27.125  1.00  0.00     0.163 HD
ATOM     31  O   UNL A   1      32.525  35.683  29.285  1.00  0.00    -0.269 OA
BRANCH  29  32
ATOM     32  C   UNL A   1      34.236  34.085  29.374  1.00  0.00     0.039 A 
ATOM     33  C   UNL A   1      34.040  33.064  30.307  1.00  0.00     0.014 A 
ATOM     34  C   UNL A   1      35.527  34.489  29.016  1.00  0.00     0.014 A 
ATOM     35  C   UNL A   1      35.145  32.409  30.849  1.00  0.00     0.010 A 
ATOM     36  C   UNL A   1      36.627  33.802  29.521  1.00  0.00     0.010 A 
ATOM     37  C   UNL A   1      36.444  32.762  30.445  1.00  0.00    -0.014 A 
BRANCH  37  38
ATOM     38  C   UNL A   1      37.626  32.076  31.016  1.00  0.00     0.031 A 
ATOM     39  C   UNL A   1      38.110  32.450  32.386  1.00  0.00     0.074 A 
ATOM     40  C   UNL A   1      38.276  31.146  30.291  1.00  0.00     0.049 A 
ATOM     41  N   UNL A   1      39.128  31.980  33.059  1.00  0.00    -0.248 NA
ATOM     42  C   UNL A   1      37.361  33.505  33.088  1.00  0.00     0.031 C 
ATOM     43  C   UNL A   1      37.915  30.725  28.938  1.00  0.00     0.029 A 
ATOM     44  N   UNL A   1      39.381  30.388  30.594  1.00  0.00    -0.354 N 
ATOM     45  C   UNL A   1      39.135  32.673  34.261  1.00  0.00     0.074 A 
ATOM     46  C   UNL A   1      38.060  33.639  34.205  1.00  0.00     0.031 C 
ATOM     47  C   UNL A   1      38.769  29.769  28.534  1.00  0.00     0.029 A 
ATOM     48  C   UNL A   1      39.748  29.526  29.591  1.00  0.00     0.049 A 
ATOM     49  H   UNL A   1      39.863  30.457  31.450  1.00  0.00     0.167 HD
ATOM     50  C   UNL A   1      39.946  32.495  35.329  1.00  0.00     0.037 A 
ATOM     51  C   UNL A   1      40.759  28.638  29.536  1.00  0.00     0.037 A 
ATOM     52  C   UNL A   1      40.998  31.519  35.391  1.00  0.00     0.049 A 
ATOM     53  C   UNL A   1      41.674  28.490  30.723  1.00  0.00     0.074 A 
ATOM     54  C   UNL A   1      41.837  31.222  36.450  1.00  0.00     0.029 A 
ATOM     55  N   UNL A   1      41.355  30.679  34.346  1.00  0.00    -0.354 N 
ATOM     56  N   UNL A   1      41.628  29.103  31.880  1.00  0.00    -0.248 NA
ATOM     57  C   UNL A   1      42.778  27.527  30.596  1.00  0.00     0.031 C 
ATOM     58  C   UNL A   1      42.727  30.228  36.034  1.00  0.00     0.029 A 
ATOM     59  C   UNL A   1      42.420  29.881  34.728  1.00  0.00     0.049 A 
ATOM     60  H   UNL A   1      40.917  30.655  33.465  1.00  0.00     0.167 HD
ATOM     61  C   UNL A   1      42.679  28.588  32.627  1.00  0.00     0.074 A 
ATOM     62  C   UNL A   1      43.341  27.604  31.795  1.00  0.00     0.031 C 
ATOM     63  C   UNL A   1      43.060  28.903  33.888  1.00  0.00     0.037 A 
BRANCH  50  64
ATOM     64  C   UNL A   1      39.711  33.357  36.532  1.00  0.00     0.064 A 
ATOM     65  C   UNL A   1      40.361  34.591  36.678  1.00  0.00     0.173 A 
ATOM     66  C   UNL A   1      38.786  32.978  37.514  1.00  0.00     0.173 A 
ATOM     67  F   UNL A   1      41.263  34.991  35.768  1.00  0.00    -0.203 F 
ATOM     68  C   UNL A   1      40.105  35.408  37.774  1.00  0.00     0.198 A 
ATOM     69  C   UNL A   1      38.515  33.808  38.597  1.00  0.00     0.198 A 
ATOM     70  F   UNL A   1      38.137  31.808  37.417  1.00  0.00    -0.203 F 
ATOM     71  F   UNL A   1      40.760  36.570  37.910  1.00  0.00    -0.200 F 
ATOM     72  C   UNL A   1      39.176  35.021  38.729  1.00  0.00     0.200 A 
ATOM     73  F   UNL A   1      37.611  33.438  39.515  1.00  0.00    -0.200 F 
ATOM     74  F   UNL A   1      38.920  35.815  39.777  1.00  0.00    -0.200 F 
ENDBRANCH  50  64
BRANCH  51  75
ATOM     75  C   UNL A   1      40.938  27.794  28.328  1.00  0.00     0.064 A 
ATOM     76  C   UNL A   1      40.304  26.548  28.226  1.00  0.00     0.173 A 
ATOM     77  C   UNL A   1      41.733  28.213  27.252  1.00  0.00     0.173 A 
ATOM     78  F   UNL A   1      39.548  26.097  29.238  1.00  0.00    -0.203 F 
ATOM     79  C   UNL A   1      40.467  25.748  27.097  1.00  0.00     0.198 A 
ATOM     80  C   UNL A   1      41.879  27.422  26.115  1.00  0.00     0.198 A 
ATOM     81  F   UNL A   1      42.358  29.399  27.301  1.00  0.00    -0.203 F 
ATOM     82  F   UNL A   1      39.873  24.548  27.038  1.00  0.00    -0.200 F 
ATOM     83  C   UNL A   1      41.249  26.188  26.040  1.00  0.00     0.200 A 
ATOM     84  F   UNL A   1      42.626  27.854  25.091  1.00  0.00    -0.200 F 
ATOM     85  F   UNL A   1      41.401  25.422  24.951  1.00  0.00    -0.200 F 
ENDBRANCH  51  75
BRANCH  63  86
ATOM     86  C   UNL A   1      44.239  28.179  34.462  1.00  0.00     0.064 A 
ATOM     87  C   UNL A   1      44.090  26.937  35.093  1.00  0.00     0.173 A 
ATOM     88  C   UNL A   1      45.537  28.681  34.284  1.00  0.00     0.173 A 
ATOM     89  F   UNL A   1      42.867  26.425  35.296  1.00  0.00    -0.203 F 
ATOM     90  C   UNL A   1      45.202  26.220  35.526  1.00  0.00     0.198 A 
ATOM     91  C   UNL A   1      46.648  27.950  34.698  1.00  0.00     0.198 A 
ATOM     92  F   UNL A   1      45.727  29.862  33.678  1.00  0.00    -0.203 F 
ATOM     93  F   UNL A   1      45.039  25.041  36.140  1.00  0.00    -0.200 F 
ATOM     94  C   UNL A   1      46.479  26.722  35.317  1.00  0.00     0.200 A 
ATOM     95  F   UNL A   1      47.880  28.430  34.483  1.00  0.00    -0.200 F 
ATOM     96  F   UNL A   1      47.548  26.017  35.712  1.00  0.00    -0.200 F 
ENDBRANCH  63  86
ENDBRANCH  37  38
ENDBRANCH  29  32
ENDBRANCH  27  28
ENDBRANCH  26  27
ENDBRANCH  25  26
ENDBRANCH   1  25
TORSDOF 16
ENDMDL
