MODEL 1
REMARK VINA RESULT:     -12.5      0.000      0.000
REMARK SMILES CC[C@@H]1C=CCN1S(=O)(=O)c1sc2c(c1C(=O)NCCCCCCNC(=O)c1ccc(-c3c4nc(c(-c5c(F)c(F)c(F)c(F)c5F)c5ccc([nH]5)c(-c5c(F)c(F)c(F)c(F)c5F)c5nc(c(-c6c(F)c(F)c(F)c(F)c6F)c6ccc3[nH]6)C=C5)C=C4)cc1)CC[NH2+]C2
REMARK SMILES IDX 21 1 20 2 19 3 18 4 16 5 17 6 15 8 11 9 12 10 13 11 14 12
REMARK SMILES IDX 94 13 91 14 93 15 92 16 8 19 9 20 10 21 7 22 3 23 4 24 5 25
REMARK SMILES IDX 6 26 2 27 1 28 22 29 23 30 24 31 25 32 26 33 27 35 28 36
REMARK SMILES IDX 29 37 90 38 30 39 89 40 31 41 32 42 33 43 83 44 34 45 88 46
REMARK SMILES IDX 82 47 84 48 35 49 87 50 81 51 80 52 36 54 68 55 48 56 67 57
REMARK SMILES IDX 49 58 52 59 66 60 85 61 50 62 51 63 65 65 86 66 53 67 37 68
REMARK SMILES IDX 38 69 46 70 39 71 40 72 44 73 47 74 41 75 42 76 45 77 43 78
REMARK SMILES IDX 69 79 70 80 78 81 71 82 72 83 76 84 79 85 73 86 74 87 77 88
REMARK SMILES IDX 75 89 54 90 55 91 63 92 56 93 57 94 61 95 64 96 58 97 59 98
REMARK SMILES IDX 62 99 60 100
REMARK H PARENT 18 7 93 17 93 18 25 34 84 53 52 64
REMARK Flexibility Score: inf
ROOT
ATOM      1  C   UNL A   1      39.162  22.017  26.143  1.00  0.00     0.002 C 
ENDROOT
BRANCH   1   2
ATOM      2  C   UNL A   1      38.202  21.132  25.360  1.00  0.00     0.021 C 
BRANCH   2   3
ATOM      3  C   UNL A   1      36.802  21.644  25.098  1.00  0.00     0.116 C 
BRANCH   3   4
ATOM      4  N   UNL A   1      35.903  21.682  26.195  1.00  0.00    -0.352 N 
ATOM      5  C   UNL A   1      34.574  21.361  26.246  1.00  0.00     0.253 C 
ATOM      6  O   UNL A   1      34.155  21.323  27.409  1.00  0.00    -0.269 OA
ATOM      7  H   UNL A   1      36.293  21.984  27.047  1.00  0.00     0.163 HD
BRANCH   5   8
ATOM      8  C   UNL A   1      33.631  21.160  25.099  1.00  0.00     0.074 A 
ATOM      9  C   UNL A   1      32.732  21.996  24.378  1.00  0.00     0.148 A 
ATOM     10  S   UNL A   1      31.943  21.098  23.108  1.00  0.00    -0.120 S 
ATOM     11  C   UNL A   1      32.683  19.655  23.477  1.00  0.00     0.064 A 
ATOM     12  C   UNL A   1      33.600  19.788  24.491  1.00  0.00    -0.009 A 
ATOM     13  C   UNL A   1      32.391  18.407  22.697  1.00  0.00     0.308 C 
ATOM     14  C   UNL A   1      34.410  18.560  24.878  1.00  0.00     0.099 C 
ATOM     15  N   UNL A   1      32.876  17.211  23.402  1.00  0.00    -0.342 N 
ATOM     16  C   UNL A   1      34.266  17.420  23.839  1.00  0.00     0.265 C 
ATOM     17  H   UNL A   1      32.287  17.037  24.216  1.00  0.00     0.346 HD
ATOM     18  H   UNL A   1      32.836  16.410  22.772  1.00  0.00     0.346 HD
BRANCH   9  19
ATOM     19  S   UNL A   1      32.125  23.748  24.251  1.00  0.00     0.254 S 
ATOM     20  O   UNL A   1      31.534  24.075  25.528  1.00  0.00    -0.206 OA
ATOM     21  O   UNL A   1      31.277  23.818  23.076  1.00  0.00    -0.206 OA
BRANCH  19  22
ATOM     22  N   UNL A   1      33.484  24.829  24.013  1.00  0.00    -0.186 NA
ATOM     23  C   UNL A   1      33.067  26.255  23.699  1.00  0.00     0.096 C 
ATOM     24  C   UNL A   1      33.374  26.995  24.967  1.00  0.00    -0.010 C 
ATOM     25  C   UNL A   1      34.143  26.271  25.777  1.00  0.00    -0.013 C 
ATOM     26  C   UNL A   1      34.370  24.909  25.231  1.00  0.00     0.130 C 
BRANCH  23  27
ATOM     27  C   UNL A   1      33.881  26.948  22.577  1.00  0.00     0.021 C 
ATOM     28  C   UNL A   1      33.701  28.437  22.352  1.00  0.00     0.006 C 
ENDBRANCH  23  27
ENDBRANCH  19  22
ENDBRANCH   9  19
ENDBRANCH   5   8
ENDBRANCH   3   4
ENDBRANCH   2   3
ENDBRANCH   1   2
BRANCH   1  29
ATOM     29  C   UNL A   1      40.325  21.321  26.868  1.00  0.00     0.002 C 
BRANCH  29  30
ATOM     30  C   UNL A   1      40.977  20.096  26.206  1.00  0.00     0.021 C 
BRANCH  30  31
ATOM     31  C   UNL A   1      42.305  19.658  26.801  1.00  0.00     0.116 C 
BRANCH  31  32
ATOM     32  N   UNL A   1      43.375  19.533  25.811  1.00  0.00    -0.352 N 
ATOM     33  C   UNL A   1      43.996  20.531  25.084  1.00  0.00     0.251 C 
ATOM     34  H   UNL A   1      43.694  18.618  25.640  1.00  0.00     0.163 HD
ATOM     35  O   UNL A   1      44.614  20.272  24.058  1.00  0.00    -0.269 OA
BRANCH  33  36
ATOM     36  C   UNL A   1      43.912  21.923  25.561  1.00  0.00     0.039 A 
ATOM     37  C   UNL A   1      43.054  22.854  24.965  1.00  0.00     0.014 A 
ATOM     38  C   UNL A   1      44.714  22.292  26.635  1.00  0.00     0.014 A 
ATOM     39  C   UNL A   1      42.957  24.130  25.516  1.00  0.00     0.010 A 
ATOM     40  C   UNL A   1      44.492  23.478  27.279  1.00  0.00     0.010 A 
ATOM     41  C   UNL A   1      43.668  24.428  26.691  1.00  0.00    -0.014 A 
BRANCH  41  42
ATOM     42  C   UNL A   1      43.484  25.691  27.393  1.00  0.00     0.031 A 
ATOM     43  C   UNL A   1      44.445  26.756  26.997  1.00  0.00     0.074 A 
ATOM     44  C   UNL A   1      42.391  25.957  28.144  1.00  0.00     0.049 A 
ATOM     45  N   UNL A   1      45.340  27.323  27.735  1.00  0.00    -0.248 NA
ATOM     46  C   UNL A   1      44.510  27.148  25.579  1.00  0.00     0.031 C 
ATOM     47  C   UNL A   1      41.202  25.121  28.350  1.00  0.00     0.029 A 
ATOM     48  N   UNL A   1      42.060  27.099  28.803  1.00  0.00    -0.354 N 
ATOM     49  C   UNL A   1      45.951  28.283  26.933  1.00  0.00     0.074 A 
ATOM     50  C   UNL A   1      45.535  28.003  25.584  1.00  0.00     0.031 C 
ATOM     51  C   UNL A   1      40.202  25.871  28.866  1.00  0.00     0.029 A 
ATOM     52  C   UNL A   1      40.725  27.185  29.185  1.00  0.00     0.049 A 
ATOM     53  H   UNL A   1      42.714  27.811  28.994  1.00  0.00     0.167 HD
ATOM     54  C   UNL A   1      46.543  29.377  27.489  1.00  0.00     0.037 A 
ATOM     55  C   UNL A   1      40.097  28.274  29.695  1.00  0.00     0.037 A 
ATOM     56  C   UNL A   1      46.790  29.163  28.896  1.00  0.00     0.049 A 
ATOM     57  C   UNL A   1      41.150  29.192  30.196  1.00  0.00     0.074 A 
ATOM     58  C   UNL A   1      47.502  28.227  29.624  1.00  0.00     0.029 A 
ATOM     59  N   UNL A   1      45.940  29.755  29.798  1.00  0.00    -0.354 N 
ATOM     60  N   UNL A   1      41.904  28.935  31.228  1.00  0.00    -0.248 NA
ATOM     61  C   UNL A   1      41.681  30.173  29.262  1.00  0.00     0.031 C 
ATOM     62  C   UNL A   1      46.690  27.955  30.766  1.00  0.00     0.029 A 
ATOM     63  C   UNL A   1      45.581  28.798  30.712  1.00  0.00     0.049 A 
ATOM     64  H   UNL A   1      45.642  30.694  29.790  1.00  0.00     0.167 HD
ATOM     65  C   UNL A   1      43.168  29.359  30.850  1.00  0.00     0.074 A 
ATOM     66  C   UNL A   1      42.955  30.186  29.663  1.00  0.00     0.031 C 
ATOM     67  C   UNL A   1      44.288  28.759  31.349  1.00  0.00     0.037 A 
BRANCH  54  68
ATOM     68  C   UNL A   1      46.528  30.764  26.885  1.00  0.00     0.064 A 
ATOM     69  C   UNL A   1      47.723  31.516  26.887  1.00  0.00     0.173 A 
ATOM     70  C   UNL A   1      45.356  31.500  26.605  1.00  0.00     0.173 A 
ATOM     71  F   UNL A   1      48.901  30.927  27.140  1.00  0.00    -0.203 F 
ATOM     72  C   UNL A   1      47.726  32.906  26.740  1.00  0.00     0.198 A 
ATOM     73  C   UNL A   1      45.369  32.880  26.405  1.00  0.00     0.198 A 
ATOM     74  F   UNL A   1      44.138  30.949  26.625  1.00  0.00    -0.203 F 
ATOM     75  F   UNL A   1      48.866  33.588  26.900  1.00  0.00    -0.200 F 
ATOM     76  C   UNL A   1      46.546  33.588  26.511  1.00  0.00     0.200 A 
ATOM     77  F   UNL A   1      44.211  33.524  26.197  1.00  0.00    -0.200 F 
ATOM     78  F   UNL A   1      46.533  34.925  26.443  1.00  0.00    -0.200 F 
ENDBRANCH  54  68
BRANCH  55  79
ATOM     79  C   UNL A   1      38.693  28.721  29.515  1.00  0.00     0.064 A 
ATOM     80  C   UNL A   1      37.879  29.001  30.626  1.00  0.00     0.173 A 
ATOM     81  C   UNL A   1      38.220  29.171  28.267  1.00  0.00     0.173 A 
ATOM     82  F   UNL A   1      38.271  28.641  31.857  1.00  0.00    -0.203 F 
ATOM     83  C   UNL A   1      36.688  29.726  30.503  1.00  0.00     0.198 A 
ATOM     84  C   UNL A   1      37.028  29.889  28.144  1.00  0.00     0.198 A 
ATOM     85  F   UNL A   1      38.953  29.014  27.155  1.00  0.00    -0.203 F 
ATOM     86  F   UNL A   1      35.979  30.039  31.597  1.00  0.00    -0.200 F 
ATOM     87  C   UNL A   1      36.272  30.181  29.264  1.00  0.00     0.200 A 
ATOM     88  F   UNL A   1      36.655  30.356  26.945  1.00  0.00    -0.200 F 
ATOM     89  F   UNL A   1      35.172  30.940  29.154  1.00  0.00    -0.200 F 
ENDBRANCH  55  79
BRANCH  67  90
ATOM     90  C   UNL A   1      44.126  27.820  32.514  1.00  0.00     0.064 A 
ATOM     91  C   UNL A   1      44.043  26.420  32.404  1.00  0.00     0.173 A 
ATOM     92  C   UNL A   1      44.186  28.359  33.805  1.00  0.00     0.173 A 
ATOM     93  F   UNL A   1      44.087  25.815  31.211  1.00  0.00    -0.203 F 
ATOM     94  C   UNL A   1      43.966  25.609  33.535  1.00  0.00     0.198 A 
ATOM     95  C   UNL A   1      44.151  27.545  34.933  1.00  0.00     0.198 A 
ATOM     96  F   UNL A   1      44.322  29.684  33.975  1.00  0.00    -0.203 F 
ATOM     97  F   UNL A   1      43.864  24.277  33.403  1.00  0.00    -0.200 F 
ATOM     98  C   UNL A   1      44.026  26.171  34.799  1.00  0.00     0.200 A 
ATOM     99  F   UNL A   1      44.260  28.091  36.152  1.00  0.00    -0.200 F 
ATOM    100  F   UNL A   1      43.988  25.390  35.887  1.00  0.00    -0.200 F 
ENDBRANCH  67  90
ENDBRANCH  41  42
ENDBRANCH  33  36
ENDBRANCH  31  32
ENDBRANCH  30  31
ENDBRANCH  29  30
ENDBRANCH   1  29
TORSDOF 16
ENDMDL
MODEL 2
REMARK VINA RESULT:     -12.2      3.317      8.621
REMARK SMILES CC[C@@H]1C=CCN1S(=O)(=O)c1sc2c(c1C(=O)NCCCCCCNC(=O)c1ccc(-c3c4nc(c(-c5c(F)c(F)c(F)c(F)c5F)c5ccc([nH]5)c(-c5c(F)c(F)c(F)c(F)c5F)c5nc(c(-c6c(F)c(F)c(F)c(F)c6F)c6ccc3[nH]6)C=C5)C=C4)cc1)CC[NH2+]C2
REMARK SMILES IDX 21 1 20 2 19 3 18 4 16 5 17 6 15 8 11 9 12 10 13 11 14 12
REMARK SMILES IDX 94 13 91 14 93 15 92 16 8 19 9 20 10 21 7 22 3 23 4 24 5 25
REMARK SMILES IDX 6 26 2 27 1 28 22 29 23 30 24 31 25 32 26 33 27 35 28 36
REMARK SMILES IDX 29 37 90 38 30 39 89 40 31 41 32 42 33 43 83 44 34 45 88 46
REMARK SMILES IDX 82 47 84 48 35 49 87 50 81 51 80 52 36 54 68 55 48 56 67 57
REMARK SMILES IDX 49 58 52 59 66 60 85 61 50 62 51 63 65 65 86 66 53 67 37 68
REMARK SMILES IDX 38 69 46 70 39 71 40 72 44 73 47 74 41 75 42 76 45 77 43 78
REMARK SMILES IDX 69 79 70 80 78 81 71 82 72 83 76 84 79 85 73 86 74 87 77 88
REMARK SMILES IDX 75 89 54 90 55 91 63 92 56 93 57 94 61 95 64 96 58 97 59 98
REMARK SMILES IDX 62 99 60 100
REMARK H PARENT 18 7 93 17 93 18 25 34 84 53 52 64
REMARK Flexibility Score: inf
ROOT
ATOM      1  C   UNL A   1      33.927  29.081  26.533  1.00  0.00     0.002 C 
ENDROOT
BRANCH   1   2
ATOM      2  C   UNL A   1      33.005  28.162  27.321  1.00  0.00     0.021 C 
BRANCH   2   3
ATOM      3  C   UNL A   1      31.523  28.195  27.015  1.00  0.00     0.116 C 
BRANCH   3   4
ATOM      4  N   UNL A   1      30.844  26.952  26.930  1.00  0.00    -0.352 N 
ATOM      5  C   UNL A   1      31.135  25.847  26.178  1.00  0.00     0.253 C 
ATOM      6  O   UNL A   1      30.442  24.875  26.503  1.00  0.00    -0.269 OA
ATOM      7  H   UNL A   1      30.042  26.873  27.496  1.00  0.00     0.163 HD
BRANCH   5   8
ATOM      8  C   UNL A   1      32.082  25.744  25.021  1.00  0.00     0.074 A 
ATOM      9  C   UNL A   1      32.238  26.434  23.786  1.00  0.00     0.148 A 
ATOM     10  S   UNL A   1      33.602  25.804  22.899  1.00  0.00    -0.120 S 
ATOM     11  C   UNL A   1      33.977  24.642  24.028  1.00  0.00     0.064 A 
ATOM     12  C   UNL A   1      33.173  24.720  25.139  1.00  0.00    -0.009 A 
ATOM     13  C   UNL A   1      35.128  23.701  23.824  1.00  0.00     0.308 C 
ATOM     14  C   UNL A   1      33.459  23.765  26.287  1.00  0.00     0.099 C 
ATOM     15  N   UNL A   1      35.057  22.564  24.754  1.00  0.00    -0.342 N 
ATOM     16  C   UNL A   1      34.824  23.053  26.123  1.00  0.00     0.265 C 
ATOM     17  H   UNL A   1      34.291  21.948  24.478  1.00  0.00     0.346 HD
ATOM     18  H   UNL A   1      35.937  22.049  24.724  1.00  0.00     0.346 HD
BRANCH   9  19
ATOM     19  S   UNL A   1      31.544  27.833  22.778  1.00  0.00     0.254 S 
ATOM     20  O   UNL A   1      31.026  27.250  21.562  1.00  0.00    -0.206 OA
ATOM     21  O   UNL A   1      32.594  28.828  22.657  1.00  0.00    -0.206 OA
BRANCH  19  22
ATOM     22  N   UNL A   1      30.193  28.559  23.626  1.00  0.00    -0.186 NA
ATOM     23  C   UNL A   1      29.648  29.797  22.934  1.00  0.00     0.096 C 
ATOM     24  C   UNL A   1      28.350  29.325  22.349  1.00  0.00    -0.010 C 
ATOM     25  C   UNL A   1      27.986  28.151  22.859  1.00  0.00    -0.013 C 
ATOM     26  C   UNL A   1      29.030  27.610  23.766  1.00  0.00     0.130 C 
BRANCH  23  27
ATOM     27  C   UNL A   1      29.303  30.980  23.875  1.00  0.00     0.021 C 
ATOM     28  C   UNL A   1      27.911  31.580  23.821  1.00  0.00     0.006 C 
ENDBRANCH  23  27
ENDBRANCH  19  22
ENDBRANCH   9  19
ENDBRANCH   5   8
ENDBRANCH   3   4
ENDBRANCH   2   3
ENDBRANCH   1   2
BRANCH   1  29
ATOM     29  C   UNL A   1      34.593  30.234  27.301  1.00  0.00     0.002 C 
BRANCH  29  30
ATOM     30  C   UNL A   1      33.729  31.436  27.718  1.00  0.00     0.021 C 
BRANCH  30  31
ATOM     31  C   UNL A   1      34.493  32.654  28.209  1.00  0.00     0.116 C 
BRANCH  31  32
ATOM     32  N   UNL A   1      34.349  32.894  29.644  1.00  0.00    -0.352 N 
ATOM     33  C   UNL A   1      35.045  32.314  30.688  1.00  0.00     0.251 C 
ATOM     34  H   UNL A   1      33.666  33.555  29.901  1.00  0.00     0.163 HD
ATOM     35  O   UNL A   1      34.601  32.335  31.831  1.00  0.00    -0.269 OA
BRANCH  33  36
ATOM     36  C   UNL A   1      36.339  31.666  30.414  1.00  0.00     0.039 A 
ATOM     37  C   UNL A   1      37.502  32.411  30.191  1.00  0.00     0.014 A 
ATOM     38  C   UNL A   1      36.378  30.277  30.385  1.00  0.00     0.014 A 
ATOM     39  C   UNL A   1      38.711  31.739  30.022  1.00  0.00     0.010 A 
ATOM     40  C   UNL A   1      37.581  29.625  30.395  1.00  0.00     0.010 A 
ATOM     41  C   UNL A   1      38.744  30.341  30.146  1.00  0.00    -0.014 A 
BRANCH  41  42
ATOM     42  C   UNL A   1      40.001  29.604  30.132  1.00  0.00     0.031 A 
ATOM     43  C   UNL A   1      40.595  29.385  31.479  1.00  0.00     0.074 A 
ATOM     44  C   UNL A   1      40.457  28.958  29.035  1.00  0.00     0.049 A 
ATOM     45  N   UNL A   1      41.717  29.839  31.928  1.00  0.00    -0.248 NA
ATOM     46  C   UNL A   1      39.789  28.687  32.495  1.00  0.00     0.031 C 
ATOM     47  C   UNL A   1      39.805  28.809  27.728  1.00  0.00     0.029 A 
ATOM     48  N   UNL A   1      41.571  28.191  28.893  1.00  0.00    -0.354 N 
ATOM     49  C   UNL A   1      41.857  29.324  33.214  1.00  0.00     0.074 A 
ATOM     50  C   UNL A   1      40.571  28.786  33.572  1.00  0.00     0.031 C 
ATOM     51  C   UNL A   1      40.405  27.818  27.030  1.00  0.00     0.029 A 
ATOM     52  C   UNL A   1      41.580  27.383  27.759  1.00  0.00     0.049 A 
ATOM     53  H   UNL A   1      42.313  28.206  29.541  1.00  0.00     0.167 HD
ATOM     54  C   UNL A   1      43.091  29.163  33.766  1.00  0.00     0.037 A 
ATOM     55  C   UNL A   1      42.477  26.407  27.468  1.00  0.00     0.037 A 
ATOM     56  C   UNL A   1      44.076  29.942  33.052  1.00  0.00     0.049 A 
ATOM     57  C   UNL A   1      43.676  26.649  28.309  1.00  0.00     0.074 A 
ATOM     58  C   UNL A   1      44.222  31.285  32.760  1.00  0.00     0.029 A 
ATOM     59  N   UNL A   1      44.906  29.286  32.175  1.00  0.00    -0.354 N 
ATOM     60  N   UNL A   1      44.478  27.665  28.151  1.00  0.00    -0.248 NA
ATOM     61  C   UNL A   1      43.709  26.023  29.622  1.00  0.00     0.031 C 
ATOM     62  C   UNL A   1      44.711  31.318  31.419  1.00  0.00     0.029 A 
ATOM     63  C   UNL A   1      44.915  30.002  31.006  1.00  0.00     0.049 A 
ATOM     64  H   UNL A   1      45.402  28.454  32.353  1.00  0.00     0.167 HD
ATOM     65  C   UNL A   1      44.767  28.083  29.440  1.00  0.00     0.074 A 
ATOM     66  C   UNL A   1      44.332  26.987  30.305  1.00  0.00     0.031 C 
ATOM     67  C   UNL A   1      45.049  29.392  29.707  1.00  0.00     0.037 A 
BRANCH  54  68
ATOM     68  C   UNL A   1      43.487  28.014  34.670  1.00  0.00     0.064 A 
ATOM     69  C   UNL A   1      43.191  26.697  34.258  1.00  0.00     0.173 A 
ATOM     70  C   UNL A   1      43.838  28.154  36.030  1.00  0.00     0.173 A 
ATOM     71  F   UNL A   1      42.843  26.439  32.988  1.00  0.00    -0.203 F 
ATOM     72  C   UNL A   1      43.135  25.632  35.161  1.00  0.00     0.198 A 
ATOM     73  C   UNL A   1      43.834  27.078  36.918  1.00  0.00     0.198 A 
ATOM     74  F   UNL A   1      44.087  29.341  36.591  1.00  0.00    -0.203 F 
ATOM     75  F   UNL A   1      42.703  24.433  34.749  1.00  0.00    -0.200 F 
ATOM     76  C   UNL A   1      43.446  25.827  36.494  1.00  0.00     0.200 A 
ATOM     77  F   UNL A   1      44.126  27.293  38.209  1.00  0.00    -0.200 F 
ATOM     78  F   UNL A   1      43.323  24.827  37.376  1.00  0.00    -0.200 F 
ENDBRANCH  54  68
BRANCH  55  79
ATOM     79  C   UNL A   1      42.269  25.122  26.755  1.00  0.00     0.064 A 
ATOM     80  C   UNL A   1      43.075  24.770  25.658  1.00  0.00     0.173 A 
ATOM     81  C   UNL A   1      41.491  24.090  27.313  1.00  0.00     0.173 A 
ATOM     82  F   UNL A   1      43.877  25.682  25.089  1.00  0.00    -0.203 F 
ATOM     83  C   UNL A   1      43.134  23.456  25.180  1.00  0.00     0.198 A 
ATOM     84  C   UNL A   1      41.545  22.780  26.830  1.00  0.00     0.198 A 
ATOM     85  F   UNL A   1      40.740  24.306  28.403  1.00  0.00    -0.203 F 
ATOM     86  F   UNL A   1      43.973  23.145  24.182  1.00  0.00    -0.200 F 
ATOM     87  C   UNL A   1      42.379  22.460  25.775  1.00  0.00     0.200 A 
ATOM     88  F   UNL A   1      40.838  21.819  27.439  1.00  0.00    -0.200 F 
ATOM     89  F   UNL A   1      42.490  21.188  25.368  1.00  0.00    -0.200 F 
ENDBRANCH  55  79
BRANCH  67  90
ATOM     90  C   UNL A   1      45.306  30.310  28.542  1.00  0.00     0.064 A 
ATOM     91  C   UNL A   1      44.307  31.021  27.853  1.00  0.00     0.173 A 
ATOM     92  C   UNL A   1      46.637  30.574  28.195  1.00  0.00     0.173 A 
ATOM     93  F   UNL A   1      43.017  30.910  28.191  1.00  0.00    -0.203 F 
ATOM     94  C   UNL A   1      44.629  31.911  26.828  1.00  0.00     0.198 A 
ATOM     95  C   UNL A   1      46.958  31.492  27.200  1.00  0.00     0.198 A 
ATOM     96  F   UNL A   1      47.636  29.968  28.855  1.00  0.00    -0.203 F 
ATOM     97  F   UNL A   1      43.656  32.560  26.170  1.00  0.00    -0.200 F 
ATOM     98  C   UNL A   1      45.954  32.150  26.506  1.00  0.00     0.200 A 
ATOM     99  F   UNL A   1      48.243  31.757  26.929  1.00  0.00    -0.200 F 
ATOM    100  F   UNL A   1      46.267  33.030  25.546  1.00  0.00    -0.200 F 
ENDBRANCH  67  90
ENDBRANCH  41  42
ENDBRANCH  33  36
ENDBRANCH  31  32
ENDBRANCH  30  31
ENDBRANCH  29  30
ENDBRANCH   1  29
TORSDOF 16
ENDMDL
MODEL 3
REMARK VINA RESULT:     -12.1      3.161      8.858
REMARK SMILES CC[C@@H]1C=CCN1S(=O)(=O)c1sc2c(c1C(=O)NCCCCCCNC(=O)c1ccc(-c3c4nc(c(-c5c(F)c(F)c(F)c(F)c5F)c5ccc([nH]5)c(-c5c(F)c(F)c(F)c(F)c5F)c5nc(c(-c6c(F)c(F)c(F)c(F)c6F)c6ccc3[nH]6)C=C5)C=C4)cc1)CC[NH2+]C2
REMARK SMILES IDX 21 1 20 2 19 3 18 4 16 5 17 6 15 8 11 9 12 10 13 11 14 12
REMARK SMILES IDX 94 13 91 14 93 15 92 16 8 19 9 20 10 21 7 22 3 23 4 24 5 25
REMARK SMILES IDX 6 26 2 27 1 28 22 29 23 30 24 31 25 32 26 33 27 35 28 36
REMARK SMILES IDX 29 37 90 38 30 39 89 40 31 41 32 42 33 43 83 44 34 45 88 46
REMARK SMILES IDX 82 47 84 48 35 49 87 50 81 51 80 52 36 54 68 55 48 56 67 57
REMARK SMILES IDX 49 58 52 59 66 60 85 61 50 62 51 63 65 65 86 66 53 67 37 68
REMARK SMILES IDX 38 69 46 70 39 71 40 72 44 73 47 74 41 75 42 76 45 77 43 78
REMARK SMILES IDX 69 79 70 80 78 81 71 82 72 83 76 84 79 85 73 86 74 87 77 88
REMARK SMILES IDX 75 89 54 90 55 91 63 92 56 93 57 94 61 95 64 96 58 97 59 98
REMARK SMILES IDX 62 99 60 100
REMARK H PARENT 18 7 93 17 93 18 25 34 84 53 52 64
REMARK Flexibility Score: inf
ROOT
ATOM      1  C   UNL A   1      35.176  30.874  27.604  1.00  0.00     0.002 C 
ENDROOT
BRANCH   1   2
ATOM      2  C   UNL A   1      35.330  29.363  27.517  1.00  0.00     0.021 C 
BRANCH   2   3
ATOM      3  C   UNL A   1      34.231  28.564  26.851  1.00  0.00     0.116 C 
BRANCH   3   4
ATOM      4  N   UNL A   1      32.980  28.490  27.516  1.00  0.00    -0.352 N 
ATOM      5  C   UNL A   1      31.863  27.768  27.198  1.00  0.00     0.253 C 
ATOM      6  O   UNL A   1      31.026  27.791  28.109  1.00  0.00    -0.269 OA
ATOM      7  H   UNL A   1      32.904  29.041  28.329  1.00  0.00     0.163 HD
BRANCH   5   8
ATOM      8  C   UNL A   1      31.548  27.081  25.904  1.00  0.00     0.074 A 
ATOM      9  C   UNL A   1      31.461  25.725  25.481  1.00  0.00     0.148 A 
ATOM     10  S   UNL A   1      31.009  25.633  23.798  1.00  0.00    -0.120 S 
ATOM     11  C   UNL A   1      30.962  27.282  23.578  1.00  0.00     0.064 A 
ATOM     12  C   UNL A   1      31.193  27.967  24.745  1.00  0.00    -0.009 A 
ATOM     13  C   UNL A   1      30.620  27.879  22.245  1.00  0.00     0.308 C 
ATOM     14  C   UNL A   1      31.100  29.484  24.705  1.00  0.00     0.099 C 
ATOM     15  N   UNL A   1      30.975  29.306  22.194  1.00  0.00    -0.342 N 
ATOM     16  C   UNL A   1      30.457  29.991  23.390  1.00  0.00     0.265 C 
ATOM     17  H   UNL A   1      31.990  29.401  22.161  1.00  0.00     0.346 HD
ATOM     18  H   UNL A   1      30.564  29.725  21.360  1.00  0.00     0.346 HD
BRANCH   9  19
ATOM     19  S   UNL A   1      31.595  23.975  26.095  1.00  0.00     0.254 S 
ATOM     20  O   UNL A   1      30.518  23.237  25.477  1.00  0.00    -0.206 OA
ATOM     21  O   UNL A   1      31.629  24.037  27.544  1.00  0.00    -0.206 OA
BRANCH  19  22
ATOM     22  N   UNL A   1      33.099  23.267  25.539  1.00  0.00    -0.186 NA
ATOM     23  C   UNL A   1      34.233  23.410  26.539  1.00  0.00     0.096 C 
ATOM     24  C   UNL A   1      34.391  22.024  27.087  1.00  0.00    -0.010 C 
ATOM     25  C   UNL A   1      33.743  21.130  26.343  1.00  0.00    -0.013 C 
ATOM     26  C   UNL A   1      32.967  21.791  25.262  1.00  0.00     0.130 C 
BRANCH  23  27
ATOM     27  C   UNL A   1      35.604  23.802  25.930  1.00  0.00     0.021 C 
ATOM     28  C   UNL A   1      35.747  23.860  24.421  1.00  0.00     0.006 C 
ENDBRANCH  23  27
ENDBRANCH  19  22
ENDBRANCH   9  19
ENDBRANCH   5   8
ENDBRANCH   3   4
ENDBRANCH   2   3
ENDBRANCH   1   2
BRANCH   1  29
ATOM     29  C   UNL A   1      33.759  31.446  27.441  1.00  0.00     0.002 C 
BRANCH  29  30
ATOM     30  C   UNL A   1      33.484  32.878  27.929  1.00  0.00     0.021 C 
BRANCH  30  31
ATOM     31  C   UNL A   1      34.581  33.504  28.775  1.00  0.00     0.116 C 
BRANCH  31  32
ATOM     32  N   UNL A   1      34.326  33.424  30.213  1.00  0.00    -0.352 N 
ATOM     33  C   UNL A   1      34.912  32.590  31.146  1.00  0.00     0.251 C 
ATOM     34  H   UNL A   1      33.647  34.045  30.563  1.00  0.00     0.163 HD
ATOM     35  O   UNL A   1      34.376  32.378  32.228  1.00  0.00    -0.269 OA
BRANCH  33  36
ATOM     36  C   UNL A   1      36.203  31.954  30.828  1.00  0.00     0.039 A 
ATOM     37  C   UNL A   1      37.345  32.710  30.544  1.00  0.00     0.014 A 
ATOM     38  C   UNL A   1      36.259  30.565  30.820  1.00  0.00     0.014 A 
ATOM     39  C   UNL A   1      38.555  32.051  30.334  1.00  0.00     0.010 A 
ATOM     40  C   UNL A   1      37.470  29.929  30.790  1.00  0.00     0.010 A 
ATOM     41  C   UNL A   1      38.612  30.655  30.480  1.00  0.00    -0.014 A 
BRANCH  41  42
ATOM     42  C   UNL A   1      39.877  29.934  30.425  1.00  0.00     0.031 A 
ATOM     43  C   UNL A   1      40.505  29.702  31.754  1.00  0.00     0.074 A 
ATOM     44  C   UNL A   1      40.315  29.312  29.308  1.00  0.00     0.049 A 
ATOM     45  N   UNL A   1      41.632  30.163  32.184  1.00  0.00    -0.248 NA
ATOM     46  C   UNL A   1      39.732  28.978  32.777  1.00  0.00     0.031 C 
ATOM     47  C   UNL A   1      39.634  29.175  28.014  1.00  0.00     0.029 A 
ATOM     48  N   UNL A   1      41.434  28.561  29.126  1.00  0.00    -0.354 N 
ATOM     49  C   UNL A   1      41.808  29.629  33.458  1.00  0.00     0.074 A 
ATOM     50  C   UNL A   1      40.538  29.070  33.837  1.00  0.00     0.031 C 
ATOM     51  C   UNL A   1      40.229  28.203  27.286  1.00  0.00     0.029 A 
ATOM     52  C   UNL A   1      41.426  27.771  27.981  1.00  0.00     0.049 A 
ATOM     53  H   UNL A   1      42.191  28.574  29.757  1.00  0.00     0.167 HD
ATOM     54  C   UNL A   1      43.057  29.474  33.978  1.00  0.00     0.037 A 
ATOM     55  C   UNL A   1      42.327  26.811  27.653  1.00  0.00     0.037 A 
ATOM     56  C   UNL A   1      44.015  30.277  33.253  1.00  0.00     0.049 A 
ATOM     57  C   UNL A   1      43.543  27.054  28.469  1.00  0.00     0.074 A 
ATOM     58  C   UNL A   1      44.138  31.626  32.979  1.00  0.00     0.029 A 
ATOM     59  N   UNL A   1      44.832  29.645  32.347  1.00  0.00    -0.354 N 
ATOM     60  N   UNL A   1      44.329  28.082  28.309  1.00  0.00    -0.248 NA
ATOM     61  C   UNL A   1      43.614  26.408  29.771  1.00  0.00     0.031 C 
ATOM     62  C   UNL A   1      44.595  31.686  31.628  1.00  0.00     0.029 A 
ATOM     63  C   UNL A   1      44.804  30.379  31.190  1.00  0.00     0.049 A 
ATOM     64  H   UNL A   1      45.342  28.817  32.500  1.00  0.00     0.167 HD
ATOM     65  C   UNL A   1      44.643  28.484  29.597  1.00  0.00     0.074 A 
ATOM     66  C   UNL A   1      44.242  27.369  30.454  1.00  0.00     0.031 C 
ATOM     67  C   UNL A   1      44.916  29.792  29.878  1.00  0.00     0.037 A 
BRANCH  54  68
ATOM     68  C   UNL A   1      43.487  28.317  34.854  1.00  0.00     0.064 A 
ATOM     69  C   UNL A   1      44.152  28.597  36.067  1.00  0.00     0.173 A 
ATOM     70  C   UNL A   1      43.569  26.976  34.419  1.00  0.00     0.173 A 
ATOM     71  F   UNL A   1      44.146  29.836  36.580  1.00  0.00    -0.203 F 
ATOM     72  C   UNL A   1      44.931  27.641  36.724  1.00  0.00     0.198 A 
ATOM     73  C   UNL A   1      44.303  26.010  35.108  1.00  0.00     0.198 A 
ATOM     74  F   UNL A   1      43.045  26.561  33.262  1.00  0.00    -0.203 F 
ATOM     75  F   UNL A   1      45.663  27.997  37.788  1.00  0.00    -0.200 F 
ATOM     76  C   UNL A   1      45.015  26.351  36.236  1.00  0.00     0.200 A 
ATOM     77  F   UNL A   1      44.382  24.768  34.609  1.00  0.00    -0.200 F 
ATOM     78  F   UNL A   1      45.818  25.451  36.820  1.00  0.00    -0.200 F 
ENDBRANCH  54  68
BRANCH  55  79
ATOM     79  C   UNL A   1      42.118  25.534  26.925  1.00  0.00     0.064 A 
ATOM     80  C   UNL A   1      42.915  25.201  25.815  1.00  0.00     0.173 A 
ATOM     81  C   UNL A   1      41.351  24.491  27.477  1.00  0.00     0.173 A 
ATOM     82  F   UNL A   1      43.706  26.125  25.250  1.00  0.00    -0.203 F 
ATOM     83  C   UNL A   1      42.975  23.895  25.317  1.00  0.00     0.198 A 
ATOM     84  C   UNL A   1      41.406  23.189  26.975  1.00  0.00     0.198 A 
ATOM     85  F   UNL A   1      40.610  24.688  28.577  1.00  0.00    -0.203 F 
ATOM     86  F   UNL A   1      43.805  23.601  24.307  1.00  0.00    -0.200 F 
ATOM     87  C   UNL A   1      42.231  22.887  25.907  1.00  0.00     0.200 A 
ATOM     88  F   UNL A   1      40.710  22.215  27.578  1.00  0.00    -0.200 F 
ATOM     89  F   UNL A   1      42.344  21.621  25.481  1.00  0.00    -0.200 F 
ENDBRANCH  55  79
BRANCH  67  90
ATOM     90  C   UNL A   1      45.134  30.731  28.723  1.00  0.00     0.064 A 
ATOM     91  C   UNL A   1      44.121  31.492  28.112  1.00  0.00     0.173 A 
ATOM     92  C   UNL A   1      46.450  30.961  28.302  1.00  0.00     0.173 A 
ATOM     93  F   UNL A   1      42.850  31.414  28.525  1.00  0.00    -0.203 F 
ATOM     94  C   UNL A   1      44.411  32.397  27.091  1.00  0.00     0.198 A 
ATOM     95  C   UNL A   1      46.742  31.894  27.312  1.00  0.00     0.198 A 
ATOM     96  F   UNL A   1      47.466  30.305  28.886  1.00  0.00    -0.203 F 
ATOM     97  F   UNL A   1      43.423  33.095  26.510  1.00  0.00    -0.200 F 
ATOM     98  C   UNL A   1      45.722  32.602  26.696  1.00  0.00     0.200 A 
ATOM     99  F   UNL A   1      48.018  32.123  26.970  1.00  0.00    -0.200 F 
ATOM    100  F   UNL A   1      46.007  33.496  25.741  1.00  0.00    -0.200 F 
ENDBRANCH  67  90
ENDBRANCH  41  42
ENDBRANCH  33  36
ENDBRANCH  31  32
ENDBRANCH  30  31
ENDBRANCH  29  30
ENDBRANCH   1  29
TORSDOF 16
ENDMDL
