MODEL 1
REMARK VINA RESULT:     -11.2      0.000      0.000
REMARK SMILES CCCc1cc(OCC(=O)NCCCCCCNC(=O)c2ccc(-c3c4nc(c(-c5c(F)c(F)c(F)c(F)c5F)c5ccc([nH]5)c(-c5c(F)c(F)c(F)c(F)c5F)c5nc(c(-c6c(F)c(F)c(F)c(F)c6F)c6ccc3[nH]6)C=C5)C=C4)cc2)nc(Nc2ccc(C#N)cc2)n1
REMARK SMILES IDX 13 1 12 2 11 3 9 4 10 5 8 7 7 8 6 9 4 10 5 11 95 12 85 13
REMARK SMILES IDX 84 14 3 15 2 16 1 17 86 18 87 20 88 21 94 22 89 23 93 24
REMARK SMILES IDX 90 25 91 26 92 27 14 28 15 29 16 30 17 31 18 32 19 33 20 35
REMARK SMILES IDX 21 36 22 37 83 38 23 39 82 40 24 41 25 42 26 43 76 44 27 45
REMARK SMILES IDX 81 46 75 47 77 48 28 49 80 50 74 51 73 52 29 54 61 55 41 56
REMARK SMILES IDX 60 57 42 58 45 59 59 60 78 61 43 62 44 63 58 65 79 66 46 67
REMARK SMILES IDX 30 68 31 69 39 70 32 71 33 72 37 73 40 74 34 75 35 76 38 77
REMARK SMILES IDX 36 78 62 79 63 80 71 81 64 82 65 83 69 84 72 85 66 86 67 87
REMARK SMILES IDX 70 88 68 89 47 90 48 91 56 92 49 93 50 94 54 95 57 96 51 97
REMARK SMILES IDX 52 98 55 99 53 100
REMARK H PARENT 11 6 86 19 18 34 77 53 45 64
REMARK Flexibility Score: inf
ROOT
ATOM      1  C   UNL A   1      35.178  31.759  28.554  1.00  0.00     0.021 C 
ENDROOT
BRANCH   1   2
ATOM      2  C   UNL A   1      33.970  31.222  27.789  1.00  0.00     0.116 C 
BRANCH   2   3
ATOM      3  N   UNL A   1      33.988  29.778  27.694  1.00  0.00    -0.353 N 
ATOM      4  C   UNL A   1      33.579  29.008  26.648  1.00  0.00     0.258 C 
ATOM      5  O   UNL A   1      33.715  27.786  26.717  1.00  0.00    -0.271 OA
ATOM      6  H   UNL A   1      34.337  29.296  28.478  1.00  0.00     0.163 HD
BRANCH   4   7
ATOM      7  C   UNL A   1      32.947  29.679  25.419  1.00  0.00     0.331 C 
BRANCH   7   8
ATOM      8  O   UNL A   1      31.535  29.844  25.434  1.00  0.00    -0.467 OA
BRANCH   8   9
ATOM      9  C   UNL A   1      30.849  29.519  24.296  1.00  0.00     0.218 A 
ATOM     10  C   UNL A   1      29.163  29.761  22.690  1.00  0.00     0.050 A 
ATOM     11  C   UNL A   1      29.815  30.260  23.787  1.00  0.00     0.092 A 
ATOM     12  N   UNL A   1      29.611  28.664  22.061  1.00  0.00    -0.218 NA
ATOM     13  C   UNL A   1      30.683  28.030  22.570  1.00  0.00     0.230 A 
ATOM     14  N   UNL A   1      31.296  28.402  23.701  1.00  0.00    -0.177 NA
BRANCH  10  15
ATOM     15  C   UNL A   1      27.936  30.449  22.148  1.00  0.00     0.056 C 
BRANCH  15  16
ATOM     16  C   UNL A   1      28.051  30.964  20.701  1.00  0.00     0.003 C 
ATOM     17  C   UNL A   1      27.903  32.473  20.523  1.00  0.00     0.004 C 
ENDBRANCH  15  16
ENDBRANCH  10  15
BRANCH  13  18
ATOM     18  N   UNL A   1      31.173  26.895  21.928  1.00  0.00    -0.324 N 
ATOM     19  H   UNL A   1      31.150  26.919  20.943  1.00  0.00     0.170 HD
BRANCH  18  20
ATOM     20  C   UNL A   1      31.693  25.730  22.495  1.00  0.00     0.041 A 
ATOM     21  C   UNL A   1      30.831  24.792  23.075  1.00  0.00     0.027 A 
ATOM     22  C   UNL A   1      33.055  25.413  22.402  1.00  0.00     0.027 A 
ATOM     23  C   UNL A   1      31.316  23.557  23.522  1.00  0.00     0.021 A 
ATOM     24  C   UNL A   1      33.550  24.193  22.868  1.00  0.00     0.021 A 
ATOM     25  C   UNL A   1      32.676  23.253  23.414  1.00  0.00     0.052 A 
BRANCH  25  26
ATOM     26  C   UNL A   1      33.171  21.974  23.837  1.00  0.00     0.099 C 
ATOM     27  N   UNL A   1      33.566  20.942  24.185  1.00  0.00    -0.192 NA
ENDBRANCH  25  26
ENDBRANCH  18  20
ENDBRANCH  13  18
ENDBRANCH   8   9
ENDBRANCH   7   8
ENDBRANCH   4   7
ENDBRANCH   2   3
ENDBRANCH   1   2
BRANCH   1  28
ATOM     28  C   UNL A   1      35.696  33.109  28.040  1.00  0.00     0.002 C 
BRANCH  28  29
ATOM     29  C   UNL A   1      35.578  34.268  29.035  1.00  0.00     0.002 C 
BRANCH  29  30
ATOM     30  C   UNL A   1      34.338  35.143  28.854  1.00  0.00     0.021 C 
BRANCH  30  31
ATOM     31  C   UNL A   1      33.102  34.628  29.577  1.00  0.00     0.116 C 
BRANCH  31  32
ATOM     32  N   UNL A   1      32.577  35.606  30.519  1.00  0.00    -0.352 N 
ATOM     33  C   UNL A   1      32.885  35.775  31.846  1.00  0.00     0.251 C 
ATOM     34  H   UNL A   1      31.909  36.230  30.155  1.00  0.00     0.163 HD
ATOM     35  O   UNL A   1      32.205  36.503  32.560  1.00  0.00    -0.269 OA
BRANCH  33  36
ATOM     36  C   UNL A   1      34.037  35.046  32.414  1.00  0.00     0.039 A 
ATOM     37  C   UNL A   1      33.850  33.751  32.903  1.00  0.00     0.014 A 
ATOM     38  C   UNL A   1      35.306  35.632  32.425  1.00  0.00     0.014 A 
ATOM     39  C   UNL A   1      34.954  33.015  33.339  1.00  0.00     0.010 A 
ATOM     40  C   UNL A   1      36.412  34.867  32.775  1.00  0.00     0.010 A 
ATOM     41  C   UNL A   1      36.248  33.552  33.236  1.00  0.00    -0.014 A 
BRANCH  41  42
ATOM     42  C   UNL A   1      37.451  32.762  33.606  1.00  0.00     0.031 A 
ATOM     43  C   UNL A   1      38.173  33.057  34.890  1.00  0.00     0.074 A 
ATOM     44  C   UNL A   1      37.937  31.841  32.752  1.00  0.00     0.049 A 
ATOM     45  N   UNL A   1      39.303  32.570  35.336  1.00  0.00    -0.248 NA
ATOM     46  C   UNL A   1      37.557  34.055  35.779  1.00  0.00     0.031 C 
ATOM     47  C   UNL A   1      37.343  31.486  31.462  1.00  0.00     0.029 A 
ATOM     48  N   UNL A   1      39.056  31.048  32.831  1.00  0.00    -0.354 N 
ATOM     49  C   UNL A   1      39.536  33.209  36.546  1.00  0.00     0.074 A 
ATOM     50  C   UNL A   1      38.466  34.163  36.736  1.00  0.00     0.031 C 
ATOM     51  C   UNL A   1      38.093  30.537  30.879  1.00  0.00     0.029 A 
ATOM     52  C   UNL A   1      39.249  30.256  31.725  1.00  0.00     0.049 A 
ATOM     53  H   UNL A   1      39.661  31.047  33.608  1.00  0.00     0.167 HD
ATOM     54  C   UNL A   1      40.541  33.002  37.430  1.00  0.00     0.037 A 
ATOM     55  C   UNL A   1      40.258  29.419  31.416  1.00  0.00     0.037 A 
ATOM     56  C   UNL A   1      41.601  32.047  37.237  1.00  0.00     0.049 A 
ATOM     57  C   UNL A   1      41.394  29.246  32.391  1.00  0.00     0.074 A 
ATOM     58  C   UNL A   1      42.641  31.732  38.092  1.00  0.00     0.029 A 
ATOM     59  N   UNL A   1      41.761  31.261  36.104  1.00  0.00    -0.354 N 
ATOM     60  N   UNL A   1      41.574  29.811  33.561  1.00  0.00    -0.248 NA
ATOM     61  C   UNL A   1      42.465  28.316  32.006  1.00  0.00     0.031 C 
ATOM     62  C   UNL A   1      43.472  30.812  37.447  1.00  0.00     0.029 A 
ATOM     63  C   UNL A   1      42.904  30.488  36.225  1.00  0.00     0.049 A 
ATOM     64  H   UNL A   1      41.153  31.255  35.330  1.00  0.00     0.167 HD
ATOM     65  C   UNL A   1      42.753  29.279  34.066  1.00  0.00     0.074 A 
ATOM     66  C   UNL A   1      43.242  28.339  33.080  1.00  0.00     0.031 C 
ATOM     67  C   UNL A   1      43.372  29.543  35.242  1.00  0.00     0.037 A 
BRANCH  54  68
ATOM     68  C   UNL A   1      40.551  33.834  38.682  1.00  0.00     0.064 A 
ATOM     69  C   UNL A   1      39.855  33.443  39.837  1.00  0.00     0.173 A 
ATOM     70  C   UNL A   1      41.298  35.022  38.740  1.00  0.00     0.173 A 
ATOM     71  F   UNL A   1      39.119  32.321  39.834  1.00  0.00    -0.203 F 
ATOM     72  C   UNL A   1      39.876  34.226  40.988  1.00  0.00     0.198 A 
ATOM     73  C   UNL A   1      41.349  35.781  39.906  1.00  0.00     0.198 A 
ATOM     74  F   UNL A   1      41.989  35.440  37.670  1.00  0.00    -0.203 F 
ATOM     75  F   UNL A   1      39.155  33.861  42.056  1.00  0.00    -0.200 F 
ATOM     76  C   UNL A   1      40.630  35.389  41.025  1.00  0.00     0.200 A 
ATOM     77  F   UNL A   1      42.094  36.893  39.945  1.00  0.00    -0.200 F 
ATOM     78  F   UNL A   1      40.658  36.136  42.137  1.00  0.00    -0.200 F 
ENDBRANCH  54  68
BRANCH  55  79
ATOM     79  C   UNL A   1      40.247  28.681  30.123  1.00  0.00     0.064 A 
ATOM     80  C   UNL A   1      40.868  29.209  28.982  1.00  0.00     0.173 A 
ATOM     81  C   UNL A   1      39.602  27.440  29.996  1.00  0.00     0.173 A 
ATOM     82  F   UNL A   1      41.480  30.400  29.046  1.00  0.00    -0.203 F 
ATOM     83  C   UNL A   1      40.818  28.543  27.760  1.00  0.00     0.198 A 
ATOM     84  C   UNL A   1      39.585  26.757  28.782  1.00  0.00     0.198 A 
ATOM     85  F   UNL A   1      38.998  26.884  31.057  1.00  0.00    -0.203 F 
ATOM     86  F   UNL A   1      41.366  29.101  26.673  1.00  0.00    -0.200 F 
ATOM     87  C   UNL A   1      40.182  27.314  27.662  1.00  0.00     0.200 A 
ATOM     88  F   UNL A   1      38.987  25.561  28.698  1.00  0.00    -0.200 F 
ATOM     89  F   UNL A   1      40.136  26.672  26.487  1.00  0.00    -0.200 F 
ENDBRANCH  55  79
BRANCH  67  90
ATOM     90  C   UNL A   1      44.620  28.769  35.566  1.00  0.00     0.064 A 
ATOM     91  C   UNL A   1      45.897  29.242  35.233  1.00  0.00     0.173 A 
ATOM     92  C   UNL A   1      44.533  27.565  36.284  1.00  0.00     0.173 A 
ATOM     93  F   UNL A   1      46.037  30.380  34.536  1.00  0.00    -0.203 F 
ATOM     94  C   UNL A   1      47.039  28.529  35.588  1.00  0.00     0.198 A 
ATOM     95  C   UNL A   1      45.678  26.874  36.670  1.00  0.00     0.198 A 
ATOM     96  F   UNL A   1      43.336  27.070  36.635  1.00  0.00    -0.203 F 
ATOM     97  F   UNL A   1      48.248  28.976  35.219  1.00  0.00    -0.200 F 
ATOM     98  C   UNL A   1      46.930  27.353  36.316  1.00  0.00     0.200 A 
ATOM     99  F   UNL A   1      45.570  25.751  37.392  1.00  0.00    -0.200 F 
ATOM    100  F   UNL A   1      48.032  26.679  36.674  1.00  0.00    -0.200 F 
ENDBRANCH  67  90
ENDBRANCH  41  42
ENDBRANCH  33  36
ENDBRANCH  31  32
ENDBRANCH  30  31
ENDBRANCH  29  30
ENDBRANCH  28  29
ENDBRANCH   1  28
TORSDOF 20
ENDMDL
MODEL 2
REMARK VINA RESULT:     -11.1      2.199      8.253
REMARK SMILES CCCc1cc(OCC(=O)NCCCCCCNC(=O)c2ccc(-c3c4nc(c(-c5c(F)c(F)c(F)c(F)c5F)c5ccc([nH]5)c(-c5c(F)c(F)c(F)c(F)c5F)c5nc(c(-c6c(F)c(F)c(F)c(F)c6F)c6ccc3[nH]6)C=C5)C=C4)cc2)nc(Nc2ccc(C#N)cc2)n1
REMARK SMILES IDX 13 1 12 2 11 3 9 4 10 5 8 7 7 8 6 9 4 10 5 11 95 12 85 13
REMARK SMILES IDX 84 14 3 15 2 16 1 17 86 18 87 20 88 21 94 22 89 23 93 24
REMARK SMILES IDX 90 25 91 26 92 27 14 28 15 29 16 30 17 31 18 32 19 33 20 35
REMARK SMILES IDX 21 36 22 37 83 38 23 39 82 40 24 41 25 42 26 43 76 44 27 45
REMARK SMILES IDX 81 46 75 47 77 48 28 49 80 50 74 51 73 52 29 54 61 55 41 56
REMARK SMILES IDX 60 57 42 58 45 59 59 60 78 61 43 62 44 63 58 65 79 66 46 67
REMARK SMILES IDX 30 68 31 69 39 70 32 71 33 72 37 73 40 74 34 75 35 76 38 77
REMARK SMILES IDX 36 78 62 79 63 80 71 81 64 82 65 83 69 84 72 85 66 86 67 87
REMARK SMILES IDX 70 88 68 89 47 90 48 91 56 92 49 93 50 94 54 95 57 96 51 97
REMARK SMILES IDX 52 98 55 99 53 100
REMARK H PARENT 11 6 86 19 18 34 77 53 45 64
REMARK Flexibility Score: inf
ROOT
ATOM      1  C   UNL A   1      33.082  29.323  24.469  1.00  0.00     0.021 C 
ENDROOT
BRANCH   1   2
ATOM      2  C   UNL A   1      32.974  28.199  23.440  1.00  0.00     0.116 C 
BRANCH   2   3
ATOM      3  N   UNL A   1      31.893  27.288  23.744  1.00  0.00    -0.353 N 
ATOM      4  C   UNL A   1      31.499  26.196  23.032  1.00  0.00     0.258 C 
ATOM      5  O   UNL A   1      30.584  25.497  23.468  1.00  0.00    -0.271 OA
ATOM      6  H   UNL A   1      31.380  27.481  24.563  1.00  0.00     0.163 HD
BRANCH   4   7
ATOM      7  C   UNL A   1      32.195  25.872  21.701  1.00  0.00     0.331 C 
BRANCH   7   8
ATOM      8  O   UNL A   1      33.495  25.302  21.780  1.00  0.00    -0.467 OA
BRANCH   8   9
ATOM      9  C   UNL A   1      33.693  24.306  22.698  1.00  0.00     0.218 A 
ATOM     10  C   UNL A   1      34.717  23.291  24.541  1.00  0.00     0.050 A 
ATOM     11  C   UNL A   1      34.556  24.402  23.758  1.00  0.00     0.092 A 
ATOM     12  N   UNL A   1      33.956  22.201  24.359  1.00  0.00    -0.218 NA
ATOM     13  C   UNL A   1      33.069  22.206  23.347  1.00  0.00     0.230 A 
ATOM     14  N   UNL A   1      32.941  23.216  22.477  1.00  0.00    -0.177 NA
BRANCH  10  15
ATOM     15  C   UNL A   1      35.742  23.273  25.647  1.00  0.00     0.056 C 
BRANCH  15  16
ATOM     16  C   UNL A   1      37.141  22.774  25.243  1.00  0.00     0.003 C 
ATOM     17  C   UNL A   1      37.278  21.264  25.059  1.00  0.00     0.004 C 
ENDBRANCH  15  16
ENDBRANCH  10  15
BRANCH  13  18
ATOM     18  N   UNL A   1      32.259  21.091  23.144  1.00  0.00    -0.324 N 
ATOM     19  H   UNL A   1      31.458  21.240  22.591  1.00  0.00     0.170 HD
BRANCH  18  20
ATOM     20  C   UNL A   1      32.433  19.790  23.622  1.00  0.00     0.041 A 
ATOM     21  C   UNL A   1      32.550  18.725  22.722  1.00  0.00     0.027 A 
ATOM     22  C   UNL A   1      32.607  19.528  24.988  1.00  0.00     0.027 A 
ATOM     23  C   UNL A   1      32.864  17.438  23.174  1.00  0.00     0.021 A 
ATOM     24  C   UNL A   1      32.895  18.241  25.449  1.00  0.00     0.021 A 
ATOM     25  C   UNL A   1      33.043  17.195  24.539  1.00  0.00     0.052 A 
BRANCH  25  26
ATOM     26  C   UNL A   1      33.400  15.885  25.003  1.00  0.00     0.099 C 
ATOM     27  N   UNL A   1      33.697  14.829  25.375  1.00  0.00    -0.192 NA
ENDBRANCH  25  26
ENDBRANCH  18  20
ENDBRANCH  13  18
ENDBRANCH   8   9
ENDBRANCH   7   8
ENDBRANCH   4   7
ENDBRANCH   2   3
ENDBRANCH   1   2
BRANCH   1  28
ATOM     28  C   UNL A   1      31.754  29.678  25.151  1.00  0.00     0.002 C 
BRANCH  28  29
ATOM     29  C   UNL A   1      31.885  30.210  26.582  1.00  0.00     0.002 C 
BRANCH  29  30
ATOM     30  C   UNL A   1      31.654  31.714  26.729  1.00  0.00     0.021 C 
BRANCH  30  31
ATOM     31  C   UNL A   1      32.861  32.480  27.252  1.00  0.00     0.116 C 
BRANCH  31  32
ATOM     32  N   UNL A   1      32.543  33.874  27.526  1.00  0.00    -0.352 N 
ATOM     33  C   UNL A   1      33.048  34.697  28.502  1.00  0.00     0.251 C 
ATOM     34  H   UNL A   1      31.874  34.282  26.930  1.00  0.00     0.163 HD
ATOM     35  O   UNL A   1      32.528  35.781  28.739  1.00  0.00    -0.269 OA
BRANCH  33  36
ATOM     36  C   UNL A   1      34.217  34.247  29.284  1.00  0.00     0.039 A 
ATOM     37  C   UNL A   1      34.012  33.507  30.451  1.00  0.00     0.014 A 
ATOM     38  C   UNL A   1      35.512  34.529  28.842  1.00  0.00     0.014 A 
ATOM     39  C   UNL A   1      35.112  32.985  31.135  1.00  0.00     0.010 A 
ATOM     40  C   UNL A   1      36.598  33.934  29.474  1.00  0.00     0.010 A 
ATOM     41  C   UNL A   1      36.410  33.157  30.627  1.00  0.00    -0.014 A 
BRANCH  41  42
ATOM     42  C   UNL A   1      37.592  32.539  31.280  1.00  0.00     0.031 A 
ATOM     43  C   UNL A   1      38.307  31.400  30.610  1.00  0.00     0.074 A 
ATOM     44  C   UNL A   1      37.969  32.947  32.507  1.00  0.00     0.049 A 
ATOM     45  N   UNL A   1      39.276  30.648  31.065  1.00  0.00    -0.248 NA
ATOM     46  C   UNL A   1      37.849  31.039  29.258  1.00  0.00     0.031 C 
ATOM     47  C   UNL A   1      37.337  34.022  33.274  1.00  0.00     0.029 A 
ATOM     48  N   UNL A   1      38.965  32.490  33.335  1.00  0.00    -0.354 N 
ATOM     49  C   UNL A   1      39.535  29.723  30.062  1.00  0.00     0.074 A 
ATOM     50  C   UNL A   1      38.581  29.965  29.003  1.00  0.00     0.031 C 
ATOM     51  C   UNL A   1      37.970  34.153  34.451  1.00  0.00     0.029 A 
ATOM     52  C   UNL A   1      39.013  33.136  34.548  1.00  0.00     0.049 A 
ATOM     53  H   UNL A   1      39.587  31.770  33.084  1.00  0.00     0.167 HD
ATOM     54  C   UNL A   1      40.498  28.771  30.021  1.00  0.00     0.037 A 
ATOM     55  C   UNL A   1      39.792  32.917  35.625  1.00  0.00     0.037 A 
ATOM     56  C   UNL A   1      41.447  28.537  31.077  1.00  0.00     0.049 A 
ATOM     57  C   UNL A   1      40.819  31.815  35.575  1.00  0.00     0.074 A 
ATOM     58  C   UNL A   1      42.487  27.626  31.113  1.00  0.00     0.029 A 
ATOM     59  N   UNL A   1      41.465  29.214  32.288  1.00  0.00    -0.354 N 
ATOM     60  N   UNL A   1      41.096  30.984  34.599  1.00  0.00    -0.248 NA
ATOM     61  C   UNL A   1      41.645  31.622  36.775  1.00  0.00     0.031 C 
ATOM     62  C   UNL A   1      43.087  27.699  32.374  1.00  0.00     0.029 A 
ATOM     63  C   UNL A   1      42.476  28.715  33.093  1.00  0.00     0.049 A 
ATOM     64  H   UNL A   1      40.849  29.941  32.539  1.00  0.00     0.167 HD
ATOM     65  C   UNL A   1      42.149  30.199  35.051  1.00  0.00     0.074 A 
ATOM     66  C   UNL A   1      42.468  30.659  36.386  1.00  0.00     0.031 C 
ATOM     67  C   UNL A   1      42.795  29.192  34.415  1.00  0.00     0.037 A 
BRANCH  54  68
ATOM     68  C   UNL A   1      40.563  27.898  28.799  1.00  0.00     0.064 A 
ATOM     69  C   UNL A   1      39.793  26.729  28.683  1.00  0.00     0.173 A 
ATOM     70  C   UNL A   1      41.376  28.255  27.712  1.00  0.00     0.173 A 
ATOM     71  F   UNL A   1      39.004  26.335  29.693  1.00  0.00    -0.203 F 
ATOM     72  C   UNL A   1      39.866  25.932  27.543  1.00  0.00     0.198 A 
ATOM     73  C   UNL A   1      41.415  27.478  26.558  1.00  0.00     0.198 A 
ATOM     74  F   UNL A   1      42.126  29.366  27.764  1.00  0.00    -0.203 F 
ATOM     75  F   UNL A   1      39.168  24.790  27.481  1.00  0.00    -0.200 F 
ATOM     76  C   UNL A   1      40.669  26.311  26.478  1.00  0.00     0.200 A 
ATOM     77  F   UNL A   1      42.176  27.857  25.523  1.00  0.00    -0.200 F 
ATOM     78  F   UNL A   1      40.729  25.550  25.377  1.00  0.00    -0.200 F 
ENDBRANCH  54  68
BRANCH  55  79
ATOM     79  C   UNL A   1      39.631  33.752  36.846  1.00  0.00     0.064 A 
ATOM     80  C   UNL A   1      38.786  33.351  37.891  1.00  0.00     0.173 A 
ATOM     81  C   UNL A   1      40.304  34.976  36.988  1.00  0.00     0.173 A 
ATOM     82  F   UNL A   1      38.106  32.200  37.797  1.00  0.00    -0.203 F 
ATOM     83  C   UNL A   1      38.597  34.154  39.014  1.00  0.00     0.198 A 
ATOM     84  C   UNL A   1      40.143  35.759  38.128  1.00  0.00     0.198 A 
ATOM     85  F   UNL A   1      41.129  35.406  36.022  1.00  0.00    -0.203 F 
ATOM     86  F   UNL A   1      37.738  33.774  39.969  1.00  0.00    -0.200 F 
ATOM     87  C   UNL A   1      39.280  35.355  39.135  1.00  0.00     0.200 A 
ATOM     88  F   UNL A   1      40.820  36.910  38.248  1.00  0.00    -0.200 F 
ATOM     89  F   UNL A   1      39.101  36.126  40.216  1.00  0.00    -0.200 F 
ENDBRANCH  55  79
BRANCH  67  90
ATOM     90  C   UNL A   1      43.953  28.545  35.123  1.00  0.00     0.064 A 
ATOM     91  C   UNL A   1      45.262  29.034  35.008  1.00  0.00     0.173 A 
ATOM     92  C   UNL A   1      43.732  27.458  35.984  1.00  0.00     0.173 A 
ATOM     93  F   UNL A   1      45.531  30.062  34.189  1.00  0.00    -0.203 F 
ATOM     94  C   UNL A   1      46.310  28.446  35.713  1.00  0.00     0.198 A 
ATOM     95  C   UNL A   1      44.775  26.897  36.716  1.00  0.00     0.198 A 
ATOM     96  F   UNL A   1      42.498  26.954  36.136  1.00  0.00    -0.203 F 
ATOM     97  F   UNL A   1      47.561  28.901  35.553  1.00  0.00    -0.200 F 
ATOM     98  C   UNL A   1      46.064  27.387  36.574  1.00  0.00     0.200 A 
ATOM     99  F   UNL A   1      44.530  25.888  37.563  1.00  0.00    -0.200 F 
ATOM    100  F   UNL A   1      47.070  26.836  37.267  1.00  0.00    -0.200 F 
ENDBRANCH  67  90
ENDBRANCH  41  42
ENDBRANCH  33  36
ENDBRANCH  31  32
ENDBRANCH  30  31
ENDBRANCH  29  30
ENDBRANCH  28  29
ENDBRANCH   1  28
TORSDOF 20
ENDMDL
MODEL 3
REMARK VINA RESULT:     -10.9      0.975      3.476
REMARK SMILES CCCc1cc(OCC(=O)NCCCCCCNC(=O)c2ccc(-c3c4nc(c(-c5c(F)c(F)c(F)c(F)c5F)c5ccc([nH]5)c(-c5c(F)c(F)c(F)c(F)c5F)c5nc(c(-c6c(F)c(F)c(F)c(F)c6F)c6ccc3[nH]6)C=C5)C=C4)cc2)nc(Nc2ccc(C#N)cc2)n1
REMARK SMILES IDX 13 1 12 2 11 3 9 4 10 5 8 7 7 8 6 9 4 10 5 11 95 12 85 13
REMARK SMILES IDX 84 14 3 15 2 16 1 17 86 18 87 20 88 21 94 22 89 23 93 24
REMARK SMILES IDX 90 25 91 26 92 27 14 28 15 29 16 30 17 31 18 32 19 33 20 35
REMARK SMILES IDX 21 36 22 37 83 38 23 39 82 40 24 41 25 42 26 43 76 44 27 45
REMARK SMILES IDX 81 46 75 47 77 48 28 49 80 50 74 51 73 52 29 54 61 55 41 56
REMARK SMILES IDX 60 57 42 58 45 59 59 60 78 61 43 62 44 63 58 65 79 66 46 67
REMARK SMILES IDX 30 68 31 69 39 70 32 71 33 72 37 73 40 74 34 75 35 76 38 77
REMARK SMILES IDX 36 78 62 79 63 80 71 81 64 82 65 83 69 84 72 85 66 86 67 87
REMARK SMILES IDX 70 88 68 89 47 90 48 91 56 92 49 93 50 94 54 95 57 96 51 97
REMARK SMILES IDX 52 98 55 99 53 100
REMARK H PARENT 11 6 86 19 18 34 77 53 45 64
REMARK Flexibility Score: inf
ROOT
ATOM      1  C   UNL A   1      35.522  32.033  28.193  1.00  0.00     0.021 C 
ENDROOT
BRANCH   1   2
ATOM      2  C   UNL A   1      35.136  30.602  27.824  1.00  0.00     0.116 C 
BRANCH   2   3
ATOM      3  N   UNL A   1      33.702  30.434  27.735  1.00  0.00    -0.353 N 
ATOM      4  C   UNL A   1      33.018  29.360  27.252  1.00  0.00     0.258 C 
ATOM      5  O   UNL A   1      31.787  29.366  27.300  1.00  0.00    -0.271 OA
ATOM      6  H   UNL A   1      33.156  31.186  28.061  1.00  0.00     0.163 HD
BRANCH   4   7
ATOM      7  C   UNL A   1      33.794  28.179  26.651  1.00  0.00     0.331 C 
BRANCH   7   8
ATOM      8  O   UNL A   1      33.911  28.145  25.234  1.00  0.00    -0.467 OA
BRANCH   8   9
ATOM      9  C   UNL A   1      33.179  27.203  24.564  1.00  0.00     0.218 A 
ATOM     10  C   UNL A   1      32.840  25.164  23.465  1.00  0.00     0.050 A 
ATOM     11  C   UNL A   1      33.658  25.967  24.214  1.00  0.00     0.092 A 
ATOM     12  N   UNL A   1      31.573  25.520  23.204  1.00  0.00    -0.218 NA
ATOM     13  C   UNL A   1      31.143  26.716  23.648  1.00  0.00     0.230 A 
ATOM     14  N   UNL A   1      31.925  27.594  24.289  1.00  0.00    -0.177 NA
BRANCH  10  15
ATOM     15  C   UNL A   1      33.338  23.845  22.932  1.00  0.00     0.056 C 
BRANCH  15  16
ATOM     16  C   UNL A   1      32.303  22.706  22.912  1.00  0.00     0.003 C 
ATOM     17  C   UNL A   1      32.724  21.417  23.615  1.00  0.00     0.004 C 
ENDBRANCH  15  16
ENDBRANCH  10  15
BRANCH  13  18
ATOM     18  N   UNL A   1      29.828  27.103  23.400  1.00  0.00    -0.324 N 
ATOM     19  H   UNL A   1      29.136  26.445  23.642  1.00  0.00     0.170 HD
BRANCH  18  20
ATOM     20  C   UNL A   1      29.361  28.300  22.853  1.00  0.00     0.041 A 
ATOM     21  C   UNL A   1      28.072  28.751  23.156  1.00  0.00     0.027 A 
ATOM     22  C   UNL A   1      30.193  29.131  22.090  1.00  0.00     0.027 A 
ATOM     23  C   UNL A   1      27.637  30.012  22.733  1.00  0.00     0.021 A 
ATOM     24  C   UNL A   1      29.758  30.381  21.643  1.00  0.00     0.021 A 
ATOM     25  C   UNL A   1      28.482  30.832  21.980  1.00  0.00     0.052 A 
BRANCH  25  26
ATOM     26  C   UNL A   1      28.054  32.141  21.576  1.00  0.00     0.099 C 
ATOM     27  N   UNL A   1      27.707  33.194  21.241  1.00  0.00    -0.192 NA
ENDBRANCH  25  26
ENDBRANCH  18  20
ENDBRANCH  13  18
ENDBRANCH   8   9
ENDBRANCH   7   8
ENDBRANCH   4   7
ENDBRANCH   2   3
ENDBRANCH   1   2
BRANCH   1  28
ATOM     28  C   UNL A   1      34.332  32.995  28.306  1.00  0.00     0.002 C 
BRANCH  28  29
ATOM     29  C   UNL A   1      34.695  34.425  28.719  1.00  0.00     0.002 C 
BRANCH  29  30
ATOM     30  C   UNL A   1      33.508  35.384  28.813  1.00  0.00     0.021 C 
BRANCH  30  31
ATOM     31  C   UNL A   1      33.647  36.440  29.901  1.00  0.00     0.116 C 
BRANCH  31  32
ATOM     32  N   UNL A   1      32.536  36.402  30.840  1.00  0.00    -0.352 N 
ATOM     33  C   UNL A   1      32.417  35.683  32.004  1.00  0.00     0.251 C 
ATOM     34  H   UNL A   1      31.766  36.969  30.610  1.00  0.00     0.163 HD
ATOM     35  O   UNL A   1      31.337  35.592  32.576  1.00  0.00    -0.269 OA
BRANCH  33  36
ATOM     36  C   UNL A   1      33.606  34.995  32.547  1.00  0.00     0.039 A 
ATOM     37  C   UNL A   1      33.467  33.709  33.074  1.00  0.00     0.014 A 
ATOM     38  C   UNL A   1      34.859  35.609  32.499  1.00  0.00     0.014 A 
ATOM     39  C   UNL A   1      34.602  33.009  33.487  1.00  0.00     0.010 A 
ATOM     40  C   UNL A   1      35.995  34.879  32.827  1.00  0.00     0.010 A 
ATOM     41  C   UNL A   1      35.879  33.572  33.325  1.00  0.00    -0.014 A 
BRANCH  41  42
ATOM     42  C   UNL A   1      37.112  32.820  33.670  1.00  0.00     0.031 A 
ATOM     43  C   UNL A   1      37.854  33.141  34.937  1.00  0.00     0.074 A 
ATOM     44  C   UNL A   1      37.606  31.910  32.809  1.00  0.00     0.049 A 
ATOM     45  N   UNL A   1      39.008  32.690  35.358  1.00  0.00    -0.248 NA
ATOM     46  C   UNL A   1      37.230  34.125  35.836  1.00  0.00     0.031 C 
ATOM     47  C   UNL A   1      36.994  31.532  31.534  1.00  0.00     0.029 A 
ATOM     48  N   UNL A   1      38.749  31.151  32.866  1.00  0.00    -0.354 N 
ATOM     49  C   UNL A   1      39.250  33.341  36.561  1.00  0.00     0.074 A 
ATOM     50  C   UNL A   1      38.156  34.264  36.772  1.00  0.00     0.031 C 
ATOM     51  C   UNL A   1      37.758  30.603  30.938  1.00  0.00     0.029 A 
ATOM     52  C   UNL A   1      38.941  30.360  31.758  1.00  0.00     0.049 A 
ATOM     53  H   UNL A   1      39.372  31.171  33.628  1.00  0.00     0.167 HD
ATOM     54  C   UNL A   1      40.280  33.167  37.422  1.00  0.00     0.037 A 
ATOM     55  C   UNL A   1      39.966  29.551  31.429  1.00  0.00     0.037 A 
ATOM     56  C   UNL A   1      41.363  32.243  37.209  1.00  0.00     0.049 A 
ATOM     57  C   UNL A   1      41.129  29.416  32.379  1.00  0.00     0.074 A 
ATOM     58  C   UNL A   1      42.431  31.962  38.041  1.00  0.00     0.029 A 
ATOM     59  N   UNL A   1      41.520  31.457  36.076  1.00  0.00    -0.354 N 
ATOM     60  N   UNL A   1      41.318  29.991  33.542  1.00  0.00    -0.248 NA
ATOM     61  C   UNL A   1      42.218  28.517  31.973  1.00  0.00     0.031 C 
ATOM     62  C   UNL A   1      43.274  31.064  37.380  1.00  0.00     0.029 A 
ATOM     63  C   UNL A   1      42.688  30.719  36.173  1.00  0.00     0.049 A 
ATOM     64  H   UNL A   1      40.895  31.430  35.315  1.00  0.00     0.167 HD
ATOM     65  C   UNL A   1      42.524  29.496  34.022  1.00  0.00     0.074 A 
ATOM     66  C   UNL A   1      43.018  28.567  33.029  1.00  0.00     0.031 C 
ATOM     67  C   UNL A   1      43.161  29.784  35.183  1.00  0.00     0.037 A 
BRANCH  54  68
ATOM     68  C   UNL A   1      40.294  34.005  38.670  1.00  0.00     0.064 A 
ATOM     69  C   UNL A   1      39.667  33.581  39.853  1.00  0.00     0.173 A 
ATOM     70  C   UNL A   1      40.977  35.231  38.696  1.00  0.00     0.173 A 
ATOM     71  F   UNL A   1      38.993  32.422  39.883  1.00  0.00    -0.203 F 
ATOM     72  C   UNL A   1      39.690  34.370  41.000  1.00  0.00     0.198 A 
ATOM     73  C   UNL A   1      41.032  35.998  39.857  1.00  0.00     0.198 A 
ATOM     74  F   UNL A   1      41.601  35.682  37.598  1.00  0.00    -0.203 F 
ATOM     75  F   UNL A   1      39.033  33.972  42.097  1.00  0.00    -0.200 F 
ATOM     76  C   UNL A   1      40.380  35.573  41.004  1.00  0.00     0.200 A 
ATOM     77  F   UNL A   1      41.716  37.150  39.863  1.00  0.00    -0.200 F 
ATOM     78  F   UNL A   1      40.412  36.325  42.112  1.00  0.00    -0.200 F 
ENDBRANCH  54  68
BRANCH  55  79
ATOM     79  C   UNL A   1      39.948  28.807  30.140  1.00  0.00     0.064 A 
ATOM     80  C   UNL A   1      39.375  27.530  30.050  1.00  0.00     0.173 A 
ATOM     81  C   UNL A   1      40.515  29.349  28.976  1.00  0.00     0.173 A 
ATOM     82  F   UNL A   1      38.837  26.960  31.137  1.00  0.00    -0.203 F 
ATOM     83  C   UNL A   1      39.399  26.812  28.856  1.00  0.00     0.198 A 
ATOM     84  C   UNL A   1      40.504  28.646  27.774  1.00  0.00     0.198 A 
ATOM     85  F   UNL A   1      41.070  30.570  29.003  1.00  0.00    -0.203 F 
ATOM     86  F   UNL A   1      38.900  25.570  28.814  1.00  0.00    -0.200 F 
ATOM     87  C   UNL A   1      39.958  27.373  27.717  1.00  0.00     0.200 A 
ATOM     88  F   UNL A   1      41.028  29.200  26.671  1.00  0.00    -0.200 F 
ATOM     89  F   UNL A   1      39.979  26.684  26.568  1.00  0.00    -0.200 F 
ENDBRANCH  55  79
BRANCH  67  90
ATOM     90  C   UNL A   1      44.438  29.048  35.482  1.00  0.00     0.064 A 
ATOM     91  C   UNL A   1      45.693  29.558  35.120  1.00  0.00     0.173 A 
ATOM     92  C   UNL A   1      44.403  27.843  36.203  1.00  0.00     0.173 A 
ATOM     93  F   UNL A   1      45.784  30.698  34.418  1.00  0.00    -0.203 F 
ATOM     94  C   UNL A   1      46.864  28.880  35.452  1.00  0.00     0.198 A 
ATOM     95  C   UNL A   1      45.576  27.188  36.566  1.00  0.00     0.198 A 
ATOM     96  F   UNL A   1      43.229  27.314  36.580  1.00  0.00    -0.203 F 
ATOM     97  F   UNL A   1      48.050  29.362  35.056  1.00  0.00    -0.200 F 
ATOM     98  C   UNL A   1      46.805  27.703  36.184  1.00  0.00     0.200 A 
ATOM     99  F   UNL A   1      45.517  26.063  37.291  1.00  0.00    -0.200 F 
ATOM    100  F   UNL A   1      47.934  27.063  36.519  1.00  0.00    -0.200 F 
ENDBRANCH  67  90
ENDBRANCH  41  42
ENDBRANCH  33  36
ENDBRANCH  31  32
ENDBRANCH  30  31
ENDBRANCH  29  30
ENDBRANCH  28  29
ENDBRANCH   1  28
TORSDOF 20
ENDMDL
