MODEL 1
REMARK VINA RESULT:     -11.8      0.000      0.000
REMARK SMILES C[C@@H](C(=O)NCCCCCCNC(=O)c1ccc(-c2c3nc(c(-c4c(F)c(F)c(F)c(F)c4F)c4ccc([nH]4)c(-c4c(F)c(F)c(F)c(F)c4F)c4nc(c(-c5c(F)c(F)c(F)c(F)c5F)c5ccc2[nH]5)C=C4)C=C3)cc1)c1ccc(Cc2ccco2)cc1F
REMARK SMILES IDX 8 1 7 2 6 3 5 4 3 5 4 6 2 8 1 9 78 10 79 11 89 12 80 13
REMARK SMILES IDX 88 14 90 15 81 16 82 17 83 18 84 19 87 20 85 21 86 22 9 23
REMARK SMILES IDX 10 24 11 25 12 26 13 27 14 29 15 30 16 31 77 32 17 33 76 34
REMARK SMILES IDX 18 35 19 36 20 37 70 38 21 39 75 40 69 41 71 42 22 43 74 44
REMARK SMILES IDX 68 45 67 46 23 48 55 49 35 50 54 51 36 52 39 53 53 54 72 55
REMARK SMILES IDX 37 56 38 57 52 59 73 60 40 61 24 62 25 63 33 64 26 65 27 66
REMARK SMILES IDX 31 67 34 68 28 69 29 70 32 71 30 72 56 73 57 74 65 75 58 76
REMARK SMILES IDX 59 77 63 78 66 79 60 80 61 81 64 82 62 83 41 84 42 85 50 86
REMARK SMILES IDX 43 87 44 88 48 89 51 90 45 91 46 92 49 93 47 94
REMARK H PARENT 5 7 12 28 71 47 39 58
REMARK Flexibility Score: inf
ROOT
ATOM      1  C   UNL A   1      36.125  21.632  24.814  1.00  0.00     0.002 C 
ENDROOT
BRANCH   1   2
ATOM      2  C   UNL A   1      35.969  22.462  26.094  1.00  0.00     0.021 C 
BRANCH   2   3
ATOM      3  C   UNL A   1      35.113  23.723  25.931  1.00  0.00     0.116 C 
BRANCH   3   4
ATOM      4  N   UNL A   1      33.941  23.652  26.783  1.00  0.00    -0.356 N 
ATOM      5  C   UNL A   1      32.617  23.771  26.470  1.00  0.00     0.227 C 
ATOM      6  O   UNL A   1      31.841  23.936  27.413  1.00  0.00    -0.274 OA
ATOM      7  H   UNL A   1      34.131  23.492  27.736  1.00  0.00     0.163 HD
BRANCH   5   8
ATOM      8  C   UNL A   1      32.153  23.653  25.003  1.00  0.00     0.108 C 
ATOM      9  C   UNL A   1      30.754  24.262  24.875  1.00  0.00     0.023 C 
BRANCH   8  10
ATOM     10  C   UNL A   1      32.290  22.221  24.471  1.00  0.00    -0.000 A 
ATOM     11  C   UNL A   1      32.411  21.159  25.388  1.00  0.00     0.008 A 
ATOM     12  C   UNL A   1      32.318  21.887  23.112  1.00  0.00     0.127 A 
ATOM     13  C   UNL A   1      32.480  19.829  24.960  1.00  0.00     0.005 A 
ATOM     14  C   UNL A   1      32.417  20.564  22.677  1.00  0.00     0.043 A 
ATOM     15  F   UNL A   1      32.245  22.830  22.163  1.00  0.00    -0.207 F 
ATOM     16  C   UNL A   1      32.482  19.514  23.597  1.00  0.00    -0.038 A 
BRANCH  16  17
ATOM     17  C   UNL A   1      32.508  18.077  23.126  1.00  0.00     0.111 C 
BRANCH  17  18
ATOM     18  C   UNL A   1      33.361  17.182  23.954  1.00  0.00     0.108 A 
ATOM     19  C   UNL A   1      34.726  17.041  24.110  1.00  0.00     0.046 A 
ATOM     20  O   UNL A   1      32.711  16.323  24.793  1.00  0.00    -0.469 OA
ATOM     21  C   UNL A   1      34.919  16.036  25.086  1.00  0.00     0.042 A 
ATOM     22  C   UNL A   1      33.663  15.635  25.474  1.00  0.00     0.195 A 
ENDBRANCH  17  18
ENDBRANCH  16  17
ENDBRANCH   8  10
ENDBRANCH   5   8
ENDBRANCH   3   4
ENDBRANCH   2   3
ENDBRANCH   1   2
BRANCH   1  23
ATOM     23  C   UNL A   1      36.400  20.142  25.031  1.00  0.00     0.002 C 
BRANCH  23  24
ATOM     24  C   UNL A   1      37.839  19.696  24.752  1.00  0.00     0.021 C 
BRANCH  24  25
ATOM     25  C   UNL A   1      38.870  20.140  25.788  1.00  0.00     0.116 C 
BRANCH  25  26
ATOM     26  N   UNL A   1      39.982  19.211  25.898  1.00  0.00    -0.352 N 
ATOM     27  C   UNL A   1      41.309  19.455  26.136  1.00  0.00     0.251 C 
ATOM     28  H   UNL A   1      39.746  18.262  25.784  1.00  0.00     0.163 HD
ATOM     29  O   UNL A   1      42.127  18.542  26.031  1.00  0.00    -0.269 OA
BRANCH  27  30
ATOM     30  C   UNL A   1      41.777  20.812  26.498  1.00  0.00     0.039 A 
ATOM     31  C   UNL A   1      41.973  21.743  25.471  1.00  0.00     0.014 A 
ATOM     32  C   UNL A   1      42.067  21.162  27.820  1.00  0.00     0.014 A 
ATOM     33  C   UNL A   1      42.411  23.033  25.776  1.00  0.00     0.010 A 
ATOM     34  C   UNL A   1      42.451  22.467  28.129  1.00  0.00     0.010 A 
ATOM     35  C   UNL A   1      42.631  23.414  27.109  1.00  0.00    -0.014 A 
BRANCH  35  36
ATOM     36  C   UNL A   1      43.046  24.802  27.437  1.00  0.00     0.031 A 
ATOM     37  C   UNL A   1      44.453  25.260  27.180  1.00  0.00     0.074 A 
ATOM     38  C   UNL A   1      42.154  25.643  27.994  1.00  0.00     0.049 A 
ATOM     39  N   UNL A   1      44.995  26.432  27.403  1.00  0.00    -0.248 NA
ATOM     40  C   UNL A   1      45.382  24.268  26.617  1.00  0.00     0.031 C 
ATOM     41  C   UNL A   1      40.775  25.301  28.345  1.00  0.00     0.029 A 
ATOM     42  N   UNL A   1      42.277  26.958  28.369  1.00  0.00    -0.354 N 
ATOM     43  C   UNL A   1      46.321  26.317  27.009  1.00  0.00     0.074 A 
ATOM     44  C   UNL A   1      46.518  24.948  26.581  1.00  0.00     0.031 C 
ATOM     45  C   UNL A   1      40.174  26.381  28.867  1.00  0.00     0.029 A 
ATOM     46  C   UNL A   1      41.128  27.486  28.904  1.00  0.00     0.049 A 
ATOM     47  H   UNL A   1      43.109  27.473  28.264  1.00  0.00     0.167 HD
ATOM     48  C   UNL A   1      47.281  27.274  26.982  1.00  0.00     0.037 A 
ATOM     49  C   UNL A   1      40.873  28.723  29.370  1.00  0.00     0.037 A 
ATOM     50  C   UNL A   1      47.084  28.639  27.393  1.00  0.00     0.049 A 
ATOM     51  C   UNL A   1      41.948  29.772  29.302  1.00  0.00     0.074 A 
ATOM     52  C   UNL A   1      47.987  29.687  27.375  1.00  0.00     0.029 A 
ATOM     53  N   UNL A   1      45.894  29.147  27.894  1.00  0.00    -0.354 N 
ATOM     54  N   UNL A   1      43.181  29.666  28.873  1.00  0.00    -0.248 NA
ATOM     55  C   UNL A   1      41.589  31.118  29.770  1.00  0.00     0.031 C 
ATOM     56  C   UNL A   1      47.352  30.823  27.890  1.00  0.00     0.029 A 
ATOM     57  C   UNL A   1      46.043  30.492  28.195  1.00  0.00     0.049 A 
ATOM     58  H   UNL A   1      45.066  28.628  28.018  1.00  0.00     0.167 HD
ATOM     59  C   UNL A   1      43.740  30.929  29.002  1.00  0.00     0.074 A 
ATOM     60  C   UNL A   1      42.703  31.793  29.527  1.00  0.00     0.031 C 
ATOM     61  C   UNL A   1      45.000  31.336  28.716  1.00  0.00     0.037 A 
BRANCH  48  62
ATOM     62  C   UNL A   1      48.635  26.878  26.471  1.00  0.00     0.064 A 
ATOM     63  C   UNL A   1      49.585  26.283  27.314  1.00  0.00     0.173 A 
ATOM     64  C   UNL A   1      48.971  27.049  25.120  1.00  0.00     0.173 A 
ATOM     65  F   UNL A   1      49.316  26.108  28.617  1.00  0.00    -0.203 F 
ATOM     66  C   UNL A   1      50.831  25.894  26.829  1.00  0.00     0.198 A 
ATOM     67  C   UNL A   1      50.208  26.637  24.633  1.00  0.00     0.198 A 
ATOM     68  F   UNL A   1      48.096  27.609  24.272  1.00  0.00    -0.203 F 
ATOM     69  F   UNL A   1      51.737  25.363  27.662  1.00  0.00    -0.200 F 
ATOM     70  C   UNL A   1      51.138  26.065  25.488  1.00  0.00     0.200 A 
ATOM     71  F   UNL A   1      50.501  26.792  23.334  1.00  0.00    -0.200 F 
ATOM     72  F   UNL A   1      52.335  25.683  25.020  1.00  0.00    -0.200 F 
ENDBRANCH  48  62
BRANCH  49  73
ATOM     73  C   UNL A   1      39.529  29.046  29.913  1.00  0.00     0.064 A 
ATOM     74  C   UNL A   1      38.525  29.571  29.089  1.00  0.00     0.173 A 
ATOM     75  C   UNL A   1      39.225  28.841  31.266  1.00  0.00     0.173 A 
ATOM     76  F   UNL A   1      38.777  29.802  27.792  1.00  0.00    -0.203 F 
ATOM     77  C   UNL A   1      37.272  29.899  29.602  1.00  0.00     0.198 A 
ATOM     78  C   UNL A   1      37.964  29.146  31.773  1.00  0.00     0.198 A 
ATOM     79  F   UNL A   1      40.150  28.334  32.094  1.00  0.00    -0.203 F 
ATOM     80  F   UNL A   1      36.344  30.441  28.802  1.00  0.00    -0.200 F 
ATOM     81  C   UNL A   1      36.991  29.683  30.943  1.00  0.00     0.200 A 
ATOM     82  F   UNL A   1      37.692  28.924  33.066  1.00  0.00    -0.200 F 
ATOM     83  F   UNL A   1      35.786  29.998  31.436  1.00  0.00    -0.200 F 
ENDBRANCH  49  73
BRANCH  61  84
ATOM     84  C   UNL A   1      45.319  32.782  28.951  1.00  0.00     0.064 A 
ATOM     85  C   UNL A   1      45.104  33.749  27.959  1.00  0.00     0.173 A 
ATOM     86  C   UNL A   1      45.828  33.208  30.187  1.00  0.00     0.173 A 
ATOM     87  F   UNL A   1      44.635  33.388  26.755  1.00  0.00    -0.203 F 
ATOM     88  C   UNL A   1      45.413  35.088  28.187  1.00  0.00     0.198 A 
ATOM     89  C   UNL A   1      46.112  34.550  30.420  1.00  0.00     0.198 A 
ATOM     90  F   UNL A   1      46.048  32.321  31.170  1.00  0.00    -0.203 F 
ATOM     91  F   UNL A   1      45.244  35.988  27.208  1.00  0.00    -0.200 F 
ATOM     92  C   UNL A   1      45.912  35.488  29.417  1.00  0.00     0.200 A 
ATOM     93  F   UNL A   1      46.587  34.937  31.612  1.00  0.00    -0.200 F 
ATOM     94  F   UNL A   1      46.208  36.776  29.634  1.00  0.00    -0.200 F 
ENDBRANCH  61  84
ENDBRANCH  35  36
ENDBRANCH  27  30
ENDBRANCH  25  26
ENDBRANCH  24  25
ENDBRANCH  23  24
ENDBRANCH   1  23
TORSDOF 16
ENDMDL
MODEL 2
REMARK VINA RESULT:     -11.4      3.578      5.976
REMARK SMILES C[C@@H](C(=O)NCCCCCCNC(=O)c1ccc(-c2c3nc(c(-c4c(F)c(F)c(F)c(F)c4F)c4ccc([nH]4)c(-c4c(F)c(F)c(F)c(F)c4F)c4nc(c(-c5c(F)c(F)c(F)c(F)c5F)c5ccc2[nH]5)C=C4)C=C3)cc1)c1ccc(Cc2ccco2)cc1F
REMARK SMILES IDX 8 1 7 2 6 3 5 4 3 5 4 6 2 8 1 9 78 10 79 11 89 12 80 13
REMARK SMILES IDX 88 14 90 15 81 16 82 17 83 18 84 19 87 20 85 21 86 22 9 23
REMARK SMILES IDX 10 24 11 25 12 26 13 27 14 29 15 30 16 31 77 32 17 33 76 34
REMARK SMILES IDX 18 35 19 36 20 37 70 38 21 39 75 40 69 41 71 42 22 43 74 44
REMARK SMILES IDX 68 45 67 46 23 48 55 49 35 50 54 51 36 52 39 53 53 54 72 55
REMARK SMILES IDX 37 56 38 57 52 59 73 60 40 61 24 62 25 63 33 64 26 65 27 66
REMARK SMILES IDX 31 67 34 68 28 69 29 70 32 71 30 72 56 73 57 74 65 75 58 76
REMARK SMILES IDX 59 77 63 78 66 79 60 80 61 81 64 82 62 83 41 84 42 85 50 86
REMARK SMILES IDX 43 87 44 88 48 89 51 90 45 91 46 92 49 93 47 94
REMARK H PARENT 5 7 12 28 71 47 39 58
REMARK Flexibility Score: inf
ROOT
ATOM      1  C   UNL A   1      34.225  21.969  25.185  1.00  0.00     0.002 C 
ENDROOT
BRANCH   1   2
ATOM      2  C   UNL A   1      33.619  22.881  24.111  1.00  0.00     0.021 C 
BRANCH   2   3
ATOM      3  C   UNL A   1      32.087  22.886  24.073  1.00  0.00     0.116 C 
BRANCH   3   4
ATOM      4  N   UNL A   1      31.552  23.334  25.344  1.00  0.00    -0.356 N 
ATOM      5  C   UNL A   1      31.669  24.541  25.971  1.00  0.00     0.227 C 
ATOM      6  O   UNL A   1      31.344  24.578  27.160  1.00  0.00    -0.274 OA
ATOM      7  H   UNL A   1      31.021  22.662  25.831  1.00  0.00     0.163 HD
BRANCH   5   8
ATOM      8  C   UNL A   1      32.142  25.781  25.185  1.00  0.00     0.108 C 
ATOM      9  C   UNL A   1      33.035  26.634  26.092  1.00  0.00     0.023 C 
BRANCH   8  10
ATOM     10  C   UNL A   1      30.972  26.530  24.535  1.00  0.00    -0.000 A 
ATOM     11  C   UNL A   1      29.683  25.969  24.596  1.00  0.00     0.008 A 
ATOM     12  C   UNL A   1      31.098  27.749  23.859  1.00  0.00     0.127 A 
ATOM     13  C   UNL A   1      28.570  26.635  24.072  1.00  0.00     0.005 A 
ATOM     14  C   UNL A   1      29.995  28.406  23.307  1.00  0.00     0.043 A 
ATOM     15  F   UNL A   1      32.288  28.346  23.717  1.00  0.00    -0.207 F 
ATOM     16  C   UNL A   1      28.712  27.865  23.422  1.00  0.00    -0.038 A 
BRANCH  16  17
ATOM     17  C   UNL A   1      27.510  28.616  22.894  1.00  0.00     0.111 C 
BRANCH  17  18
ATOM     18  C   UNL A   1      27.742  30.073  22.697  1.00  0.00     0.108 A 
ATOM     19  C   UNL A   1      27.823  31.151  23.557  1.00  0.00     0.046 A 
ATOM     20  O   UNL A   1      27.973  30.486  21.417  1.00  0.00    -0.469 OA
ATOM     21  C   UNL A   1      28.108  32.282  22.758  1.00  0.00     0.042 A 
ATOM     22  C   UNL A   1      28.195  31.825  21.465  1.00  0.00     0.195 A 
ENDBRANCH  17  18
ENDBRANCH  16  17
ENDBRANCH   8  10
ENDBRANCH   5   8
ENDBRANCH   3   4
ENDBRANCH   2   3
ENDBRANCH   1   2
BRANCH   1  23
ATOM     23  C   UNL A   1      34.986  22.689  26.301  1.00  0.00     0.002 C 
BRANCH  23  24
ATOM     24  C   UNL A   1      35.763  23.934  25.863  1.00  0.00     0.021 C 
BRANCH  24  25
ATOM     25  C   UNL A   1      36.957  23.668  24.948  1.00  0.00     0.116 C 
BRANCH  25  26
ATOM     26  N   UNL A   1      37.839  22.639  25.471  1.00  0.00    -0.352 N 
ATOM     27  C   UNL A   1      38.978  22.759  26.224  1.00  0.00     0.251 C 
ATOM     28  H   UNL A   1      37.579  21.715  25.250  1.00  0.00     0.163 HD
ATOM     29  O   UNL A   1      39.679  21.770  26.433  1.00  0.00    -0.269 OA
BRANCH  27  30
ATOM     30  C   UNL A   1      39.389  24.071  26.772  1.00  0.00     0.039 A 
ATOM     31  C   UNL A   1      39.000  24.397  28.076  1.00  0.00     0.014 A 
ATOM     32  C   UNL A   1      40.107  24.995  26.007  1.00  0.00     0.014 A 
ATOM     33  C   UNL A   1      39.372  25.625  28.627  1.00  0.00     0.010 A 
ATOM     34  C   UNL A   1      40.526  26.197  26.577  1.00  0.00     0.010 A 
ATOM     35  C   UNL A   1      40.159  26.526  27.890  1.00  0.00    -0.014 A 
BRANCH  35  36
ATOM     36  C   UNL A   1      40.599  27.808  28.496  1.00  0.00     0.031 A 
ATOM     37  C   UNL A   1      42.037  28.019  28.877  1.00  0.00     0.074 A 
ATOM     38  C   UNL A   1      39.692  28.776  28.727  1.00  0.00     0.049 A 
ATOM     39  N   UNL A   1      42.604  29.070  29.418  1.00  0.00    -0.248 NA
ATOM     40  C   UNL A   1      42.958  26.897  28.640  1.00  0.00     0.031 C 
ATOM     41  C   UNL A   1      38.258  28.672  28.454  1.00  0.00     0.029 A 
ATOM     42  N   UNL A   1      39.841  30.037  29.250  1.00  0.00    -0.354 N 
ATOM     43  C   UNL A   1      43.941  28.735  29.584  1.00  0.00     0.074 A 
ATOM     44  C   UNL A   1      44.093  27.367  29.136  1.00  0.00     0.031 C 
ATOM     45  C   UNL A   1      37.661  29.825  28.794  1.00  0.00     0.029 A 
ATOM     46  C   UNL A   1      38.665  30.742  29.325  1.00  0.00     0.049 A 
ATOM     47  H   UNL A   1      40.708  30.400  29.542  1.00  0.00     0.167 HD
ATOM     48  C   UNL A   1      44.955  29.508  30.044  1.00  0.00     0.037 A 
ATOM     49  C   UNL A   1      38.425  31.990  29.770  1.00  0.00     0.037 A 
ATOM     50  C   UNL A   1      44.808  30.873  30.476  1.00  0.00     0.049 A 
ATOM     51  C   UNL A   1      39.573  32.834  30.249  1.00  0.00     0.074 A 
ATOM     52  C   UNL A   1      45.782  31.746  30.930  1.00  0.00     0.029 A 
ATOM     53  N   UNL A   1      43.608  31.567  30.501  1.00  0.00    -0.354 N 
ATOM     54  N   UNL A   1      40.843  32.526  30.347  1.00  0.00    -0.248 NA
ATOM     55  C   UNL A   1      39.256  34.208  30.665  1.00  0.00     0.031 C 
ATOM     56  C   UNL A   1      45.166  32.960  31.256  1.00  0.00     0.029 A 
ATOM     57  C   UNL A   1      43.815  32.855  30.970  1.00  0.00     0.049 A 
ATOM     58  H   UNL A   1      42.737  31.199  30.227  1.00  0.00     0.167 HD
ATOM     59  C   UNL A   1      41.478  33.666  30.817  1.00  0.00     0.074 A 
ATOM     60  C   UNL A   1      40.457  34.683  30.963  1.00  0.00     0.031 C 
ATOM     61  C   UNL A   1      42.787  33.853  31.108  1.00  0.00     0.037 A 
BRANCH  48  62
ATOM     62  C   UNL A   1      46.324  28.896  30.087  1.00  0.00     0.064 A 
ATOM     63  C   UNL A   1      46.780  28.213  31.224  1.00  0.00     0.173 A 
ATOM     64  C   UNL A   1      47.169  28.949  28.969  1.00  0.00     0.173 A 
ATOM     65  F   UNL A   1      46.013  28.145  32.323  1.00  0.00    -0.203 F 
ATOM     66  C   UNL A   1      48.041  27.624  31.249  1.00  0.00     0.198 A 
ATOM     67  C   UNL A   1      48.421  28.338  28.989  1.00  0.00     0.198 A 
ATOM     68  F   UNL A   1      46.779  29.586  27.855  1.00  0.00    -0.203 F 
ATOM     69  F   UNL A   1      48.471  27.010  32.360  1.00  0.00    -0.200 F 
ATOM     70  C   UNL A   1      48.858  27.682  30.129  1.00  0.00     0.200 A 
ATOM     71  F   UNL A   1      49.205  28.385  27.902  1.00  0.00    -0.200 F 
ATOM     72  F   UNL A   1      50.069  27.108  30.152  1.00  0.00    -0.200 F 
ENDBRANCH  48  62
BRANCH  49  73
ATOM     73  C   UNL A   1      37.041  32.528  29.753  1.00  0.00     0.064 A 
ATOM     74  C   UNL A   1      36.549  33.218  28.638  1.00  0.00     0.173 A 
ATOM     75  C   UNL A   1      36.187  32.366  30.853  1.00  0.00     0.173 A 
ATOM     76  F   UNL A   1      37.338  33.414  27.571  1.00  0.00    -0.203 F 
ATOM     77  C   UNL A   1      35.261  33.746  28.630  1.00  0.00     0.198 A 
ATOM     78  C   UNL A   1      34.890  32.873  30.835  1.00  0.00     0.198 A 
ATOM     79  F   UNL A   1      36.609  31.707  31.941  1.00  0.00    -0.203 F 
ATOM     80  F   UNL A   1      34.830  34.441  27.569  1.00  0.00    -0.200 F 
ATOM     81  C   UNL A   1      34.430  33.570  29.727  1.00  0.00     0.200 A 
ATOM     82  F   UNL A   1      34.086  32.690  31.891  1.00  0.00    -0.200 F 
ATOM     83  F   UNL A   1      33.190  34.077  29.719  1.00  0.00    -0.200 F 
ENDBRANCH  49  73
BRANCH  61  84
ATOM     84  C   UNL A   1      43.190  35.213  31.597  1.00  0.00     0.064 A 
ATOM     85  C   UNL A   1      43.670  36.194  30.717  1.00  0.00     0.173 A 
ATOM     86  C   UNL A   1      43.078  35.544  32.955  1.00  0.00     0.173 A 
ATOM     87  F   UNL A   1      43.810  35.919  29.411  1.00  0.00    -0.203 F 
ATOM     88  C   UNL A   1      44.048  37.450  31.185  1.00  0.00     0.198 A 
ATOM     89  C   UNL A   1      43.433  36.808  33.415  1.00  0.00     0.198 A 
ATOM     90  F   UNL A   1      42.620  34.641  33.836  1.00  0.00    -0.203 F 
ATOM     91  F   UNL A   1      44.548  38.357  30.334  1.00  0.00    -0.200 F 
ATOM     92  C   UNL A   1      43.926  37.757  32.531  1.00  0.00     0.200 A 
ATOM     93  F   UNL A   1      43.307  37.107  34.716  1.00  0.00    -0.200 F 
ATOM     94  F   UNL A   1      44.291  38.966  32.980  1.00  0.00    -0.200 F 
ENDBRANCH  61  84
ENDBRANCH  35  36
ENDBRANCH  27  30
ENDBRANCH  25  26
ENDBRANCH  24  25
ENDBRANCH  23  24
ENDBRANCH   1  23
TORSDOF 16
ENDMDL
MODEL 3
REMARK VINA RESULT:     -11.4      0.739      7.382
REMARK SMILES C[C@@H](C(=O)NCCCCCCNC(=O)c1ccc(-c2c3nc(c(-c4c(F)c(F)c(F)c(F)c4F)c4ccc([nH]4)c(-c4c(F)c(F)c(F)c(F)c4F)c4nc(c(-c5c(F)c(F)c(F)c(F)c5F)c5ccc2[nH]5)C=C4)C=C3)cc1)c1ccc(Cc2ccco2)cc1F
REMARK SMILES IDX 8 1 7 2 6 3 5 4 3 5 4 6 2 8 1 9 78 10 79 11 89 12 80 13
REMARK SMILES IDX 88 14 90 15 81 16 82 17 83 18 84 19 87 20 85 21 86 22 9 23
REMARK SMILES IDX 10 24 11 25 12 26 13 27 14 29 15 30 16 31 77 32 17 33 76 34
REMARK SMILES IDX 18 35 19 36 20 37 70 38 21 39 75 40 69 41 71 42 22 43 74 44
REMARK SMILES IDX 68 45 67 46 23 48 55 49 35 50 54 51 36 52 39 53 53 54 72 55
REMARK SMILES IDX 37 56 38 57 52 59 73 60 40 61 24 62 25 63 33 64 26 65 27 66
REMARK SMILES IDX 31 67 34 68 28 69 29 70 32 71 30 72 56 73 57 74 65 75 58 76
REMARK SMILES IDX 59 77 63 78 66 79 60 80 61 81 64 82 62 83 41 84 42 85 50 86
REMARK SMILES IDX 43 87 44 88 48 89 51 90 45 91 46 92 49 93 47 94
REMARK H PARENT 5 7 12 28 71 47 39 58
REMARK Flexibility Score: inf
ROOT
ATOM      1  C   UNL A   1      37.032  21.855  24.601  1.00  0.00     0.002 C 
ENDROOT
BRANCH   1   2
ATOM      2  C   UNL A   1      36.673  22.782  25.768  1.00  0.00     0.021 C 
BRANCH   2   3
ATOM      3  C   UNL A   1      35.906  24.045  25.362  1.00  0.00     0.116 C 
BRANCH   3   4
ATOM      4  N   UNL A   1      34.674  24.154  26.119  1.00  0.00    -0.356 N 
ATOM      5  C   UNL A   1      33.382  24.250  25.688  1.00  0.00     0.227 C 
ATOM      6  O   UNL A   1      32.546  24.597  26.526  1.00  0.00    -0.274 OA
ATOM      7  H   UNL A   1      34.787  24.158  27.097  1.00  0.00     0.163 HD
BRANCH   5   8
ATOM      8  C   UNL A   1      33.021  23.890  24.232  1.00  0.00     0.108 C 
ATOM      9  C   UNL A   1      31.827  24.742  23.791  1.00  0.00     0.023 C 
BRANCH   8  10
ATOM     10  C   UNL A   1      32.846  22.378  24.041  1.00  0.00    -0.000 A 
ATOM     11  C   UNL A   1      32.949  21.531  25.161  1.00  0.00     0.008 A 
ATOM     12  C   UNL A   1      32.601  21.765  22.807  1.00  0.00     0.127 A 
ATOM     13  C   UNL A   1      32.741  20.152  25.056  1.00  0.00     0.005 A 
ATOM     14  C   UNL A   1      32.422  20.385  22.689  1.00  0.00     0.043 A 
ATOM     15  F   UNL A   1      32.521  22.482  21.678  1.00  0.00    -0.207 F 
ATOM     16  C   UNL A   1      32.472  19.561  23.816  1.00  0.00    -0.038 A 
BRANCH  16  17
ATOM     17  C   UNL A   1      32.199  18.078  23.699  1.00  0.00     0.111 C 
BRANCH  17  18
ATOM     18  C   UNL A   1      33.278  17.216  24.253  1.00  0.00     0.108 A 
ATOM     19  C   UNL A   1      34.655  17.319  24.292  1.00  0.00     0.046 A 
ATOM     20  O   UNL A   1      32.882  16.089  24.913  1.00  0.00    -0.469 OA
ATOM     21  C   UNL A   1      35.123  16.190  25.003  1.00  0.00     0.042 A 
ATOM     22  C   UNL A   1      34.006  15.475  25.365  1.00  0.00     0.195 A 
ENDBRANCH  17  18
ENDBRANCH  16  17
ENDBRANCH   8  10
ENDBRANCH   5   8
ENDBRANCH   3   4
ENDBRANCH   2   3
ENDBRANCH   1   2
BRANCH   1  23
ATOM     23  C   UNL A   1      36.633  20.388  24.785  1.00  0.00     0.002 C 
BRANCH  23  24
ATOM     24  C   UNL A   1      37.797  19.417  25.000  1.00  0.00     0.021 C 
BRANCH  24  25
ATOM     25  C   UNL A   1      38.996  19.993  25.751  1.00  0.00     0.116 C 
BRANCH  25  26
ATOM     26  N   UNL A   1      40.072  19.030  25.903  1.00  0.00    -0.352 N 
ATOM     27  C   UNL A   1      41.410  19.235  26.120  1.00  0.00     0.251 C 
ATOM     28  H   UNL A   1      39.799  18.086  25.839  1.00  0.00     0.163 HD
ATOM     29  O   UNL A   1      42.191  18.287  26.058  1.00  0.00    -0.269 OA
BRANCH  27  30
ATOM     30  C   UNL A   1      41.931  20.589  26.408  1.00  0.00     0.039 A 
ATOM     31  C   UNL A   1      42.191  21.444  25.331  1.00  0.00     0.014 A 
ATOM     32  C   UNL A   1      42.210  21.008  27.713  1.00  0.00     0.014 A 
ATOM     33  C   UNL A   1      42.681  22.730  25.566  1.00  0.00     0.010 A 
ATOM     34  C   UNL A   1      42.647  22.312  27.950  1.00  0.00     0.010 A 
ATOM     35  C   UNL A   1      42.891  23.183  26.879  1.00  0.00    -0.014 A 
BRANCH  35  36
ATOM     36  C   UNL A   1      43.362  24.569  27.130  1.00  0.00     0.031 A 
ATOM     37  C   UNL A   1      42.426  25.605  27.685  1.00  0.00     0.074 A 
ATOM     38  C   UNL A   1      44.632  24.901  26.829  1.00  0.00     0.049 A 
ATOM     39  N   UNL A   1      42.658  26.864  27.967  1.00  0.00    -0.248 NA
ATOM     40  C   UNL A   1      41.041  25.180  27.939  1.00  0.00     0.031 C 
ATOM     41  C   UNL A   1      45.620  24.001  26.233  1.00  0.00     0.029 A 
ATOM     42  N   UNL A   1      45.307  26.086  26.979  1.00  0.00    -0.354 N 
ATOM     43  C   UNL A   1      41.454  27.377  28.429  1.00  0.00     0.074 A 
ATOM     44  C   UNL A   1      40.479  26.311  28.343  1.00  0.00     0.031 C 
ATOM     45  C   UNL A   1      46.780  24.660  26.084  1.00  0.00     0.029 A 
ATOM     46  C   UNL A   1      46.612  26.031  26.557  1.00  0.00     0.049 A 
ATOM     47  H   UNL A   1      44.895  26.898  27.354  1.00  0.00     0.167 HD
ATOM     48  C   UNL A   1      41.192  28.618  28.908  1.00  0.00     0.037 A 
ATOM     49  C   UNL A   1      47.567  26.981  26.553  1.00  0.00     0.037 A 
ATOM     50  C   UNL A   1      42.163  29.675  29.008  1.00  0.00     0.049 A 
ATOM     51  C   UNL A   1      47.256  28.340  27.115  1.00  0.00     0.074 A 
ATOM     52  C   UNL A   1      41.999  30.956  29.506  1.00  0.00     0.029 A 
ATOM     53  N   UNL A   1      43.487  29.570  28.605  1.00  0.00    -0.354 N 
ATOM     54  N   UNL A   1      46.129  28.795  27.604  1.00  0.00    -0.248 NA
ATOM     55  C   UNL A   1      48.357  29.314  27.140  1.00  0.00     0.031 C 
ATOM     56  C   UNL A   1      43.217  31.635  29.380  1.00  0.00     0.029 A 
ATOM     57  C   UNL A   1      44.148  30.766  28.838  1.00  0.00     0.049 A 
ATOM     58  H   UNL A   1      43.895  28.765  28.213  1.00  0.00     0.167 HD
ATOM     59  C   UNL A   1      46.386  30.097  28.008  1.00  0.00     0.074 A 
ATOM     60  C   UNL A   1      47.784  30.352  27.730  1.00  0.00     0.031 C 
ATOM     61  C   UNL A   1      45.539  31.001  28.556  1.00  0.00     0.037 A 
BRANCH  48  62
ATOM     62  C   UNL A   1      39.794  28.894  29.378  1.00  0.00     0.064 A 
ATOM     63  C   UNL A   1      38.818  29.393  28.503  1.00  0.00     0.173 A 
ATOM     64  C   UNL A   1      39.413  28.615  30.699  1.00  0.00     0.173 A 
ATOM     65  F   UNL A   1      39.136  29.688  27.234  1.00  0.00    -0.203 F 
ATOM     66  C   UNL A   1      37.516  29.624  28.939  1.00  0.00     0.198 A 
ATOM     67  C   UNL A   1      38.103  28.824  31.125  1.00  0.00     0.198 A 
ATOM     68  F   UNL A   1      40.307  28.131  31.573  1.00  0.00    -0.203 F 
ATOM     69  F   UNL A   1      36.610  30.138  28.096  1.00  0.00    -0.200 F 
ATOM     70  C   UNL A   1      37.158  29.332  30.247  1.00  0.00     0.200 A 
ATOM     71  F   UNL A   1      37.756  28.531  32.386  1.00  0.00    -0.200 F 
ATOM     72  F   UNL A   1      35.902  29.548  30.663  1.00  0.00    -0.200 F 
ENDBRANCH  48  62
BRANCH  49  73
ATOM     73  C   UNL A   1      48.920  26.667  26.027  1.00  0.00     0.064 A 
ATOM     74  C   UNL A   1      49.882  26.046  26.835  1.00  0.00     0.173 A 
ATOM     75  C   UNL A   1      49.278  26.985  24.710  1.00  0.00     0.173 A 
ATOM     76  F   UNL A   1      49.590  25.741  28.109  1.00  0.00    -0.203 F 
ATOM     77  C   UNL A   1      51.160  25.775  26.352  1.00  0.00     0.198 A 
ATOM     78  C   UNL A   1      50.548  26.692  24.220  1.00  0.00     0.198 A 
ATOM     79  F   UNL A   1      48.390  27.575  23.896  1.00  0.00    -0.203 F 
ATOM     80  F   UNL A   1      52.075  25.221  27.159  1.00  0.00    -0.200 F 
ATOM     81  C   UNL A   1      51.491  26.094  25.043  1.00  0.00     0.200 A 
ATOM     82  F   UNL A   1      50.861  26.990  22.952  1.00  0.00    -0.200 F 
ATOM     83  F   UNL A   1      52.720  25.832  24.579  1.00  0.00    -0.200 F 
ENDBRANCH  49  73
BRANCH  61  84
ATOM     84  C   UNL A   1      46.109  32.345  28.904  1.00  0.00     0.064 A 
ATOM     85  C   UNL A   1      46.091  33.406  27.988  1.00  0.00     0.173 A 
ATOM     86  C   UNL A   1      46.661  32.577  30.172  1.00  0.00     0.173 A 
ATOM     87  F   UNL A   1      45.589  33.227  26.757  1.00  0.00    -0.203 F 
ATOM     88  C   UNL A   1      46.631  34.646  28.321  1.00  0.00     0.198 A 
ATOM     89  C   UNL A   1      47.177  33.825  30.510  1.00  0.00     0.198 A 
ATOM     90  F   UNL A   1      46.697  31.595  31.085  1.00  0.00    -0.203 F 
ATOM     91  F   UNL A   1      46.646  35.633  27.414  1.00  0.00    -0.200 F 
ATOM     92  C   UNL A   1      47.169  34.856  29.581  1.00  0.00     0.200 A 
ATOM     93  F   UNL A   1      47.689  34.029  31.732  1.00  0.00    -0.200 F 
ATOM     94  F   UNL A   1      47.687  36.050  29.900  1.00  0.00    -0.200 F 
ENDBRANCH  61  84
ENDBRANCH  35  36
ENDBRANCH  27  30
ENDBRANCH  25  26
ENDBRANCH  24  25
ENDBRANCH  23  24
ENDBRANCH   1  23
TORSDOF 16
ENDMDL
