MODEL 1
REMARK VINA RESULT:     -12.2      0.000      0.000
REMARK SMILES Cc1cc(N2CCC[C@H]2C2CCCC2)cc(C(=O)NCCCCCCNC(=O)c2ccc(-c3c4nc(c(-c5c(F)c(F)c(F)c(F)c5F)c5ccc([nH]5)c(-c5c(F)c(F)c(F)c(F)c5F)c5nc(c(-c6c(F)c(F)c(F)c(F)c6F)c6ccc3[nH]6)C=C5)C=C4)cc2)c1N
REMARK SMILES IDX 22 1 21 2 20 3 19 4 17 5 18 6 16 8 1 9 2 10 3 11 92 12 4 13
REMARK SMILES IDX 15 14 93 15 5 18 6 19 9 20 7 21 8 22 10 23 11 24 14 25 12 26
REMARK SMILES IDX 13 27 23 28 24 29 25 30 26 31 27 32 28 34 29 35 30 36 91 37
REMARK SMILES IDX 31 38 90 39 32 40 33 41 34 42 84 43 35 44 89 45 83 46 85 47
REMARK SMILES IDX 36 48 88 49 82 50 81 51 37 53 69 54 49 55 68 56 50 57 53 58
REMARK SMILES IDX 67 59 86 60 51 61 52 62 66 64 87 65 54 66 38 67 39 68 47 69
REMARK SMILES IDX 40 70 41 71 45 72 48 73 42 74 43 75 46 76 44 77 70 78 71 79
REMARK SMILES IDX 79 80 72 81 73 82 77 83 80 84 74 85 75 86 78 87 76 88 55 89
REMARK SMILES IDX 56 90 64 91 57 92 58 93 62 94 65 95 59 96 60 97 63 98 61 99
REMARK H PARENT 19 7 93 16 93 17 26 33 85 52 53 63
REMARK Flexibility Score: inf
ROOT
ATOM      1  C   UNL A   1      34.601  32.334  28.975  1.00  0.00     0.002 C 
ENDROOT
BRANCH   1   2
ATOM      2  C   UNL A   1      34.766  31.612  27.626  1.00  0.00     0.021 C 
BRANCH   2   3
ATOM      3  C   UNL A   1      34.683  30.076  27.681  1.00  0.00     0.116 C 
BRANCH   3   4
ATOM      4  N   UNL A   1      33.305  29.622  27.782  1.00  0.00    -0.352 N 
ATOM      5  C   UNL A   1      32.536  28.665  27.161  1.00  0.00     0.253 C 
ATOM      6  O   UNL A   1      31.403  28.524  27.639  1.00  0.00    -0.269 OA
ATOM      7  H   UNL A   1      32.796  30.123  28.461  1.00  0.00     0.163 HD
BRANCH   5   8
ATOM      8  C   UNL A   1      32.954  27.785  26.008  1.00  0.00     0.065 A 
ATOM      9  C   UNL A   1      34.028  28.187  22.342  1.00  0.00     0.046 C 
ATOM     10  C   UNL A   1      33.634  27.576  23.663  1.00  0.00    -0.025 A 
ATOM     11  C   UNL A   1      33.747  26.183  23.832  1.00  0.00     0.031 A 
ATOM     12  C   UNL A   1      33.208  28.385  24.743  1.00  0.00     0.047 A 
ATOM     13  C   UNL A   1      33.549  25.574  25.076  1.00  0.00     0.038 A 
ATOM     14  C   UNL A   1      33.234  26.417  26.164  1.00  0.00     0.042 A 
BRANCH  12  15
ATOM     15  N   UNL A   1      32.917  29.736  24.504  1.00  0.00    -0.398 N 
ATOM     16  H   UNL A   1      32.265  30.208  25.071  1.00  0.00     0.156 HD
ATOM     17  H   UNL A   1      33.365  30.213  23.769  1.00  0.00     0.156 HD
ENDBRANCH  12  15
BRANCH  13  18
ATOM     18  N   UNL A   1      33.694  24.188  25.263  1.00  0.00    -0.368 N 
ATOM     19  C   UNL A   1      32.447  23.431  25.458  1.00  0.00     0.117 C 
ATOM     20  C   UNL A   1      34.726  23.704  26.235  1.00  0.00     0.085 C 
ATOM     21  C   UNL A   1      32.552  22.838  26.859  1.00  0.00     0.024 C 
ATOM     22  C   UNL A   1      34.033  22.578  27.029  1.00  0.00     0.027 C 
BRANCH  20  23
ATOM     23  C   UNL A   1      36.024  23.169  25.581  1.00  0.00     0.011 C 
ATOM     24  C   UNL A   1      36.308  21.669  25.751  1.00  0.00     0.006 C 
ATOM     25  C   UNL A   1      36.060  23.345  24.079  1.00  0.00     0.006 C 
ATOM     26  C   UNL A   1      37.305  21.330  24.653  1.00  0.00     0.000 C 
ATOM     27  C   UNL A   1      37.028  22.316  23.537  1.00  0.00     0.000 C 
ENDBRANCH  20  23
ENDBRANCH  13  18
ENDBRANCH   5   8
ENDBRANCH   3   4
ENDBRANCH   2   3
ENDBRANCH   1   2
BRANCH   1  28
ATOM     28  C   UNL A   1      34.595  33.871  28.975  1.00  0.00     0.002 C 
BRANCH  28  29
ATOM     29  C   UNL A   1      33.246  34.587  29.074  1.00  0.00     0.021 C 
BRANCH  29  30
ATOM     30  C   UNL A   1      33.261  36.083  29.370  1.00  0.00     0.116 C 
BRANCH  30  31
ATOM     31  N   UNL A   1      32.527  36.398  30.584  1.00  0.00    -0.352 N 
ATOM     32  C   UNL A   1      32.663  35.907  31.856  1.00  0.00     0.251 C 
ATOM     33  H   UNL A   1      31.818  37.073  30.475  1.00  0.00     0.163 HD
ATOM     34  O   UNL A   1      31.772  36.133  32.684  1.00  0.00    -0.269 OA
BRANCH  32  35
ATOM     35  C   UNL A   1      33.841  35.110  32.275  1.00  0.00     0.039 A 
ATOM     36  C   UNL A   1      35.113  35.689  32.170  1.00  0.00     0.014 A 
ATOM     37  C   UNL A   1      33.730  33.776  32.678  1.00  0.00     0.014 A 
ATOM     38  C   UNL A   1      36.257  34.953  32.502  1.00  0.00     0.010 A 
ATOM     39  C   UNL A   1      34.868  33.060  33.067  1.00  0.00     0.010 A 
ATOM     40  C   UNL A   1      36.145  33.636  32.974  1.00  0.00    -0.014 A 
BRANCH  40  41
ATOM     41  C   UNL A   1      37.353  32.852  33.356  1.00  0.00     0.031 A 
ATOM     42  C   UNL A   1      38.067  33.131  34.654  1.00  0.00     0.074 A 
ATOM     43  C   UNL A   1      37.837  31.914  32.520  1.00  0.00     0.049 A 
ATOM     44  N   UNL A   1      39.166  32.597  35.127  1.00  0.00    -0.248 NA
ATOM     45  C   UNL A   1      37.480  34.161  35.524  1.00  0.00     0.031 C 
ATOM     46  C   UNL A   1      37.261  31.564  31.221  1.00  0.00     0.029 A 
ATOM     47  N   UNL A   1      38.930  31.088  32.631  1.00  0.00    -0.354 N 
ATOM     48  C   UNL A   1      39.409  33.234  36.338  1.00  0.00     0.074 A 
ATOM     49  C   UNL A   1      38.368  34.225  36.507  1.00  0.00     0.031 C 
ATOM     50  C   UNL A   1      37.996  30.588  30.663  1.00  0.00     0.029 A 
ATOM     51  C   UNL A   1      39.115  30.268  31.545  1.00  0.00     0.049 A 
ATOM     52  H   UNL A   1      39.526  31.086  33.415  1.00  0.00     0.167 HD
ATOM     53  C   UNL A   1      40.397  33.002  37.235  1.00  0.00     0.037 A 
ATOM     54  C   UNL A   1      40.083  29.367  31.282  1.00  0.00     0.037 A 
ATOM     55  C   UNL A   1      41.418  31.997  37.084  1.00  0.00     0.049 A 
ATOM     56  C   UNL A   1      41.174  29.137  32.292  1.00  0.00     0.074 A 
ATOM     57  C   UNL A   1      42.425  31.650  37.969  1.00  0.00     0.029 A 
ATOM     58  N   UNL A   1      41.561  31.176  35.976  1.00  0.00    -0.354 N 
ATOM     59  N   UNL A   1      41.356  29.705  33.460  1.00  0.00    -0.248 NA
ATOM     60  C   UNL A   1      42.193  28.133  31.950  1.00  0.00     0.031 C 
ATOM     61  C   UNL A   1      43.205  30.652  37.376  1.00  0.00     0.029 A 
ATOM     62  C   UNL A   1      42.653  30.341  36.145  1.00  0.00     0.049 A 
ATOM     63  H   UNL A   1      40.973  31.186  35.186  1.00  0.00     0.167 HD
ATOM     64  C   UNL A   1      42.486  29.107  34.003  1.00  0.00     0.074 A 
ATOM     65  C   UNL A   1      42.941  28.123  33.045  1.00  0.00     0.031 C 
ATOM     66  C   UNL A   1      43.091  29.354  35.191  1.00  0.00     0.037 A 
BRANCH  53  67
ATOM     67  C   UNL A   1      40.430  33.850  38.476  1.00  0.00     0.064 A 
ATOM     68  C   UNL A   1      39.705  33.500  39.625  1.00  0.00     0.173 A 
ATOM     69  C   UNL A   1      41.243  34.992  38.537  1.00  0.00     0.173 A 
ATOM     70  F   UNL A   1      38.907  32.422  39.617  1.00  0.00    -0.203 F 
ATOM     71  C   UNL A   1      39.776  34.275  40.780  1.00  0.00     0.198 A 
ATOM     72  C   UNL A   1      41.335  35.747  39.702  1.00  0.00     0.198 A 
ATOM     73  F   UNL A   1      41.965  35.366  37.469  1.00  0.00    -0.203 F 
ATOM     74  F   UNL A   1      39.043  33.943  41.853  1.00  0.00    -0.200 F 
ATOM     75  C   UNL A   1      40.597  35.392  40.821  1.00  0.00     0.200 A 
ATOM     76  F   UNL A   1      42.140  36.817  39.745  1.00  0.00    -0.200 F 
ATOM     77  F   UNL A   1      40.673  36.128  41.938  1.00  0.00    -0.200 F 
ENDBRANCH  53  67
BRANCH  54  78
ATOM     78  C   UNL A   1      40.061  28.601  30.008  1.00  0.00     0.064 A 
ATOM     79  C   UNL A   1      39.441  27.346  29.931  1.00  0.00     0.173 A 
ATOM     80  C   UNL A   1      40.676  29.095  28.847  1.00  0.00     0.173 A 
ATOM     81  F   UNL A   1      38.860  26.820  31.020  1.00  0.00    -0.203 F 
ATOM     82  C   UNL A   1      39.458  26.604  28.752  1.00  0.00     0.198 A 
ATOM     83  C   UNL A   1      40.665  28.367  27.661  1.00  0.00     0.198 A 
ATOM     84  F   UNL A   1      41.281  30.292  28.866  1.00  0.00    -0.203 F 
ATOM     85  F   UNL A   1      38.904  25.385  28.723  1.00  0.00    -0.200 F 
ATOM     86  C   UNL A   1      40.065  27.117  27.616  1.00  0.00     0.200 A 
ATOM     87  F   UNL A   1      41.243  28.872  26.562  1.00  0.00    -0.200 F 
ATOM     88  F   UNL A   1      40.082  26.403  26.482  1.00  0.00    -0.200 F 
ENDBRANCH  54  78
BRANCH  66  89
ATOM     89  C   UNL A   1      44.288  28.519  35.543  1.00  0.00     0.064 A 
ATOM     90  C   UNL A   1      45.584  28.884  35.148  1.00  0.00     0.173 A 
ATOM     91  C   UNL A   1      44.140  27.359  36.319  1.00  0.00     0.173 A 
ATOM     92  F   UNL A   1      45.776  29.976  34.392  1.00  0.00    -0.203 F 
ATOM     93  C   UNL A   1      46.684  28.106  35.497  1.00  0.00     0.198 A 
ATOM     94  C   UNL A   1      45.245  26.599  36.691  1.00  0.00     0.198 A 
ATOM     95  F   UNL A   1      42.923  26.970  36.728  1.00  0.00    -0.203 F 
ATOM     96  F   UNL A   1      47.907  28.448  35.069  1.00  0.00    -0.200 F 
ATOM     97  C   UNL A   1      46.515  26.968  36.273  1.00  0.00     0.200 A 
ATOM     98  F   UNL A   1      45.082  25.509  37.453  1.00  0.00    -0.200 F 
ATOM     99  F   UNL A   1      47.576  26.225  36.614  1.00  0.00    -0.200 F 
ENDBRANCH  66  89
ENDBRANCH  40  41
ENDBRANCH  32  35
ENDBRANCH  30  31
ENDBRANCH  29  30
ENDBRANCH  28  29
ENDBRANCH   1  28
TORSDOF 16
ENDMDL
MODEL 2
REMARK VINA RESULT:     -12.2      0.222      1.921
REMARK SMILES Cc1cc(N2CCC[C@H]2C2CCCC2)cc(C(=O)NCCCCCCNC(=O)c2ccc(-c3c4nc(c(-c5c(F)c(F)c(F)c(F)c5F)c5ccc([nH]5)c(-c5c(F)c(F)c(F)c(F)c5F)c5nc(c(-c6c(F)c(F)c(F)c(F)c6F)c6ccc3[nH]6)C=C5)C=C4)cc2)c1N
REMARK SMILES IDX 22 1 21 2 20 3 19 4 17 5 18 6 16 8 1 9 2 10 3 11 92 12 4 13
REMARK SMILES IDX 15 14 93 15 5 18 6 19 9 20 7 21 8 22 10 23 11 24 14 25 12 26
REMARK SMILES IDX 13 27 23 28 24 29 25 30 26 31 27 32 28 34 29 35 30 36 91 37
REMARK SMILES IDX 31 38 90 39 32 40 33 41 34 42 84 43 35 44 89 45 83 46 85 47
REMARK SMILES IDX 36 48 88 49 82 50 81 51 37 53 69 54 49 55 68 56 50 57 53 58
REMARK SMILES IDX 67 59 86 60 51 61 52 62 66 64 87 65 54 66 38 67 39 68 47 69
REMARK SMILES IDX 40 70 41 71 45 72 48 73 42 74 43 75 46 76 44 77 70 78 71 79
REMARK SMILES IDX 79 80 72 81 73 82 77 83 80 84 74 85 75 86 78 87 76 88 55 89
REMARK SMILES IDX 56 90 64 91 57 92 58 93 62 94 65 95 59 96 60 97 63 98 61 99
REMARK H PARENT 19 7 93 16 93 17 26 33 85 52 53 63
REMARK Flexibility Score: inf
ROOT
ATOM      1  C   UNL A   1      34.090  32.211  28.363  1.00  0.00     0.002 C 
ENDROOT
BRANCH   1   2
ATOM      2  C   UNL A   1      35.329  31.380  27.985  1.00  0.00     0.021 C 
BRANCH   2   3
ATOM      3  C   UNL A   1      35.055  29.910  27.621  1.00  0.00     0.116 C 
BRANCH   3   4
ATOM      4  N   UNL A   1      33.642  29.589  27.739  1.00  0.00    -0.352 N 
ATOM      5  C   UNL A   1      32.778  28.707  27.130  1.00  0.00     0.253 C 
ATOM      6  O   UNL A   1      31.643  28.675  27.622  1.00  0.00    -0.269 OA
ATOM      7  H   UNL A   1      33.191  30.136  28.423  1.00  0.00     0.163 HD
BRANCH   5   8
ATOM      8  C   UNL A   1      33.097  27.791  25.974  1.00  0.00     0.065 A 
ATOM      9  C   UNL A   1      34.015  28.083  22.256  1.00  0.00     0.046 C 
ATOM     10  C   UNL A   1      33.654  27.513  23.604  1.00  0.00    -0.025 A 
ATOM     11  C   UNL A   1      33.706  26.119  23.791  1.00  0.00     0.031 A 
ATOM     12  C   UNL A   1      33.320  28.358  24.688  1.00  0.00     0.047 A 
ATOM     13  C   UNL A   1      33.537  25.539  25.054  1.00  0.00     0.038 A 
ATOM     14  C   UNL A   1      33.316  26.412  26.140  1.00  0.00     0.042 A 
BRANCH  12  15
ATOM     15  N   UNL A   1      33.086  29.719  24.440  1.00  0.00    -0.398 N 
ATOM     16  H   UNL A   1      32.707  30.003  23.577  1.00  0.00     0.156 HD
ATOM     17  H   UNL A   1      33.301  30.388  25.127  1.00  0.00     0.156 HD
ENDBRANCH  12  15
BRANCH  13  18
ATOM     18  N   UNL A   1      33.621  24.150  25.258  1.00  0.00    -0.368 N 
ATOM     19  C   UNL A   1      32.339  23.441  25.398  1.00  0.00     0.117 C 
ATOM     20  C   UNL A   1      34.587  23.638  26.282  1.00  0.00     0.085 C 
ATOM     21  C   UNL A   1      32.355  22.857  26.806  1.00  0.00     0.024 C 
ATOM     22  C   UNL A   1      33.815  22.545  27.050  1.00  0.00     0.027 C 
BRANCH  20  23
ATOM     23  C   UNL A   1      35.894  23.050  25.695  1.00  0.00     0.011 C 
ATOM     24  C   UNL A   1      36.045  21.522  25.754  1.00  0.00     0.006 C 
ATOM     25  C   UNL A   1      36.082  23.344  24.223  1.00  0.00     0.006 C 
ATOM     26  C   UNL A   1      37.109  21.191  24.719  1.00  0.00     0.000 C 
ATOM     27  C   UNL A   1      37.013  22.285  23.676  1.00  0.00     0.000 C 
ENDBRANCH  20  23
ENDBRANCH  13  18
ENDBRANCH   5   8
ENDBRANCH   3   4
ENDBRANCH   2   3
ENDBRANCH   1   2
BRANCH   1  28
ATOM     28  C   UNL A   1      34.299  33.685  28.744  1.00  0.00     0.002 C 
BRANCH  28  29
ATOM     29  C   UNL A   1      33.080  34.610  28.748  1.00  0.00     0.021 C 
BRANCH  29  30
ATOM     30  C   UNL A   1      33.281  36.043  29.231  1.00  0.00     0.116 C 
BRANCH  30  31
ATOM     31  N   UNL A   1      32.505  36.321  30.428  1.00  0.00    -0.352 N 
ATOM     32  C   UNL A   1      32.618  35.815  31.696  1.00  0.00     0.251 C 
ATOM     33  H   UNL A   1      31.783  36.979  30.307  1.00  0.00     0.163 HD
ATOM     34  O   UNL A   1      31.699  36.006  32.501  1.00  0.00    -0.269 OA
BRANCH  32  35
ATOM     35  C   UNL A   1      33.804  35.043  32.137  1.00  0.00     0.039 A 
ATOM     36  C   UNL A   1      35.071  35.627  32.007  1.00  0.00     0.014 A 
ATOM     37  C   UNL A   1      33.705  33.722  32.587  1.00  0.00     0.014 A 
ATOM     38  C   UNL A   1      36.222  34.912  32.359  1.00  0.00     0.010 A 
ATOM     39  C   UNL A   1      34.850  33.029  32.996  1.00  0.00     0.010 A 
ATOM     40  C   UNL A   1      36.122  33.612  32.877  1.00  0.00    -0.014 A 
BRANCH  40  41
ATOM     41  C   UNL A   1      37.338  32.851  33.281  1.00  0.00     0.031 A 
ATOM     42  C   UNL A   1      38.040  33.163  34.578  1.00  0.00     0.074 A 
ATOM     43  C   UNL A   1      37.840  31.904  32.465  1.00  0.00     0.049 A 
ATOM     44  N   UNL A   1      39.143  32.651  35.068  1.00  0.00    -0.248 NA
ATOM     45  C   UNL A   1      37.433  34.200  35.425  1.00  0.00     0.031 C 
ATOM     46  C   UNL A   1      37.278  31.523  31.169  1.00  0.00     0.029 A 
ATOM     47  N   UNL A   1      38.944  31.095  32.598  1.00  0.00    -0.354 N 
ATOM     48  C   UNL A   1      39.368  33.313  36.269  1.00  0.00     0.074 A 
ATOM     49  C   UNL A   1      38.313  34.293  36.413  1.00  0.00     0.031 C 
ATOM     50  C   UNL A   1      38.029  30.547  30.633  1.00  0.00     0.029 A 
ATOM     51  C   UNL A   1      39.146  30.259  31.527  1.00  0.00     0.049 A 
ATOM     52  H   UNL A   1      39.534  31.115  33.385  1.00  0.00     0.167 HD
ATOM     53  C   UNL A   1      40.354  33.111  37.176  1.00  0.00     0.037 A 
ATOM     54  C   UNL A   1      40.128  29.366  31.287  1.00  0.00     0.037 A 
ATOM     55  C   UNL A   1      41.389  32.116  37.050  1.00  0.00     0.049 A 
ATOM     56  C   UNL A   1      41.215  29.169  32.309  1.00  0.00     0.074 A 
ATOM     57  C   UNL A   1      42.395  31.799  37.947  1.00  0.00     0.029 A 
ATOM     58  N   UNL A   1      41.550  31.278  35.957  1.00  0.00    -0.354 N 
ATOM     59  N   UNL A   1      41.382  29.759  33.467  1.00  0.00    -0.248 NA
ATOM     60  C   UNL A   1      42.250  28.172  31.991  1.00  0.00     0.031 C 
ATOM     61  C   UNL A   1      43.192  30.801  37.378  1.00  0.00     0.029 A 
ATOM     62  C   UNL A   1      42.652  30.460  36.149  1.00  0.00     0.049 A 
ATOM     63  H   UNL A   1      40.968  31.266  35.164  1.00  0.00     0.167 HD
ATOM     64  C   UNL A   1      42.515  29.187  34.028  1.00  0.00     0.074 A 
ATOM     65  C   UNL A   1      42.990  28.192  33.090  1.00  0.00     0.031 C 
ATOM     66  C   UNL A   1      43.109  29.463  35.215  1.00  0.00     0.037 A 
BRANCH  53  67
ATOM     67  C   UNL A   1      40.367  33.981  38.402  1.00  0.00     0.064 A 
ATOM     68  C   UNL A   1      41.097  35.178  38.444  1.00  0.00     0.173 A 
ATOM     69  C   UNL A   1      39.593  33.645  39.522  1.00  0.00     0.173 A 
ATOM     70  F   UNL A   1      41.859  35.542  37.401  1.00  0.00    -0.203 F 
ATOM     71  C   UNL A   1      41.069  35.995  39.572  1.00  0.00     0.198 A 
ATOM     72  C   UNL A   1      39.544  34.478  40.637  1.00  0.00     0.198 A 
ATOM     73  F   UNL A   1      38.869  32.516  39.530  1.00  0.00    -0.203 F 
ATOM     74  F   UNL A   1      41.806  37.114  39.605  1.00  0.00    -0.200 F 
ATOM     75  C   UNL A   1      40.286  35.649  40.663  1.00  0.00     0.200 A 
ATOM     76  F   UNL A   1      38.776  34.150  41.684  1.00  0.00    -0.200 F 
ATOM     77  F   UNL A   1      40.251  36.443  41.743  1.00  0.00    -0.200 F 
ENDBRANCH  53  67
BRANCH  54  78
ATOM     78  C   UNL A   1      40.125  28.577  30.027  1.00  0.00     0.064 A 
ATOM     79  C   UNL A   1      40.735  29.071  28.865  1.00  0.00     0.173 A 
ATOM     80  C   UNL A   1      39.495  27.326  29.949  1.00  0.00     0.173 A 
ATOM     81  F   UNL A   1      41.330  30.273  28.882  1.00  0.00    -0.203 F 
ATOM     82  C   UNL A   1      40.695  28.357  27.670  1.00  0.00     0.198 A 
ATOM     83  C   UNL A   1      39.482  26.599  28.762  1.00  0.00     0.198 A 
ATOM     84  F   UNL A   1      38.897  26.807  31.033  1.00  0.00    -0.203 F 
ATOM     85  F   UNL A   1      41.240  28.877  26.562  1.00  0.00    -0.200 F 
ATOM     86  C   UNL A   1      40.073  27.118  27.620  1.00  0.00     0.200 A 
ATOM     87  F   UNL A   1      38.890  25.397  28.722  1.00  0.00    -0.200 F 
ATOM     88  F   UNL A   1      40.034  26.432  26.471  1.00  0.00    -0.200 F 
ENDBRANCH  54  78
BRANCH  66  89
ATOM     89  C   UNL A   1      44.315  28.651  35.590  1.00  0.00     0.064 A 
ATOM     90  C   UNL A   1      44.204  27.453  36.310  1.00  0.00     0.173 A 
ATOM     91  C   UNL A   1      45.597  29.058  35.187  1.00  0.00     0.173 A 
ATOM     92  F   UNL A   1      43.003  27.028  36.731  1.00  0.00    -0.203 F 
ATOM     93  C   UNL A   1      45.333  26.705  36.635  1.00  0.00     0.198 A 
ATOM     94  C   UNL A   1      46.720  28.294  35.488  1.00  0.00     0.198 A 
ATOM     95  F   UNL A   1      45.758  30.193  34.489  1.00  0.00    -0.203 F 
ATOM     96  F   UNL A   1      45.207  25.588  37.365  1.00  0.00    -0.200 F 
ATOM     97  C   UNL A   1      46.588  27.122  36.218  1.00  0.00     0.200 A 
ATOM     98  F   UNL A   1      47.931  28.690  35.072  1.00  0.00    -0.200 F 
ATOM     99  F   UNL A   1      47.673  26.397  36.525  1.00  0.00    -0.200 F 
ENDBRANCH  66  89
ENDBRANCH  40  41
ENDBRANCH  32  35
ENDBRANCH  30  31
ENDBRANCH  29  30
ENDBRANCH  28  29
ENDBRANCH   1  28
TORSDOF 16
ENDMDL
MODEL 3
REMARK VINA RESULT:     -12.0      6.449     12.068
REMARK SMILES Cc1cc(N2CCC[C@H]2C2CCCC2)cc(C(=O)NCCCCCCNC(=O)c2ccc(-c3c4nc(c(-c5c(F)c(F)c(F)c(F)c5F)c5ccc([nH]5)c(-c5c(F)c(F)c(F)c(F)c5F)c5nc(c(-c6c(F)c(F)c(F)c(F)c6F)c6ccc3[nH]6)C=C5)C=C4)cc2)c1N
REMARK SMILES IDX 22 1 21 2 20 3 19 4 17 5 18 6 16 8 1 9 2 10 3 11 92 12 4 13
REMARK SMILES IDX 15 14 93 15 5 18 6 19 9 20 7 21 8 22 10 23 11 24 14 25 12 26
REMARK SMILES IDX 13 27 23 28 24 29 25 30 26 31 27 32 28 34 29 35 30 36 91 37
REMARK SMILES IDX 31 38 90 39 32 40 33 41 34 42 84 43 35 44 89 45 83 46 85 47
REMARK SMILES IDX 36 48 88 49 82 50 81 51 37 53 69 54 49 55 68 56 50 57 53 58
REMARK SMILES IDX 67 59 86 60 51 61 52 62 66 64 87 65 54 66 38 67 39 68 47 69
REMARK SMILES IDX 40 70 41 71 45 72 48 73 42 74 43 75 46 76 44 77 70 78 71 79
REMARK SMILES IDX 79 80 72 81 73 82 77 83 80 84 74 85 75 86 78 87 76 88 55 89
REMARK SMILES IDX 56 90 64 91 57 92 58 93 62 94 65 95 59 96 60 97 63 98 61 99
REMARK H PARENT 19 7 93 16 93 17 26 33 85 52 53 63
REMARK Flexibility Score: inf
ROOT
ATOM      1  C   UNL A   1      40.536  22.114  26.310  1.00  0.00     0.002 C 
ENDROOT
BRANCH   1   2
ATOM      2  C   UNL A   1      39.747  23.092  27.199  1.00  0.00     0.021 C 
BRANCH   2   3
ATOM      3  C   UNL A   1      38.531  23.760  26.534  1.00  0.00     0.116 C 
BRANCH   3   4
ATOM      4  N   UNL A   1      38.119  23.041  25.338  1.00  0.00    -0.352 N 
ATOM      5  C   UNL A   1      36.936  22.852  24.662  1.00  0.00     0.253 C 
ATOM      6  O   UNL A   1      37.047  22.244  23.590  1.00  0.00    -0.269 OA
ATOM      7  H   UNL A   1      38.872  22.575  24.906  1.00  0.00     0.163 HD
BRANCH   5   8
ATOM      8  C   UNL A   1      35.570  23.331  25.090  1.00  0.00     0.065 A 
ATOM      9  C   UNL A   1      32.976  22.532  27.808  1.00  0.00     0.046 C 
ATOM     10  C   UNL A   1      33.649  23.129  26.598  1.00  0.00    -0.025 A 
ATOM     11  C   UNL A   1      33.026  24.199  25.928  1.00  0.00     0.031 A 
ATOM     12  C   UNL A   1      34.915  22.668  26.165  1.00  0.00     0.047 A 
ATOM     13  C   UNL A   1      33.668  24.898  24.900  1.00  0.00     0.038 A 
ATOM     14  C   UNL A   1      34.976  24.490  24.561  1.00  0.00     0.042 A 
BRANCH  12  15
ATOM     15  N   UNL A   1      35.430  21.486  26.717  1.00  0.00    -0.398 N 
ATOM     16  H   UNL A   1      34.850  20.901  27.256  1.00  0.00     0.156 HD
ATOM     17  H   UNL A   1      36.370  21.242  26.565  1.00  0.00     0.156 HD
ENDBRANCH  12  15
BRANCH  13  18
ATOM     18  N   UNL A   1      33.068  25.991  24.248  1.00  0.00    -0.368 N 
ATOM     19  C   UNL A   1      32.565  25.732  22.889  1.00  0.00     0.117 C 
ATOM     20  C   UNL A   1      33.773  27.311  24.274  1.00  0.00     0.085 C 
ATOM     21  C   UNL A   1      33.381  26.644  21.980  1.00  0.00     0.024 C 
ATOM     22  C   UNL A   1      33.651  27.860  22.838  1.00  0.00     0.027 C 
BRANCH  20  23
ATOM     23  C   UNL A   1      33.191  28.332  25.282  1.00  0.00     0.011 C 
ATOM     24  C   UNL A   1      31.919  27.906  26.031  1.00  0.00     0.006 C 
ATOM     25  C   UNL A   1      34.139  28.676  26.411  1.00  0.00     0.006 C 
ATOM     26  C   UNL A   1      31.855  28.814  27.249  1.00  0.00     0.000 C 
ATOM     27  C   UNL A   1      33.293  29.172  27.562  1.00  0.00     0.000 C 
ENDBRANCH  20  23
ENDBRANCH  13  18
ENDBRANCH   5   8
ENDBRANCH   3   4
ENDBRANCH   2   3
ENDBRANCH   1   2
BRANCH   1  28
ATOM     28  C   UNL A   1      41.132  20.860  26.968  1.00  0.00     0.002 C 
BRANCH  28  29
ATOM     29  C   UNL A   1      41.421  19.647  26.080  1.00  0.00     0.021 C 
BRANCH  29  30
ATOM     30  C   UNL A   1      42.649  18.805  26.412  1.00  0.00     0.116 C 
BRANCH  30  31
ATOM     31  N   UNL A   1      43.526  18.658  25.262  1.00  0.00    -0.352 N 
ATOM     32  C   UNL A   1      44.213  19.601  24.544  1.00  0.00     0.251 C 
ATOM     33  H   UNL A   1      43.645  17.732  24.950  1.00  0.00     0.163 HD
ATOM     34  O   UNL A   1      44.704  19.284  23.454  1.00  0.00    -0.269 OA
BRANCH  32  35
ATOM     35  C   UNL A   1      44.386  20.993  25.026  1.00  0.00     0.039 A 
ATOM     36  C   UNL A   1      43.823  22.036  24.280  1.00  0.00     0.014 A 
ATOM     37  C   UNL A   1      45.169  21.299  26.144  1.00  0.00     0.014 A 
ATOM     38  C   UNL A   1      44.009  23.367  24.669  1.00  0.00     0.010 A 
ATOM     39  C   UNL A   1      45.305  22.626  26.567  1.00  0.00     0.010 A 
ATOM     40  C   UNL A   1      44.735  23.676  25.829  1.00  0.00    -0.014 A 
BRANCH  40  41
ATOM     41  C   UNL A   1      44.917  25.088  26.269  1.00  0.00     0.031 A 
ATOM     42  C   UNL A   1      46.274  25.741  26.204  1.00  0.00     0.074 A 
ATOM     43  C   UNL A   1      43.871  25.776  26.766  1.00  0.00     0.049 A 
ATOM     44  N   UNL A   1      46.638  26.937  26.599  1.00  0.00    -0.248 NA
ATOM     45  C   UNL A   1      47.369  24.937  25.642  1.00  0.00     0.031 C 
ATOM     46  C   UNL A   1      42.512  25.256  26.912  1.00  0.00     0.029 A 
ATOM     47  N   UNL A   1      43.789  27.059  27.252  1.00  0.00    -0.354 N 
ATOM     48  C   UNL A   1      48.002  27.021  26.346  1.00  0.00     0.074 A 
ATOM     49  C   UNL A   1      48.409  25.743  25.805  1.00  0.00     0.031 C 
ATOM     50  C   UNL A   1      41.728  26.213  27.437  1.00  0.00     0.029 A 
ATOM     51  C   UNL A   1      42.536  27.401  27.699  1.00  0.00     0.049 A 
ATOM     52  H   UNL A   1      44.556  27.675  27.279  1.00  0.00     0.167 HD
ATOM     53  C   UNL A   1      48.835  28.074  26.531  1.00  0.00     0.037 A 
ATOM     54  C   UNL A   1      42.087  28.539  28.266  1.00  0.00     0.037 A 
ATOM     55  C   UNL A   1      48.427  29.358  27.041  1.00  0.00     0.049 A 
ATOM     56  C   UNL A   1      43.037  29.689  28.468  1.00  0.00     0.074 A 
ATOM     57  C   UNL A   1      49.190  30.503  27.207  1.00  0.00     0.029 A 
ATOM     58  N   UNL A   1      47.145  29.668  27.468  1.00  0.00    -0.354 N 
ATOM     59  N   UNL A   1      44.310  29.775  28.169  1.00  0.00    -0.248 NA
ATOM     60  C   UNL A   1      42.484  30.906  29.082  1.00  0.00     0.031 C 
ATOM     61  C   UNL A   1      48.380  31.490  27.777  1.00  0.00     0.029 A 
ATOM     62  C   UNL A   1      47.101  30.978  27.918  1.00  0.00     0.049 A 
ATOM     63  H   UNL A   1      46.379  29.049  27.453  1.00  0.00     0.167 HD
ATOM     64  C   UNL A   1      44.701  31.059  28.526  1.00  0.00     0.074 A 
ATOM     65  C   UNL A   1      43.528  31.722  29.053  1.00  0.00     0.031 C 
ATOM     66  C   UNL A   1      45.924  31.635  28.427  1.00  0.00     0.037 A 
BRANCH  53  67
ATOM     67  C   UNL A   1      50.284  27.891  26.176  1.00  0.00     0.064 A 
ATOM     68  C   UNL A   1      51.248  27.594  27.152  1.00  0.00     0.173 A 
ATOM     69  C   UNL A   1      50.703  27.953  24.839  1.00  0.00     0.173 A 
ATOM     70  F   UNL A   1      50.900  27.530  28.446  1.00  0.00    -0.203 F 
ATOM     71  C   UNL A   1      52.580  27.389  26.803  1.00  0.00     0.198 A 
ATOM     72  C   UNL A   1      52.030  27.719  24.491  1.00  0.00     0.198 A 
ATOM     73  F   UNL A   1      49.821  28.224  23.865  1.00  0.00    -0.203 F 
ATOM     74  F   UNL A   1      53.490  27.146  27.758  1.00  0.00    -0.200 F 
ATOM     75  C   UNL A   1      52.969  27.442  25.473  1.00  0.00     0.200 A 
ATOM     76  F   UNL A   1      52.402  27.756  23.204  1.00  0.00    -0.200 F 
ATOM     77  F   UNL A   1      54.250  27.232  25.140  1.00  0.00    -0.200 F 
ENDBRANCH  53  67
BRANCH  54  78
ATOM     78  C   UNL A   1      40.663  28.656  28.676  1.00  0.00     0.064 A 
ATOM     79  C   UNL A   1      39.682  29.075  27.766  1.00  0.00     0.173 A 
ATOM     80  C   UNL A   1      40.255  28.372  29.989  1.00  0.00     0.173 A 
ATOM     81  F   UNL A   1      40.027  29.380  26.507  1.00  0.00    -0.203 F 
ATOM     82  C   UNL A   1      38.355  29.230  28.158  1.00  0.00     0.198 A 
ATOM     83  C   UNL A   1      38.922  28.499  30.371  1.00  0.00     0.198 A 
ATOM     84  F   UNL A   1      41.154  27.966  30.898  1.00  0.00    -0.203 F 
ATOM     85  F   UNL A   1      37.449  29.684  27.281  1.00  0.00    -0.200 F 
ATOM     86  C   UNL A   1      37.974  28.937  29.459  1.00  0.00     0.200 A 
ATOM     87  F   UNL A   1      38.557  28.202  31.626  1.00  0.00    -0.200 F 
ATOM     88  F   UNL A   1      36.697  29.087  29.835  1.00  0.00    -0.200 F 
ENDBRANCH  54  78
BRANCH  66  89
ATOM     89  C   UNL A   1      46.050  33.067  28.858  1.00  0.00     0.064 A 
ATOM     90  C   UNL A   1      45.820  34.128  27.970  1.00  0.00     0.173 A 
ATOM     91  C   UNL A   1      46.367  33.382  30.189  1.00  0.00     0.173 A 
ATOM     92  F   UNL A   1      45.530  33.880  26.684  1.00  0.00    -0.203 F 
ATOM     93  C   UNL A   1      45.927  35.450  28.392  1.00  0.00     0.198 A 
ATOM     94  C   UNL A   1      46.444  34.704  30.615  1.00  0.00     0.198 A 
ATOM     95  F   UNL A   1      46.590  32.404  31.081  1.00  0.00    -0.203 F 
ATOM     96  F   UNL A   1      45.749  36.448  27.515  1.00  0.00    -0.200 F 
ATOM     97  C   UNL A   1      46.232  35.737  29.715  1.00  0.00     0.200 A 
ATOM     98  F   UNL A   1      46.724  34.980  31.896  1.00  0.00    -0.200 F 
ATOM     99  F   UNL A   1      46.326  37.011  30.121  1.00  0.00    -0.200 F 
ENDBRANCH  66  89
ENDBRANCH  40  41
ENDBRANCH  32  35
ENDBRANCH  30  31
ENDBRANCH  29  30
ENDBRANCH  28  29
ENDBRANCH   1  28
TORSDOF 16
ENDMDL
