MODEL 1
REMARK VINA RESULT:     -12.4      0.000      0.000
REMARK SMILES Cc1cc(=O)cc(C)n1-c1ccc(Cl)cc1C(=O)NCCCCCCNC(=O)c1ccc(-c2c3nc(c(-c4c(F)c(F)c(F)c(F)c4F)c4ccc([nH]4)c(-c4c(F)c(F)c(F)c(F)c4F)c4nc(c(-c5c(F)c(F)c(F)c(F)c5F)c5ccc2[nH]5)C=C4)C=C3)cc1
REMARK SMILES IDX 23 1 22 2 21 3 20 4 19 5 17 6 18 7 16 9 10 10 11 11 12 12
REMARK SMILES IDX 15 13 13 14 14 15 9 16 1 17 2 18 3 19 4 20 7 21 5 22 6 23
REMARK SMILES IDX 8 24 24 25 25 26 26 27 27 28 28 30 29 31 30 32 91 33 31 34
REMARK SMILES IDX 90 35 32 36 33 37 34 38 84 39 35 40 89 41 83 42 85 43 36 44
REMARK SMILES IDX 88 45 82 46 81 47 37 49 69 50 49 51 68 52 50 53 53 54 67 55
REMARK SMILES IDX 86 56 51 57 52 58 66 60 87 61 54 62 38 63 39 64 47 65 40 66
REMARK SMILES IDX 41 67 45 68 48 69 42 70 43 71 46 72 44 73 70 74 71 75 79 76
REMARK SMILES IDX 72 77 73 78 77 79 80 80 74 81 75 82 78 83 76 84 55 85 56 86
REMARK SMILES IDX 64 87 57 88 58 89 62 90 65 91 59 92 60 93 63 94 61 95
REMARK H PARENT 19 8 26 29 85 48 53 59
REMARK Flexibility Score: inf
ROOT
ATOM      1  C   UNL A   1      31.363  30.947  26.092  1.00  0.00     0.002 C 
ENDROOT
BRANCH   1   2
ATOM      2  C   UNL A   1      32.133  29.924  26.935  1.00  0.00     0.002 C 
BRANCH   2   3
ATOM      3  C   UNL A   1      33.607  29.674  26.605  1.00  0.00     0.021 C 
BRANCH   3   4
ATOM      4  C   UNL A   1      33.950  28.400  25.847  1.00  0.00     0.116 C 
BRANCH   4   5
ATOM      5  N   UNL A   1      34.300  28.534  24.463  1.00  0.00    -0.352 N 
ATOM      6  C   UNL A   1      33.492  28.445  23.354  1.00  0.00     0.253 C 
ATOM      7  O   UNL A   1      34.015  28.714  22.268  1.00  0.00    -0.269 OA
ATOM      8  H   UNL A   1      35.251  28.715  24.282  1.00  0.00     0.163 HD
BRANCH   6   9
ATOM      9  C   UNL A   1      32.060  27.988  23.344  1.00  0.00     0.065 A 
ATOM     10  C   UNL A   1      31.536  26.678  23.470  1.00  0.00     0.058 A 
ATOM     11  C   UNL A   1      30.123  26.512  23.519  1.00  0.00     0.029 A 
ATOM     12  C   UNL A   1      29.246  27.590  23.441  1.00  0.00     0.023 A 
ATOM     13  C   UNL A   1      31.143  29.069  23.286  1.00  0.00     0.036 A 
ATOM     14  C   UNL A   1      29.763  28.870  23.331  1.00  0.00     0.041 A 
ATOM     15  Cl  UNL A   1      28.694  30.214  23.266  1.00  0.00    -0.084 Cl
BRANCH  10  16
ATOM     16  N   UNL A   1      32.298  25.470  23.603  1.00  0.00    -0.317 N 
ATOM     17  C   UNL A   1      31.921  25.515  26.123  1.00  0.00     0.065 C 
ATOM     18  C   UNL A   1      32.433  24.843  24.869  1.00  0.00     0.024 A 
ATOM     19  C   UNL A   1      33.009  23.633  25.005  1.00  0.00     0.073 A 
ATOM     20  C   UNL A   1      33.522  22.923  23.819  1.00  0.00     0.182 A 
ATOM     21  C   UNL A   1      32.759  24.786  22.442  1.00  0.00     0.024 A 
ATOM     22  O   UNL A   1      34.113  21.858  23.915  1.00  0.00    -0.290 OA
ATOM     23  C   UNL A   1      33.340  23.574  22.509  1.00  0.00     0.073 A 
ATOM     24  C   UNL A   1      32.728  25.429  21.067  1.00  0.00     0.065 C 
ENDBRANCH  10  16
ENDBRANCH   6   9
ENDBRANCH   4   5
ENDBRANCH   3   4
ENDBRANCH   2   3
ENDBRANCH   1   2
BRANCH   1  25
ATOM     25  C   UNL A   1      31.278  32.382  26.614  1.00  0.00     0.021 C 
BRANCH  25  26
ATOM     26  C   UNL A   1      32.568  33.021  27.111  1.00  0.00     0.116 C 
BRANCH  26  27
ATOM     27  N   UNL A   1      32.374  34.339  27.687  1.00  0.00    -0.352 N 
ATOM     28  C   UNL A   1      33.019  34.956  28.728  1.00  0.00     0.251 C 
ATOM     29  H   UNL A   1      31.665  34.874  27.264  1.00  0.00     0.163 HD
ATOM     30  O   UNL A   1      32.610  36.046  29.132  1.00  0.00    -0.269 OA
BRANCH  28  31
ATOM     31  C   UNL A   1      34.188  34.334  29.393  1.00  0.00     0.039 A 
ATOM     32  C   UNL A   1      33.960  33.498  30.491  1.00  0.00     0.014 A 
ATOM     33  C   UNL A   1      35.499  34.599  28.989  1.00  0.00     0.014 A 
ATOM     34  C   UNL A   1      35.035  32.891  31.147  1.00  0.00     0.010 A 
ATOM     35  C   UNL A   1      36.568  33.939  29.597  1.00  0.00     0.010 A 
ATOM     36  C   UNL A   1      36.347  33.086  30.689  1.00  0.00    -0.014 A 
BRANCH  36  37
ATOM     37  C   UNL A   1      37.495  32.423  31.361  1.00  0.00     0.031 A 
ATOM     38  C   UNL A   1      38.238  31.312  30.675  1.00  0.00     0.074 A 
ATOM     39  C   UNL A   1      37.858  32.807  32.600  1.00  0.00     0.049 A 
ATOM     40  N   UNL A   1      39.250  30.599  31.106  1.00  0.00    -0.248 NA
ATOM     41  C   UNL A   1      37.771  30.934  29.332  1.00  0.00     0.031 C 
ATOM     42  C   UNL A   1      37.202  33.853  33.382  1.00  0.00     0.029 A 
ATOM     43  N   UNL A   1      38.868  32.362  33.418  1.00  0.00    -0.354 N 
ATOM     44  C   UNL A   1      39.537  29.697  30.092  1.00  0.00     0.074 A 
ATOM     45  C   UNL A   1      38.554  29.904  29.050  1.00  0.00     0.031 C 
ATOM     46  C   UNL A   1      37.849  33.998  34.550  1.00  0.00     0.029 A 
ATOM     47  C   UNL A   1      38.939  33.029  34.616  1.00  0.00     0.049 A 
ATOM     48  H   UNL A   1      39.483  31.635  33.168  1.00  0.00     0.167 HD
ATOM     49  C   UNL A   1      40.548  28.798  30.020  1.00  0.00     0.037 A 
ATOM     50  C   UNL A   1      39.787  32.878  35.651  1.00  0.00     0.037 A 
ATOM     51  C   UNL A   1      41.532  28.601  31.052  1.00  0.00     0.049 A 
ATOM     52  C   UNL A   1      40.874  31.840  35.570  1.00  0.00     0.074 A 
ATOM     53  C   UNL A   1      42.612  27.737  31.058  1.00  0.00     0.029 A 
ATOM     54  N   UNL A   1      41.552  29.274  32.266  1.00  0.00    -0.354 N 
ATOM     55  N   UNL A   1      41.165  31.024  34.587  1.00  0.00    -0.248 NA
ATOM     56  C   UNL A   1      41.750  31.703  36.743  1.00  0.00     0.031 C 
ATOM     57  C   UNL A   1      43.258  27.851  32.294  1.00  0.00     0.029 A 
ATOM     58  C   UNL A   1      42.611  28.826  33.039  1.00  0.00     0.049 A 
ATOM     59  H   UNL A   1      40.908  29.969  32.536  1.00  0.00     0.167 HD
ATOM     60  C   UNL A   1      42.265  30.291  35.010  1.00  0.00     0.074 A 
ATOM     61  C   UNL A   1      42.601  30.770  36.336  1.00  0.00     0.031 C 
ATOM     62  C   UNL A   1      42.934  29.308  34.357  1.00  0.00     0.037 A 
BRANCH  49  63
ATOM     63  C   UNL A   1      40.645  27.962  28.775  1.00  0.00     0.064 A 
ATOM     64  C   UNL A   1      39.946  26.751  28.650  1.00  0.00     0.173 A 
ATOM     65  C   UNL A   1      41.411  28.392  27.682  1.00  0.00     0.173 A 
ATOM     66  F   UNL A   1      39.207  26.289  29.670  1.00  0.00    -0.203 F 
ATOM     67  C   UNL A   1      40.036  25.988  27.488  1.00  0.00     0.198 A 
ATOM     68  C   UNL A   1      41.472  27.642  26.510  1.00  0.00     0.198 A 
ATOM     69  F   UNL A   1      42.093  29.546  27.744  1.00  0.00    -0.203 F 
ATOM     70  F   UNL A   1      39.401  24.810  27.413  1.00  0.00    -0.200 F 
ATOM     71  C   UNL A   1      40.793  26.437  26.417  1.00  0.00     0.200 A 
ATOM     72  F   UNL A   1      42.192  28.085  25.470  1.00  0.00    -0.200 F 
ATOM     73  F   UNL A   1      40.871  25.705  25.297  1.00  0.00    -0.200 F 
ENDBRANCH  49  63
BRANCH  50  74
ATOM     74  C   UNL A   1      39.664  33.770  36.833  1.00  0.00     0.064 A 
ATOM     75  C   UNL A   1      40.304  35.017  36.857  1.00  0.00     0.173 A 
ATOM     76  C   UNL A   1      38.874  33.420  37.937  1.00  0.00     0.173 A 
ATOM     77  F   UNL A   1      41.090  35.386  35.835  1.00  0.00    -0.203 F 
ATOM     78  C   UNL A   1      40.157  35.881  37.940  1.00  0.00     0.198 A 
ATOM     79  C   UNL A   1      38.706  34.296  39.009  1.00  0.00     0.198 A 
ATOM     80  F   UNL A   1      38.242  32.237  37.964  1.00  0.00    -0.203 F 
ATOM     81  F   UNL A   1      40.799  37.057  37.949  1.00  0.00    -0.200 F 
ATOM     82  C   UNL A   1      39.349  35.524  39.010  1.00  0.00     0.200 A 
ATOM     83  F   UNL A   1      37.915  33.952  40.035  1.00  0.00    -0.200 F 
ATOM     84  F   UNL A   1      39.194  36.364  40.043  1.00  0.00    -0.200 F 
ENDBRANCH  50  74
BRANCH  62  85
ATOM     85  C   UNL A   1      44.107  28.681  35.055  1.00  0.00     0.064 A 
ATOM     86  C   UNL A   1      45.404  29.194  34.910  1.00  0.00     0.173 A 
ATOM     87  C   UNL A   1      43.920  27.609  35.941  1.00  0.00     0.173 A 
ATOM     88  F   UNL A   1      45.638  30.211  34.067  1.00  0.00    -0.203 F 
ATOM     89  C   UNL A   1      46.473  28.648  35.616  1.00  0.00     0.198 A 
ATOM     90  C   UNL A   1      44.985  27.085  36.667  1.00  0.00     0.198 A 
ATOM     91  F   UNL A   1      42.697  27.086  36.121  1.00  0.00    -0.203 F 
ATOM     92  F   UNL A   1      47.710  29.133  35.439  1.00  0.00    -0.200 F 
ATOM     93  C   UNL A   1      46.261  27.602  36.503  1.00  0.00     0.200 A 
ATOM     94  F   UNL A   1      44.775  26.086  37.536  1.00  0.00    -0.200 F 
ATOM     95  F   UNL A   1      47.288  27.091  37.197  1.00  0.00    -0.200 F 
ENDBRANCH  62  85
ENDBRANCH  36  37
ENDBRANCH  28  31
ENDBRANCH  26  27
ENDBRANCH  25  26
ENDBRANCH   1  25
TORSDOF 14
ENDMDL
MODEL 2
REMARK VINA RESULT:     -12.3      0.556      7.471
REMARK SMILES Cc1cc(=O)cc(C)n1-c1ccc(Cl)cc1C(=O)NCCCCCCNC(=O)c1ccc(-c2c3nc(c(-c4c(F)c(F)c(F)c(F)c4F)c4ccc([nH]4)c(-c4c(F)c(F)c(F)c(F)c4F)c4nc(c(-c5c(F)c(F)c(F)c(F)c5F)c5ccc2[nH]5)C=C4)C=C3)cc1
REMARK SMILES IDX 23 1 22 2 21 3 20 4 19 5 17 6 18 7 16 9 10 10 11 11 12 12
REMARK SMILES IDX 15 13 13 14 14 15 9 16 1 17 2 18 3 19 4 20 7 21 5 22 6 23
REMARK SMILES IDX 8 24 24 25 25 26 26 27 27 28 28 30 29 31 30 32 91 33 31 34
REMARK SMILES IDX 90 35 32 36 33 37 34 38 84 39 35 40 89 41 83 42 85 43 36 44
REMARK SMILES IDX 88 45 82 46 81 47 37 49 69 50 49 51 68 52 50 53 53 54 67 55
REMARK SMILES IDX 86 56 51 57 52 58 66 60 87 61 54 62 38 63 39 64 47 65 40 66
REMARK SMILES IDX 41 67 45 68 48 69 42 70 43 71 46 72 44 73 70 74 71 75 79 76
REMARK SMILES IDX 72 77 73 78 77 79 80 80 74 81 75 82 78 83 76 84 55 85 56 86
REMARK SMILES IDX 64 87 57 88 58 89 62 90 65 91 59 92 60 93 63 94 61 95
REMARK H PARENT 19 8 26 29 85 48 53 59
REMARK Flexibility Score: inf
ROOT
ATOM      1  C   UNL A   1      31.467  30.813  26.267  1.00  0.00     0.002 C 
ENDROOT
BRANCH   1   2
ATOM      2  C   UNL A   1      32.289  29.922  27.205  1.00  0.00     0.002 C 
BRANCH   2   3
ATOM      3  C   UNL A   1      33.684  29.484  26.752  1.00  0.00     0.021 C 
BRANCH   3   4
ATOM      4  C   UNL A   1      33.781  28.242  25.879  1.00  0.00     0.116 C 
BRANCH   4   5
ATOM      5  N   UNL A   1      34.201  28.427  24.520  1.00  0.00    -0.352 N 
ATOM      6  C   UNL A   1      33.440  28.454  23.375  1.00  0.00     0.253 C 
ATOM      7  O   UNL A   1      34.026  28.745  22.328  1.00  0.00    -0.269 OA
ATOM      8  H   UNL A   1      35.168  28.552  24.388  1.00  0.00     0.163 HD
BRANCH   6   9
ATOM      9  C   UNL A   1      31.982  28.097  23.280  1.00  0.00     0.065 A 
ATOM     10  C   UNL A   1      31.365  26.822  23.333  1.00  0.00     0.058 A 
ATOM     11  C   UNL A   1      29.944  26.752  23.308  1.00  0.00     0.029 A 
ATOM     12  C   UNL A   1      29.146  27.890  23.228  1.00  0.00     0.023 A 
ATOM     13  C   UNL A   1      31.144  29.239  23.218  1.00  0.00     0.036 A 
ATOM     14  C   UNL A   1      29.753  29.134  23.190  1.00  0.00     0.041 A 
ATOM     15  Cl  UNL A   1      28.781  30.551  23.124  1.00  0.00    -0.084 Cl
BRANCH  10  16
ATOM     16  N   UNL A   1      32.038  25.561  23.458  1.00  0.00    -0.317 N 
ATOM     17  C   UNL A   1      32.523  25.577  20.956  1.00  0.00     0.065 C 
ATOM     18  C   UNL A   1      32.677  24.975  22.334  1.00  0.00     0.024 A 
ATOM     19  C   UNL A   1      33.445  23.874  22.449  1.00  0.00     0.073 A 
ATOM     20  C   UNL A   1      33.639  23.243  23.767  1.00  0.00     0.182 A 
ATOM     21  C   UNL A   1      32.240  24.986  24.745  1.00  0.00     0.024 A 
ATOM     22  O   UNL A   1      34.270  22.204  23.895  1.00  0.00    -0.290 OA
ATOM     23  C   UNL A   1      32.998  23.889  24.927  1.00  0.00     0.073 A 
ATOM     24  C   UNL A   1      31.521  25.505  25.977  1.00  0.00     0.065 C 
ENDBRANCH  10  16
ENDBRANCH   6   9
ENDBRANCH   4   5
ENDBRANCH   3   4
ENDBRANCH   2   3
ENDBRANCH   1   2
BRANCH   1  25
ATOM     25  C   UNL A   1      31.337  32.295  26.623  1.00  0.00     0.021 C 
BRANCH  25  26
ATOM     26  C   UNL A   1      32.622  33.057  26.917  1.00  0.00     0.116 C 
BRANCH  26  27
ATOM     27  N   UNL A   1      32.403  34.303  27.628  1.00  0.00    -0.352 N 
ATOM     28  C   UNL A   1      33.041  34.824  28.724  1.00  0.00     0.251 C 
ATOM     29  H   UNL A   1      31.679  34.864  27.266  1.00  0.00     0.163 HD
ATOM     30  O   UNL A   1      32.611  35.857  29.240  1.00  0.00    -0.269 OA
BRANCH  28  31
ATOM     31  C   UNL A   1      34.228  34.163  29.315  1.00  0.00     0.039 A 
ATOM     32  C   UNL A   1      34.027  33.224  30.333  1.00  0.00     0.014 A 
ATOM     33  C   UNL A   1      35.530  34.488  28.924  1.00  0.00     0.014 A 
ATOM     34  C   UNL A   1      35.120  32.578  30.917  1.00  0.00     0.010 A 
ATOM     35  C   UNL A   1      36.617  33.793  29.456  1.00  0.00     0.010 A 
ATOM     36  C   UNL A   1      36.424  32.838  30.466  1.00  0.00    -0.014 A 
BRANCH  36  37
ATOM     37  C   UNL A   1      37.591  32.135  31.060  1.00  0.00     0.031 A 
ATOM     38  C   UNL A   1      38.071  32.492  32.438  1.00  0.00     0.074 A 
ATOM     39  C   UNL A   1      38.234  31.188  30.351  1.00  0.00     0.049 A 
ATOM     40  N   UNL A   1      39.081  32.007  33.118  1.00  0.00    -0.248 NA
ATOM     41  C   UNL A   1      37.330  33.550  33.142  1.00  0.00     0.031 C 
ATOM     42  C   UNL A   1      37.884  30.770  28.994  1.00  0.00     0.029 A 
ATOM     43  N   UNL A   1      39.316  30.406  30.672  1.00  0.00    -0.354 N 
ATOM     44  C   UNL A   1      39.094  32.697  34.321  1.00  0.00     0.074 A 
ATOM     45  C   UNL A   1      38.034  33.680  34.257  1.00  0.00     0.031 C 
ATOM     46  C   UNL A   1      38.708  29.781  28.614  1.00  0.00     0.029 A 
ATOM     47  C   UNL A   1      39.670  29.522  29.682  1.00  0.00     0.049 A 
ATOM     48  H   UNL A   1      39.792  30.471  31.532  1.00  0.00     0.167 HD
ATOM     49  C   UNL A   1      39.896  32.508  35.397  1.00  0.00     0.037 A 
ATOM     50  C   UNL A   1      40.657  28.607  29.640  1.00  0.00     0.037 A 
ATOM     51  C   UNL A   1      40.943  31.522  35.463  1.00  0.00     0.049 A 
ATOM     52  C   UNL A   1      41.567  28.446  30.828  1.00  0.00     0.074 A 
ATOM     53  C   UNL A   1      41.787  31.232  36.520  1.00  0.00     0.029 A 
ATOM     54  N   UNL A   1      41.291  30.666  34.427  1.00  0.00    -0.354 N 
ATOM     55  N   UNL A   1      41.541  29.072  31.978  1.00  0.00    -0.248 NA
ATOM     56  C   UNL A   1      42.643  27.451  30.710  1.00  0.00     0.031 C 
ATOM     57  C   UNL A   1      42.679  30.236  36.108  1.00  0.00     0.029 A 
ATOM     58  C   UNL A   1      42.356  29.867  34.811  1.00  0.00     0.049 A 
ATOM     59  H   UNL A   1      40.846  30.633  33.549  1.00  0.00     0.167 HD
ATOM     60  C   UNL A   1      42.579  28.537  32.729  1.00  0.00     0.074 A 
ATOM     61  C   UNL A   1      43.208  27.523  31.907  1.00  0.00     0.031 C 
ATOM     62  C   UNL A   1      42.975  28.862  33.985  1.00  0.00     0.037 A 
BRANCH  49  63
ATOM     63  C   UNL A   1      39.666  33.384  36.595  1.00  0.00     0.064 A 
ATOM     64  C   UNL A   1      40.312  34.623  36.732  1.00  0.00     0.173 A 
ATOM     65  C   UNL A   1      38.763  33.002  37.598  1.00  0.00     0.173 A 
ATOM     66  F   UNL A   1      41.193  35.031  35.807  1.00  0.00    -0.203 F 
ATOM     67  C   UNL A   1      40.085  35.431  37.843  1.00  0.00     0.198 A 
ATOM     68  C   UNL A   1      38.515  33.828  38.692  1.00  0.00     0.198 A 
ATOM     69  F   UNL A   1      38.112  31.832  37.514  1.00  0.00    -0.203 F 
ATOM     70  F   UNL A   1      40.753  36.585  37.977  1.00  0.00    -0.200 F 
ATOM     71  C   UNL A   1      39.182  35.037  38.818  1.00  0.00     0.200 A 
ATOM     72  F   UNL A   1      37.630  33.453  39.626  1.00  0.00    -0.200 F 
ATOM     73  F   UNL A   1      38.959  35.820  39.882  1.00  0.00    -0.200 F 
ENDBRANCH  49  63
BRANCH  50  74
ATOM     74  C   UNL A   1      40.799  27.741  28.440  1.00  0.00     0.064 A 
ATOM     75  C   UNL A   1      40.109  26.525  28.352  1.00  0.00     0.173 A 
ATOM     76  C   UNL A   1      41.586  28.128  27.346  1.00  0.00     0.173 A 
ATOM     77  F   UNL A   1      39.363  26.102  29.383  1.00  0.00    -0.203 F 
ATOM     78  C   UNL A   1      40.198  25.728  27.212  1.00  0.00     0.198 A 
ATOM     79  C   UNL A   1      41.655  27.342  26.196  1.00  0.00     0.198 A 
ATOM     80  F   UNL A   1      42.269  29.281  27.382  1.00  0.00    -0.203 F 
ATOM     81  F   UNL A   1      39.548  24.558  27.162  1.00  0.00    -0.200 F 
ATOM     82  C   UNL A   1      40.962  26.143  26.131  1.00  0.00     0.200 A 
ATOM     83  F   UNL A   1      42.384  27.752  25.149  1.00  0.00    -0.200 F 
ATOM     84  F   UNL A   1      41.033  25.384  25.028  1.00  0.00    -0.200 F 
ENDBRANCH  50  74
BRANCH  62  85
ATOM     85  C   UNL A   1      44.140  28.111  34.564  1.00  0.00     0.064 A 
ATOM     86  C   UNL A   1      43.965  26.887  35.225  1.00  0.00     0.173 A 
ATOM     87  C   UNL A   1      45.451  28.580  34.387  1.00  0.00     0.173 A 
ATOM     88  F   UNL A   1      42.731  26.400  35.432  1.00  0.00    -0.203 F 
ATOM     89  C   UNL A   1      45.058  26.165  35.697  1.00  0.00     0.198 A 
ATOM     90  C   UNL A   1      46.543  27.842  34.833  1.00  0.00     0.198 A 
ATOM     91  F   UNL A   1      45.673  29.743  33.754  1.00  0.00    -0.203 F 
ATOM     92  F   UNL A   1      44.866  25.012  36.354  1.00  0.00    -0.200 F 
ATOM     93  C   UNL A   1      46.346  26.637  35.490  1.00  0.00     0.200 A 
ATOM     94  F   UNL A   1      47.787  28.291  34.617  1.00  0.00    -0.200 F 
ATOM     95  F   UNL A   1      47.399  25.931  35.928  1.00  0.00    -0.200 F 
ENDBRANCH  62  85
ENDBRANCH  36  37
ENDBRANCH  28  31
ENDBRANCH  26  27
ENDBRANCH  25  26
ENDBRANCH   1  25
TORSDOF 14
ENDMDL
MODEL 3
REMARK VINA RESULT:     -12.3      0.659      7.304
REMARK SMILES Cc1cc(=O)cc(C)n1-c1ccc(Cl)cc1C(=O)NCCCCCCNC(=O)c1ccc(-c2c3nc(c(-c4c(F)c(F)c(F)c(F)c4F)c4ccc([nH]4)c(-c4c(F)c(F)c(F)c(F)c4F)c4nc(c(-c5c(F)c(F)c(F)c(F)c5F)c5ccc2[nH]5)C=C4)C=C3)cc1
REMARK SMILES IDX 23 1 22 2 21 3 20 4 19 5 17 6 18 7 16 9 10 10 11 11 12 12
REMARK SMILES IDX 15 13 13 14 14 15 9 16 1 17 2 18 3 19 4 20 7 21 5 22 6 23
REMARK SMILES IDX 8 24 24 25 25 26 26 27 27 28 28 30 29 31 30 32 91 33 31 34
REMARK SMILES IDX 90 35 32 36 33 37 34 38 84 39 35 40 89 41 83 42 85 43 36 44
REMARK SMILES IDX 88 45 82 46 81 47 37 49 69 50 49 51 68 52 50 53 53 54 67 55
REMARK SMILES IDX 86 56 51 57 52 58 66 60 87 61 54 62 38 63 39 64 47 65 40 66
REMARK SMILES IDX 41 67 45 68 48 69 42 70 43 71 46 72 44 73 70 74 71 75 79 76
REMARK SMILES IDX 72 77 73 78 77 79 80 80 74 81 75 82 78 83 76 84 55 85 56 86
REMARK SMILES IDX 64 87 57 88 58 89 62 90 65 91 59 92 60 93 63 94 61 95
REMARK H PARENT 19 8 26 29 85 48 53 59
REMARK Flexibility Score: inf
ROOT
ATOM      1  C   UNL A   1      31.406  30.824  26.110  1.00  0.00     0.002 C 
ENDROOT
BRANCH   1   2
ATOM      2  C   UNL A   1      32.146  29.835  27.018  1.00  0.00     0.002 C 
BRANCH   2   3
ATOM      3  C   UNL A   1      33.626  29.561  26.737  1.00  0.00     0.021 C 
BRANCH   3   4
ATOM      4  C   UNL A   1      33.968  28.320  25.925  1.00  0.00     0.116 C 
BRANCH   4   5
ATOM      5  N   UNL A   1      34.296  28.512  24.542  1.00  0.00    -0.352 N 
ATOM      6  C   UNL A   1      33.476  28.439  23.441  1.00  0.00     0.253 C 
ATOM      7  O   UNL A   1      33.975  28.759  22.358  1.00  0.00    -0.269 OA
ATOM      8  H   UNL A   1      35.239  28.724  24.355  1.00  0.00     0.163 HD
BRANCH   6   9
ATOM      9  C   UNL A   1      32.056  27.943  23.433  1.00  0.00     0.065 A 
ATOM     10  C   UNL A   1      31.563  26.630  23.632  1.00  0.00     0.058 A 
ATOM     11  C   UNL A   1      30.155  26.429  23.665  1.00  0.00     0.029 A 
ATOM     12  C   UNL A   1      29.252  27.476  23.504  1.00  0.00     0.023 A 
ATOM     13  C   UNL A   1      31.113  28.993  23.291  1.00  0.00     0.036 A 
ATOM     14  C   UNL A   1      29.738  28.760  23.323  1.00  0.00     0.041 A 
ATOM     15  Cl  UNL A   1      28.636  30.069  23.155  1.00  0.00    -0.084 Cl
BRANCH  10  16
ATOM     16  N   UNL A   1      32.354  25.454  23.854  1.00  0.00    -0.317 N 
ATOM     17  C   UNL A   1      32.874  25.337  21.363  1.00  0.00     0.065 C 
ATOM     18  C   UNL A   1      33.065  24.854  22.783  1.00  0.00     0.024 A 
ATOM     19  C   UNL A   1      33.935  23.846  22.984  1.00  0.00     0.073 A 
ATOM     20  C   UNL A   1      34.170  23.334  24.346  1.00  0.00     0.182 A 
ATOM     21  C   UNL A   1      32.591  24.996  25.182  1.00  0.00     0.024 A 
ATOM     22  O   UNL A   1      34.897  22.375  24.555  1.00  0.00    -0.290 OA
ATOM     23  C   UNL A   1      33.450  23.995  25.450  1.00  0.00     0.073 A 
ATOM     24  C   UNL A   1      31.806  25.528  26.367  1.00  0.00     0.065 C 
ENDBRANCH  10  16
ENDBRANCH   6   9
ENDBRANCH   4   5
ENDBRANCH   3   4
ENDBRANCH   2   3
ENDBRANCH   1   2
BRANCH   1  25
ATOM     25  C   UNL A   1      31.309  32.279  26.570  1.00  0.00     0.021 C 
BRANCH  25  26
ATOM     26  C   UNL A   1      32.611  32.987  26.923  1.00  0.00     0.116 C 
BRANCH  26  27
ATOM     27  N   UNL A   1      32.413  34.246  27.617  1.00  0.00    -0.352 N 
ATOM     28  C   UNL A   1      33.060  34.771  28.705  1.00  0.00     0.251 C 
ATOM     29  H   UNL A   1      31.697  34.813  27.247  1.00  0.00     0.163 HD
ATOM     30  O   UNL A   1      32.646  35.818  29.208  1.00  0.00    -0.269 OA
BRANCH  28  31
ATOM     31  C   UNL A   1      34.236  34.099  29.305  1.00  0.00     0.039 A 
ATOM     32  C   UNL A   1      34.015  33.048  30.202  1.00  0.00     0.014 A 
ATOM     33  C   UNL A   1      35.543  34.517  29.041  1.00  0.00     0.014 A 
ATOM     34  C   UNL A   1      35.097  32.388  30.790  1.00  0.00     0.010 A 
ATOM     35  C   UNL A   1      36.625  33.812  29.572  1.00  0.00     0.010 A 
ATOM     36  C   UNL A   1      36.413  32.747  30.460  1.00  0.00    -0.014 A 
BRANCH  36  37
ATOM     37  C   UNL A   1      37.571  32.033  31.057  1.00  0.00     0.031 A 
ATOM     38  C   UNL A   1      38.013  32.341  32.460  1.00  0.00     0.074 A 
ATOM     39  C   UNL A   1      38.242  31.119  30.329  1.00  0.00     0.049 A 
ATOM     40  N   UNL A   1      39.010  31.839  33.146  1.00  0.00    -0.248 NA
ATOM     41  C   UNL A   1      37.245  33.365  33.184  1.00  0.00     0.031 C 
ATOM     42  C   UNL A   1      37.930  30.749  28.949  1.00  0.00     0.029 A 
ATOM     43  N   UNL A   1      39.323  30.334  30.649  1.00  0.00    -0.354 N 
ATOM     44  C   UNL A   1      38.986  32.482  34.375  1.00  0.00     0.074 A 
ATOM     45  C   UNL A   1      37.919  33.458  34.321  1.00  0.00     0.031 C 
ATOM     46  C   UNL A   1      38.773  29.783  28.553  1.00  0.00     0.029 A 
ATOM     47  C   UNL A   1      39.710  29.492  29.635  1.00  0.00     0.049 A 
ATOM     48  H   UNL A   1      39.776  30.371  31.522  1.00  0.00     0.167 HD
ATOM     49  C   UNL A   1      39.762  32.260  35.463  1.00  0.00     0.037 A 
ATOM     50  C   UNL A   1      40.707  28.588  29.583  1.00  0.00     0.037 A 
ATOM     51  C   UNL A   1      40.817  31.281  35.519  1.00  0.00     0.049 A 
ATOM     52  C   UNL A   1      41.587  28.390  30.787  1.00  0.00     0.074 A 
ATOM     53  C   UNL A   1      41.637  30.958  36.585  1.00  0.00     0.029 A 
ATOM     54  N   UNL A   1      41.199  30.468  34.460  1.00  0.00    -0.354 N 
ATOM     55  N   UNL A   1      41.527  28.971  31.960  1.00  0.00    -0.248 NA
ATOM     56  C   UNL A   1      42.676  27.409  30.659  1.00  0.00     0.031 C 
ATOM     57  C   UNL A   1      42.548  29.987  36.159  1.00  0.00     0.029 A 
ATOM     58  C   UNL A   1      42.262  29.664  34.841  1.00  0.00     0.049 A 
ATOM     59  H   UNL A   1      40.777  30.465  33.570  1.00  0.00     0.167 HD
ATOM     60  C   UNL A   1      42.551  28.417  32.716  1.00  0.00     0.074 A 
ATOM     61  C   UNL A   1      43.210  27.440  31.873  1.00  0.00     0.031 C 
ATOM     62  C   UNL A   1      42.911  28.697  33.993  1.00  0.00     0.037 A 
BRANCH  49  63
ATOM     63  C   UNL A   1      39.494  33.087  36.687  1.00  0.00     0.064 A 
ATOM     64  C   UNL A   1      40.164  34.300  36.913  1.00  0.00     0.173 A 
ATOM     65  C   UNL A   1      38.530  32.687  37.625  1.00  0.00     0.173 A 
ATOM     66  F   UNL A   1      41.102  34.723  36.054  1.00  0.00    -0.203 F 
ATOM     67  C   UNL A   1      39.901  35.063  38.048  1.00  0.00     0.198 A 
ATOM     68  C   UNL A   1      38.247  33.470  38.741  1.00  0.00     0.198 A 
ATOM     69  F   UNL A   1      37.854  31.540  37.454  1.00  0.00    -0.203 F 
ATOM     70  F   UNL A   1      40.592  36.191  38.268  1.00  0.00    -0.200 F 
ATOM     71  C   UNL A   1      38.939  34.652  38.956  1.00  0.00     0.200 A 
ATOM     72  F   UNL A   1      37.306  33.078  39.611  1.00  0.00    -0.200 F 
ATOM     73  F   UNL A   1      38.681  35.393  40.043  1.00  0.00    -0.200 F 
ENDBRANCH  49  63
BRANCH  50  74
ATOM     74  C   UNL A   1      40.888  27.769  28.356  1.00  0.00     0.064 A 
ATOM     75  C   UNL A   1      41.703  28.221  27.310  1.00  0.00     0.173 A 
ATOM     76  C   UNL A   1      40.290  26.508  28.222  1.00  0.00     0.173 A 
ATOM     77  F   UNL A   1      42.276  29.431  27.382  1.00  0.00    -0.203 F 
ATOM     78  C   UNL A   1      41.917  27.441  26.175  1.00  0.00     0.198 A 
ATOM     79  C   UNL A   1      40.525  25.717  27.097  1.00  0.00     0.198 A 
ATOM     80  F   UNL A   1      39.499  26.031  29.194  1.00  0.00    -0.203 F 
ATOM     81  F   UNL A   1      42.681  27.906  25.178  1.00  0.00    -0.200 F 
ATOM     82  C   UNL A   1      41.336  26.184  26.075  1.00  0.00     0.200 A 
ATOM     83  F   UNL A   1      39.972  24.499  27.010  1.00  0.00    -0.200 F 
ATOM     84  F   UNL A   1      41.557  25.428  24.992  1.00  0.00    -0.200 F 
ENDBRANCH  50  74
BRANCH  62  85
ATOM     85  C   UNL A   1      44.068  27.934  34.573  1.00  0.00     0.064 A 
ATOM     86  C   UNL A   1      45.384  28.405  34.463  1.00  0.00     0.173 A 
ATOM     87  C   UNL A   1      43.849  26.764  35.316  1.00  0.00     0.173 A 
ATOM     88  F   UNL A   1      45.649  29.513  33.754  1.00  0.00    -0.203 F 
ATOM     89  C   UNL A   1      46.441  27.726  35.065  1.00  0.00     0.198 A 
ATOM     90  C   UNL A   1      44.903  26.103  35.941  1.00  0.00     0.198 A 
ATOM     91  F   UNL A   1      42.607  26.275  35.457  1.00  0.00    -0.203 F 
ATOM     92  F   UNL A   1      47.694  28.177  34.921  1.00  0.00    -0.200 F 
ATOM     93  C   UNL A   1      46.198  26.583  35.813  1.00  0.00     0.200 A 
ATOM     94  F   UNL A   1      44.664  25.009  36.677  1.00  0.00    -0.200 F 
ATOM     95  F   UNL A   1      47.213  25.941  36.408  1.00  0.00    -0.200 F 
ENDBRANCH  62  85
ENDBRANCH  36  37
ENDBRANCH  28  31
ENDBRANCH  26  27
ENDBRANCH  25  26
ENDBRANCH   1  25
TORSDOF 14
ENDMDL
