MODEL 1
REMARK VINA RESULT:     -11.6      0.000      0.000
REMARK SMILES CC(C)[C@@H](NC(=O)[C@H]1CCCO1)C(=O)NCCCCCCNC(=O)c1ccc(-c2c3nc(c(-c4c(F)c(F)c(F)c(F)c4F)c4ccc([nH]4)c(-c4c(F)c(F)c(F)c(F)c4F)c4nc(c(-c5c(F)c(F)c(F)c(F)c5F)c5ccc2[nH]5)C=C4)C=C3)cc1
REMARK SMILES IDX 18 1 17 2 16 3 15 4 13 5 14 6 4 8 2 9 1 10 3 11 5 12 6 13
REMARK SMILES IDX 7 15 8 16 9 17 12 18 10 19 11 20 19 21 20 22 21 23 22 24
REMARK SMILES IDX 23 25 24 27 25 28 26 29 87 30 27 31 86 32 28 33 29 34 30 35
REMARK SMILES IDX 80 36 31 37 85 38 79 39 81 40 32 41 84 42 78 43 77 44 33 46
REMARK SMILES IDX 65 47 45 48 64 49 46 50 49 51 63 52 82 53 47 54 48 55 62 57
REMARK SMILES IDX 83 58 50 59 34 60 35 61 43 62 36 63 37 64 41 65 44 66 38 67
REMARK SMILES IDX 39 68 42 69 40 70 66 71 67 72 75 73 68 74 69 75 73 76 76 77
REMARK SMILES IDX 70 78 71 79 74 80 72 81 51 82 52 83 60 84 53 85 54 86 58 87
REMARK SMILES IDX 61 88 55 89 56 90 59 91 57 92
REMARK H PARENT 15 7 5 14 22 26 81 45 49 56
REMARK Flexibility Score: inf
ROOT
ATOM      1  C   UNL A   1      32.474  29.623  27.215  1.00  0.00     0.002 C 
ENDROOT
BRANCH   1   2
ATOM      2  C   UNL A   1      31.546  28.427  27.447  1.00  0.00     0.021 C 
BRANCH   2   3
ATOM      3  C   UNL A   1      32.006  27.164  26.739  1.00  0.00     0.116 C 
BRANCH   3   4
ATOM      4  N   UNL A   1      30.969  26.647  25.869  1.00  0.00    -0.354 N 
ATOM      5  C   UNL A   1      30.774  26.866  24.535  1.00  0.00     0.242 C 
ATOM      6  O   UNL A   1      29.829  26.293  23.985  1.00  0.00    -0.273 OA
ATOM      7  H   UNL A   1      30.314  26.052  26.300  1.00  0.00     0.163 HD
BRANCH   5   8
ATOM      8  C   UNL A   1      31.555  27.975  23.813  1.00  0.00     0.174 C 
BRANCH   8   9
ATOM      9  C   UNL A   1      32.965  27.365  23.449  1.00  0.00     0.015 C 
ATOM     10  C   UNL A   1      33.010  26.645  22.099  1.00  0.00     0.010 C 
ATOM     11  C   UNL A   1      34.111  28.391  23.489  1.00  0.00     0.010 C 
ENDBRANCH   8   9
BRANCH   8  12
ATOM     12  N   UNL A   1      30.878  28.492  22.601  1.00  0.00    -0.342 N 
ATOM     13  C   UNL A   1      29.938  29.454  22.383  1.00  0.00     0.249 C 
ATOM     14  H   UNL A   1      31.170  28.043  21.775  1.00  0.00     0.164 HD
ATOM     15  O   UNL A   1      29.882  29.866  21.215  1.00  0.00    -0.272 OA
BRANCH  13  16
ATOM     16  C   UNL A   1      28.977  30.038  23.463  1.00  0.00     0.207 C 
ATOM     17  C   UNL A   1      29.500  31.390  23.980  1.00  0.00     0.044 C 
ATOM     18  O   UNL A   1      27.624  30.283  23.104  1.00  0.00    -0.368 OA
ATOM     19  C   UNL A   1      28.682  32.382  23.193  1.00  0.00     0.032 C 
ATOM     20  C   UNL A   1      27.345  31.687  23.145  1.00  0.00     0.161 C 
ENDBRANCH  13  16
ENDBRANCH   8  12
ENDBRANCH   5   8
ENDBRANCH   3   4
ENDBRANCH   2   3
ENDBRANCH   1   2
BRANCH   1  21
ATOM     21  C   UNL A   1      31.920  30.698  26.275  1.00  0.00     0.002 C 
BRANCH  21  22
ATOM     22  C   UNL A   1      31.597  32.034  26.933  1.00  0.00     0.021 C 
BRANCH  22  23
ATOM     23  C   UNL A   1      32.835  32.782  27.392  1.00  0.00     0.116 C 
BRANCH  23  24
ATOM     24  N   UNL A   1      32.546  34.186  27.651  1.00  0.00    -0.352 N 
ATOM     25  C   UNL A   1      33.020  34.985  28.663  1.00  0.00     0.251 C 
ATOM     26  H   UNL A   1      31.930  34.619  27.017  1.00  0.00     0.163 HD
ATOM     27  O   UNL A   1      32.507  36.063  28.912  1.00  0.00    -0.269 OA
BRANCH  25  28
ATOM     28  C   UNL A   1      34.166  34.494  29.451  1.00  0.00     0.039 A 
ATOM     29  C   UNL A   1      33.942  33.883  30.684  1.00  0.00     0.014 A 
ATOM     30  C   UNL A   1      35.454  34.592  28.922  1.00  0.00     0.014 A 
ATOM     31  C   UNL A   1      35.019  33.314  31.364  1.00  0.00     0.010 A 
ATOM     32  C   UNL A   1      36.498  33.926  29.539  1.00  0.00     0.010 A 
ATOM     33  C   UNL A   1      36.296  33.301  30.779  1.00  0.00    -0.014 A 
BRANCH  33  34
ATOM     34  C   UNL A   1      37.457  32.676  31.453  1.00  0.00     0.031 A 
ATOM     35  C   UNL A   1      38.173  31.537  30.780  1.00  0.00     0.074 A 
ATOM     36  C   UNL A   1      37.808  33.073  32.690  1.00  0.00     0.049 A 
ATOM     37  N   UNL A   1      39.138  30.778  31.234  1.00  0.00    -0.248 NA
ATOM     38  C   UNL A   1      37.710  31.170  29.430  1.00  0.00     0.031 C 
ATOM     39  C   UNL A   1      37.146  34.128  33.460  1.00  0.00     0.029 A 
ATOM     40  N   UNL A   1      38.802  32.628  33.522  1.00  0.00    -0.354 N 
ATOM     41  C   UNL A   1      39.375  29.839  30.240  1.00  0.00     0.074 A 
ATOM     42  C   UNL A   1      38.406  30.070  29.193  1.00  0.00     0.031 C 
ATOM     43  C   UNL A   1      37.775  34.272  34.639  1.00  0.00     0.029 A 
ATOM     44  C   UNL A   1      38.850  33.290  34.725  1.00  0.00     0.049 A 
ATOM     45  H   UNL A   1      39.422  31.902  33.281  1.00  0.00     0.167 HD
ATOM     46  C   UNL A   1      40.340  28.892  30.188  1.00  0.00     0.037 A 
ATOM     47  C   UNL A   1      39.670  33.114  35.779  1.00  0.00     0.037 A 
ATOM     48  C   UNL A   1      41.320  28.697  31.222  1.00  0.00     0.049 A 
ATOM     49  C   UNL A   1      40.734  32.051  35.700  1.00  0.00     0.074 A 
ATOM     50  C   UNL A   1      42.382  27.812  31.248  1.00  0.00     0.029 A 
ATOM     51  N   UNL A   1      41.354  29.404  32.416  1.00  0.00    -0.354 N 
ATOM     52  N   UNL A   1      40.999  31.216  34.724  1.00  0.00    -0.248 NA
ATOM     53  C   UNL A   1      41.615  31.911  36.866  1.00  0.00     0.031 C 
ATOM     54  C   UNL A   1      43.026  27.945  32.482  1.00  0.00     0.029 A 
ATOM     55  C   UNL A   1      42.405  28.957  33.200  1.00  0.00     0.049 A 
ATOM     56  H   UNL A   1      40.725  30.117  32.669  1.00  0.00     0.167 HD
ATOM     57  C   UNL A   1      42.096  30.474  35.142  1.00  0.00     0.074 A 
ATOM     58  C   UNL A   1      42.453  30.970  36.456  1.00  0.00     0.031 C 
ATOM     59  C   UNL A   1      42.748  29.475  34.499  1.00  0.00     0.037 A 
BRANCH  46  60
ATOM     60  C   UNL A   1      40.381  28.007  28.975  1.00  0.00     0.064 A 
ATOM     61  C   UNL A   1      41.130  28.347  27.836  1.00  0.00     0.173 A 
ATOM     62  C   UNL A   1      39.673  26.796  28.953  1.00  0.00     0.173 A 
ATOM     63  F   UNL A   1      41.814  29.500  27.797  1.00  0.00    -0.203 F 
ATOM     64  C   UNL A   1      41.137  27.528  26.710  1.00  0.00     0.198 A 
ATOM     65  C   UNL A   1      39.713  25.961  27.839  1.00  0.00     0.198 A 
ATOM     66  F   UNL A   1      38.943  26.419  30.013  1.00  0.00    -0.203 F 
ATOM     67  F   UNL A   1      41.806  27.908  25.612  1.00  0.00    -0.200 F 
ATOM     68  C   UNL A   1      40.434  26.333  26.715  1.00  0.00     0.200 A 
ATOM     69  F   UNL A   1      39.045  24.799  27.850  1.00  0.00    -0.200 F 
ATOM     70  F   UNL A   1      40.446  25.544  25.632  1.00  0.00    -0.200 F 
ENDBRANCH  46  60
BRANCH  47  71
ATOM     71  C   UNL A   1      39.538  33.983  36.979  1.00  0.00     0.064 A 
ATOM     72  C   UNL A   1      38.815  33.553  38.100  1.00  0.00     0.173 A 
ATOM     73  C   UNL A   1      40.127  35.254  37.032  1.00  0.00     0.173 A 
ATOM     74  F   UNL A   1      38.218  32.353  38.092  1.00  0.00    -0.203 F 
ATOM     75  C   UNL A   1      38.666  34.371  39.219  1.00  0.00     0.198 A 
ATOM     76  C   UNL A   1      40.005  36.059  38.163  1.00  0.00     0.198 A 
ATOM     77  F   UNL A   1      40.836  35.710  35.989  1.00  0.00    -0.203 F 
ATOM     78  F   UNL A   1      37.929  33.955  40.258  1.00  0.00    -0.200 F 
ATOM     79  C   UNL A   1      39.266  35.620  39.252  1.00  0.00     0.200 A 
ATOM     80  F   UNL A   1      40.601  37.258  38.198  1.00  0.00    -0.200 F 
ATOM     81  F   UNL A   1      39.128  36.405  40.329  1.00  0.00    -0.200 F 
ENDBRANCH  47  71
BRANCH  59  82
ATOM     82  C   UNL A   1      43.941  28.877  35.187  1.00  0.00     0.064 A 
ATOM     83  C   UNL A   1      45.238  29.364  34.973  1.00  0.00     0.173 A 
ATOM     84  C   UNL A   1      43.773  27.837  36.115  1.00  0.00     0.173 A 
ATOM     85  F   UNL A   1      45.452  30.349  34.087  1.00  0.00    -0.203 F 
ATOM     86  C   UNL A   1      46.327  28.815  35.645  1.00  0.00     0.198 A 
ATOM     87  C   UNL A   1      44.859  27.315  36.810  1.00  0.00     0.198 A 
ATOM     88  F   UNL A   1      42.551  27.341  36.362  1.00  0.00    -0.203 F 
ATOM     89  F   UNL A   1      47.564  29.262  35.389  1.00  0.00    -0.200 F 
ATOM     90  C   UNL A   1      46.135  27.798  36.568  1.00  0.00     0.200 A 
ATOM     91  F   UNL A   1      44.669  26.345  37.715  1.00  0.00    -0.200 F 
ATOM     92  F   UNL A   1      47.184  27.280  37.223  1.00  0.00    -0.200 F 
ENDBRANCH  59  82
ENDBRANCH  33  34
ENDBRANCH  25  28
ENDBRANCH  23  24
ENDBRANCH  22  23
ENDBRANCH  21  22
ENDBRANCH   1  21
TORSDOF 16
ENDMDL
MODEL 2
REMARK VINA RESULT:     -11.6      1.493      2.861
REMARK SMILES CC(C)[C@@H](NC(=O)[C@H]1CCCO1)C(=O)NCCCCCCNC(=O)c1ccc(-c2c3nc(c(-c4c(F)c(F)c(F)c(F)c4F)c4ccc([nH]4)c(-c4c(F)c(F)c(F)c(F)c4F)c4nc(c(-c5c(F)c(F)c(F)c(F)c5F)c5ccc2[nH]5)C=C4)C=C3)cc1
REMARK SMILES IDX 18 1 17 2 16 3 15 4 13 5 14 6 4 8 2 9 1 10 3 11 5 12 6 13
REMARK SMILES IDX 7 15 8 16 9 17 12 18 10 19 11 20 19 21 20 22 21 23 22 24
REMARK SMILES IDX 23 25 24 27 25 28 26 29 87 30 27 31 86 32 28 33 29 34 30 35
REMARK SMILES IDX 80 36 31 37 85 38 79 39 81 40 32 41 84 42 78 43 77 44 33 46
REMARK SMILES IDX 65 47 45 48 64 49 46 50 49 51 63 52 82 53 47 54 48 55 62 57
REMARK SMILES IDX 83 58 50 59 34 60 35 61 43 62 36 63 37 64 41 65 44 66 38 67
REMARK SMILES IDX 39 68 42 69 40 70 66 71 67 72 75 73 68 74 69 75 73 76 76 77
REMARK SMILES IDX 70 78 71 79 74 80 72 81 51 82 52 83 60 84 53 85 54 86 58 87
REMARK SMILES IDX 61 88 55 89 56 90 59 91 57 92
REMARK H PARENT 15 7 5 14 22 26 81 45 49 56
REMARK Flexibility Score: inf
ROOT
ATOM      1  C   UNL A   1      32.143  29.604  27.136  1.00  0.00     0.002 C 
ENDROOT
BRANCH   1   2
ATOM      2  C   UNL A   1      33.636  29.291  27.283  1.00  0.00     0.021 C 
BRANCH   2   3
ATOM      3  C   UNL A   1      34.117  28.202  26.339  1.00  0.00     0.116 C 
BRANCH   3   4
ATOM      4  N   UNL A   1      34.353  28.732  25.011  1.00  0.00    -0.354 N 
ATOM      5  C   UNL A   1      33.774  28.378  23.825  1.00  0.00     0.242 C 
ATOM      6  O   UNL A   1      34.111  28.991  22.808  1.00  0.00    -0.273 OA
ATOM      7  H   UNL A   1      35.024  29.451  24.955  1.00  0.00     0.163 HD
BRANCH   5   8
ATOM      8  C   UNL A   1      32.923  27.101  23.733  1.00  0.00     0.174 C 
BRANCH   8   9
ATOM      9  C   UNL A   1      31.414  27.568  23.758  1.00  0.00     0.015 C 
ATOM     10  C   UNL A   1      30.723  27.536  22.392  1.00  0.00     0.010 C 
ATOM     11  C   UNL A   1      30.543  26.790  24.760  1.00  0.00     0.010 C 
ENDBRANCH   8   9
BRANCH   8  12
ATOM     12  N   UNL A   1      33.200  26.283  22.530  1.00  0.00    -0.342 N 
ATOM     13  C   UNL A   1      33.257  24.942  22.295  1.00  0.00     0.249 C 
ATOM     14  H   UNL A   1      33.380  26.824  21.728  1.00  0.00     0.164 HD
ATOM     15  O   UNL A   1      33.148  24.621  21.103  1.00  0.00    -0.272 OA
BRANCH  13  16
ATOM     16  C   UNL A   1      33.445  23.841  23.384  1.00  0.00     0.207 C 
ATOM     17  C   UNL A   1      34.929  23.703  23.765  1.00  0.00     0.044 C 
ATOM     18  O   UNL A   1      32.763  23.991  24.622  1.00  0.00    -0.368 OA
ATOM     19  C   UNL A   1      35.021  24.508  25.035  1.00  0.00     0.032 C 
ATOM     20  C   UNL A   1      33.701  24.177  25.687  1.00  0.00     0.161 C 
ENDBRANCH  13  16
ENDBRANCH   8  12
ENDBRANCH   5   8
ENDBRANCH   3   4
ENDBRANCH   2   3
ENDBRANCH   1   2
BRANCH   1  21
ATOM     21  C   UNL A   1      31.817  30.767  26.196  1.00  0.00     0.002 C 
BRANCH  21  22
ATOM     22  C   UNL A   1      31.494  32.088  26.883  1.00  0.00     0.021 C 
BRANCH  22  23
ATOM     23  C   UNL A   1      32.726  32.787  27.429  1.00  0.00     0.116 C 
BRANCH  23  24
ATOM     24  N   UNL A   1      32.485  34.209  27.636  1.00  0.00    -0.352 N 
ATOM     25  C   UNL A   1      33.000  35.031  28.610  1.00  0.00     0.251 C 
ATOM     26  H   UNL A   1      31.874  34.637  26.994  1.00  0.00     0.163 HD
ATOM     27  O   UNL A   1      32.526  36.134  28.823  1.00  0.00    -0.269 OA
BRANCH  25  28
ATOM     28  C   UNL A   1      34.142  34.534  29.400  1.00  0.00     0.039 A 
ATOM     29  C   UNL A   1      33.913  33.938  30.640  1.00  0.00     0.014 A 
ATOM     30  C   UNL A   1      35.430  34.612  28.868  1.00  0.00     0.014 A 
ATOM     31  C   UNL A   1      34.984  33.363  31.323  1.00  0.00     0.010 A 
ATOM     32  C   UNL A   1      36.467  33.939  29.490  1.00  0.00     0.010 A 
ATOM     33  C   UNL A   1      36.260  33.328  30.736  1.00  0.00    -0.014 A 
BRANCH  33  34
ATOM     34  C   UNL A   1      37.415  32.696  31.413  1.00  0.00     0.031 A 
ATOM     35  C   UNL A   1      38.132  31.559  30.739  1.00  0.00     0.074 A 
ATOM     36  C   UNL A   1      37.759  33.086  32.656  1.00  0.00     0.049 A 
ATOM     37  N   UNL A   1      39.092  30.795  31.195  1.00  0.00    -0.248 NA
ATOM     38  C   UNL A   1      37.677  31.201  29.384  1.00  0.00     0.031 C 
ATOM     39  C   UNL A   1      37.095  34.138  33.428  1.00  0.00     0.029 A 
ATOM     40  N   UNL A   1      38.746  32.632  33.492  1.00  0.00    -0.354 N 
ATOM     41  C   UNL A   1      39.333  29.861  30.197  1.00  0.00     0.074 A 
ATOM     42  C   UNL A   1      38.371  30.101  29.145  1.00  0.00     0.031 C 
ATOM     43  C   UNL A   1      37.716  34.273  34.611  1.00  0.00     0.029 A 
ATOM     44  C   UNL A   1      38.788  33.287  34.699  1.00  0.00     0.049 A 
ATOM     45  H   UNL A   1      39.366  31.906  33.250  1.00  0.00     0.167 HD
ATOM     46  C   UNL A   1      40.295  28.911  30.146  1.00  0.00     0.037 A 
ATOM     47  C   UNL A   1      39.601  33.102  35.756  1.00  0.00     0.037 A 
ATOM     48  C   UNL A   1      41.268  28.708  31.185  1.00  0.00     0.049 A 
ATOM     49  C   UNL A   1      40.662  32.037  35.678  1.00  0.00     0.074 A 
ATOM     50  C   UNL A   1      42.327  27.820  31.213  1.00  0.00     0.029 A 
ATOM     51  N   UNL A   1      41.296  29.407  32.383  1.00  0.00    -0.354 N 
ATOM     52  N   UNL A   1      40.931  31.207  34.699  1.00  0.00    -0.248 NA
ATOM     53  C   UNL A   1      41.535  31.888  36.849  1.00  0.00     0.031 C 
ATOM     54  C   UNL A   1      42.963  27.943  32.452  1.00  0.00     0.029 A 
ATOM     55  C   UNL A   1      42.341  28.953  33.171  1.00  0.00     0.049 A 
ATOM     56  H   UNL A   1      40.667  30.121  32.636  1.00  0.00     0.167 HD
ATOM     57  C   UNL A   1      42.023  30.460  35.120  1.00  0.00     0.074 A 
ATOM     58  C   UNL A   1      42.374  30.947  36.439  1.00  0.00     0.031 C 
ATOM     59  C   UNL A   1      42.677  29.462  34.476  1.00  0.00     0.037 A 
BRANCH  46  60
ATOM     60  C   UNL A   1      40.341  28.033  28.928  1.00  0.00     0.064 A 
ATOM     61  C   UNL A   1      41.079  28.390  27.787  1.00  0.00     0.173 A 
ATOM     62  C   UNL A   1      39.650  26.813  28.904  1.00  0.00     0.173 A 
ATOM     63  F   UNL A   1      41.747  29.552  27.750  1.00  0.00    -0.203 F 
ATOM     64  C   UNL A   1      41.091  27.577  26.656  1.00  0.00     0.198 A 
ATOM     65  C   UNL A   1      39.695  25.985  27.784  1.00  0.00     0.198 A 
ATOM     66  F   UNL A   1      38.931  26.420  29.966  1.00  0.00    -0.203 F 
ATOM     67  F   UNL A   1      41.749  27.971  25.556  1.00  0.00    -0.200 F 
ATOM     68  C   UNL A   1      40.405  26.372  26.658  1.00  0.00     0.200 A 
ATOM     69  F   UNL A   1      39.044  24.813  27.793  1.00  0.00    -0.200 F 
ATOM     70  F   UNL A   1      40.422  25.589  25.572  1.00  0.00    -0.200 F 
ENDBRANCH  46  60
BRANCH  47  71
ATOM     71  C   UNL A   1      39.463  33.965  36.960  1.00  0.00     0.064 A 
ATOM     72  C   UNL A   1      38.744  33.525  38.081  1.00  0.00     0.173 A 
ATOM     73  C   UNL A   1      40.044  35.241  37.019  1.00  0.00     0.173 A 
ATOM     74  F   UNL A   1      38.156  32.321  38.067  1.00  0.00    -0.203 F 
ATOM     75  C   UNL A   1      38.590  34.337  39.203  1.00  0.00     0.198 A 
ATOM     76  C   UNL A   1      39.917  36.039  38.154  1.00  0.00     0.198 A 
ATOM     77  F   UNL A   1      40.749  35.706  35.978  1.00  0.00    -0.203 F 
ATOM     78  F   UNL A   1      37.857  33.910  40.241  1.00  0.00    -0.200 F 
ATOM     79  C   UNL A   1      39.182  35.590  39.241  1.00  0.00     0.200 A 
ATOM     80  F   UNL A   1      40.505  37.242  38.194  1.00  0.00    -0.200 F 
ATOM     81  F   UNL A   1      39.038  36.368  40.323  1.00  0.00    -0.200 F 
ENDBRANCH  47  71
BRANCH  59  82
ATOM     82  C   UNL A   1      43.863  28.857  35.168  1.00  0.00     0.064 A 
ATOM     83  C   UNL A   1      43.735  27.767  36.039  1.00  0.00     0.173 A 
ATOM     84  C   UNL A   1      45.155  29.346  34.911  1.00  0.00     0.173 A 
ATOM     85  F   UNL A   1      42.521  27.272  36.327  1.00  0.00    -0.203 F 
ATOM     86  C   UNL A   1      44.853  27.203  36.647  1.00  0.00     0.198 A 
ATOM     87  C   UNL A   1      46.272  28.757  35.493  1.00  0.00     0.198 A 
ATOM     88  F   UNL A   1      45.333  30.383  34.079  1.00  0.00    -0.203 F 
ATOM     89  F   UNL A   1      44.702  26.192  37.515  1.00  0.00    -0.200 F 
ATOM     90  C   UNL A   1      46.120  27.692  36.367  1.00  0.00     0.200 A 
ATOM     91  F   UNL A   1      47.497  29.219  35.206  1.00  0.00    -0.200 F 
ATOM     92  F   UNL A   1      47.195  27.138  36.944  1.00  0.00    -0.200 F 
ENDBRANCH  59  82
ENDBRANCH  33  34
ENDBRANCH  25  28
ENDBRANCH  23  24
ENDBRANCH  22  23
ENDBRANCH  21  22
ENDBRANCH   1  21
TORSDOF 16
ENDMDL
MODEL 3
REMARK VINA RESULT:     -11.4      1.550      7.786
REMARK SMILES CC(C)[C@@H](NC(=O)[C@H]1CCCO1)C(=O)NCCCCCCNC(=O)c1ccc(-c2c3nc(c(-c4c(F)c(F)c(F)c(F)c4F)c4ccc([nH]4)c(-c4c(F)c(F)c(F)c(F)c4F)c4nc(c(-c5c(F)c(F)c(F)c(F)c5F)c5ccc2[nH]5)C=C4)C=C3)cc1
REMARK SMILES IDX 18 1 17 2 16 3 15 4 13 5 14 6 4 8 2 9 1 10 3 11 5 12 6 13
REMARK SMILES IDX 7 15 8 16 9 17 12 18 10 19 11 20 19 21 20 22 21 23 22 24
REMARK SMILES IDX 23 25 24 27 25 28 26 29 87 30 27 31 86 32 28 33 29 34 30 35
REMARK SMILES IDX 80 36 31 37 85 38 79 39 81 40 32 41 84 42 78 43 77 44 33 46
REMARK SMILES IDX 65 47 45 48 64 49 46 50 49 51 63 52 82 53 47 54 48 55 62 57
REMARK SMILES IDX 83 58 50 59 34 60 35 61 43 62 36 63 37 64 41 65 44 66 38 67
REMARK SMILES IDX 39 68 42 69 40 70 66 71 67 72 75 73 68 74 69 75 73 76 76 77
REMARK SMILES IDX 70 78 71 79 74 80 72 81 51 82 52 83 60 84 53 85 54 86 58 87
REMARK SMILES IDX 61 88 55 89 56 90 59 91 57 92
REMARK H PARENT 15 7 5 14 22 26 81 45 49 56
REMARK Flexibility Score: inf
ROOT
ATOM      1  C   UNL A   1      32.939  30.265  26.996  1.00  0.00     0.002 C 
ENDROOT
BRANCH   1   2
ATOM      2  C   UNL A   1      32.890  28.744  27.177  1.00  0.00     0.021 C 
BRANCH   2   3
ATOM      3  C   UNL A   1      33.980  28.013  26.411  1.00  0.00     0.116 C 
BRANCH   3   4
ATOM      4  N   UNL A   1      34.221  28.637  25.126  1.00  0.00    -0.354 N 
ATOM      5  C   UNL A   1      33.639  28.377  23.918  1.00  0.00     0.242 C 
ATOM      6  O   UNL A   1      33.982  29.061  22.948  1.00  0.00    -0.273 OA
ATOM      7  H   UNL A   1      34.899  29.351  25.123  1.00  0.00     0.163 HD
BRANCH   5   8
ATOM      8  C   UNL A   1      32.774  27.120  23.732  1.00  0.00     0.174 C 
BRANCH   8   9
ATOM      9  C   UNL A   1      31.271  27.603  23.763  1.00  0.00     0.015 C 
ATOM     10  C   UNL A   1      30.634  27.767  22.381  1.00  0.00     0.010 C 
ATOM     11  C   UNL A   1      30.352  26.711  24.617  1.00  0.00     0.010 C 
ENDBRANCH   8   9
BRANCH   8  12
ATOM     12  N   UNL A   1      33.060  26.376  22.484  1.00  0.00    -0.342 N 
ATOM     13  C   UNL A   1      33.164  25.052  22.179  1.00  0.00     0.249 C 
ATOM     14  H   UNL A   1      33.207  26.964  21.708  1.00  0.00     0.164 HD
ATOM     15  O   UNL A   1      33.046  24.789  20.973  1.00  0.00    -0.272 OA
BRANCH  13  16
ATOM     16  C   UNL A   1      33.412  23.905  23.206  1.00  0.00     0.207 C 
ATOM     17  C   UNL A   1      34.893  23.859  23.621  1.00  0.00     0.044 C 
ATOM     18  O   UNL A   1      32.691  23.925  24.430  1.00  0.00    -0.368 OA
ATOM     19  C   UNL A   1      34.890  24.590  24.939  1.00  0.00     0.032 C 
ATOM     20  C   UNL A   1      33.585  24.118  25.532  1.00  0.00     0.161 C 
ENDBRANCH  13  16
ENDBRANCH   8  12
ENDBRANCH   5   8
ENDBRANCH   3   4
ENDBRANCH   2   3
ENDBRANCH   1   2
BRANCH   1  21
ATOM     21  C   UNL A   1      31.632  30.900  26.515  1.00  0.00     0.002 C 
BRANCH  21  22
ATOM     22  C   UNL A   1      31.452  32.370  26.876  1.00  0.00     0.021 C 
BRANCH  22  23
ATOM     23  C   UNL A   1      32.751  33.042  27.284  1.00  0.00     0.116 C 
BRANCH  23  24
ATOM     24  N   UNL A   1      32.531  34.421  27.699  1.00  0.00    -0.352 N 
ATOM     25  C   UNL A   1      33.051  35.081  28.787  1.00  0.00     0.251 C 
ATOM     26  H   UNL A   1      31.931  34.949  27.125  1.00  0.00     0.163 HD
ATOM     27  O   UNL A   1      32.594  36.147  29.160  1.00  0.00    -0.269 OA
BRANCH  25  28
ATOM     28  C   UNL A   1      34.179  34.452  29.500  1.00  0.00     0.039 A 
ATOM     29  C   UNL A   1      33.929  33.642  30.606  1.00  0.00     0.014 A 
ATOM     30  C   UNL A   1      35.479  34.628  29.019  1.00  0.00     0.014 A 
ATOM     31  C   UNL A   1      34.989  32.956  31.199  1.00  0.00     0.010 A 
ATOM     32  C   UNL A   1      36.507  33.857  29.533  1.00  0.00     0.010 A 
ATOM     33  C   UNL A   1      36.277  33.031  30.643  1.00  0.00    -0.014 A 
BRANCH  33  34
ATOM     34  C   UNL A   1      37.422  32.291  31.221  1.00  0.00     0.031 A 
ATOM     35  C   UNL A   1      37.929  32.669  32.586  1.00  0.00     0.074 A 
ATOM     36  C   UNL A   1      38.048  31.349  30.491  1.00  0.00     0.049 A 
ATOM     37  N   UNL A   1      38.979  32.230  33.232  1.00  0.00    -0.248 NA
ATOM     38  C   UNL A   1      37.181  33.717  33.302  1.00  0.00     0.031 C 
ATOM     39  C   UNL A   1      37.678  30.943  29.134  1.00  0.00     0.029 A 
ATOM     40  N   UNL A   1      39.137  30.570  30.786  1.00  0.00    -0.354 N 
ATOM     41  C   UNL A   1      39.025  32.962  34.411  1.00  0.00     0.074 A 
ATOM     42  C   UNL A   1      37.949  33.926  34.358  1.00  0.00     0.031 C 
ATOM     43  C   UNL A   1      38.504  29.966  28.727  1.00  0.00     0.029 A 
ATOM     44  C   UNL A   1      39.488  29.710  29.773  1.00  0.00     0.049 A 
ATOM     45  H   UNL A   1      39.621  30.621  31.641  1.00  0.00     0.167 HD
ATOM     46  C   UNL A   1      39.868  32.818  35.460  1.00  0.00     0.037 A 
ATOM     47  C   UNL A   1      40.497  28.822  29.702  1.00  0.00     0.037 A 
ATOM     48  C   UNL A   1      40.911  31.831  35.513  1.00  0.00     0.049 A 
ATOM     49  C   UNL A   1      41.424  28.682  30.880  1.00  0.00     0.074 A 
ATOM     50  C   UNL A   1      41.783  31.552  36.549  1.00  0.00     0.029 A 
ATOM     51  N   UNL A   1      41.222  30.959  34.478  1.00  0.00    -0.354 N 
ATOM     52  N   UNL A   1      41.416  29.327  32.022  1.00  0.00    -0.248 NA
ATOM     53  C   UNL A   1      42.497  27.686  30.761  1.00  0.00     0.031 C 
ATOM     54  C   UNL A   1      42.658  30.549  36.120  1.00  0.00     0.029 A 
ATOM     55  C   UNL A   1      42.291  30.157  34.841  1.00  0.00     0.049 A 
ATOM     56  H   UNL A   1      40.752  30.917  33.614  1.00  0.00     0.167 HD
ATOM     57  C   UNL A   1      42.457  28.795  32.770  1.00  0.00     0.074 A 
ATOM     58  C   UNL A   1      43.067  27.764  31.956  1.00  0.00     0.031 C 
ATOM     59  C   UNL A   1      42.872  29.129  34.017  1.00  0.00     0.037 A 
BRANCH  46  60
ATOM     60  C   UNL A   1      39.686  33.745  36.629  1.00  0.00     0.064 A 
ATOM     61  C   UNL A   1      40.316  34.999  36.682  1.00  0.00     0.173 A 
ATOM     62  C   UNL A   1      38.861  33.382  37.703  1.00  0.00     0.173 A 
ATOM     63  F   UNL A   1      41.127  35.391  35.688  1.00  0.00    -0.203 F 
ATOM     64  C   UNL A   1      40.158  35.836  37.784  1.00  0.00     0.198 A 
ATOM     65  C   UNL A   1      38.676  34.238  38.787  1.00  0.00     0.198 A 
ATOM     66  F   UNL A   1      38.232  32.197  37.705  1.00  0.00    -0.203 F 
ATOM     67  F   UNL A   1      40.823  36.999  37.840  1.00  0.00    -0.200 F 
ATOM     68  C   UNL A   1      39.332  35.459  38.832  1.00  0.00     0.200 A 
ATOM     69  F   UNL A   1      37.866  33.878  39.792  1.00  0.00    -0.200 F 
ATOM     70  F   UNL A   1      39.177  36.267  39.888  1.00  0.00    -0.200 F 
ENDBRANCH  46  60
BRANCH  47  71
ATOM     71  C   UNL A   1      40.661  27.977  28.489  1.00  0.00     0.064 A 
ATOM     72  C   UNL A   1      40.056  26.715  28.405  1.00  0.00     0.173 A 
ATOM     73  C   UNL A   1      41.422  28.407  27.392  1.00  0.00     0.173 A 
ATOM     74  F   UNL A   1      39.333  26.250  29.434  1.00  0.00    -0.203 F 
ATOM     75  C   UNL A   1      40.225  25.906  27.283  1.00  0.00     0.198 A 
ATOM     76  C   UNL A   1      41.565  27.612  26.257  1.00  0.00     0.198 A 
ATOM     77  F   UNL A   1      42.016  29.610  27.417  1.00  0.00    -0.203 F 
ATOM     78  F   UNL A   1      39.675  24.685  27.250  1.00  0.00    -0.200 F 
ATOM     79  C   UNL A   1      40.973  26.358  26.207  1.00  0.00     0.200 A 
ATOM     80  F   UNL A   1      42.274  28.060  25.212  1.00  0.00    -0.200 F 
ATOM     81  F   UNL A   1      41.132  25.583  25.126  1.00  0.00    -0.200 F 
ENDBRANCH  47  71
BRANCH  59  82
ATOM     82  C   UNL A   1      44.014  28.344  34.595  1.00  0.00     0.064 A 
ATOM     83  C   UNL A   1      45.339  28.792  34.506  1.00  0.00     0.173 A 
ATOM     84  C   UNL A   1      43.767  27.152  35.296  1.00  0.00     0.173 A 
ATOM     85  F   UNL A   1      45.628  29.918  33.835  1.00  0.00    -0.203 F 
ATOM     86  C   UNL A   1      46.379  28.062  35.075  1.00  0.00     0.198 A 
ATOM     87  C   UNL A   1      44.805  26.445  35.894  1.00  0.00     0.198 A 
ATOM     88  F   UNL A   1      42.515  26.685  35.417  1.00  0.00    -0.203 F 
ATOM     89  F   UNL A   1      47.644  28.483  34.936  1.00  0.00    -0.200 F 
ATOM     90  C   UNL A   1      46.110  26.896  35.777  1.00  0.00     0.200 A 
ATOM     91  F   UNL A   1      44.541  25.329  36.587  1.00  0.00    -0.200 F 
ATOM     92  F   UNL A   1      47.112  26.203  36.335  1.00  0.00    -0.200 F 
ENDBRANCH  59  82
ENDBRANCH  33  34
ENDBRANCH  25  28
ENDBRANCH  23  24
ENDBRANCH  22  23
ENDBRANCH  21  22
ENDBRANCH   1  21
TORSDOF 16
ENDMDL
