MODEL 1
REMARK VINA RESULT:     -11.7      0.000      0.000
REMARK SMILES Cc1ccc(C)c([C@@H](C)[N@@H+](CC(=O)NCCCCCCNC(=O)c2ccc(-c3c4nc(c(-c5c(F)c(F)c(F)c(F)c5F)c5ccc([nH]5)c(-c5c(F)c(F)c(F)c(F)c5F)c5nc(c(-c6c(F)c(F)c(F)c(F)c6F)c6ccc3[nH]6)C=C5)C=C4)cc2)CC(F)(F)F)c1
REMARK SMILES IDX 17 1 16 2 15 3 14 4 12 5 13 6 11 8 10 9 8 11 9 12 7 13 1 14
REMARK SMILES IDX 2 15 3 16 92 17 4 18 5 19 6 20 87 21 88 22 89 23 90 24 91 25
REMARK SMILES IDX 18 26 19 27 20 28 21 29 22 30 23 32 24 33 25 34 86 35 26 36
REMARK SMILES IDX 85 37 27 38 28 39 29 40 79 41 30 42 84 43 78 44 80 45 31 46
REMARK SMILES IDX 83 47 77 48 76 49 32 51 64 52 44 53 63 54 45 55 48 56 62 57
REMARK SMILES IDX 81 58 46 59 47 60 61 62 82 63 49 64 33 65 34 66 42 67 35 68
REMARK SMILES IDX 36 69 40 70 43 71 37 72 38 73 41 74 39 75 65 76 66 77 74 78
REMARK SMILES IDX 67 79 68 80 72 81 75 82 69 83 70 84 73 85 71 86 50 87 51 88
REMARK SMILES IDX 59 89 52 90 53 91 57 92 60 93 54 94 55 95 58 96 56 97
REMARK H PARENT 14 7 10 10 21 31 80 50 48 61
REMARK Flexibility Score: inf
ROOT
ATOM      1  C   UNL A   1      40.235  21.545  27.242  1.00  0.00     0.002 C 
ENDROOT
BRANCH   1   2
ATOM      2  C   UNL A   1      39.690  21.799  25.830  1.00  0.00     0.021 C 
BRANCH   2   3
ATOM      3  C   UNL A   1      38.159  21.984  25.671  1.00  0.00     0.116 C 
BRANCH   3   4
ATOM      4  N   UNL A   1      37.676  22.214  24.312  1.00  0.00    -0.351 N 
ATOM      5  C   UNL A   1      36.693  22.999  23.766  1.00  0.00     0.275 C 
ATOM      6  O   UNL A   1      36.552  22.930  22.542  1.00  0.00    -0.269 OA
ATOM      7  H   UNL A   1      38.165  21.689  23.638  1.00  0.00     0.163 HD
BRANCH   5   8
ATOM      8  C   UNL A   1      35.777  23.899  24.610  1.00  0.00     0.364 C 
BRANCH   8   9
ATOM      9  N   UNL A   1      34.447  23.329  24.935  1.00  0.00    -0.314 N 
ATOM     10  H   UNL A   1      33.761  23.907  24.449  1.00  0.00     0.349 HD
BRANCH   9  11
ATOM     11  C   UNL A   1      34.038  23.555  26.316  1.00  0.00     0.212 C 
ATOM     12  C   UNL A   1      34.490  22.508  27.364  1.00  0.00     0.081 C 
BRANCH  11  13
ATOM     13  C   UNL A   1      32.617  24.079  26.566  1.00  0.00     0.012 A 
ATOM     14  C   UNL A   1      29.123  22.585  27.256  1.00  0.00     0.044 C 
ATOM     15  C   UNL A   1      30.229  23.507  26.835  1.00  0.00    -0.051 A 
ATOM     16  C   UNL A   1      29.887  24.723  26.261  1.00  0.00     0.004 A 
ATOM     17  C   UNL A   1      31.591  23.184  26.970  1.00  0.00     0.013 A 
ATOM     18  C   UNL A   1      30.885  25.609  25.887  1.00  0.00     0.004 A 
ATOM     19  C   UNL A   1      32.242  25.351  26.136  1.00  0.00    -0.042 A 
ATOM     20  C   UNL A   1      33.237  26.460  26.023  1.00  0.00     0.045 C 
ENDBRANCH  11  13
ENDBRANCH   9  11
BRANCH   9  21
ATOM     21  C   UNL A   1      34.063  22.085  24.230  1.00  0.00     0.380 C 
BRANCH  21  22
ATOM     22  C   UNL A   1      32.635  21.658  23.793  1.00  0.00     0.438 C 
ATOM     23  F   UNL A   1      32.026  20.829  24.664  1.00  0.00    -0.165 F 
ATOM     24  F   UNL A   1      31.844  22.764  23.726  1.00  0.00    -0.165 F 
ATOM     25  F   UNL A   1      32.610  21.091  22.575  1.00  0.00    -0.165 F 
ENDBRANCH  21  22
ENDBRANCH   9  21
ENDBRANCH   8   9
ENDBRANCH   5   8
ENDBRANCH   3   4
ENDBRANCH   2   3
ENDBRANCH   1   2
BRANCH   1  26
ATOM     26  C   UNL A   1      41.178  20.356  27.393  1.00  0.00     0.002 C 
BRANCH  26  27
ATOM     27  C   UNL A   1      41.467  19.533  26.133  1.00  0.00     0.021 C 
BRANCH  27  28
ATOM     28  C   UNL A   1      42.715  18.650  26.165  1.00  0.00     0.116 C 
BRANCH  28  29
ATOM     29  N   UNL A   1      43.622  18.910  25.045  1.00  0.00    -0.352 N 
ATOM     30  C   UNL A   1      44.121  20.034  24.430  1.00  0.00     0.251 C 
ATOM     31  H   UNL A   1      43.954  18.080  24.633  1.00  0.00     0.163 HD
ATOM     32  O   UNL A   1      44.544  19.908  23.272  1.00  0.00    -0.269 OA
BRANCH  30  33
ATOM     33  C   UNL A   1      44.227  21.366  25.073  1.00  0.00     0.039 A 
ATOM     34  C   UNL A   1      45.308  21.689  25.911  1.00  0.00     0.014 A 
ATOM     35  C   UNL A   1      43.240  22.316  24.914  1.00  0.00     0.014 A 
ATOM     36  C   UNL A   1      45.274  22.866  26.678  1.00  0.00     0.010 A 
ATOM     37  C   UNL A   1      43.383  23.582  25.412  1.00  0.00     0.010 A 
ATOM     38  C   UNL A   1      44.248  23.789  26.466  1.00  0.00    -0.014 A 
BRANCH  38  39
ATOM     39  C   UNL A   1      44.084  25.048  27.197  1.00  0.00     0.031 A 
ATOM     40  C   UNL A   1      45.207  25.975  26.946  1.00  0.00     0.074 A 
ATOM     41  C   UNL A   1      42.944  25.481  27.790  1.00  0.00     0.049 A 
ATOM     42  N   UNL A   1      46.254  26.149  27.683  1.00  0.00    -0.248 NA
ATOM     43  C   UNL A   1      45.300  26.602  25.614  1.00  0.00     0.031 C 
ATOM     44  C   UNL A   1      41.627  24.838  27.793  1.00  0.00     0.029 A 
ATOM     45  N   UNL A   1      42.709  26.640  28.496  1.00  0.00    -0.354 N 
ATOM     46  C   UNL A   1      47.019  27.080  26.989  1.00  0.00     0.074 A 
ATOM     47  C   UNL A   1      46.567  27.015  25.632  1.00  0.00     0.031 C 
ATOM     48  C   UNL A   1      40.716  25.661  28.372  1.00  0.00     0.029 A 
ATOM     49  C   UNL A   1      41.369  26.876  28.840  1.00  0.00     0.049 A 
ATOM     50  H   UNL A   1      43.432  27.261  28.744  1.00  0.00     0.167 HD
ATOM     51  C   UNL A   1      47.629  28.105  27.650  1.00  0.00     0.037 A 
ATOM     52  C   UNL A   1      40.862  27.997  29.440  1.00  0.00     0.037 A 
ATOM     53  C   UNL A   1      47.564  27.876  29.075  1.00  0.00     0.049 A 
ATOM     54  C   UNL A   1      41.975  28.674  30.121  1.00  0.00     0.074 A 
ATOM     55  C   UNL A   1      48.209  27.100  30.011  1.00  0.00     0.029 A 
ATOM     56  N   UNL A   1      46.394  28.306  29.643  1.00  0.00    -0.354 N 
ATOM     57  N   UNL A   1      42.550  28.193  31.184  1.00  0.00    -0.248 NA
ATOM     58  C   UNL A   1      42.694  29.742  29.436  1.00  0.00     0.031 C 
ATOM     59  C   UNL A   1      47.329  26.995  31.131  1.00  0.00     0.029 A 
ATOM     60  C   UNL A   1      46.174  27.719  30.858  1.00  0.00     0.049 A 
ATOM     61  H   UNL A   1      45.785  28.958  29.228  1.00  0.00     0.167 HD
ATOM     62  C   UNL A   1      43.864  28.580  31.048  1.00  0.00     0.074 A 
ATOM     63  C   UNL A   1      43.857  29.677  30.089  1.00  0.00     0.031 C 
ATOM     64  C   UNL A   1      44.862  27.748  31.450  1.00  0.00     0.037 A 
BRANCH  51  65
ATOM     65  C   UNL A   1      47.806  29.526  27.118  1.00  0.00     0.064 A 
ATOM     66  C   UNL A   1      49.084  30.118  27.244  1.00  0.00     0.173 A 
ATOM     67  C   UNL A   1      46.775  30.428  26.767  1.00  0.00     0.173 A 
ATOM     68  F   UNL A   1      50.160  29.372  27.532  1.00  0.00    -0.203 F 
ATOM     69  C   UNL A   1      49.281  31.500  27.157  1.00  0.00     0.198 A 
ATOM     70  C   UNL A   1      46.983  31.802  26.645  1.00  0.00     0.198 A 
ATOM     71  F   UNL A   1      45.502  30.064  26.602  1.00  0.00    -0.203 F 
ATOM     72  F   UNL A   1      50.491  32.015  27.408  1.00  0.00    -0.200 F 
ATOM     73  C   UNL A   1      48.226  32.343  26.877  1.00  0.00     0.200 A 
ATOM     74  F   UNL A   1      45.939  32.599  26.373  1.00  0.00    -0.200 F 
ATOM     75  F   UNL A   1      48.392  33.671  26.862  1.00  0.00    -0.200 F 
ENDBRANCH  51  65
BRANCH  52  76
ATOM     76  C   UNL A   1      39.563  28.715  29.315  1.00  0.00     0.064 A 
ATOM     77  C   UNL A   1      39.004  29.199  28.127  1.00  0.00     0.173 A 
ATOM     78  C   UNL A   1      38.652  28.595  30.366  1.00  0.00     0.173 A 
ATOM     79  F   UNL A   1      39.709  29.157  26.989  1.00  0.00    -0.203 F 
ATOM     80  C   UNL A   1      37.662  29.636  28.064  1.00  0.00     0.198 A 
ATOM     81  C   UNL A   1      37.354  29.103  30.353  1.00  0.00     0.198 A 
ATOM     82  F   UNL A   1      38.962  27.795  31.381  1.00  0.00    -0.203 F 
ATOM     83  F   UNL A   1      37.129  29.996  26.887  1.00  0.00    -0.200 F 
ATOM     84  C   UNL A   1      36.852  29.628  29.189  1.00  0.00     0.200 A 
ATOM     85  F   UNL A   1      36.585  28.996  31.444  1.00  0.00    -0.200 F 
ATOM     86  F   UNL A   1      35.575  30.029  29.133  1.00  0.00    -0.200 F 
ENDBRANCH  52  76
BRANCH  64  87
ATOM     87  C   UNL A   1      44.483  26.695  32.438  1.00  0.00     0.064 A 
ATOM     88  C   UNL A   1      44.245  26.947  33.799  1.00  0.00     0.173 A 
ATOM     89  C   UNL A   1      44.340  25.381  31.984  1.00  0.00     0.173 A 
ATOM     90  F   UNL A   1      44.306  28.191  34.287  1.00  0.00    -0.203 F 
ATOM     91  C   UNL A   1      43.916  25.915  34.675  1.00  0.00     0.198 A 
ATOM     92  C   UNL A   1      43.981  24.357  32.852  1.00  0.00     0.198 A 
ATOM     93  F   UNL A   1      44.531  25.098  30.685  1.00  0.00    -0.203 F 
ATOM     94  F   UNL A   1      43.717  26.172  35.976  1.00  0.00    -0.200 F 
ATOM     95  C   UNL A   1      43.779  24.621  34.199  1.00  0.00     0.200 A 
ATOM     96  F   UNL A   1      43.817  23.114  32.381  1.00  0.00    -0.200 F 
ATOM     97  F   UNL A   1      43.437  23.630  35.033  1.00  0.00    -0.200 F 
ENDBRANCH  64  87
ENDBRANCH  38  39
ENDBRANCH  30  33
ENDBRANCH  28  29
ENDBRANCH  27  28
ENDBRANCH  26  27
ENDBRANCH   1  26
TORSDOF 18
ENDMDL
MODEL 2
REMARK VINA RESULT:     -11.7      1.396      2.251
REMARK SMILES Cc1ccc(C)c([C@@H](C)[N@@H+](CC(=O)NCCCCCCNC(=O)c2ccc(-c3c4nc(c(-c5c(F)c(F)c(F)c(F)c5F)c5ccc([nH]5)c(-c5c(F)c(F)c(F)c(F)c5F)c5nc(c(-c6c(F)c(F)c(F)c(F)c6F)c6ccc3[nH]6)C=C5)C=C4)cc2)CC(F)(F)F)c1
REMARK SMILES IDX 17 1 16 2 15 3 14 4 12 5 13 6 11 8 10 9 8 11 9 12 7 13 1 14
REMARK SMILES IDX 2 15 3 16 92 17 4 18 5 19 6 20 87 21 88 22 89 23 90 24 91 25
REMARK SMILES IDX 18 26 19 27 20 28 21 29 22 30 23 32 24 33 25 34 86 35 26 36
REMARK SMILES IDX 85 37 27 38 28 39 29 40 79 41 30 42 84 43 78 44 80 45 31 46
REMARK SMILES IDX 83 47 77 48 76 49 32 51 64 52 44 53 63 54 45 55 48 56 62 57
REMARK SMILES IDX 81 58 46 59 47 60 61 62 82 63 49 64 33 65 34 66 42 67 35 68
REMARK SMILES IDX 36 69 40 70 43 71 37 72 38 73 41 74 39 75 65 76 66 77 74 78
REMARK SMILES IDX 67 79 68 80 72 81 75 82 69 83 70 84 73 85 71 86 50 87 51 88
REMARK SMILES IDX 59 89 52 90 53 91 57 92 60 93 54 94 55 95 58 96 56 97
REMARK H PARENT 14 7 10 10 21 31 80 50 48 61
REMARK Flexibility Score: inf
ROOT
ATOM      1  C   UNL A   1      39.976  21.157  26.607  1.00  0.00     0.002 C 
ENDROOT
BRANCH   1   2
ATOM      2  C   UNL A   1      39.550  22.589  26.254  1.00  0.00     0.021 C 
BRANCH   2   3
ATOM      3  C   UNL A   1      38.044  22.850  26.001  1.00  0.00     0.116 C 
BRANCH   3   4
ATOM      4  N   UNL A   1      37.602  22.773  24.611  1.00  0.00    -0.351 N 
ATOM      5  C   UNL A   1      36.537  23.288  23.916  1.00  0.00     0.275 C 
ATOM      6  O   UNL A   1      36.472  22.999  22.717  1.00  0.00    -0.269 OA
ATOM      7  H   UNL A   1      38.201  22.233  24.048  1.00  0.00     0.163 HD
BRANCH   5   8
ATOM      8  C   UNL A   1      35.448  24.152  24.572  1.00  0.00     0.364 C 
BRANCH   8   9
ATOM      9  N   UNL A   1      34.054  23.704  24.340  1.00  0.00    -0.314 N 
ATOM     10  H   UNL A   1      34.102  22.979  23.624  1.00  0.00     0.349 HD
BRANCH   9  11
ATOM     11  C   UNL A   1      33.233  24.691  23.648  1.00  0.00     0.212 C 
ATOM     12  C   UNL A   1      33.766  25.227  22.296  1.00  0.00     0.081 C 
BRANCH  11  13
ATOM     13  C   UNL A   1      32.547  25.772  24.494  1.00  0.00     0.012 A 
ATOM     14  C   UNL A   1      33.580  28.372  27.156  1.00  0.00     0.044 C 
ATOM     15  C   UNL A   1      32.781  27.408  26.330  1.00  0.00    -0.051 A 
ATOM     16  C   UNL A   1      31.448  27.211  26.659  1.00  0.00     0.004 A 
ATOM     17  C   UNL A   1      33.329  26.677  25.260  1.00  0.00     0.013 A 
ATOM     18  C   UNL A   1      30.675  26.347  25.898  1.00  0.00     0.004 A 
ATOM     19  C   UNL A   1      31.178  25.712  24.751  1.00  0.00    -0.042 A 
ATOM     20  C   UNL A   1      30.232  25.067  23.791  1.00  0.00     0.045 C 
ENDBRANCH  11  13
ENDBRANCH   9  11
BRANCH   9  21
ATOM     21  C   UNL A   1      33.460  22.813  25.361  1.00  0.00     0.380 C 
BRANCH  21  22
ATOM     22  C   UNL A   1      33.410  23.048  26.897  1.00  0.00     0.438 C 
ATOM     23  F   UNL A   1      32.603  24.064  27.264  1.00  0.00    -0.165 F 
ATOM     24  F   UNL A   1      32.897  21.939  27.497  1.00  0.00    -0.165 F 
ATOM     25  F   UNL A   1      34.625  23.251  27.433  1.00  0.00    -0.165 F 
ENDBRANCH  21  22
ENDBRANCH   9  21
ENDBRANCH   8   9
ENDBRANCH   5   8
ENDBRANCH   3   4
ENDBRANCH   2   3
ENDBRANCH   1   2
BRANCH   1  26
ATOM     26  C   UNL A   1      41.152  21.024  27.569  1.00  0.00     0.002 C 
BRANCH  26  27
ATOM     27  C   UNL A   1      42.211  19.969  27.230  1.00  0.00     0.021 C 
BRANCH  27  28
ATOM     28  C   UNL A   1      42.165  19.384  25.818  1.00  0.00     0.116 C 
BRANCH  28  29
ATOM     29  N   UNL A   1      43.423  19.559  25.091  1.00  0.00    -0.352 N 
ATOM     30  C   UNL A   1      44.180  20.634  24.686  1.00  0.00     0.251 C 
ATOM     31  H   UNL A   1      43.824  18.700  24.827  1.00  0.00     0.163 HD
ATOM     32  O   UNL A   1      44.975  20.451  23.753  1.00  0.00    -0.269 OA
BRANCH  30  33
ATOM     33  C   UNL A   1      44.139  21.975  25.319  1.00  0.00     0.039 A 
ATOM     34  C   UNL A   1      45.098  22.363  26.270  1.00  0.00     0.014 A 
ATOM     35  C   UNL A   1      43.126  22.867  25.036  1.00  0.00     0.014 A 
ATOM     36  C   UNL A   1      44.913  23.543  27.011  1.00  0.00     0.010 A 
ATOM     37  C   UNL A   1      43.142  24.142  25.530  1.00  0.00     0.010 A 
ATOM     38  C   UNL A   1      43.868  24.406  26.672  1.00  0.00    -0.014 A 
BRANCH  38  39
ATOM     39  C   UNL A   1      43.555  25.658  27.362  1.00  0.00     0.031 A 
ATOM     40  C   UNL A   1      44.502  26.733  27.002  1.00  0.00     0.074 A 
ATOM     41  C   UNL A   1      42.397  25.940  28.013  1.00  0.00     0.049 A 
ATOM     42  N   UNL A   1      45.551  27.101  27.661  1.00  0.00    -0.248 NA
ATOM     43  C   UNL A   1      44.417  27.301  25.643  1.00  0.00     0.031 C 
ATOM     44  C   UNL A   1      41.200  25.103  28.128  1.00  0.00     0.029 A 
ATOM     45  N   UNL A   1      42.027  27.082  28.688  1.00  0.00    -0.354 N 
ATOM     46  C   UNL A   1      46.118  28.104  26.882  1.00  0.00     0.074 A 
ATOM     47  C   UNL A   1      45.602  27.904  25.561  1.00  0.00     0.031 C 
ATOM     48  C   UNL A   1      40.207  25.805  28.734  1.00  0.00     0.029 A 
ATOM     49  C   UNL A   1      40.690  27.127  29.110  1.00  0.00     0.049 A 
ATOM     50  H   UNL A   1      42.658  27.818  28.862  1.00  0.00     0.167 HD
ATOM     51  C   UNL A   1      46.599  29.241  27.460  1.00  0.00     0.037 A 
ATOM     52  C   UNL A   1      40.051  28.184  29.698  1.00  0.00     0.037 A 
ATOM     53  C   UNL A   1      46.655  29.075  28.894  1.00  0.00     0.049 A 
ATOM     54  C   UNL A   1      41.083  29.057  30.277  1.00  0.00     0.074 A 
ATOM     55  C   UNL A   1      47.469  28.453  29.815  1.00  0.00     0.029 A 
ATOM     56  N   UNL A   1      45.469  29.347  29.522  1.00  0.00    -0.354 N 
ATOM     57  N   UNL A   1      41.789  28.722  31.317  1.00  0.00    -0.248 NA
ATOM     58  C   UNL A   1      41.585  30.187  29.505  1.00  0.00     0.031 C 
ATOM     59  C   UNL A   1      46.684  28.269  30.994  1.00  0.00     0.029 A 
ATOM     60  C   UNL A   1      45.416  28.793  30.771  1.00  0.00     0.049 A 
ATOM     61  H   UNL A   1      44.742  29.877  29.123  1.00  0.00     0.167 HD
ATOM     62  C   UNL A   1      43.016  29.299  31.080  1.00  0.00     0.074 A 
ATOM     63  C   UNL A   1      42.781  30.334  30.081  1.00  0.00     0.031 C 
ATOM     64  C   UNL A   1      44.153  28.649  31.446  1.00  0.00     0.037 A 
BRANCH  51  65
ATOM     65  C   UNL A   1      46.520  30.645  26.863  1.00  0.00     0.064 A 
ATOM     66  C   UNL A   1      47.713  31.403  26.812  1.00  0.00     0.173 A 
ATOM     67  C   UNL A   1      45.344  31.386  26.609  1.00  0.00     0.173 A 
ATOM     68  F   UNL A   1      48.906  30.818  26.993  1.00  0.00    -0.203 F 
ATOM     69  C   UNL A   1      47.710  32.793  26.655  1.00  0.00     0.198 A 
ATOM     70  C   UNL A   1      45.349  32.768  26.416  1.00  0.00     0.198 A 
ATOM     71  F   UNL A   1      44.122  30.852  26.612  1.00  0.00    -0.203 F 
ATOM     72  F   UNL A   1      48.861  33.473  26.741  1.00  0.00    -0.200 F 
ATOM     73  C   UNL A   1      46.526  33.477  26.477  1.00  0.00     0.200 A 
ATOM     74  F   UNL A   1      44.183  33.409  26.245  1.00  0.00    -0.200 F 
ATOM     75  F   UNL A   1      46.509  34.812  26.397  1.00  0.00    -0.200 F 
ENDBRANCH  51  65
BRANCH  52  76
ATOM     76  C   UNL A   1      38.651  28.688  29.631  1.00  0.00     0.064 A 
ATOM     77  C   UNL A   1      37.858  29.059  30.724  1.00  0.00     0.173 A 
ATOM     78  C   UNL A   1      38.196  29.177  28.405  1.00  0.00     0.173 A 
ATOM     79  F   UNL A   1      38.295  28.844  31.971  1.00  0.00    -0.203 F 
ATOM     80  C   UNL A   1      36.644  29.761  30.554  1.00  0.00     0.198 A 
ATOM     81  C   UNL A   1      36.960  29.790  28.205  1.00  0.00     0.198 A 
ATOM     82  F   UNL A   1      39.053  29.233  27.391  1.00  0.00    -0.203 F 
ATOM     83  F   UNL A   1      35.963  30.191  31.626  1.00  0.00    -0.200 F 
ATOM     84  C   UNL A   1      36.176  30.087  29.290  1.00  0.00     0.200 A 
ATOM     85  F   UNL A   1      36.590  30.159  26.971  1.00  0.00    -0.200 F 
ATOM     86  F   UNL A   1      35.032  30.765  29.123  1.00  0.00    -0.200 F 
ENDBRANCH  52  76
BRANCH  64  87
ATOM     87  C   UNL A   1      44.003  27.600  32.498  1.00  0.00     0.064 A 
ATOM     88  C   UNL A   1      43.799  27.879  33.860  1.00  0.00     0.173 A 
ATOM     89  C   UNL A   1      44.052  26.260  32.107  1.00  0.00     0.173 A 
ATOM     90  F   UNL A   1      43.683  29.140  34.291  1.00  0.00    -0.203 F 
ATOM     91  C   UNL A   1      43.688  26.853  34.795  1.00  0.00     0.198 A 
ATOM     92  C   UNL A   1      43.909  25.236  33.036  1.00  0.00     0.198 A 
ATOM     93  F   UNL A   1      44.217  25.946  30.812  1.00  0.00    -0.203 F 
ATOM     94  F   UNL A   1      43.519  27.140  36.094  1.00  0.00    -0.200 F 
ATOM     95  C   UNL A   1      43.738  25.531  34.381  1.00  0.00     0.200 A 
ATOM     96  F   UNL A   1      43.925  23.961  32.627  1.00  0.00    -0.200 F 
ATOM     97  F   UNL A   1      43.606  24.541  35.274  1.00  0.00    -0.200 F 
ENDBRANCH  64  87
ENDBRANCH  38  39
ENDBRANCH  30  33
ENDBRANCH  28  29
ENDBRANCH  27  28
ENDBRANCH  26  27
ENDBRANCH   1  26
TORSDOF 18
ENDMDL
MODEL 3
REMARK VINA RESULT:     -11.5      1.476      2.495
REMARK SMILES Cc1ccc(C)c([C@@H](C)[N@@H+](CC(=O)NCCCCCCNC(=O)c2ccc(-c3c4nc(c(-c5c(F)c(F)c(F)c(F)c5F)c5ccc([nH]5)c(-c5c(F)c(F)c(F)c(F)c5F)c5nc(c(-c6c(F)c(F)c(F)c(F)c6F)c6ccc3[nH]6)C=C5)C=C4)cc2)CC(F)(F)F)c1
REMARK SMILES IDX 17 1 16 2 15 3 14 4 12 5 13 6 11 8 10 9 8 11 9 12 7 13 1 14
REMARK SMILES IDX 2 15 3 16 92 17 4 18 5 19 6 20 87 21 88 22 89 23 90 24 91 25
REMARK SMILES IDX 18 26 19 27 20 28 21 29 22 30 23 32 24 33 25 34 86 35 26 36
REMARK SMILES IDX 85 37 27 38 28 39 29 40 79 41 30 42 84 43 78 44 80 45 31 46
REMARK SMILES IDX 83 47 77 48 76 49 32 51 64 52 44 53 63 54 45 55 48 56 62 57
REMARK SMILES IDX 81 58 46 59 47 60 61 62 82 63 49 64 33 65 34 66 42 67 35 68
REMARK SMILES IDX 36 69 40 70 43 71 37 72 38 73 41 74 39 75 65 76 66 77 74 78
REMARK SMILES IDX 67 79 68 80 72 81 75 82 69 83 70 84 73 85 71 86 50 87 51 88
REMARK SMILES IDX 59 89 52 90 53 91 57 92 60 93 54 94 55 95 58 96 56 97
REMARK H PARENT 14 7 10 10 21 31 80 50 48 61
REMARK Flexibility Score: inf
ROOT
ATOM      1  C   UNL A   1      39.804  21.183  26.299  1.00  0.00     0.002 C 
ENDROOT
BRANCH   1   2
ATOM      2  C   UNL A   1      39.051  22.516  26.189  1.00  0.00     0.021 C 
BRANCH   2   3
ATOM      3  C   UNL A   1      37.731  22.532  25.378  1.00  0.00     0.116 C 
BRANCH   3   4
ATOM      4  N   UNL A   1      36.505  22.307  26.140  1.00  0.00    -0.351 N 
ATOM      5  C   UNL A   1      35.363  23.036  26.352  1.00  0.00     0.275 C 
ATOM      6  O   UNL A   1      34.513  22.524  27.086  1.00  0.00    -0.269 OA
ATOM      7  H   UNL A   1      36.495  21.439  26.603  1.00  0.00     0.163 HD
BRANCH   5   8
ATOM      8  C   UNL A   1      35.141  24.435  25.754  1.00  0.00     0.364 C 
BRANCH   8   9
ATOM      9  N   UNL A   1      33.821  24.651  25.115  1.00  0.00    -0.314 N 
ATOM     10  H   UNL A   1      33.952  25.399  24.433  1.00  0.00     0.349 HD
BRANCH   9  11
ATOM     11  C   UNL A   1      32.843  25.279  25.996  1.00  0.00     0.212 C 
ATOM     12  C   UNL A   1      31.844  24.343  26.719  1.00  0.00     0.081 C 
BRANCH  11  13
ATOM     13  C   UNL A   1      32.204  26.597  25.535  1.00  0.00     0.012 A 
ATOM     14  C   UNL A   1      29.302  27.689  23.234  1.00  0.00     0.044 C 
ATOM     15  C   UNL A   1      30.577  27.678  24.024  1.00  0.00    -0.051 A 
ATOM     16  C   UNL A   1      31.394  28.798  23.966  1.00  0.00     0.004 A 
ATOM     17  C   UNL A   1      30.993  26.577  24.795  1.00  0.00     0.013 A 
ATOM     18  C   UNL A   1      32.566  28.830  24.707  1.00  0.00     0.004 A 
ATOM     19  C   UNL A   1      32.925  27.790  25.578  1.00  0.00    -0.042 A 
ATOM     20  C   UNL A   1      34.003  28.013  26.588  1.00  0.00     0.045 C 
ENDBRANCH  11  13
ENDBRANCH   9  11
BRANCH   9  21
ATOM     21  C   UNL A   1      33.395  23.655  24.106  1.00  0.00     0.380 C 
BRANCH  21  22
ATOM     22  C   UNL A   1      32.938  23.933  22.647  1.00  0.00     0.438 C 
ATOM     23  F   UNL A   1      33.241  22.942  21.786  1.00  0.00    -0.165 F 
ATOM     24  F   UNL A   1      31.582  24.040  22.621  1.00  0.00    -0.165 F 
ATOM     25  F   UNL A   1      33.426  25.087  22.160  1.00  0.00    -0.165 F 
ENDBRANCH  21  22
ENDBRANCH   9  21
ENDBRANCH   8   9
ENDBRANCH   5   8
ENDBRANCH   3   4
ENDBRANCH   2   3
ENDBRANCH   1   2
BRANCH   1  26
ATOM     26  C   UNL A   1      40.856  21.095  27.400  1.00  0.00     0.002 C 
BRANCH  26  27
ATOM     27  C   UNL A   1      41.996  20.090  27.193  1.00  0.00     0.021 C 
BRANCH  27  28
ATOM     28  C   UNL A   1      42.039  19.375  25.843  1.00  0.00     0.116 C 
BRANCH  28  29
ATOM     29  N   UNL A   1      43.331  19.519  25.167  1.00  0.00    -0.352 N 
ATOM     30  C   UNL A   1      44.128  20.574  24.790  1.00  0.00     0.251 C 
ATOM     31  H   UNL A   1      43.722  18.649  24.923  1.00  0.00     0.163 HD
ATOM     32  O   UNL A   1      44.956  20.368  23.891  1.00  0.00    -0.269 OA
BRANCH  30  33
ATOM     33  C   UNL A   1      44.092  21.918  25.415  1.00  0.00     0.039 A 
ATOM     34  C   UNL A   1      45.019  22.288  26.405  1.00  0.00     0.014 A 
ATOM     35  C   UNL A   1      43.114  22.832  25.086  1.00  0.00     0.014 A 
ATOM     36  C   UNL A   1      44.831  23.475  27.134  1.00  0.00     0.010 A 
ATOM     37  C   UNL A   1      43.140  24.110  25.575  1.00  0.00     0.010 A 
ATOM     38  C   UNL A   1      43.823  24.361  26.746  1.00  0.00    -0.014 A 
BRANCH  38  39
ATOM     39  C   UNL A   1      43.510  25.624  27.418  1.00  0.00     0.031 A 
ATOM     40  C   UNL A   1      44.464  26.690  27.049  1.00  0.00     0.074 A 
ATOM     41  C   UNL A   1      42.350  25.919  28.057  1.00  0.00     0.049 A 
ATOM     42  N   UNL A   1      45.511  27.062  27.710  1.00  0.00    -0.248 NA
ATOM     43  C   UNL A   1      44.390  27.240  25.682  1.00  0.00     0.031 C 
ATOM     44  C   UNL A   1      41.148  25.089  28.175  1.00  0.00     0.029 A 
ATOM     45  N   UNL A   1      41.980  27.072  28.713  1.00  0.00    -0.354 N 
ATOM     46  C   UNL A   1      46.087  28.052  26.921  1.00  0.00     0.074 A 
ATOM     47  C   UNL A   1      45.579  27.837  25.599  1.00  0.00     0.031 C 
ATOM     48  C   UNL A   1      40.154  25.803  28.765  1.00  0.00     0.029 A 
ATOM     49  C   UNL A   1      40.640  27.128  29.126  1.00  0.00     0.049 A 
ATOM     50  H   UNL A   1      42.613  27.808  28.882  1.00  0.00     0.167 HD
ATOM     51  C   UNL A   1      46.569  29.195  27.487  1.00  0.00     0.037 A 
ATOM     52  C   UNL A   1      40.002  28.196  29.696  1.00  0.00     0.037 A 
ATOM     53  C   UNL A   1      46.615  29.048  28.924  1.00  0.00     0.049 A 
ATOM     54  C   UNL A   1      41.034  29.072  30.270  1.00  0.00     0.074 A 
ATOM     55  C   UNL A   1      47.420  28.435  29.858  1.00  0.00     0.029 A 
ATOM     56  N   UNL A   1      45.426  29.334  29.540  1.00  0.00    -0.354 N 
ATOM     57  N   UNL A   1      41.731  28.748  31.319  1.00  0.00    -0.248 NA
ATOM     58  C   UNL A   1      41.546  30.190  29.486  1.00  0.00     0.031 C 
ATOM     59  C   UNL A   1      46.627  28.270  31.035  1.00  0.00     0.029 A 
ATOM     60  C   UNL A   1      45.362  28.796  30.796  1.00  0.00     0.049 A 
ATOM     61  H   UNL A   1      44.704  29.861  29.129  1.00  0.00     0.167 HD
ATOM     62  C   UNL A   1      42.962  29.316  31.082  1.00  0.00     0.074 A 
ATOM     63  C   UNL A   1      42.738  30.339  30.068  1.00  0.00     0.031 C 
ATOM     64  C   UNL A   1      44.094  28.667  31.465  1.00  0.00     0.037 A 
BRANCH  51  65
ATOM     65  C   UNL A   1      46.500  30.591  26.870  1.00  0.00     0.064 A 
ATOM     66  C   UNL A   1      47.690  31.354  26.843  1.00  0.00     0.173 A 
ATOM     67  C   UNL A   1      45.328  31.324  26.576  1.00  0.00     0.173 A 
ATOM     68  F   UNL A   1      48.881  30.777  27.063  1.00  0.00    -0.203 F 
ATOM     69  C   UNL A   1      47.686  32.742  26.669  1.00  0.00     0.198 A 
ATOM     70  C   UNL A   1      45.332  32.703  26.366  1.00  0.00     0.198 A 
ATOM     71  F   UNL A   1      44.108  30.784  26.553  1.00  0.00    -0.203 F 
ATOM     72  F   UNL A   1      48.831  33.428  26.776  1.00  0.00    -0.200 F 
ATOM     73  C   UNL A   1      46.504  33.418  26.450  1.00  0.00     0.200 A 
ATOM     74  F   UNL A   1      44.168  33.336  26.156  1.00  0.00    -0.200 F 
ATOM     75  F   UNL A   1      46.484  34.752  26.353  1.00  0.00    -0.200 F 
ENDBRANCH  51  65
BRANCH  52  76
ATOM     76  C   UNL A   1      38.605  28.705  29.613  1.00  0.00     0.064 A 
ATOM     77  C   UNL A   1      37.803  29.085  30.696  1.00  0.00     0.173 A 
ATOM     78  C   UNL A   1      38.163  29.188  28.380  1.00  0.00     0.173 A 
ATOM     79  F   UNL A   1      38.228  28.875  31.948  1.00  0.00    -0.203 F 
ATOM     80  C   UNL A   1      36.593  29.791  30.511  1.00  0.00     0.198 A 
ATOM     81  C   UNL A   1      36.931  29.805  28.165  1.00  0.00     0.198 A 
ATOM     82  F   UNL A   1      39.030  29.235  27.373  1.00  0.00    -0.203 F 
ATOM     83  F   UNL A   1      35.904  30.229  31.574  1.00  0.00    -0.200 F 
ATOM     84  C   UNL A   1      36.139  30.111  29.241  1.00  0.00     0.200 A 
ATOM     85  F   UNL A   1      36.575  30.169  26.925  1.00  0.00    -0.200 F 
ATOM     86  F   UNL A   1      34.999  30.793  29.059  1.00  0.00    -0.200 F 
ENDBRANCH  52  76
BRANCH  64  87
ATOM     87  C   UNL A   1      43.933  27.633  32.529  1.00  0.00     0.064 A 
ATOM     88  C   UNL A   1      43.990  26.249  32.292  1.00  0.00     0.173 A 
ATOM     89  C   UNL A   1      43.727  28.061  33.843  1.00  0.00     0.173 A 
ATOM     90  F   UNL A   1      44.243  25.773  31.068  1.00  0.00    -0.203 F 
ATOM     91  C   UNL A   1      43.809  25.335  33.327  1.00  0.00     0.198 A 
ATOM     92  C   UNL A   1      43.579  27.148  34.880  1.00  0.00     0.198 A 
ATOM     93  F   UNL A   1      43.693  29.375  34.121  1.00  0.00    -0.203 F 
ATOM     94  F   UNL A   1      43.843  24.018  33.077  1.00  0.00    -0.200 F 
ATOM     95  C   UNL A   1      43.609  25.786  34.622  1.00  0.00     0.200 A 
ATOM     96  F   UNL A   1      43.419  27.589  36.135  1.00  0.00    -0.200 F 
ATOM     97  F   UNL A   1      43.461  24.910  35.625  1.00  0.00    -0.200 F 
ENDBRANCH  64  87
ENDBRANCH  38  39
ENDBRANCH  30  33
ENDBRANCH  28  29
ENDBRANCH  27  28
ENDBRANCH  26  27
ENDBRANCH   1  26
TORSDOF 18
ENDMDL
