MODEL 1
REMARK VINA RESULT:     -12.1      0.000      0.000
REMARK SMILES CC(=O)NCCc1c[nH]c2ccc(C(=O)NCCCCCCNC(=O)c3ccc(-c4c5nc(c(-c6c(F)c(F)c(F)c(F)c6F)c6ccc([nH]6)c(-c6c(F)c(F)c(F)c(F)c6F)c6nc(c(-c7c(F)c(F)c(F)c(F)c7F)c7ccc4[nH]7)C=C6)C=C5)cc3)cc12
REMARK SMILES IDX 19 1 18 2 17 3 16 4 14 5 15 6 13 8 7 9 8 10 90 11 9 12 10 13
REMARK SMILES IDX 89 14 11 16 12 17 6 18 5 19 4 20 1 21 2 22 3 23 20 25 21 26
REMARK SMILES IDX 22 27 23 28 24 29 25 31 26 32 27 33 88 34 28 35 87 36 29 37
REMARK SMILES IDX 30 38 31 39 81 40 32 41 86 42 80 43 82 44 33 45 85 46 79 47
REMARK SMILES IDX 78 48 34 50 66 51 46 52 65 53 47 54 50 55 64 56 83 57 48 58
REMARK SMILES IDX 49 59 63 61 84 62 51 63 35 64 36 65 44 66 37 67 38 68 42 69
REMARK SMILES IDX 45 70 39 71 40 72 43 73 41 74 67 75 68 76 76 77 69 78 70 79
REMARK SMILES IDX 74 80 77 81 71 82 72 83 75 84 73 85 52 86 53 87 61 88 54 89
REMARK SMILES IDX 55 90 59 91 62 92 56 93 57 94 60 95 58 96
REMARK H PARENT 16 7 9 15 4 24 23 30 82 49 50 60
REMARK Flexibility Score: inf
ROOT
ATOM      1  C   UNL A   1      37.193  21.634  24.552  1.00  0.00     0.002 C 
ENDROOT
BRANCH   1   2
ATOM      2  C   UNL A   1      36.804  22.650  25.637  1.00  0.00     0.021 C 
BRANCH   2   3
ATOM      3  C   UNL A   1      36.442  24.027  25.074  1.00  0.00     0.116 C 
BRANCH   3   4
ATOM      4  N   UNL A   1      35.243  24.519  25.719  1.00  0.00    -0.352 N 
ATOM      5  C   UNL A   1      33.908  24.289  25.525  1.00  0.00     0.251 C 
ATOM      6  O   UNL A   1      33.128  24.942  26.223  1.00  0.00    -0.269 OA
ATOM      7  H   UNL A   1      35.427  25.151  26.452  1.00  0.00     0.163 HD
BRANCH   5   8
ATOM      8  C   UNL A   1      33.353  23.283  24.575  1.00  0.00     0.040 A 
ATOM      9  C   UNL A   1      32.602  19.519  24.438  1.00  0.00    -0.021 A 
ATOM     10  C   UNL A   1      32.102  19.019  23.251  1.00  0.00     0.087 A 
ATOM     11  C   UNL A   1      32.818  20.918  24.235  1.00  0.00     0.003 A 
ATOM     12  N   UNL A   1      31.988  20.054  22.361  1.00  0.00    -0.361 N 
ATOM     13  C   UNL A   1      32.383  21.232  22.951  1.00  0.00     0.046 A 
ATOM     14  C   UNL A   1      33.329  21.954  25.042  1.00  0.00     0.024 A 
ATOM     15  H   UNL A   1      31.669  19.968  21.433  1.00  0.00     0.166 HD
ATOM     16  C   UNL A   1      32.368  22.542  22.463  1.00  0.00     0.027 A 
ATOM     17  C   UNL A   1      32.824  23.563  23.313  1.00  0.00     0.016 A 
BRANCH   9  18
ATOM     18  C   UNL A   1      32.841  18.754  25.705  1.00  0.00     0.059 C 
BRANCH  18  19
ATOM     19  C   UNL A   1      32.460  17.276  25.605  1.00  0.00     0.120 C 
BRANCH  19  20
ATOM     20  N   UNL A   1      33.594  16.390  25.825  1.00  0.00    -0.356 N 
ATOM     21  C   UNL A   1      34.444  16.442  23.516  1.00  0.00     0.114 C 
ATOM     22  C   UNL A   1      34.540  15.971  24.940  1.00  0.00     0.216 C 
ATOM     23  O   UNL A   1      35.448  15.234  25.321  1.00  0.00    -0.275 OA
ATOM     24  H   UNL A   1      33.689  16.044  26.741  1.00  0.00     0.163 HD
ENDBRANCH  19  20
ENDBRANCH  18  19
ENDBRANCH   9  18
ENDBRANCH   5   8
ENDBRANCH   3   4
ENDBRANCH   2   3
ENDBRANCH   1   2
BRANCH   1  25
ATOM     25  C   UNL A   1      36.891  20.170  24.897  1.00  0.00     0.002 C 
BRANCH  25  26
ATOM     26  C   UNL A   1      38.121  19.263  25.019  1.00  0.00     0.021 C 
BRANCH  26  27
ATOM     27  C   UNL A   1      39.291  19.880  25.781  1.00  0.00     0.116 C 
BRANCH  27  28
ATOM     28  N   UNL A   1      40.371  18.928  25.974  1.00  0.00    -0.352 N 
ATOM     29  C   UNL A   1      41.714  19.151  26.127  1.00  0.00     0.251 C 
ATOM     30  H   UNL A   1      40.096  17.983  25.999  1.00  0.00     0.163 HD
ATOM     31  O   UNL A   1      42.500  18.211  26.069  1.00  0.00    -0.269 OA
BRANCH  29  32
ATOM     32  C   UNL A   1      42.229  20.518  26.360  1.00  0.00     0.039 A 
ATOM     33  C   UNL A   1      42.331  20.977  27.676  1.00  0.00     0.014 A 
ATOM     34  C   UNL A   1      42.545  21.369  25.296  1.00  0.00     0.014 A 
ATOM     35  C   UNL A   1      42.772  22.279  27.926  1.00  0.00     0.010 A 
ATOM     36  C   UNL A   1      43.044  22.646  25.548  1.00  0.00     0.010 A 
ATOM     37  C   UNL A   1      43.141  23.119  26.864  1.00  0.00    -0.014 A 
BRANCH  37  38
ATOM     38  C   UNL A   1      43.589  24.510  27.122  1.00  0.00     0.031 A 
ATOM     39  C   UNL A   1      42.626  25.522  27.679  1.00  0.00     0.074 A 
ATOM     40  C   UNL A   1      44.853  24.870  26.830  1.00  0.00     0.049 A 
ATOM     41  N   UNL A   1      42.824  26.785  27.964  1.00  0.00    -0.248 NA
ATOM     42  C   UNL A   1      41.251  25.061  27.927  1.00  0.00     0.031 C 
ATOM     43  C   UNL A   1      45.865  23.993  26.239  1.00  0.00     0.029 A 
ATOM     44  N   UNL A   1      45.500  26.069  26.986  1.00  0.00    -0.354 N 
ATOM     45  C   UNL A   1      41.600  27.269  28.409  1.00  0.00     0.074 A 
ATOM     46  C   UNL A   1      40.653  26.180  28.308  1.00  0.00     0.031 C 
ATOM     47  C   UNL A   1      47.013  24.675  26.107  1.00  0.00     0.029 A 
ATOM     48  C   UNL A   1      46.812  26.041  26.582  1.00  0.00     0.049 A 
ATOM     49  H   UNL A   1      45.066  26.872  27.354  1.00  0.00     0.167 HD
ATOM     50  C   UNL A   1      41.298  28.502  28.880  1.00  0.00     0.037 A 
ATOM     51  C   UNL A   1      47.748  27.009  26.601  1.00  0.00     0.037 A 
ATOM     52  C   UNL A   1      42.249  29.574  29.010  1.00  0.00     0.049 A 
ATOM     53  C   UNL A   1      47.395  28.361  27.159  1.00  0.00     0.074 A 
ATOM     54  C   UNL A   1      42.056  30.843  29.529  1.00  0.00     0.029 A 
ATOM     55  N   UNL A   1      43.578  29.499  28.620  1.00  0.00    -0.354 N 
ATOM     56  N   UNL A   1      46.252  28.787  27.638  1.00  0.00    -0.248 NA
ATOM     57  C   UNL A   1      48.471  29.362  27.193  1.00  0.00     0.031 C 
ATOM     58  C   UNL A   1      43.261  31.547  29.421  1.00  0.00     0.029 A 
ATOM     59  C   UNL A   1      44.214  30.703  28.875  1.00  0.00     0.049 A 
ATOM     60  H   UNL A   1      44.006  28.706  28.221  1.00  0.00     0.167 HD
ATOM     61  C   UNL A   1      46.474  30.092  28.054  1.00  0.00     0.074 A 
ATOM     62  C   UNL A   1      47.868  30.383  27.786  1.00  0.00     0.031 C 
ATOM     63  C   UNL A   1      45.604  30.971  28.608  1.00  0.00     0.037 A 
BRANCH  50  64
ATOM     64  C   UNL A   1      39.878  28.754  29.300  1.00  0.00     0.064 A 
ATOM     65  C   UNL A   1      38.918  29.229  28.393  1.00  0.00     0.173 A 
ATOM     66  C   UNL A   1      39.466  28.491  30.614  1.00  0.00     0.173 A 
ATOM     67  F   UNL A   1      39.265  29.508  27.127  1.00  0.00    -0.203 F 
ATOM     68  C   UNL A   1      37.605  29.460  28.795  1.00  0.00     0.198 A 
ATOM     69  C   UNL A   1      38.145  28.697  31.006  1.00  0.00     0.198 A 
ATOM     70  F   UNL A   1      40.342  28.031  31.519  1.00  0.00    -0.203 F 
ATOM     71  F   UNL A   1      36.718  29.961  27.924  1.00  0.00    -0.200 F 
ATOM     72  C   UNL A   1      37.219  29.188  30.099  1.00  0.00     0.200 A 
ATOM     73  F   UNL A   1      37.770  28.423  32.263  1.00  0.00    -0.200 F 
ATOM     74  F   UNL A   1      35.953  29.407  30.483  1.00  0.00    -0.200 F 
ENDBRANCH  50  64
BRANCH  51  75
ATOM     75  C   UNL A   1      49.121  26.719  26.116  1.00  0.00     0.064 A 
ATOM     76  C   UNL A   1      50.076  26.145  26.966  1.00  0.00     0.173 A 
ATOM     77  C   UNL A   1      49.507  27.008  24.799  1.00  0.00     0.173 A 
ATOM     78  F   UNL A   1      49.759  25.870  28.239  1.00  0.00    -0.203 F 
ATOM     79  C   UNL A   1      51.372  25.888  26.523  1.00  0.00     0.198 A 
ATOM     80  C   UNL A   1      50.795  26.726  24.350  1.00  0.00     0.198 A 
ATOM     81  F   UNL A   1      48.627  27.553  23.946  1.00  0.00    -0.203 F 
ATOM     82  F   UNL A   1      52.278  25.377  27.369  1.00  0.00    -0.200 F 
ATOM     83  C   UNL A   1      51.728  26.174  25.214  1.00  0.00     0.200 A 
ATOM     84  F   UNL A   1      51.133  26.993  23.081  1.00  0.00    -0.200 F 
ATOM     85  F   UNL A   1      52.974  25.924  24.788  1.00  0.00    -0.200 F 
ENDBRANCH  51  75
BRANCH  63  86
ATOM     86  C   UNL A   1      46.143  32.318  28.988  1.00  0.00     0.064 A 
ATOM     87  C   UNL A   1      46.701  32.556  30.252  1.00  0.00     0.173 A 
ATOM     88  C   UNL A   1      46.122  33.377  28.068  1.00  0.00     0.173 A 
ATOM     89  F   UNL A   1      46.730  31.580  31.172  1.00  0.00    -0.203 F 
ATOM     90  C   UNL A   1      47.194  33.814  30.591  1.00  0.00     0.198 A 
ATOM     91  C   UNL A   1      46.640  34.625  28.401  1.00  0.00     0.198 A 
ATOM     92  F   UNL A   1      45.603  33.197  26.843  1.00  0.00    -0.203 F 
ATOM     93  F   UNL A   1      47.678  34.033  31.822  1.00  0.00    -0.200 F 
ATOM     94  C   UNL A   1      47.168  34.844  29.664  1.00  0.00     0.200 A 
ATOM     95  F   UNL A   1      46.624  35.617  27.499  1.00  0.00    -0.200 F 
ATOM     96  F   UNL A   1      47.644  36.054  29.991  1.00  0.00    -0.200 F 
ENDBRANCH  63  86
ENDBRANCH  37  38
ENDBRANCH  29  32
ENDBRANCH  27  28
ENDBRANCH  26  27
ENDBRANCH  25  26
ENDBRANCH   1  25
TORSDOF 16
ENDMDL
MODEL 2
REMARK VINA RESULT:     -12.0      7.227     11.734
REMARK SMILES CC(=O)NCCc1c[nH]c2ccc(C(=O)NCCCCCCNC(=O)c3ccc(-c4c5nc(c(-c6c(F)c(F)c(F)c(F)c6F)c6ccc([nH]6)c(-c6c(F)c(F)c(F)c(F)c6F)c6nc(c(-c7c(F)c(F)c(F)c(F)c7F)c7ccc4[nH]7)C=C6)C=C5)cc3)cc12
REMARK SMILES IDX 19 1 18 2 17 3 16 4 14 5 15 6 13 8 7 9 8 10 90 11 9 12 10 13
REMARK SMILES IDX 89 14 11 16 12 17 6 18 5 19 4 20 1 21 2 22 3 23 20 25 21 26
REMARK SMILES IDX 22 27 23 28 24 29 25 31 26 32 27 33 88 34 28 35 87 36 29 37
REMARK SMILES IDX 30 38 31 39 81 40 32 41 86 42 80 43 82 44 33 45 85 46 79 47
REMARK SMILES IDX 78 48 34 50 66 51 46 52 65 53 47 54 50 55 64 56 83 57 48 58
REMARK SMILES IDX 49 59 63 61 84 62 51 63 35 64 36 65 44 66 37 67 38 68 42 69
REMARK SMILES IDX 45 70 39 71 40 72 43 73 41 74 67 75 68 76 76 77 69 78 70 79
REMARK SMILES IDX 74 80 77 81 71 82 72 83 75 84 73 85 52 86 53 87 61 88 54 89
REMARK SMILES IDX 55 90 59 91 62 92 56 93 57 94 60 95 58 96
REMARK H PARENT 16 7 9 15 4 24 23 30 82 49 50 60
REMARK Flexibility Score: inf
ROOT
ATOM      1  C   UNL A   1      34.981  33.279  29.139  1.00  0.00     0.002 C 
ENDROOT
BRANCH   1   2
ATOM      2  C   UNL A   1      35.522  32.274  28.109  1.00  0.00     0.021 C 
BRANCH   2   3
ATOM      3  C   UNL A   1      34.483  31.240  27.669  1.00  0.00     0.116 C 
BRANCH   3   4
ATOM      4  N   UNL A   1      33.183  31.867  27.563  1.00  0.00    -0.352 N 
ATOM      5  C   UNL A   1      31.994  31.481  27.006  1.00  0.00     0.251 C 
ATOM      6  O   UNL A   1      31.079  32.307  27.032  1.00  0.00    -0.269 OA
ATOM      7  H   UNL A   1      33.146  32.758  27.981  1.00  0.00     0.163 HD
BRANCH   5   8
ATOM      8  C   UNL A   1      31.730  30.133  26.426  1.00  0.00     0.040 A 
ATOM      9  C   UNL A   1      30.681  28.563  23.081  1.00  0.00    -0.021 A 
ATOM     10  C   UNL A   1      30.520  27.191  23.053  1.00  0.00     0.087 A 
ATOM     11  C   UNL A   1      31.046  28.905  24.422  1.00  0.00     0.003 A 
ATOM     12  N   UNL A   1      30.792  26.699  24.302  1.00  0.00    -0.361 N 
ATOM     13  C   UNL A   1      31.155  27.722  25.146  1.00  0.00     0.046 A 
ATOM     14  C   UNL A   1      31.316  30.121  25.080  1.00  0.00     0.024 A 
ATOM     15  H   UNL A   1      30.737  25.749  24.558  1.00  0.00     0.166 HD
ATOM     16  C   UNL A   1      31.587  27.693  26.476  1.00  0.00     0.027 A 
ATOM     17  C   UNL A   1      31.910  28.916  27.086  1.00  0.00     0.016 A 
BRANCH   9  18
ATOM     18  C   UNL A   1      30.537  29.509  21.927  1.00  0.00     0.059 C 
BRANCH  18  19
ATOM     19  C   UNL A   1      29.085  29.874  21.616  1.00  0.00     0.120 C 
BRANCH  19  20
ATOM     20  N   UNL A   1      28.882  31.310  21.501  1.00  0.00    -0.356 N 
ATOM     21  C   UNL A   1      27.683  31.597  23.632  1.00  0.00     0.114 C 
ATOM     22  C   UNL A   1      28.268  32.163  22.368  1.00  0.00     0.216 C 
ATOM     23  O   UNL A   1      28.215  33.364  22.108  1.00  0.00    -0.275 OA
ATOM     24  H   UNL A   1      29.236  31.724  20.681  1.00  0.00     0.163 HD
ENDBRANCH  19  20
ENDBRANCH  18  19
ENDBRANCH   9  18
ENDBRANCH   5   8
ENDBRANCH   3   4
ENDBRANCH   2   3
ENDBRANCH   1   2
BRANCH   1  25
ATOM     25  C   UNL A   1      34.708  34.686  28.591  1.00  0.00     0.002 C 
BRANCH  25  26
ATOM     26  C   UNL A   1      33.319  35.249  28.908  1.00  0.00     0.021 C 
BRANCH  26  27
ATOM     27  C   UNL A   1      33.327  36.493  29.792  1.00  0.00     0.116 C 
BRANCH  27  28
ATOM     28  N   UNL A   1      32.447  36.346  30.939  1.00  0.00    -0.352 N 
ATOM     29  C   UNL A   1      32.579  35.546  32.044  1.00  0.00     0.251 C 
ATOM     30  H   UNL A   1      31.636  36.903  30.918  1.00  0.00     0.163 HD
ATOM     31  O   UNL A   1      31.631  35.400  32.809  1.00  0.00    -0.269 OA
BRANCH  29  32
ATOM     32  C   UNL A   1      33.856  34.854  32.324  1.00  0.00     0.039 A 
ATOM     33  C   UNL A   1      33.817  33.511  32.708  1.00  0.00     0.014 A 
ATOM     34  C   UNL A   1      35.078  35.533  32.276  1.00  0.00     0.014 A 
ATOM     35  C   UNL A   1      35.002  32.842  33.021  1.00  0.00     0.010 A 
ATOM     36  C   UNL A   1      36.266  34.848  32.528  1.00  0.00     0.010 A 
ATOM     37  C   UNL A   1      36.236  33.503  32.924  1.00  0.00    -0.014 A 
BRANCH  37  38
ATOM     38  C   UNL A   1      37.497  32.804  33.276  1.00  0.00     0.031 A 
ATOM     39  C   UNL A   1      38.191  33.110  34.575  1.00  0.00     0.074 A 
ATOM     40  C   UNL A   1      38.032  31.917  32.417  1.00  0.00     0.049 A 
ATOM     41  N   UNL A   1      39.303  32.614  35.057  1.00  0.00    -0.248 NA
ATOM     42  C   UNL A   1      37.567  34.127  35.436  1.00  0.00     0.031 C 
ATOM     43  C   UNL A   1      37.480  31.574  31.106  1.00  0.00     0.029 A 
ATOM     44  N   UNL A   1      39.161  31.145  32.517  1.00  0.00    -0.354 N 
ATOM     45  C   UNL A   1      39.516  33.266  36.265  1.00  0.00     0.074 A 
ATOM     46  C   UNL A   1      38.448  34.229  36.419  1.00  0.00     0.031 C 
ATOM     47  C   UNL A   1      38.257  30.640  30.534  1.00  0.00     0.029 A 
ATOM     48  C   UNL A   1      39.371  30.337  31.427  1.00  0.00     0.049 A 
ATOM     49  H   UNL A   1      39.763  31.167  33.296  1.00  0.00     0.167 HD
ATOM     50  C   UNL A   1      40.499  33.063  37.175  1.00  0.00     0.037 A 
ATOM     51  C   UNL A   1      40.351  29.446  31.180  1.00  0.00     0.037 A 
ATOM     52  C   UNL A   1      41.542  32.080  37.034  1.00  0.00     0.049 A 
ATOM     53  C   UNL A   1      41.413  29.217  32.221  1.00  0.00     0.074 A 
ATOM     54  C   UNL A   1      42.551  31.758  37.924  1.00  0.00     0.029 A 
ATOM     55  N   UNL A   1      41.704  31.258  35.930  1.00  0.00    -0.354 N 
ATOM     56  N   UNL A   1      41.567  29.792  33.389  1.00  0.00    -0.248 NA
ATOM     57  C   UNL A   1      42.430  28.201  31.914  1.00  0.00     0.031 C 
ATOM     58  C   UNL A   1      43.345  30.762  37.343  1.00  0.00     0.029 A 
ATOM     59  C   UNL A   1      42.804  30.435  36.111  1.00  0.00     0.049 A 
ATOM     60  H   UNL A   1      41.122  31.257  35.135  1.00  0.00     0.167 HD
ATOM     61  C   UNL A   1      42.677  29.194  33.967  1.00  0.00     0.074 A 
ATOM     62  C   UNL A   1      43.150  28.197  33.027  1.00  0.00     0.031 C 
ATOM     63  C   UNL A   1      43.255  29.445  35.167  1.00  0.00     0.037 A 
BRANCH  50  64
ATOM     64  C   UNL A   1      40.487  33.917  38.409  1.00  0.00     0.064 A 
ATOM     65  C   UNL A   1      41.211  35.118  38.479  1.00  0.00     0.173 A 
ATOM     66  C   UNL A   1      39.720  33.548  39.525  1.00  0.00     0.173 A 
ATOM     67  F   UNL A   1      41.969  35.509  37.444  1.00  0.00    -0.203 F 
ATOM     68  C   UNL A   1      41.192  35.900  39.631  1.00  0.00     0.198 A 
ATOM     69  C   UNL A   1      39.682  34.347  40.664  1.00  0.00     0.198 A 
ATOM     70  F   UNL A   1      39.006  32.413  39.508  1.00  0.00    -0.203 F 
ATOM     71  F   UNL A   1      41.931  37.016  39.692  1.00  0.00    -0.200 F 
ATOM     72  C   UNL A   1      40.423  35.517  40.719  1.00  0.00     0.200 A 
ATOM     73  F   UNL A   1      38.930  33.982  41.712  1.00  0.00    -0.200 F 
ATOM     74  F   UNL A   1      40.402  36.274  41.825  1.00  0.00    -0.200 F 
ENDBRANCH  50  64
BRANCH  51  75
ATOM     75  C   UNL A   1      40.345  28.673  29.913  1.00  0.00     0.064 A 
ATOM     76  C   UNL A   1      41.045  29.132  28.789  1.00  0.00     0.173 A 
ATOM     77  C   UNL A   1      39.644  27.464  29.799  1.00  0.00     0.173 A 
ATOM     78  F   UNL A   1      41.714  30.292  28.845  1.00  0.00    -0.203 F 
ATOM     79  C   UNL A   1      41.028  28.421  27.591  1.00  0.00     0.198 A 
ATOM     80  C   UNL A   1      39.649  26.741  28.608  1.00  0.00     0.198 A 
ATOM     81  F   UNL A   1      38.964  26.981  30.849  1.00  0.00    -0.203 F 
ATOM     82  F   UNL A   1      41.671  28.904  26.518  1.00  0.00    -0.200 F 
ATOM     83  C   UNL A   1      40.334  27.224  27.503  1.00  0.00     0.200 A 
ATOM     84  F   UNL A   1      38.987  25.578  28.530  1.00  0.00    -0.200 F 
ATOM     85  F   UNL A   1      40.320  26.539  26.351  1.00  0.00    -0.200 F 
ENDBRANCH  51  75
BRANCH  63  86
ATOM     86  C   UNL A   1      44.441  28.608  35.543  1.00  0.00     0.064 A 
ATOM     87  C   UNL A   1      45.748  28.997  35.214  1.00  0.00     0.173 A 
ATOM     88  C   UNL A   1      44.270  27.416  36.262  1.00  0.00     0.173 A 
ATOM     89  F   UNL A   1      45.962  30.121  34.513  1.00  0.00    -0.203 F 
ATOM     90  C   UNL A   1      46.839  28.207  35.568  1.00  0.00     0.198 A 
ATOM     91  C   UNL A   1      45.365  26.643  36.638  1.00  0.00     0.198 A 
ATOM     92  F   UNL A   1      43.040  27.005  36.606  1.00  0.00    -0.203 F 
ATOM     93  F   UNL A   1      48.076  28.572  35.200  1.00  0.00    -0.200 F 
ATOM     94  C   UNL A   1      46.647  27.035  36.283  1.00  0.00     0.200 A 
ATOM     95  F   UNL A   1      45.178  25.516  37.339  1.00  0.00    -0.200 F 
ATOM     96  F   UNL A   1      47.699  26.276  36.624  1.00  0.00    -0.200 F 
ENDBRANCH  63  86
ENDBRANCH  37  38
ENDBRANCH  29  32
ENDBRANCH  27  28
ENDBRANCH  26  27
ENDBRANCH  25  26
ENDBRANCH   1  25
TORSDOF 16
ENDMDL
MODEL 3
REMARK VINA RESULT:     -11.8      1.734      7.682
REMARK SMILES CC(=O)NCCc1c[nH]c2ccc(C(=O)NCCCCCCNC(=O)c3ccc(-c4c5nc(c(-c6c(F)c(F)c(F)c(F)c6F)c6ccc([nH]6)c(-c6c(F)c(F)c(F)c(F)c6F)c6nc(c(-c7c(F)c(F)c(F)c(F)c7F)c7ccc4[nH]7)C=C6)C=C5)cc3)cc12
REMARK SMILES IDX 19 1 18 2 17 3 16 4 14 5 15 6 13 8 7 9 8 10 90 11 9 12 10 13
REMARK SMILES IDX 89 14 11 16 12 17 6 18 5 19 4 20 1 21 2 22 3 23 20 25 21 26
REMARK SMILES IDX 22 27 23 28 24 29 25 31 26 32 27 33 88 34 28 35 87 36 29 37
REMARK SMILES IDX 30 38 31 39 81 40 32 41 86 42 80 43 82 44 33 45 85 46 79 47
REMARK SMILES IDX 78 48 34 50 66 51 46 52 65 53 47 54 50 55 64 56 83 57 48 58
REMARK SMILES IDX 49 59 63 61 84 62 51 63 35 64 36 65 44 66 37 67 38 68 42 69
REMARK SMILES IDX 45 70 39 71 40 72 43 73 41 74 67 75 68 76 76 77 69 78 70 79
REMARK SMILES IDX 74 80 77 81 71 82 72 83 75 84 73 85 52 86 53 87 61 88 54 89
REMARK SMILES IDX 55 90 59 91 62 92 56 93 57 94 60 95 58 96
REMARK H PARENT 16 7 9 15 4 24 23 30 82 49 50 60
REMARK Flexibility Score: inf
ROOT
ATOM      1  C   UNL A   1      41.684  21.620  26.661  1.00  0.00     0.002 C 
ENDROOT
BRANCH   1   2
ATOM      2  C   UNL A   1      40.603  22.524  27.274  1.00  0.00     0.021 C 
BRANCH   2   3
ATOM      3  C   UNL A   1      39.292  22.523  26.482  1.00  0.00     0.116 C 
BRANCH   3   4
ATOM      4  N   UNL A   1      39.087  21.224  25.878  1.00  0.00    -0.352 N 
ATOM      5  C   UNL A   1      38.067  20.675  25.149  1.00  0.00     0.251 C 
ATOM      6  O   UNL A   1      38.186  19.488  24.840  1.00  0.00    -0.269 OA
ATOM      7  H   UNL A   1      39.839  20.606  26.021  1.00  0.00     0.163 HD
BRANCH   5   8
ATOM      8  C   UNL A   1      36.867  21.425  24.676  1.00  0.00     0.040 A 
ATOM      9  C   UNL A   1      33.062  20.968  24.435  1.00  0.00    -0.021 A 
ATOM     10  C   UNL A   1      32.341  21.989  23.844  1.00  0.00     0.087 A 
ATOM     11  C   UNL A   1      34.438  21.357  24.387  1.00  0.00     0.003 A 
ATOM     12  N   UNL A   1      33.216  22.974  23.469  1.00  0.00    -0.361 N 
ATOM     13  C   UNL A   1      34.499  22.629  23.825  1.00  0.00     0.046 A 
ATOM     14  C   UNL A   1      35.640  20.745  24.793  1.00  0.00     0.024 A 
ATOM     15  H   UNL A   1      32.963  23.807  23.010  1.00  0.00     0.166 HD
ATOM     16  C   UNL A   1      35.696  23.344  23.714  1.00  0.00     0.027 A 
ATOM     17  C   UNL A   1      36.868  22.733  24.187  1.00  0.00     0.016 A 
BRANCH   9  18
ATOM     18  C   UNL A   1      32.510  19.712  25.040  1.00  0.00     0.059 C 
BRANCH  18  19
ATOM     19  C   UNL A   1      32.188  18.630  24.010  1.00  0.00     0.120 C 
BRANCH  19  20
ATOM     20  N   UNL A   1      32.299  17.286  24.557  1.00  0.00    -0.356 N 
ATOM     21  C   UNL A   1      34.313  16.637  23.299  1.00  0.00     0.114 C 
ATOM     22  C   UNL A   1      33.232  16.328  24.296  1.00  0.00     0.216 C 
ATOM     23  O   UNL A   1      33.177  15.248  24.882  1.00  0.00    -0.275 OA
ATOM     24  H   UNL A   1      31.603  17.033  25.204  1.00  0.00     0.163 HD
ENDBRANCH  19  20
ENDBRANCH  18  19
ENDBRANCH   9  18
ENDBRANCH   5   8
ENDBRANCH   3   4
ENDBRANCH   2   3
ENDBRANCH   1   2
BRANCH   1  25
ATOM     25  C   UNL A   1      42.175  20.488  27.573  1.00  0.00     0.002 C 
BRANCH  25  26
ATOM     26  C   UNL A   1      42.559  19.192  26.851  1.00  0.00     0.021 C 
BRANCH  26  27
ATOM     27  C   UNL A   1      42.489  19.269  25.328  1.00  0.00     0.116 C 
BRANCH  27  28
ATOM     28  N   UNL A   1      43.747  18.891  24.709  1.00  0.00    -0.352 N 
ATOM     29  C   UNL A   1      44.833  19.665  24.394  1.00  0.00     0.251 C 
ATOM     30  H   UNL A   1      43.832  17.937  24.483  1.00  0.00     0.163 HD
ATOM     31  O   UNL A   1      45.723  19.209  23.683  1.00  0.00    -0.269 OA
BRANCH  29  32
ATOM     32  C   UNL A   1      44.943  21.050  24.902  1.00  0.00     0.039 A 
ATOM     33  C   UNL A   1      44.563  22.101  24.063  1.00  0.00     0.014 A 
ATOM     34  C   UNL A   1      45.477  21.322  26.166  1.00  0.00     0.014 A 
ATOM     35  C   UNL A   1      44.696  23.421  24.497  1.00  0.00     0.010 A 
ATOM     36  C   UNL A   1      45.550  22.637  26.624  1.00  0.00     0.010 A 
ATOM     37  C   UNL A   1      45.181  23.699  25.785  1.00  0.00    -0.014 A 
BRANCH  37  38
ATOM     38  C   UNL A   1      45.345  25.100  26.245  1.00  0.00     0.031 A 
ATOM     39  C   UNL A   1      46.688  25.772  26.153  1.00  0.00     0.074 A 
ATOM     40  C   UNL A   1      44.295  25.759  26.769  1.00  0.00     0.049 A 
ATOM     41  N   UNL A   1      47.034  26.983  26.509  1.00  0.00    -0.248 NA
ATOM     42  C   UNL A   1      47.795  24.968  25.612  1.00  0.00     0.031 C 
ATOM     43  C   UNL A   1      42.956  25.198  26.957  1.00  0.00     0.029 A 
ATOM     44  N   UNL A   1      44.190  27.041  27.244  1.00  0.00    -0.354 N 
ATOM     45  C   UNL A   1      48.396  27.080  26.249  1.00  0.00     0.074 A 
ATOM     46  C   UNL A   1      48.824  25.790  25.754  1.00  0.00     0.031 C 
ATOM     47  C   UNL A   1      42.157  26.140  27.483  1.00  0.00     0.029 A 
ATOM     48  C   UNL A   1      42.931  27.360  27.689  1.00  0.00     0.049 A 
ATOM     49  H   UNL A   1      44.945  27.673  27.262  1.00  0.00     0.167 HD
ATOM     50  C   UNL A   1      49.210  28.153  26.388  1.00  0.00     0.037 A 
ATOM     51  C   UNL A   1      42.456  28.512  28.200  1.00  0.00     0.037 A 
ATOM     52  C   UNL A   1      48.775  29.445  26.851  1.00  0.00     0.049 A 
ATOM     53  C   UNL A   1      43.374  29.699  28.314  1.00  0.00     0.074 A 
ATOM     54  C   UNL A   1      49.509  30.611  26.974  1.00  0.00     0.029 A 
ATOM     55  N   UNL A   1      47.484  29.739  27.263  1.00  0.00    -0.354 N 
ATOM     56  N   UNL A   1      44.642  29.797  28.002  1.00  0.00    -0.248 NA
ATOM     57  C   UNL A   1      42.786  30.940  28.837  1.00  0.00     0.031 C 
ATOM     58  C   UNL A   1      48.670  31.604  27.492  1.00  0.00     0.029 A 
ATOM     59  C   UNL A   1      47.403  31.066  27.652  1.00  0.00     0.049 A 
ATOM     60  H   UNL A   1      46.735  29.100  27.276  1.00  0.00     0.167 HD
ATOM     61  C   UNL A   1      45.000  31.112  28.265  1.00  0.00     0.074 A 
ATOM     62  C   UNL A   1      43.807  31.780  28.746  1.00  0.00     0.031 C 
ATOM     63  C   UNL A   1      46.205  31.714  28.121  1.00  0.00     0.037 A 
BRANCH  50  64
ATOM     64  C   UNL A   1      50.656  27.976  26.026  1.00  0.00     0.064 A 
ATOM     65  C   UNL A   1      51.096  28.060  24.696  1.00  0.00     0.173 A 
ATOM     66  C   UNL A   1      51.618  27.748  27.022  1.00  0.00     0.173 A 
ATOM     67  F   UNL A   1      50.215  28.264  23.706  1.00  0.00    -0.203 F 
ATOM     68  C   UNL A   1      52.441  27.893  24.374  1.00  0.00     0.198 A 
ATOM     69  C   UNL A   1      52.965  27.608  26.699  1.00  0.00     0.198 A 
ATOM     70  F   UNL A   1      51.251  27.664  28.309  1.00  0.00    -0.203 F 
ATOM     71  F   UNL A   1      52.830  27.928  23.092  1.00  0.00    -0.200 F 
ATOM     72  C   UNL A   1      53.374  27.673  25.376  1.00  0.00     0.200 A 
ATOM     73  F   UNL A   1      53.868  27.408  27.669  1.00  0.00    -0.200 F 
ATOM     74  F   UNL A   1      54.668  27.517  25.064  1.00  0.00    -0.200 F 
ENDBRANCH  50  64
BRANCH  51  75
ATOM     75  C   UNL A   1      41.029  28.610  28.598  1.00  0.00     0.064 A 
ATOM     76  C   UNL A   1      40.061  29.068  27.693  1.00  0.00     0.173 A 
ATOM     77  C   UNL A   1      40.603  28.252  29.885  1.00  0.00     0.173 A 
ATOM     78  F   UNL A   1      40.424  29.440  26.457  1.00  0.00    -0.203 F 
ATOM     79  C   UNL A   1      38.723  29.180  28.065  1.00  0.00     0.198 A 
ATOM     80  C   UNL A   1      39.262  28.341  30.248  1.00  0.00     0.198 A 
ATOM     81  F   UNL A   1      41.491  27.805  30.785  1.00  0.00    -0.203 F 
ATOM     82  F   UNL A   1      37.825  29.660  27.194  1.00  0.00    -0.200 F 
ATOM     83  C   UNL A   1      38.324  28.813  29.341  1.00  0.00     0.200 A 
ATOM     84  F   UNL A   1      38.877  27.974  31.479  1.00  0.00    -0.200 F 
ATOM     85  F   UNL A   1      37.037  28.919  29.699  1.00  0.00    -0.200 F 
ENDBRANCH  51  75
BRANCH  63  86
ATOM     86  C   UNL A   1      46.285  33.173  28.460  1.00  0.00     0.064 A 
ATOM     87  C   UNL A   1      46.596  33.611  29.755  1.00  0.00     0.173 A 
ATOM     88  C   UNL A   1      46.073  34.145  27.470  1.00  0.00     0.173 A 
ATOM     89  F   UNL A   1      46.793  32.721  30.740  1.00  0.00    -0.203 F 
ATOM     90  C   UNL A   1      46.663  34.970  30.054  1.00  0.00     0.198 A 
ATOM     91  C   UNL A   1      46.168  35.502  27.766  1.00  0.00     0.198 A 
ATOM     92  F   UNL A   1      45.779  33.776  26.214  1.00  0.00    -0.203 F 
ATOM     93  F   UNL A   1      46.913  35.367  31.310  1.00  0.00    -0.200 F 
ATOM     94  C   UNL A   1      46.455  35.912  29.059  1.00  0.00     0.200 A 
ATOM     95  F   UNL A   1      45.977  36.411  26.800  1.00  0.00    -0.200 F 
ATOM     96  F   UNL A   1      46.521  37.220  29.347  1.00  0.00    -0.200 F 
ENDBRANCH  63  86
ENDBRANCH  37  38
ENDBRANCH  29  32
ENDBRANCH  27  28
ENDBRANCH  26  27
ENDBRANCH  25  26
ENDBRANCH   1  25
TORSDOF 16
ENDMDL
