MODEL 1
REMARK VINA RESULT:     -13.5      0.000      0.000
REMARK SMILES C[C@H](C(=O)NCCCCCCNC(=O)c1ccc(-c2c3nc(c(-c4c(F)c(F)c(F)c(F)c4F)c4ccc([nH]4)c(-c4c(F)c(F)c(F)c(F)c4F)c4nc(c(-c5c(F)c(F)c(F)c(F)c5F)c5ccc2[nH]5)C=C4)C=C3)cc1)N1C(=O)C[C@@H](N2C(=O)/C(=C/c3ccccc3)SC2=S)C1=O
REMARK SMILES IDX 8 1 7 2 6 3 5 4 3 5 4 6 2 8 1 9 78 10 79 11 97 12 80 13
REMARK SMILES IDX 81 14 82 15 98 16 83 17 84 18 95 19 85 20 86 21 94 22 96 23
REMARK SMILES IDX 87 24 88 25 89 26 93 27 90 28 92 29 91 30 9 31 10 32 11 33
REMARK SMILES IDX 12 34 13 35 14 37 15 38 16 39 77 40 17 41 76 42 18 43 19 44
REMARK SMILES IDX 20 45 70 46 21 47 75 48 69 49 71 50 22 51 74 52 68 53 67 54
REMARK SMILES IDX 23 56 55 57 35 58 54 59 36 60 39 61 53 62 72 63 37 64 38 65
REMARK SMILES IDX 52 67 73 68 40 69 24 70 25 71 33 72 26 73 27 74 31 75 34 76
REMARK SMILES IDX 28 77 29 78 32 79 30 80 56 81 57 82 65 83 58 84 59 85 63 86
REMARK SMILES IDX 66 87 60 88 61 89 64 90 62 91 41 92 42 93 50 94 43 95 44 96
REMARK SMILES IDX 48 97 51 98 45 99 46 100 49 101 47 102
REMARK H PARENT 5 7 12 36 71 55 39 66
REMARK Flexibility Score: inf
ROOT
ATOM      1  C   UNL A   1      31.947  30.084  25.229  1.00  0.00     0.002 C 
ENDROOT
BRANCH   1   2
ATOM      2  C   UNL A   1      31.021  28.985  24.698  1.00  0.00     0.021 C 
BRANCH   2   3
ATOM      3  C   UNL A   1      30.904  28.940  23.174  1.00  0.00     0.116 C 
BRANCH   3   4
ATOM      4  N   UNL A   1      32.208  28.780  22.559  1.00  0.00    -0.354 N 
ATOM      5  C   UNL A   1      32.838  27.668  22.077  1.00  0.00     0.243 C 
ATOM      6  O   UNL A   1      34.004  27.809  21.701  1.00  0.00    -0.273 OA
ATOM      7  H   UNL A   1      32.727  29.612  22.474  1.00  0.00     0.163 HD
BRANCH   5   8
ATOM      8  C   UNL A   1      32.129  26.297  22.065  1.00  0.00     0.179 C 
ATOM      9  C   UNL A   1      32.739  25.433  20.958  1.00  0.00     0.042 C 
BRANCH   8  10
ATOM     10  N   UNL A   1      32.189  25.703  23.406  1.00  0.00    -0.268 N 
ATOM     11  C   UNL A   1      31.115  25.347  24.177  1.00  0.00     0.232 C 
ATOM     12  C   UNL A   1      33.373  25.380  24.011  1.00  0.00     0.253 C 
ATOM     13  O   UNL A   1      29.931  25.560  23.962  1.00  0.00    -0.274 OA
ATOM     14  C   UNL A   1      31.603  24.753  25.468  1.00  0.00     0.136 C 
ATOM     15  C   UNL A   1      33.091  24.551  25.245  1.00  0.00     0.191 C 
ATOM     16  O   UNL A   1      34.498  25.648  23.615  1.00  0.00    -0.272 OA
BRANCH  15  17
ATOM     17  N   UNL A   1      33.528  23.153  25.050  1.00  0.00    -0.280 N 
ATOM     18  C   UNL A   1      32.668  22.242  24.464  1.00  0.00     0.266 C 
ATOM     19  C   UNL A   1      34.778  22.666  25.374  1.00  0.00     0.149 C 
ATOM     20  O   UNL A   1      31.585  22.509  23.970  1.00  0.00    -0.268 OA
ATOM     21  C   UNL A   1      33.225  20.872  24.523  1.00  0.00     0.081 C 
ATOM     22  S   UNL A   1      34.838  20.925  25.096  1.00  0.00    -0.054 SA
ATOM     23  S   UNL A   1      36.088  23.501  25.978  1.00  0.00    -0.052 S 
ATOM     24  C   UNL A   1      32.472  19.811  24.209  1.00  0.00     0.029 C 
BRANCH  24  25
ATOM     25  C   UNL A   1      32.832  18.399  24.371  1.00  0.00    -0.024 A 
ATOM     26  C   UNL A   1      32.575  17.746  25.580  1.00  0.00     0.008 A 
ATOM     27  C   UNL A   1      33.518  17.719  23.356  1.00  0.00     0.008 A 
ATOM     28  C   UNL A   1      32.984  16.423  25.764  1.00  0.00     0.001 A 
ATOM     29  C   UNL A   1      33.927  16.399  23.543  1.00  0.00     0.001 A 
ATOM     30  C   UNL A   1      33.659  15.751  24.746  1.00  0.00     0.000 A 
ENDBRANCH  24  25
ENDBRANCH  15  17
ENDBRANCH   8  10
ENDBRANCH   5   8
ENDBRANCH   3   4
ENDBRANCH   2   3
ENDBRANCH   1   2
BRANCH   1  31
ATOM     31  C   UNL A   1      31.626  30.584  26.641  1.00  0.00     0.002 C 
BRANCH  31  32
ATOM     32  C   UNL A   1      31.459  32.100  26.780  1.00  0.00     0.021 C 
BRANCH  32  33
ATOM     33  C   UNL A   1      32.734  32.860  27.136  1.00  0.00     0.116 C 
BRANCH  33  34
ATOM     34  N   UNL A   1      32.460  34.213  27.593  1.00  0.00    -0.352 N 
ATOM     35  C   UNL A   1      33.014  34.914  28.633  1.00  0.00     0.251 C 
ATOM     36  H   UNL A   1      31.773  34.698  27.079  1.00  0.00     0.163 HD
ATOM     37  O   UNL A   1      32.528  35.985  28.983  1.00  0.00    -0.269 OA
BRANCH  35  38
ATOM     38  C   UNL A   1      34.186  34.373  29.354  1.00  0.00     0.039 A 
ATOM     39  C   UNL A   1      33.979  33.676  30.547  1.00  0.00     0.014 A 
ATOM     40  C   UNL A   1      35.483  34.571  28.872  1.00  0.00     0.014 A 
ATOM     41  C   UNL A   1      35.068  33.126  31.228  1.00  0.00     0.010 A 
ATOM     42  C   UNL A   1      36.562  33.971  29.519  1.00  0.00     0.010 A 
ATOM     43  C   UNL A   1      36.366  33.243  30.702  1.00  0.00    -0.014 A 
BRANCH  43  44
ATOM     44  C   UNL A   1      37.526  32.608  31.375  1.00  0.00     0.031 A 
ATOM     45  C   UNL A   1      38.244  31.460  30.724  1.00  0.00     0.074 A 
ATOM     46  C   UNL A   1      37.892  33.024  32.603  1.00  0.00     0.049 A 
ATOM     47  N   UNL A   1      39.226  30.727  31.187  1.00  0.00    -0.248 NA
ATOM     48  C   UNL A   1      37.782  31.065  29.384  1.00  0.00     0.031 C 
ATOM     49  C   UNL A   1      37.247  34.100  33.358  1.00  0.00     0.029 A 
ATOM     50  N   UNL A   1      38.888  32.583  33.439  1.00  0.00    -0.354 N 
ATOM     51  C   UNL A   1      39.486  29.779  30.207  1.00  0.00     0.074 A 
ATOM     52  C   UNL A   1      38.533  30.000  29.141  1.00  0.00     0.031 C 
ATOM     53  C   UNL A   1      37.870  34.243  34.539  1.00  0.00     0.029 A 
ATOM     54  C   UNL A   1      38.935  33.249  34.639  1.00  0.00     0.049 A 
ATOM     55  H   UNL A   1      39.509  31.857  33.201  1.00  0.00     0.167 HD
ATOM     56  C   UNL A   1      40.444  28.822  30.190  1.00  0.00     0.037 A 
ATOM     57  C   UNL A   1      39.742  33.073  35.703  1.00  0.00     0.037 A 
ATOM     58  C   UNL A   1      41.412  28.624  31.237  1.00  0.00     0.049 A 
ATOM     59  C   UNL A   1      40.803  32.007  35.653  1.00  0.00     0.074 A 
ATOM     60  C   UNL A   1      42.464  27.725  31.282  1.00  0.00     0.029 A 
ATOM     61  N   UNL A   1      41.448  29.340  32.425  1.00  0.00    -0.354 N 
ATOM     62  N   UNL A   1      41.081  31.161  34.692  1.00  0.00    -0.248 NA
ATOM     63  C   UNL A   1      41.668  31.878  36.835  1.00  0.00     0.031 C 
ATOM     64  C   UNL A   1      43.111  27.869  32.513  1.00  0.00     0.029 A 
ATOM     65  C   UNL A   1      42.491  28.889  33.217  1.00  0.00     0.049 A 
ATOM     66  H   UNL A   1      40.824  30.060  32.669  1.00  0.00     0.167 HD
ATOM     67  C   UNL A   1      42.168  30.421  35.139  1.00  0.00     0.074 A 
ATOM     68  C   UNL A   1      42.507  30.926  36.452  1.00  0.00     0.031 C 
ATOM     69  C   UNL A   1      42.825  29.412  34.516  1.00  0.00     0.037 A 
BRANCH  56  70
ATOM     70  C   UNL A   1      40.504  27.916  28.997  1.00  0.00     0.064 A 
ATOM     71  C   UNL A   1      39.730  26.748  28.922  1.00  0.00     0.173 A 
ATOM     72  C   UNL A   1      41.303  28.245  27.891  1.00  0.00     0.173 A 
ATOM     73  F   UNL A   1      38.958  26.383  29.958  1.00  0.00    -0.203 F 
ATOM     74  C   UNL A   1      39.769  25.934  27.794  1.00  0.00     0.198 A 
ATOM     75  C   UNL A   1      41.318  27.444  26.753  1.00  0.00     0.198 A 
ATOM     76  F   UNL A   1      42.057  29.355  27.909  1.00  0.00    -0.203 F 
ATOM     77  F   UNL A   1      39.049  24.804  27.761  1.00  0.00    -0.200 F 
ATOM     78  C   UNL A   1      40.556  26.286  26.708  1.00  0.00     0.200 A 
ATOM     79  F   UNL A   1      42.069  27.791  25.699  1.00  0.00    -0.200 F 
ATOM     80  F   UNL A   1      40.582  25.507  25.617  1.00  0.00    -0.200 F 
ENDBRANCH  56  70
BRANCH  57  81
ATOM     81  C   UNL A   1      39.592  33.938  36.902  1.00  0.00     0.064 A 
ATOM     82  C   UNL A   1      38.814  33.525  37.993  1.00  0.00     0.173 A 
ATOM     83  C   UNL A   1      40.207  35.195  36.977  1.00  0.00     0.173 A 
ATOM     84  F   UNL A   1      38.189  32.339  37.958  1.00  0.00    -0.203 F 
ATOM     85  C   UNL A   1      38.638  34.348  39.103  1.00  0.00     0.198 A 
ATOM     86  C   UNL A   1      40.053  36.006  38.099  1.00  0.00     0.198 A 
ATOM     87  F   UNL A   1      40.965  35.635  35.961  1.00  0.00    -0.203 F 
ATOM     88  F   UNL A   1      37.849  33.950  40.110  1.00  0.00    -0.200 F 
ATOM     89  C   UNL A   1      39.261  35.585  39.157  1.00  0.00     0.200 A 
ATOM     90  F   UNL A   1      40.667  37.196  38.155  1.00  0.00    -0.200 F 
ATOM     91  F   UNL A   1      39.091  36.377  40.225  1.00  0.00    -0.200 F 
ENDBRANCH  57  81
BRANCH  69  92
ATOM     92  C   UNL A   1      43.999  28.812  35.230  1.00  0.00     0.064 A 
ATOM     93  C   UNL A   1      45.299  29.307  35.052  1.00  0.00     0.173 A 
ATOM     94  C   UNL A   1      43.816  27.754  36.133  1.00  0.00     0.173 A 
ATOM     95  F   UNL A   1      45.528  30.307  34.187  1.00  0.00    -0.203 F 
ATOM     96  C   UNL A   1      46.376  28.749  35.736  1.00  0.00     0.198 A 
ATOM     97  C   UNL A   1      44.890  27.217  36.835  1.00  0.00     0.198 A 
ATOM     98  F   UNL A   1      42.591  27.249  36.342  1.00  0.00    -0.203 F 
ATOM     99  F   UNL A   1      47.616  29.209  35.517  1.00  0.00    -0.200 F 
ATOM    100  C   UNL A   1      46.170  27.710  36.632  1.00  0.00     0.200 A 
ATOM    101  F   UNL A   1      44.688  26.221  37.709  1.00  0.00    -0.200 F 
ATOM    102  F   UNL A   1      47.207  27.179  37.293  1.00  0.00    -0.200 F 
ENDBRANCH  69  92
ENDBRANCH  43  44
ENDBRANCH  35  38
ENDBRANCH  33  34
ENDBRANCH  32  33
ENDBRANCH  31  32
ENDBRANCH   1  31
TORSDOF 16
ENDMDL
MODEL 2
REMARK VINA RESULT:     -13.2      1.859      7.431
REMARK SMILES C[C@H](C(=O)NCCCCCCNC(=O)c1ccc(-c2c3nc(c(-c4c(F)c(F)c(F)c(F)c4F)c4ccc([nH]4)c(-c4c(F)c(F)c(F)c(F)c4F)c4nc(c(-c5c(F)c(F)c(F)c(F)c5F)c5ccc2[nH]5)C=C4)C=C3)cc1)N1C(=O)C[C@@H](N2C(=O)/C(=C/c3ccccc3)SC2=S)C1=O
REMARK SMILES IDX 8 1 7 2 6 3 5 4 3 5 4 6 2 8 1 9 78 10 79 11 97 12 80 13
REMARK SMILES IDX 81 14 82 15 98 16 83 17 84 18 95 19 85 20 86 21 94 22 96 23
REMARK SMILES IDX 87 24 88 25 89 26 93 27 90 28 92 29 91 30 9 31 10 32 11 33
REMARK SMILES IDX 12 34 13 35 14 37 15 38 16 39 77 40 17 41 76 42 18 43 19 44
REMARK SMILES IDX 20 45 70 46 21 47 75 48 69 49 71 50 22 51 74 52 68 53 67 54
REMARK SMILES IDX 23 56 55 57 35 58 54 59 36 60 39 61 53 62 72 63 37 64 38 65
REMARK SMILES IDX 52 67 73 68 40 69 24 70 25 71 33 72 26 73 27 74 31 75 34 76
REMARK SMILES IDX 28 77 29 78 32 79 30 80 56 81 57 82 65 83 58 84 59 85 63 86
REMARK SMILES IDX 66 87 60 88 61 89 64 90 62 91 41 92 42 93 50 94 43 95 44 96
REMARK SMILES IDX 48 97 51 98 45 99 46 100 49 101 47 102
REMARK H PARENT 5 7 12 36 71 55 39 66
REMARK Flexibility Score: inf
ROOT
ATOM      1  C   UNL A   1      34.414  32.154  28.712  1.00  0.00     0.002 C 
ENDROOT
BRANCH   1   2
ATOM      2  C   UNL A   1      35.159  31.326  27.659  1.00  0.00     0.021 C 
BRANCH   2   3
ATOM      3  C   UNL A   1      34.808  29.837  27.662  1.00  0.00     0.116 C 
BRANCH   3   4
ATOM      4  N   UNL A   1      34.713  29.325  26.308  1.00  0.00    -0.354 N 
ATOM      5  C   UNL A   1      33.630  28.919  25.581  1.00  0.00     0.243 C 
ATOM      6  O   UNL A   1      33.859  28.421  24.475  1.00  0.00    -0.273 OA
ATOM      7  H   UNL A   1      35.572  29.260  25.832  1.00  0.00     0.163 HD
BRANCH   5   8
ATOM      8  C   UNL A   1      32.202  29.030  26.154  1.00  0.00     0.179 C 
ATOM      9  C   UNL A   1      31.759  30.495  26.100  1.00  0.00     0.042 C 
BRANCH   8  10
ATOM     10  N   UNL A   1      31.315  28.098  25.447  1.00  0.00    -0.268 N 
ATOM     11  C   UNL A   1      30.778  28.286  24.202  1.00  0.00     0.232 C 
ATOM     12  C   UNL A   1      30.978  26.876  25.963  1.00  0.00     0.253 C 
ATOM     13  O   UNL A   1      30.825  29.289  23.506  1.00  0.00    -0.274 OA
ATOM     14  C   UNL A   1      29.948  27.089  23.832  1.00  0.00     0.136 C 
ATOM     15  C   UNL A   1      30.288  26.058  24.894  1.00  0.00     0.191 C 
ATOM     16  O   UNL A   1      31.232  26.455  27.083  1.00  0.00    -0.272 OA
BRANCH  15  17
ATOM     17  N   UNL A   1      31.146  24.940  24.452  1.00  0.00    -0.280 N 
ATOM     18  C   UNL A   1      31.131  23.747  25.151  1.00  0.00     0.266 C 
ATOM     19  C   UNL A   1      31.960  24.964  23.336  1.00  0.00     0.149 C 
ATOM     20  O   UNL A   1      30.371  23.473  26.066  1.00  0.00    -0.268 OA
ATOM     21  C   UNL A   1      32.182  22.828  24.657  1.00  0.00     0.081 C 
ATOM     22  S   UNL A   1      32.902  23.475  23.245  1.00  0.00    -0.054 SA
ATOM     23  S   UNL A   1      32.132  26.178  22.208  1.00  0.00    -0.052 S 
ATOM     24  C   UNL A   1      32.485  21.710  25.328  1.00  0.00     0.029 C 
BRANCH  24  25
ATOM     25  C   UNL A   1      33.597  20.795  25.052  1.00  0.00    -0.024 A 
ATOM     26  C   UNL A   1      33.339  19.468  24.695  1.00  0.00     0.008 A 
ATOM     27  C   UNL A   1      34.922  21.211  25.233  1.00  0.00     0.008 A 
ATOM     28  C   UNL A   1      34.395  18.574  24.504  1.00  0.00     0.001 A 
ATOM     29  C   UNL A   1      35.976  20.316  25.043  1.00  0.00     0.001 A 
ATOM     30  C   UNL A   1      35.712  18.999  24.678  1.00  0.00     0.000 A 
ENDBRANCH  24  25
ENDBRANCH  15  17
ENDBRANCH   8  10
ENDBRANCH   5   8
ENDBRANCH   3   4
ENDBRANCH   2   3
ENDBRANCH   1   2
BRANCH   1  31
ATOM     31  C   UNL A   1      34.574  33.671  28.583  1.00  0.00     0.002 C 
BRANCH  31  32
ATOM     32  C   UNL A   1      33.279  34.481  28.688  1.00  0.00     0.021 C 
BRANCH  32  33
ATOM     33  C   UNL A   1      33.449  35.910  29.195  1.00  0.00     0.116 C 
BRANCH  33  34
ATOM     34  N   UNL A   1      32.574  36.205  30.318  1.00  0.00    -0.352 N 
ATOM     35  C   UNL A   1      32.648  35.779  31.620  1.00  0.00     0.251 C 
ATOM     36  H   UNL A   1      31.814  36.798  30.114  1.00  0.00     0.163 HD
ATOM     37  O   UNL A   1      31.715  35.985  32.391  1.00  0.00    -0.269 OA
BRANCH  35  38
ATOM     38  C   UNL A   1      33.842  35.049  32.097  1.00  0.00     0.039 A 
ATOM     39  C   UNL A   1      33.701  33.719  32.501  1.00  0.00     0.014 A 
ATOM     40  C   UNL A   1      35.089  35.676  32.170  1.00  0.00     0.014 A 
ATOM     41  C   UNL A   1      34.821  32.998  32.922  1.00  0.00     0.010 A 
ATOM     42  C   UNL A   1      36.215  34.940  32.533  1.00  0.00     0.010 A 
ATOM     43  C   UNL A   1      36.093  33.595  32.912  1.00  0.00    -0.014 A 
BRANCH  43  44
ATOM     44  C   UNL A   1      37.304  32.826  33.292  1.00  0.00     0.031 A 
ATOM     45  C   UNL A   1      38.017  33.123  34.581  1.00  0.00     0.074 A 
ATOM     46  C   UNL A   1      37.799  31.903  32.445  1.00  0.00     0.049 A 
ATOM     47  N   UNL A   1      39.130  32.615  35.049  1.00  0.00    -0.248 NA
ATOM     48  C   UNL A   1      37.413  34.145  35.450  1.00  0.00     0.031 C 
ATOM     49  C   UNL A   1      37.223  31.554  31.145  1.00  0.00     0.029 A 
ATOM     50  N   UNL A   1      38.908  31.100  32.543  1.00  0.00    -0.354 N 
ATOM     51  C   UNL A   1      39.366  33.266  36.253  1.00  0.00     0.074 A 
ATOM     52  C   UNL A   1      38.306  34.235  36.426  1.00  0.00     0.031 C 
ATOM     53  C   UNL A   1      37.975  30.600  30.573  1.00  0.00     0.029 A 
ATOM     54  C   UNL A   1      39.102  30.294  31.448  1.00  0.00     0.049 A 
ATOM     55  H   UNL A   1      39.507  31.101  33.324  1.00  0.00     0.167 HD
ATOM     56  C   UNL A   1      40.367  33.060  37.141  1.00  0.00     0.037 A 
ATOM     57  C   UNL A   1      40.085  29.412  31.177  1.00  0.00     0.037 A 
ATOM     58  C   UNL A   1      41.403  32.073  36.983  1.00  0.00     0.049 A 
ATOM     59  C   UNL A   1      41.180  29.199  32.186  1.00  0.00     0.074 A 
ATOM     60  C   UNL A   1      42.424  31.745  37.859  1.00  0.00     0.029 A 
ATOM     61  N   UNL A   1      41.550  31.254  35.874  1.00  0.00    -0.354 N 
ATOM     62  N   UNL A   1      41.355  29.773  33.351  1.00  0.00    -0.248 NA
ATOM     63  C   UNL A   1      42.211  28.208  31.846  1.00  0.00     0.031 C 
ATOM     64  C   UNL A   1      43.210  30.754  37.263  1.00  0.00     0.029 A 
ATOM     65  C   UNL A   1      42.655  30.434  36.035  1.00  0.00     0.049 A 
ATOM     66  H   UNL A   1      40.958  31.256  35.088  1.00  0.00     0.167 HD
ATOM     67  C   UNL A   1      42.495  29.195  33.894  1.00  0.00     0.074 A 
ATOM     68  C   UNL A   1      42.964  28.215  32.937  1.00  0.00     0.031 C 
ATOM     69  C   UNL A   1      43.100  29.453  35.079  1.00  0.00     0.037 A 
BRANCH  56  70
ATOM     70  C   UNL A   1      40.391  33.913  38.375  1.00  0.00     0.064 A 
ATOM     71  C   UNL A   1      39.714  33.532  39.544  1.00  0.00     0.173 A 
ATOM     72  C   UNL A   1      41.144  35.097  38.409  1.00  0.00     0.173 A 
ATOM     73  F   UNL A   1      38.973  32.413  39.559  1.00  0.00    -0.203 F 
ATOM     74  C   UNL A   1      39.774  34.315  40.693  1.00  0.00     0.198 A 
ATOM     75  C   UNL A   1      41.223  35.863  39.568  1.00  0.00     0.198 A 
ATOM     76  F   UNL A   1      41.815  35.502  37.319  1.00  0.00    -0.203 F 
ATOM     77  F   UNL A   1      39.089  33.950  41.785  1.00  0.00    -0.200 F 
ATOM     78  C   UNL A   1      40.534  35.475  40.707  1.00  0.00     0.200 A 
ATOM     79  F   UNL A   1      41.968  36.977  39.585  1.00  0.00    -0.200 F 
ATOM     80  F   UNL A   1      40.600  36.220  41.819  1.00  0.00    -0.200 F 
ENDBRANCH  56  70
BRANCH  57  81
ATOM     81  C   UNL A   1      40.070  28.650  29.902  1.00  0.00     0.064 A 
ATOM     82  C   UNL A   1      39.460  27.390  29.826  1.00  0.00     0.173 A 
ATOM     83  C   UNL A   1      40.676  29.153  28.743  1.00  0.00     0.173 A 
ATOM     84  F   UNL A   1      38.886  26.858  30.915  1.00  0.00    -0.203 F 
ATOM     85  C   UNL A   1      39.476  26.653  28.644  1.00  0.00     0.198 A 
ATOM     86  C   UNL A   1      40.668  28.428  27.554  1.00  0.00     0.198 A 
ATOM     87  F   UNL A   1      41.271  30.356  28.763  1.00  0.00    -0.203 F 
ATOM     88  F   UNL A   1      38.928  25.431  28.611  1.00  0.00    -0.200 F 
ATOM     89  C   UNL A   1      40.077  27.175  27.508  1.00  0.00     0.200 A 
ATOM     90  F   UNL A   1      41.238  28.940  26.454  1.00  0.00    -0.200 F 
ATOM     91  F   UNL A   1      40.093  26.465  26.371  1.00  0.00    -0.200 F 
ENDBRANCH  57  81
BRANCH  69  92
ATOM     92  C   UNL A   1      44.311  28.640  35.425  1.00  0.00     0.064 A 
ATOM     93  C   UNL A   1      44.209  27.430  36.126  1.00  0.00     0.173 A 
ATOM     94  C   UNL A   1      45.587  29.059  35.015  1.00  0.00     0.173 A 
ATOM     95  F   UNL A   1      43.014  26.996  36.552  1.00  0.00    -0.203 F 
ATOM     96  C   UNL A   1      45.343  26.679  36.423  1.00  0.00     0.198 A 
ATOM     97  C   UNL A   1      46.715  28.292  35.291  1.00  0.00     0.198 A 
ATOM     98  F   UNL A   1      45.736  30.206  34.338  1.00  0.00    -0.203 F 
ATOM     99  F   UNL A   1      45.227  25.548  37.132  1.00  0.00    -0.200 F 
ATOM    100  C   UNL A   1      46.593  27.107  36.000  1.00  0.00     0.200 A 
ATOM    101  F   UNL A   1      47.920  28.701  34.872  1.00  0.00    -0.200 F 
ATOM    102  F   UNL A   1      47.683  26.379  36.283  1.00  0.00    -0.200 F 
ENDBRANCH  69  92
ENDBRANCH  43  44
ENDBRANCH  35  38
ENDBRANCH  33  34
ENDBRANCH  32  33
ENDBRANCH  31  32
ENDBRANCH   1  31
TORSDOF 16
ENDMDL
MODEL 3
REMARK VINA RESULT:     -13.0      2.256      7.565
REMARK SMILES C[C@H](C(=O)NCCCCCCNC(=O)c1ccc(-c2c3nc(c(-c4c(F)c(F)c(F)c(F)c4F)c4ccc([nH]4)c(-c4c(F)c(F)c(F)c(F)c4F)c4nc(c(-c5c(F)c(F)c(F)c(F)c5F)c5ccc2[nH]5)C=C4)C=C3)cc1)N1C(=O)C[C@@H](N2C(=O)/C(=C/c3ccccc3)SC2=S)C1=O
REMARK SMILES IDX 8 1 7 2 6 3 5 4 3 5 4 6 2 8 1 9 78 10 79 11 97 12 80 13
REMARK SMILES IDX 81 14 82 15 98 16 83 17 84 18 95 19 85 20 86 21 94 22 96 23
REMARK SMILES IDX 87 24 88 25 89 26 93 27 90 28 92 29 91 30 9 31 10 32 11 33
REMARK SMILES IDX 12 34 13 35 14 37 15 38 16 39 77 40 17 41 76 42 18 43 19 44
REMARK SMILES IDX 20 45 70 46 21 47 75 48 69 49 71 50 22 51 74 52 68 53 67 54
REMARK SMILES IDX 23 56 55 57 35 58 54 59 36 60 39 61 53 62 72 63 37 64 38 65
REMARK SMILES IDX 52 67 73 68 40 69 24 70 25 71 33 72 26 73 27 74 31 75 34 76
REMARK SMILES IDX 28 77 29 78 32 79 30 80 56 81 57 82 65 83 58 84 59 85 63 86
REMARK SMILES IDX 66 87 60 88 61 89 64 90 62 91 41 92 42 93 50 94 43 95 44 96
REMARK SMILES IDX 48 97 51 98 45 99 46 100 49 101 47 102
REMARK H PARENT 5 7 12 36 71 55 39 66
REMARK Flexibility Score: inf
ROOT
ATOM      1  C   UNL A   1      34.400  31.996  28.445  1.00  0.00     0.002 C 
ENDROOT
BRANCH   1   2
ATOM      2  C   UNL A   1      33.319  31.641  27.419  1.00  0.00     0.021 C 
BRANCH   2   3
ATOM      3  C   UNL A   1      33.214  30.148  27.102  1.00  0.00     0.116 C 
BRANCH   3   4
ATOM      4  N   UNL A   1      33.541  29.889  25.713  1.00  0.00    -0.354 N 
ATOM      5  C   UNL A   1      32.778  29.392  24.694  1.00  0.00     0.243 C 
ATOM      6  O   UNL A   1      33.354  29.173  23.625  1.00  0.00    -0.273 OA
ATOM      7  H   UNL A   1      34.467  30.108  25.461  1.00  0.00     0.163 HD
BRANCH   5   8
ATOM      8  C   UNL A   1      31.283  29.072  24.904  1.00  0.00     0.179 C 
ATOM      9  C   UNL A   1      30.447  30.024  24.044  1.00  0.00     0.042 C 
BRANCH   8  10
ATOM     10  N   UNL A   1      31.046  27.647  24.645  1.00  0.00    -0.268 N 
ATOM     11  C   UNL A   1      31.053  27.040  23.419  1.00  0.00     0.232 C 
ATOM     12  C   UNL A   1      30.846  26.744  25.654  1.00  0.00     0.253 C 
ATOM     13  O   UNL A   1      31.133  27.566  22.319  1.00  0.00    -0.274 OA
ATOM     14  C   UNL A   1      30.791  25.570  23.589  1.00  0.00     0.136 C 
ATOM     15  C   UNL A   1      30.903  25.343  25.086  1.00  0.00     0.191 C 
ATOM     16  O   UNL A   1      30.703  26.990  26.844  1.00  0.00    -0.272 OA
BRANCH  15  17
ATOM     17  N   UNL A   1      32.120  24.641  25.541  1.00  0.00    -0.280 N 
ATOM     18  C   UNL A   1      33.365  25.138  25.203  1.00  0.00     0.266 C 
ATOM     19  C   UNL A   1      32.128  23.513  26.338  1.00  0.00     0.149 C 
ATOM     20  O   UNL A   1      33.573  26.200  24.640  1.00  0.00    -0.268 OA
ATOM     21  C   UNL A   1      34.439  24.199  25.600  1.00  0.00     0.081 C 
ATOM     22  S   UNL A   1      33.779  22.928  26.539  1.00  0.00    -0.054 SA
ATOM     23  S   UNL A   1      30.830  22.723  27.023  1.00  0.00    -0.052 S 
ATOM     24  C   UNL A   1      35.697  24.379  25.181  1.00  0.00     0.029 C 
BRANCH  24  25
ATOM     25  C   UNL A   1      36.822  23.456  25.359  1.00  0.00    -0.024 A 
ATOM     26  C   UNL A   1      36.765  22.169  24.814  1.00  0.00     0.008 A 
ATOM     27  C   UNL A   1      37.920  23.817  26.151  1.00  0.00     0.008 A 
ATOM     28  C   UNL A   1      37.802  21.262  25.045  1.00  0.00     0.001 A 
ATOM     29  C   UNL A   1      38.954  22.909  26.382  1.00  0.00     0.001 A 
ATOM     30  C   UNL A   1      38.895  21.633  25.828  1.00  0.00     0.000 A 
ENDBRANCH  24  25
ENDBRANCH  15  17
ENDBRANCH   8  10
ENDBRANCH   5   8
ENDBRANCH   3   4
ENDBRANCH   2   3
ENDBRANCH   1   2
BRANCH   1  31
ATOM     31  C   UNL A   1      34.548  33.490  28.747  1.00  0.00     0.002 C 
BRANCH  31  32
ATOM     32  C   UNL A   1      33.236  34.268  28.876  1.00  0.00     0.021 C 
BRANCH  32  33
ATOM     33  C   UNL A   1      33.391  35.743  29.240  1.00  0.00     0.116 C 
BRANCH  33  34
ATOM     34  N   UNL A   1      32.565  36.121  30.374  1.00  0.00    -0.352 N 
ATOM     35  C   UNL A   1      32.678  35.769  31.695  1.00  0.00     0.251 C 
ATOM     36  H   UNL A   1      31.810  36.719  30.163  1.00  0.00     0.163 HD
ATOM     37  O   UNL A   1      31.779  36.041  32.485  1.00  0.00    -0.269 OA
BRANCH  35  38
ATOM     38  C   UNL A   1      33.873  35.041  32.171  1.00  0.00     0.039 A 
ATOM     39  C   UNL A   1      33.728  33.724  32.614  1.00  0.00     0.014 A 
ATOM     40  C   UNL A   1      35.127  35.658  32.205  1.00  0.00     0.014 A 
ATOM     41  C   UNL A   1      34.849  33.004  33.035  1.00  0.00     0.010 A 
ATOM     42  C   UNL A   1      36.253  34.921  32.567  1.00  0.00     0.010 A 
ATOM     43  C   UNL A   1      36.125  33.588  32.986  1.00  0.00    -0.014 A 
BRANCH  43  44
ATOM     44  C   UNL A   1      37.336  32.818  33.366  1.00  0.00     0.031 A 
ATOM     45  C   UNL A   1      38.058  33.125  34.647  1.00  0.00     0.074 A 
ATOM     46  C   UNL A   1      37.822  31.885  32.524  1.00  0.00     0.049 A 
ATOM     47  N   UNL A   1      39.173  32.618  35.113  1.00  0.00    -0.248 NA
ATOM     48  C   UNL A   1      37.464  34.158  35.510  1.00  0.00     0.031 C 
ATOM     49  C   UNL A   1      37.236  31.526  31.232  1.00  0.00     0.029 A 
ATOM     50  N   UNL A   1      38.928  31.078  32.623  1.00  0.00    -0.354 N 
ATOM     51  C   UNL A   1      39.419  33.279  36.308  1.00  0.00     0.074 A 
ATOM     52  C   UNL A   1      38.364  34.254  36.478  1.00  0.00     0.031 C 
ATOM     53  C   UNL A   1      37.980  30.563  30.664  1.00  0.00     0.029 A 
ATOM     54  C   UNL A   1      39.112  30.261  31.535  1.00  0.00     0.049 A 
ATOM     55  H   UNL A   1      39.532  31.085  33.400  1.00  0.00     0.167 HD
ATOM     56  C   UNL A   1      40.426  33.078  37.192  1.00  0.00     0.037 A 
ATOM     57  C   UNL A   1      40.090  29.373  31.266  1.00  0.00     0.037 A 
ATOM     58  C   UNL A   1      41.456  32.086  37.037  1.00  0.00     0.049 A 
ATOM     59  C   UNL A   1      41.191  29.165  32.270  1.00  0.00     0.074 A 
ATOM     60  C   UNL A   1      42.481  31.761  37.909  1.00  0.00     0.029 A 
ATOM     61  N   UNL A   1      41.593  31.255  35.935  1.00  0.00    -0.354 N 
ATOM     62  N   UNL A   1      41.376  29.750  33.428  1.00  0.00    -0.248 NA
ATOM     63  C   UNL A   1      42.215  28.167  31.932  1.00  0.00     0.031 C 
ATOM     64  C   UNL A   1      43.260  30.762  37.318  1.00  0.00     0.029 A 
ATOM     65  C   UNL A   1      42.695  30.432  36.097  1.00  0.00     0.049 A 
ATOM     66  H   UNL A   1      40.995  31.251  35.153  1.00  0.00     0.167 HD
ATOM     67  C   UNL A   1      42.517  29.173  33.969  1.00  0.00     0.074 A 
ATOM     68  C   UNL A   1      42.975  28.182  33.019  1.00  0.00     0.031 C 
ATOM     69  C   UNL A   1      43.130  29.440  35.147  1.00  0.00     0.037 A 
BRANCH  56  70
ATOM     70  C   UNL A   1      40.461  33.943  38.417  1.00  0.00     0.064 A 
ATOM     71  C   UNL A   1      41.198  35.137  38.452  1.00  0.00     0.173 A 
ATOM     72  C   UNL A   1      39.707  33.603  39.551  1.00  0.00     0.173 A 
ATOM     73  F   UNL A   1      41.943  35.500  37.397  1.00  0.00    -0.203 F 
ATOM     74  C   UNL A   1      41.193  35.948  39.583  1.00  0.00     0.198 A 
ATOM     75  C   UNL A   1      39.683  34.431  40.670  1.00  0.00     0.198 A 
ATOM     76  F   UNL A   1      38.980  32.475  39.566  1.00  0.00    -0.203 F 
ATOM     77  F   UNL A   1      41.934  37.064  39.607  1.00  0.00    -0.200 F 
ATOM     78  C   UNL A   1      40.431  35.599  40.688  1.00  0.00     0.200 A 
ATOM     79  F   UNL A   1      38.936  34.099  41.732  1.00  0.00    -0.200 F 
ATOM     80  F   UNL A   1      40.419  36.388  41.771  1.00  0.00    -0.200 F 
ENDBRANCH  56  70
BRANCH  57  81
ATOM     81  C   UNL A   1      40.063  28.598  29.999  1.00  0.00     0.064 A 
ATOM     82  C   UNL A   1      39.454  27.337  29.940  1.00  0.00     0.173 A 
ATOM     83  C   UNL A   1      40.657  29.091  28.829  1.00  0.00     0.173 A 
ATOM     84  F   UNL A   1      38.891  26.814  31.040  1.00  0.00    -0.203 F 
ATOM     85  C   UNL A   1      39.460  26.588  28.766  1.00  0.00     0.198 A 
ATOM     86  C   UNL A   1      40.639  28.354  27.647  1.00  0.00     0.198 A 
ATOM     87  F   UNL A   1      41.250  30.294  28.832  1.00  0.00    -0.203 F 
ATOM     88  F   UNL A   1      38.914  25.366  28.751  1.00  0.00    -0.200 F 
ATOM     89  C   UNL A   1      40.049  27.100  27.619  1.00  0.00     0.200 A 
ATOM     90  F   UNL A   1      41.198  28.856  26.537  1.00  0.00    -0.200 F 
ATOM     91  F   UNL A   1      40.055  26.379  26.489  1.00  0.00    -0.200 F 
ENDBRANCH  57  81
BRANCH  69  92
ATOM     92  C   UNL A   1      44.341  28.626  35.493  1.00  0.00     0.064 A 
ATOM     93  C   UNL A   1      45.632  29.039  35.135  1.00  0.00     0.173 A 
ATOM     94  C   UNL A   1      44.210  27.437  36.226  1.00  0.00     0.173 A 
ATOM     95  F   UNL A   1      45.808  30.161  34.420  1.00  0.00    -0.203 F 
ATOM     96  C   UNL A   1      46.747  28.280  35.479  1.00  0.00     0.198 A 
ATOM     97  C   UNL A   1      45.328  26.694  36.592  1.00  0.00     0.198 A 
ATOM     98  F   UNL A   1      42.997  27.002  36.597  1.00  0.00    -0.203 F 
ATOM     99  F   UNL A   1      47.968  28.671  35.089  1.00  0.00    -0.200 F 
ATOM    100  C   UNL A   1      46.595  27.112  36.213  1.00  0.00     0.200 A 
ATOM    101  F   UNL A   1      45.181  25.573  37.311  1.00  0.00    -0.200 F 
ATOM    102  F   UNL A   1      47.670  26.386  36.549  1.00  0.00    -0.200 F 
ENDBRANCH  69  92
ENDBRANCH  43  44
ENDBRANCH  35  38
ENDBRANCH  33  34
ENDBRANCH  32  33
ENDBRANCH  31  32
ENDBRANCH   1  31
TORSDOF 16
ENDMDL
